MODEL 1
REMARK VINA RESULT:    -3.922      0.000      0.000
REMARK INTER + INTRA:         -14.808
REMARK INTER:                  -9.882
REMARK INTRA:                  -4.926
REMARK UNBOUND:                -4.926
REMARK SMILES CCCCCCCCCCCCCCCCCCCCCCCCCCCC(=O)[O-]
REMARK SMILES IDX 15 1 16 2 17 3 18 4 19 5 20 6 21 7 22 8 23 9 24 10 25 11
REMARK SMILES IDX 26 12 27 13 28 14 29 15 30 16 14 17 13 18 12 19 11 20 10 21
REMARK SMILES IDX 9 22 8 23 7 24 6 25 5 26 4 27 3 28 2 29 1 30
REMARK H PARENT
REMARK Flexibility Score: inf
ROOT
ATOM      1  C   UNL     1      23.248  -6.095 -26.782  1.00  0.00     0.000 C 
ENDROOT
BRANCH   1   2
ATOM      2  C   UNL     1      23.580  -7.597 -26.717  1.00  0.00     0.000 C 
BRANCH   2   3
ATOM      3  C   UNL     1      23.652  -8.306 -28.084  1.00  0.00     0.000 C 
BRANCH   3   4
ATOM      4  C   UNL     1      25.069  -8.710 -28.543  1.00  0.00     0.000 C 
BRANCH   4   5
ATOM      5  C   UNL     1      25.441  -8.272 -29.971  1.00  0.00     0.000 C 
BRANCH   5   6
ATOM      6  C   UNL     1      26.189  -6.931 -30.012  1.00  0.00     0.000 C 
BRANCH   6   7
ATOM      7  C   UNL     1      25.516  -5.959 -30.993  1.00  0.00     0.000 C 
BRANCH   7   8
ATOM      8  C   UNL     1      26.230  -4.600 -31.061  1.00  0.00     0.000 C 
BRANCH   8   9
ATOM      9  C   UNL     1      27.225  -4.392 -29.905  1.00  0.00     0.000 C 
BRANCH   9  10
ATOM     10  C   UNL     1      27.729  -2.935 -29.821  1.00  0.00     0.000 C 
BRANCH  10  11
ATOM     11  C   UNL     1      27.834  -2.393 -28.380  1.00  0.00     0.000 C 
BRANCH  11  12
ATOM     12  C   UNL     1      26.567  -2.571 -27.524  1.00  0.00     0.006 C 
BRANCH  12  13
ATOM     13  C   UNL     1      26.670  -1.883 -26.154  1.00  0.00     0.053 C 
BRANCH  13  14
ATOM     14  C   UNL     1      25.979  -2.699 -25.108  1.00  0.00     0.041 C 
ATOM     15  O   UNL     1      24.778  -3.045 -25.260  1.00  0.00    -0.550 OA
ATOM     16  O   UNL     1      26.657  -3.062 -23.950  1.00  0.00    -0.550 OA
ENDBRANCH  13  14
ENDBRANCH  12  13
ENDBRANCH  11  12
ENDBRANCH  10  11
ENDBRANCH   9  10
ENDBRANCH   8   9
ENDBRANCH   7   8
ENDBRANCH   6   7
ENDBRANCH   5   6
ENDBRANCH   4   5
ENDBRANCH   3   4
ENDBRANCH   2   3
ENDBRANCH   1   2
BRANCH   1  17
ATOM     17  C   UNL     1      23.194  -5.564 -28.223  1.00  0.00     0.000 C 
BRANCH  17  18
ATOM     18  C   UNL     1      23.610  -4.085 -28.280  1.00  0.00     0.000 C 
BRANCH  18  19
ATOM     19  C   UNL     1      23.147  -3.381 -29.570  1.00  0.00     0.000 C 
BRANCH  19  20
ATOM     20  C   UNL     1      22.943  -1.859 -29.448  1.00  0.00     0.000 C 
BRANCH  20  21
ATOM     21  C   UNL     1      24.169  -1.052 -29.908  1.00  0.00     0.000 C 
BRANCH  21  22
ATOM     22  C   UNL     1      24.621  -1.411 -31.337  1.00  0.00    -0.000 C 
BRANCH  22  23
ATOM     23  C   UNL     1      23.541  -1.244 -32.424  1.00  0.00    -0.000 C 
BRANCH  23  24
ATOM     24  C   UNL     1      23.123  -2.545 -33.136  1.00  0.00    -0.000 C 
BRANCH  24  25
ATOM     25  C   UNL     1      21.603  -2.654 -33.387  1.00  0.00    -0.000 C 
BRANCH  25  26
ATOM     26  C   UNL     1      21.172  -4.090 -33.728  1.00  0.00    -0.000 C 
BRANCH  26  27
ATOM     27  C   UNL     1      20.044  -4.605 -32.817  1.00  0.00    -0.000 C 
BRANCH  27  28
ATOM     28  C   UNL     1      20.568  -5.128 -31.468  1.00  0.00    -0.000 C 
BRANCH  28  29
ATOM     29  C   UNL     1      21.868  -5.935 -31.612  1.00  0.00    -0.003 C 
ATOM     30  C   UNL     1      21.707  -7.403 -31.212  1.00  0.00     0.004 C 
ENDBRANCH  28  29
ENDBRANCH  27  28
ENDBRANCH  26  27
ENDBRANCH  25  26
ENDBRANCH  24  25
ENDBRANCH  23  24
ENDBRANCH  22  23
ENDBRANCH  21  22
ENDBRANCH  20  21
ENDBRANCH  19  20
ENDBRANCH  18  19
ENDBRANCH  17  18
ENDBRANCH   1  17
TORSDOF 26
ENDMDL
MODEL 2
REMARK VINA RESULT:    -3.779     15.447     19.048
REMARK INTER + INTRA:         -14.450
REMARK INTER:                  -9.726
REMARK INTRA:                  -4.724
REMARK UNBOUND:                -4.926
REMARK SMILES CCCCCCCCCCCCCCCCCCCCCCCCCCCC(=O)[O-]
REMARK SMILES IDX 15 1 16 2 17 3 18 4 19 5 20 6 21 7 22 8 23 9 24 10 25 11
REMARK SMILES IDX 26 12 27 13 28 14 29 15 30 16 14 17 13 18 12 19 11 20 10 21
REMARK SMILES IDX 9 22 8 23 7 24 6 25 5 26 4 27 3 28 2 29 1 30
REMARK H PARENT
REMARK Flexibility Score: inf
ROOT
ATOM      1  C   UNL     1      11.070 -16.597 -25.822  1.00  0.00     0.000 C 
ENDROOT
BRANCH   1   2
ATOM      2  C   UNL     1       9.602 -16.467 -26.269  1.00  0.00     0.000 C 
BRANCH   2   3
ATOM      3  C   UNL     1       8.602 -17.333 -25.477  1.00  0.00     0.000 C 
BRANCH   3   4
ATOM      4  C   UNL     1       8.320 -18.727 -26.074  1.00  0.00     0.000 C 
BRANCH   4   5
ATOM      5  C   UNL     1       8.665 -19.913 -25.155  1.00  0.00     0.000 C 
BRANCH   5   6
ATOM      6  C   UNL     1      10.177 -20.116 -24.977  1.00  0.00     0.000 C 
BRANCH   6   7
ATOM      7  C   UNL     1      10.645 -19.578 -23.617  1.00  0.00     0.000 C 
BRANCH   7   8
ATOM      8  C   UNL     1       9.548 -19.653 -22.543  1.00  0.00     0.000 C 
BRANCH   8   9
ATOM      9  C   UNL     1       9.257 -18.287 -21.894  1.00  0.00     0.000 C 
BRANCH   9  10
ATOM     10  C   UNL     1      10.373 -17.257 -22.172  1.00  0.00     0.000 C 
BRANCH  10  11
ATOM     11  C   UNL     1       9.883 -15.794 -22.180  1.00  0.00     0.000 C 
BRANCH  11  12
ATOM     12  C   UNL     1      10.933 -14.758 -22.622  1.00  0.00     0.006 C 
BRANCH  12  13
ATOM     13  C   UNL     1      10.346 -13.656 -23.517  1.00  0.00     0.053 C 
BRANCH  13  14
ATOM     14  C   UNL     1      10.199 -12.383 -22.747  1.00  0.00     0.041 C 
ATOM     15  O   UNL     1      10.232 -11.272 -23.339  1.00  0.00    -0.550 OA
ATOM     16  O   UNL     1      10.046 -12.420 -21.365  1.00  0.00    -0.550 OA
ENDBRANCH  13  14
ENDBRANCH  12  13
ENDBRANCH  11  12
ENDBRANCH  10  11
ENDBRANCH   9  10
ENDBRANCH   8   9
ENDBRANCH   7   8
ENDBRANCH   6   7
ENDBRANCH   5   6
ENDBRANCH   4   5
ENDBRANCH   3   4
ENDBRANCH   2   3
ENDBRANCH   1   2
BRANCH   1  17
ATOM     17  C   UNL     1      11.920 -17.405 -26.814  1.00  0.00     0.000 C 
BRANCH  17  18
ATOM     18  C   UNL     1      11.198 -17.557 -28.162  1.00  0.00     0.000 C 
BRANCH  18  19
ATOM     19  C   UNL     1      10.950 -19.027 -28.549  1.00  0.00     0.000 C 
BRANCH  19  20
ATOM     20  C   UNL     1      11.950 -19.616 -29.561  1.00  0.00     0.000 C 
BRANCH  20  21
ATOM     21  C   UNL     1      13.152 -20.300 -28.887  1.00  0.00     0.000 C 
BRANCH  21  22
ATOM     22  C   UNL     1      14.503 -19.692 -29.312  1.00  0.00    -0.000 C 
BRANCH  22  23
ATOM     23  C   UNL     1      14.494 -18.970 -30.674  1.00  0.00    -0.000 C 
BRANCH  23  24
ATOM     24  C   UNL     1      15.071 -17.542 -30.661  1.00  0.00    -0.000 C 
BRANCH  24  25
ATOM     25  C   UNL     1      14.271 -16.558 -29.778  1.00  0.00    -0.000 C 
BRANCH  25  26
ATOM     26  C   UNL     1      15.051 -16.142 -28.520  1.00  0.00    -0.000 C 
BRANCH  26  27
ATOM     27  C   UNL     1      16.561 -16.408 -28.641  1.00  0.00    -0.000 C 
BRANCH  27  28
ATOM     28  C   UNL     1      17.076 -17.382 -27.566  1.00  0.00    -0.000 C 
BRANCH  28  29
ATOM     29  C   UNL     1      17.821 -18.585 -28.167  1.00  0.00    -0.003 C 
ATOM     30  C   UNL     1      19.247 -18.246 -28.603  1.00  0.00     0.004 C 
ENDBRANCH  28  29
ENDBRANCH  27  28
ENDBRANCH  26  27
ENDBRANCH  25  26
ENDBRANCH  24  25
ENDBRANCH  23  24
ENDBRANCH  22  23
ENDBRANCH  21  22
ENDBRANCH  20  21
ENDBRANCH  19  20
ENDBRANCH  18  19
ENDBRANCH  17  18
ENDBRANCH   1  17
TORSDOF 26
ENDMDL
MODEL 3
REMARK VINA RESULT:    -3.709     15.562     18.955
REMARK INTER + INTRA:         -14.273
REMARK INTER:                 -10.014
REMARK INTRA:                  -4.259
REMARK UNBOUND:                -4.926
REMARK SMILES CCCCCCCCCCCCCCCCCCCCCCCCCCCC(=O)[O-]
REMARK SMILES IDX 15 1 16 2 17 3 18 4 19 5 20 6 21 7 22 8 23 9 24 10 25 11
REMARK SMILES IDX 26 12 27 13 28 14 29 15 30 16 14 17 13 18 12 19 11 20 10 21
REMARK SMILES IDX 9 22 8 23 7 24 6 25 5 26 4 27 3 28 2 29 1 30
REMARK H PARENT
REMARK Flexibility Score: inf
ROOT
ATOM      1  C   UNL     1      11.547 -18.112 -23.536  1.00  0.00     0.000 C 
ENDROOT
BRANCH   1   2
ATOM      2  C   UNL     1      10.910 -17.826 -22.163  1.00  0.00     0.000 C 
BRANCH   2   3
ATOM      3  C   UNL     1       9.368 -17.847 -22.146  1.00  0.00     0.000 C 
BRANCH   3   4
ATOM      4  C   UNL     1       8.710 -18.758 -23.204  1.00  0.00     0.000 C 
BRANCH   4   5
ATOM      5  C   UNL     1       7.963 -18.017 -24.328  1.00  0.00     0.000 C 
BRANCH   5   6
ATOM      6  C   UNL     1       8.118 -16.491 -24.250  1.00  0.00     0.000 C 
BRANCH   6   7
ATOM      7  C   UNL     1       8.287 -15.886 -25.651  1.00  0.00     0.000 C 
BRANCH   7   8
ATOM      8  C   UNL     1       8.490 -14.363 -25.616  1.00  0.00     0.000 C 
BRANCH   8   9
ATOM      9  C   UNL     1       8.694 -13.823 -24.189  1.00  0.00     0.000 C 
BRANCH   9  10
ATOM     10  C   UNL     1       9.876 -12.834 -24.102  1.00  0.00     0.000 C 
BRANCH  10  11
ATOM     11  C   UNL     1      10.661 -12.914 -22.775  1.00  0.00     0.000 C 
BRANCH  11  12
ATOM     12  C   UNL     1      10.662 -14.299 -22.103  1.00  0.00     0.006 C 
BRANCH  12  13
ATOM     13  C   UNL     1       9.779 -14.355 -20.847  1.00  0.00     0.053 C 
BRANCH  13  14
ATOM     14  C   UNL     1      10.619 -14.243 -19.615  1.00  0.00     0.041 C 
ATOM     15  O   UNL     1      11.075 -15.276 -19.059  1.00  0.00    -0.550 OA
ATOM     16  O   UNL     1      10.882 -12.993 -19.064  1.00  0.00    -0.550 OA
ENDBRANCH  13  14
ENDBRANCH  12  13
ENDBRANCH  11  12
ENDBRANCH  10  11
ENDBRANCH   9  10
ENDBRANCH   8   9
ENDBRANCH   7   8
ENDBRANCH   6   7
ENDBRANCH   5   6
ENDBRANCH   4   5
ENDBRANCH   3   4
ENDBRANCH   2   3
ENDBRANCH   1   2
BRANCH   1  17
ATOM     17  C   UNL     1      11.741 -16.840 -24.373  1.00  0.00     0.000 C 
BRANCH  17  18
ATOM     18  C   UNL     1      11.632 -17.147 -25.876  1.00  0.00     0.000 C 
BRANCH  18  19
ATOM     19  C   UNL     1      11.144 -18.580 -26.161  1.00  0.00     0.000 C 
BRANCH  19  20
ATOM     20  C   UNL     1      10.167 -18.716 -27.344  1.00  0.00     0.000 C 
BRANCH  20  21
ATOM     21  C   UNL     1      10.391 -17.651 -28.432  1.00  0.00     0.000 C 
BRANCH  21  22
ATOM     22  C   UNL     1      11.098 -18.211 -29.681  1.00  0.00    -0.000 C 
BRANCH  22  23
ATOM     23  C   UNL     1      12.390 -17.475 -30.086  1.00  0.00    -0.000 C 
BRANCH  23  24
ATOM     24  C   UNL     1      13.453 -17.363 -28.976  1.00  0.00    -0.000 C 
BRANCH  24  25
ATOM     25  C   UNL     1      14.468 -18.527 -28.971  1.00  0.00    -0.000 C 
BRANCH  25  26
ATOM     26  C   UNL     1      15.816 -18.126 -29.593  1.00  0.00    -0.000 C 
BRANCH  26  27
ATOM     27  C   UNL     1      16.560 -17.064 -28.764  1.00  0.00    -0.000 C 
BRANCH  27  28
ATOM     28  C   UNL     1      17.451 -17.685 -27.674  1.00  0.00    -0.000 C 
BRANCH  28  29
ATOM     29  C   UNL     1      18.352 -18.807 -28.214  1.00  0.00    -0.003 C 
ATOM     30  C   UNL     1      19.644 -18.283 -28.844  1.00  0.00     0.004 C 
ENDBRANCH  28  29
ENDBRANCH  27  28
ENDBRANCH  26  27
ENDBRANCH  25  26
ENDBRANCH  24  25
ENDBRANCH  23  24
ENDBRANCH  22  23
ENDBRANCH  21  22
ENDBRANCH  20  21
ENDBRANCH  19  20
ENDBRANCH  18  19
ENDBRANCH  17  18
ENDBRANCH   1  17
TORSDOF 26
ENDMDL
MODEL 4
REMARK VINA RESULT:    -3.682      1.287      4.694
REMARK INTER + INTRA:         -14.206
REMARK INTER:                  -9.140
REMARK INTRA:                  -5.066
REMARK UNBOUND:                -4.926
REMARK SMILES CCCCCCCCCCCCCCCCCCCCCCCCCCCC(=O)[O-]
REMARK SMILES IDX 15 1 16 2 17 3 18 4 19 5 20 6 21 7 22 8 23 9 24 10 25 11
REMARK SMILES IDX 26 12 27 13 28 14 29 15 30 16 14 17 13 18 12 19 11 20 10 21
REMARK SMILES IDX 9 22 8 23 7 24 6 25 5 26 4 27 3 28 2 29 1 30
REMARK H PARENT
REMARK Flexibility Score: inf
ROOT
ATOM      1  C   UNL     1      23.635  -2.177 -28.821  1.00  0.00     0.000 C 
ENDROOT
BRANCH   1   2
ATOM      2  C   UNL     1      22.540  -2.378 -29.885  1.00  0.00     0.000 C 
BRANCH   2   3
ATOM      3  C   UNL     1      22.742  -1.573 -31.185  1.00  0.00     0.000 C 
BRANCH   3   4
ATOM      4  C   UNL     1      24.197  -1.498 -31.694  1.00  0.00     0.000 C 
BRANCH   4   5
ATOM      5  C   UNL     1      24.571  -2.546 -32.759  1.00  0.00     0.000 C 
BRANCH   5   6
ATOM      6  C   UNL     1      25.096  -3.857 -32.154  1.00  0.00     0.000 C 
BRANCH   6   7
ATOM      7  C   UNL     1      26.584  -3.735 -31.793  1.00  0.00     0.000 C 
BRANCH   7   8
ATOM      8  C   UNL     1      26.923  -4.404 -30.452  1.00  0.00     0.000 C 
BRANCH   8   9
ATOM      9  C   UNL     1      27.772  -3.505 -29.536  1.00  0.00     0.000 C 
BRANCH   9  10
ATOM     10  C   UNL     1      27.286  -2.039 -29.540  1.00  0.00     0.000 C 
BRANCH  10  11
ATOM     11  C   UNL     1      27.335  -1.362 -28.154  1.00  0.00     0.000 C 
BRANCH  11  12
ATOM     12  C   UNL     1      27.493  -2.326 -26.964  1.00  0.00     0.006 C 
BRANCH  12  13
ATOM     13  C   UNL     1      26.386  -2.163 -25.911  1.00  0.00     0.053 C 
BRANCH  13  14
ATOM     14  C   UNL     1      26.963  -2.229 -24.534  1.00  0.00     0.041 C 
ATOM     15  O   UNL     1      26.422  -2.944 -23.650  1.00  0.00    -0.550 OA
ATOM     16  O   UNL     1      28.092  -1.482 -24.216  1.00  0.00    -0.550 OA
ENDBRANCH  13  14
ENDBRANCH  12  13
ENDBRANCH  11  12
ENDBRANCH  10  11
ENDBRANCH   9  10
ENDBRANCH   8   9
ENDBRANCH   7   8
ENDBRANCH   6   7
ENDBRANCH   5   6
ENDBRANCH   4   5
ENDBRANCH   3   4
ENDBRANCH   2   3
ENDBRANCH   1   2
BRANCH   1  17
ATOM     17  C   UNL     1      24.080  -3.497 -28.174  1.00  0.00     0.000 C 
BRANCH  17  18
ATOM     18  C   UNL     1      23.620  -4.703 -29.011  1.00  0.00     0.000 C 
BRANCH  18  19
ATOM     19  C   UNL     1      22.863  -5.756 -28.180  1.00  0.00     0.000 C 
BRANCH  19  20
ATOM     20  C   UNL     1      23.265  -5.832 -26.695  1.00  0.00     0.000 C 
BRANCH  20  21
ATOM     21  C   UNL     1      23.595  -7.263 -26.237  1.00  0.00     0.000 C 
BRANCH  21  22
ATOM     22  C   UNL     1      23.448  -8.302 -27.365  1.00  0.00    -0.000 C 
BRANCH  22  23
ATOM     23  C   UNL     1      24.735  -8.585 -28.163  1.00  0.00    -0.000 C 
BRANCH  23  24
ATOM     24  C   UNL     1      24.563  -9.534 -29.365  1.00  0.00    -0.000 C 
BRANCH  24  25
ATOM     25  C   UNL     1      23.293  -9.256 -30.198  1.00  0.00    -0.000 C 
BRANCH  25  26
ATOM     26  C   UNL     1      23.455  -8.033 -31.115  1.00  0.00    -0.000 C 
BRANCH  26  27
ATOM     27  C   UNL     1      22.139  -7.261 -31.316  1.00  0.00    -0.000 C 
BRANCH  27  28
ATOM     28  C   UNL     1      22.221  -6.245 -32.469  1.00  0.00    -0.000 C 
BRANCH  28  29
ATOM     29  C   UNL     1      21.395  -4.977 -32.199  1.00  0.00    -0.003 C 
ATOM     30  C   UNL     1      20.365  -5.162 -31.084  1.00  0.00     0.004 C 
ENDBRANCH  28  29
ENDBRANCH  27  28
ENDBRANCH  26  27
ENDBRANCH  25  26
ENDBRANCH  24  25
ENDBRANCH  23  24
ENDBRANCH  22  23
ENDBRANCH  21  22
ENDBRANCH  20  21
ENDBRANCH  19  20
ENDBRANCH  18  19
ENDBRANCH  17  18
ENDBRANCH   1  17
TORSDOF 26
ENDMDL
MODEL 5
REMARK VINA RESULT:    -3.571     15.025     18.365
REMARK INTER + INTRA:         -13.924
REMARK INTER:                 -10.420
REMARK INTRA:                  -3.504
REMARK UNBOUND:                -4.926
REMARK SMILES CCCCCCCCCCCCCCCCCCCCCCCCCCCC(=O)[O-]
REMARK SMILES IDX 15 1 16 2 17 3 18 4 19 5 20 6 21 7 22 8 23 9 24 10 25 11
REMARK SMILES IDX 26 12 27 13 28 14 29 15 30 16 14 17 13 18 12 19 11 20 10 21
REMARK SMILES IDX 9 22 8 23 7 24 6 25 5 26 4 27 3 28 2 29 1 30
REMARK H PARENT
REMARK Flexibility Score: inf
ROOT
ATOM      1  C   UNL     1      11.455 -17.145 -25.042  1.00  0.00     0.000 C 
ENDROOT
BRANCH   1   2
ATOM      2  C   UNL     1      10.516 -16.144 -25.740  1.00  0.00     0.000 C 
BRANCH   2   3
ATOM      3  C   UNL     1       9.012 -16.445 -25.582  1.00  0.00     0.000 C 
BRANCH   3   4
ATOM      4  C   UNL     1       8.181 -16.347 -26.878  1.00  0.00     0.000 C 
BRANCH   4   5
ATOM      5  C   UNL     1       8.735 -17.147 -28.071  1.00  0.00     0.000 C 
BRANCH   5   6
ATOM      6  C   UNL     1       9.056 -18.607 -27.719  1.00  0.00     0.000 C 
BRANCH   6   7
ATOM      7  C   UNL     1      10.185 -19.149 -28.608  1.00  0.00     0.000 C 
BRANCH   7   8
ATOM      8  C   UNL     1      11.345 -19.742 -27.793  1.00  0.00     0.000 C 
BRANCH   8   9
ATOM      9  C   UNL     1      12.713 -19.158 -28.192  1.00  0.00     0.000 C 
BRANCH   9  10
ATOM     10  C   UNL     1      12.650 -17.636 -28.438  1.00  0.00     0.000 C 
BRANCH  10  11
ATOM     11  C   UNL     1      13.622 -17.139 -29.529  1.00  0.00     0.000 C 
BRANCH  11  12
ATOM     12  C   UNL     1      14.704 -16.159 -29.041  1.00  0.00     0.006 C 
BRANCH  12  13
ATOM     13  C   UNL     1      16.115 -16.765 -29.067  1.00  0.00     0.053 C 
BRANCH  13  14
ATOM     14  C   UNL     1      16.524 -17.193 -27.695  1.00  0.00     0.041 C 
ATOM     15  O   UNL     1      15.950 -16.716 -26.681  1.00  0.00    -0.550 OA
ATOM     16  O   UNL     1      17.559 -18.108 -27.531  1.00  0.00    -0.550 OA
ENDBRANCH  13  14
ENDBRANCH  12  13
ENDBRANCH  11  12
ENDBRANCH  10  11
ENDBRANCH   9  10
ENDBRANCH   8   9
ENDBRANCH   7   8
ENDBRANCH   6   7
ENDBRANCH   5   6
ENDBRANCH   4   5
ENDBRANCH   3   4
ENDBRANCH   2   3
ENDBRANCH   1   2
BRANCH   1  17
ATOM     17  C   UNL     1      10.729 -18.008 -24.000  1.00  0.00     0.000 C 
BRANCH  17  18
ATOM     18  C   UNL     1      11.247 -17.713 -22.583  1.00  0.00     0.000 C 
BRANCH  18  19
ATOM     19  C   UNL     1      10.165 -17.119 -21.660  1.00  0.00     0.000 C 
BRANCH  19  20
ATOM     20  C   UNL     1       9.757 -15.668 -21.978  1.00  0.00     0.000 C 
BRANCH  20  21
ATOM     21  C   UNL     1      10.963 -14.755 -22.259  1.00  0.00     0.000 C 
BRANCH  21  22
ATOM     22  C   UNL     1      10.605 -13.549 -23.149  1.00  0.00    -0.000 C 
BRANCH  22  23
ATOM     23  C   UNL     1       9.096 -13.313 -23.353  1.00  0.00    -0.000 C 
BRANCH  23  24
ATOM     24  C   UNL     1       8.736 -12.104 -24.238  1.00  0.00    -0.000 C 
BRANCH  24  25
ATOM     25  C   UNL     1       9.967 -11.327 -24.755  1.00  0.00    -0.000 C 
BRANCH  25  26
ATOM     26  C   UNL     1       9.877  -9.824 -24.446  1.00  0.00    -0.000 C 
BRANCH  26  27
ATOM     27  C   UNL     1       8.922  -9.078 -25.394  1.00  0.00    -0.000 C 
BRANCH  27  28
ATOM     28  C   UNL     1       9.469  -7.705 -25.822  1.00  0.00    -0.000 C 
BRANCH  28  29
ATOM     29  C   UNL     1       8.682  -7.094 -26.993  1.00  0.00    -0.003 C 
ATOM     30  C   UNL     1       9.071  -7.688 -28.347  1.00  0.00     0.004 C 
ENDBRANCH  28  29
ENDBRANCH  27  28
ENDBRANCH  26  27
ENDBRANCH  25  26
ENDBRANCH  24  25
ENDBRANCH  23  24
ENDBRANCH  22  23
ENDBRANCH  21  22
ENDBRANCH  20  21
ENDBRANCH  19  20
ENDBRANCH  18  19
ENDBRANCH  17  18
ENDBRANCH   1  17
TORSDOF 26
ENDMDL
MODEL 6
REMARK VINA RESULT:    -3.540      2.653      6.132
REMARK INTER + INTRA:         -13.846
REMARK INTER:                  -8.825
REMARK INTRA:                  -5.021
REMARK UNBOUND:                -4.926
REMARK SMILES CCCCCCCCCCCCCCCCCCCCCCCCCCCC(=O)[O-]
REMARK SMILES IDX 15 1 16 2 17 3 18 4 19 5 20 6 21 7 22 8 23 9 24 10 25 11
REMARK SMILES IDX 26 12 27 13 28 14 29 15 30 16 14 17 13 18 12 19 11 20 10 21
REMARK SMILES IDX 9 22 8 23 7 24 6 25 5 26 4 27 3 28 2 29 1 30
REMARK H PARENT
REMARK Flexibility Score: inf
ROOT
ATOM      1  C   UNL     1      24.741  -5.238 -29.506  1.00  0.00     0.000 C 
ENDROOT
BRANCH   1   2
ATOM      2  C   UNL     1      23.369  -5.407 -28.829  1.00  0.00     0.000 C 
BRANCH   2   3
ATOM      3  C   UNL     1      23.392  -5.350 -27.288  1.00  0.00     0.000 C 
BRANCH   3   4
ATOM      4  C   UNL     1      23.317  -6.718 -26.577  1.00  0.00     0.000 C 
BRANCH   4   5
ATOM      5  C   UNL     1      23.337  -7.941 -27.512  1.00  0.00     0.000 C 
BRANCH   5   6
ATOM      6  C   UNL     1      24.702  -8.644 -27.553  1.00  0.00     0.000 C 
BRANCH   6   7
ATOM      7  C   UNL     1      25.012  -9.155 -28.968  1.00  0.00     0.000 C 
BRANCH   7   8
ATOM      8  C   UNL     1      24.010  -8.642 -30.013  1.00  0.00     0.000 C 
BRANCH   8   9
ATOM      9  C   UNL     1      23.120  -9.761 -30.584  1.00  0.00     0.000 C 
BRANCH   9  10
ATOM     10  C   UNL     1      21.937  -9.205 -31.408  1.00  0.00     0.000 C 
BRANCH  10  11
ATOM     11  C   UNL     1      21.782  -7.673 -31.321  1.00  0.00     0.000 C 
BRANCH  11  12
ATOM     12  C   UNL     1      21.791  -6.939 -32.675  1.00  0.00     0.006 C 
BRANCH  12  13
ATOM     13  C   UNL     1      21.781  -5.410 -32.526  1.00  0.00     0.053 C 
BRANCH  13  14
ATOM     14  C   UNL     1      20.395  -4.923 -32.250  1.00  0.00     0.041 C 
ATOM     15  O   UNL     1      19.985  -4.802 -31.066  1.00  0.00    -0.550 OA
ATOM     16  O   UNL     1      19.542  -4.619 -33.306  1.00  0.00    -0.550 OA
ENDBRANCH  13  14
ENDBRANCH  12  13
ENDBRANCH  11  12
ENDBRANCH  10  11
ENDBRANCH   9  10
ENDBRANCH   8   9
ENDBRANCH   7   8
ENDBRANCH   6   7
ENDBRANCH   5   6
ENDBRANCH   4   5
ENDBRANCH   3   4
ENDBRANCH   2   3
ENDBRANCH   1   2
BRANCH   1  17
ATOM     17  C   UNL     1      24.628  -4.987 -31.017  1.00  0.00     0.000 C 
BRANCH  17  18
ATOM     18  C   UNL     1      25.819  -4.160 -31.528  1.00  0.00     0.000 C 
BRANCH  18  19
ATOM     19  C   UNL     1      25.570  -3.545 -32.918  1.00  0.00     0.000 C 
BRANCH  19  20
ATOM     20  C   UNL     1      25.544  -2.005 -32.957  1.00  0.00     0.000 C 
BRANCH  20  21
ATOM     21  C   UNL     1      24.216  -1.442 -33.490  1.00  0.00     0.000 C 
BRANCH  21  22
ATOM     22  C   UNL     1      22.984  -2.056 -32.796  1.00  0.00    -0.000 C 
BRANCH  22  23
ATOM     23  C   UNL     1      22.488  -1.293 -31.552  1.00  0.00    -0.000 C 
BRANCH  23  24
ATOM     24  C   UNL     1      22.366  -2.141 -30.271  1.00  0.00    -0.000 C 
BRANCH  24  25
ATOM     25  C   UNL     1      23.158  -1.572 -29.074  1.00  0.00    -0.000 C 
BRANCH  25  26
ATOM     26  C   UNL     1      24.666  -1.484 -29.364  1.00  0.00    -0.000 C 
BRANCH  26  27
ATOM     27  C   UNL     1      25.528  -1.790 -28.127  1.00  0.00    -0.000 C 
BRANCH  27  28
ATOM     28  C   UNL     1      24.681  -2.127 -26.887  1.00  0.00    -0.000 C 
BRANCH  28  29
ATOM     29  C   UNL     1      25.517  -2.727 -25.745  1.00  0.00    -0.003 C 
ATOM     30  C   UNL     1      26.925  -2.135 -25.662  1.00  0.00     0.004 C 
ENDBRANCH  28  29
ENDBRANCH  27  28
ENDBRANCH  26  27
ENDBRANCH  25  26
ENDBRANCH  24  25
ENDBRANCH  23  24
ENDBRANCH  22  23
ENDBRANCH  21  22
ENDBRANCH  20  21
ENDBRANCH  19  20
ENDBRANCH  18  19
ENDBRANCH  17  18
ENDBRANCH   1  17
TORSDOF 26
ENDMDL
MODEL 7
REMARK VINA RESULT:    -3.480      3.582      5.725
REMARK INTER + INTRA:         -13.696
REMARK INTER:                  -8.294
REMARK INTRA:                  -5.401
REMARK UNBOUND:                -4.926
REMARK SMILES CCCCCCCCCCCCCCCCCCCCCCCCCCCC(=O)[O-]
REMARK SMILES IDX 15 1 16 2 17 3 18 4 19 5 20 6 21 7 22 8 23 9 24 10 25 11
REMARK SMILES IDX 26 12 27 13 28 14 29 15 30 16 14 17 13 18 12 19 11 20 10 21
REMARK SMILES IDX 9 22 8 23 7 24 6 25 5 26 4 27 3 28 2 29 1 30
REMARK H PARENT
REMARK Flexibility Score: inf
ROOT
ATOM      1  C   UNL     1      23.259  -7.661 -26.539  1.00  0.00     0.000 C 
ENDROOT
BRANCH   1   2
ATOM      2  C   UNL     1      24.403  -8.163 -27.438  1.00  0.00     0.000 C 
BRANCH   2   3
ATOM      3  C   UNL     1      23.965  -9.092 -28.589  1.00  0.00     0.000 C 
BRANCH   3   4
ATOM      4  C   UNL     1      24.410  -8.649 -29.998  1.00  0.00     0.000 C 
BRANCH   4   5
ATOM      5  C   UNL     1      25.533  -7.595 -30.027  1.00  0.00     0.000 C 
BRANCH   5   6
ATOM      6  C   UNL     1      25.206  -6.392 -30.925  1.00  0.00     0.000 C 
BRANCH   6   7
ATOM      7  C   UNL     1      25.419  -6.741 -32.405  1.00  0.00     0.000 C 
BRANCH   7   8
ATOM      8  C   UNL     1      24.389  -6.067 -33.325  1.00  0.00     0.000 C 
BRANCH   8   9
ATOM      9  C   UNL     1      23.417  -7.072 -33.968  1.00  0.00     0.000 C 
BRANCH   9  10
ATOM     10  C   UNL     1      23.833  -8.536 -33.708  1.00  0.00     0.000 C 
BRANCH  10  11
ATOM     11  C   UNL     1      22.642  -9.507 -33.566  1.00  0.00     0.000 C 
BRANCH  11  12
ATOM     12  C   UNL     1      22.823 -10.609 -32.507  1.00  0.00     0.006 C 
BRANCH  12  13
ATOM     13  C   UNL     1      21.858 -11.789 -32.700  1.00  0.00     0.053 C 
BRANCH  13  14
ATOM     14  C   UNL     1      21.421 -12.328 -31.376  1.00  0.00     0.041 C 
ATOM     15  O   UNL     1      21.966 -11.927 -30.314  1.00  0.00    -0.550 OA
ATOM     16  O   UNL     1      20.422 -13.293 -31.313  1.00  0.00    -0.550 OA
ENDBRANCH  13  14
ENDBRANCH  12  13
ENDBRANCH  11  12
ENDBRANCH  10  11
ENDBRANCH   9  10
ENDBRANCH   8   9
ENDBRANCH   7   8
ENDBRANCH   6   7
ENDBRANCH   5   6
ENDBRANCH   4   5
ENDBRANCH   3   4
ENDBRANCH   2   3
ENDBRANCH   1   2
BRANCH   1  17
ATOM     17  C   UNL     1      23.207  -6.129 -26.449  1.00  0.00     0.000 C 
BRANCH  17  18
ATOM     18  C   UNL     1      23.323  -5.491 -27.843  1.00  0.00     0.000 C 
BRANCH  18  19
ATOM     19  C   UNL     1      24.064  -4.141 -27.825  1.00  0.00     0.000 C 
BRANCH  19  20
ATOM     20  C   UNL     1      24.115  -3.405 -29.177  1.00  0.00     0.000 C 
BRANCH  20  21
ATOM     21  C   UNL     1      22.985  -2.374 -29.342  1.00  0.00     0.000 C 
BRANCH  21  22
ATOM     22  C   UNL     1      22.851  -1.858 -30.788  1.00  0.00    -0.000 C 
BRANCH  22  23
ATOM     23  C   UNL     1      23.672  -2.634 -31.836  1.00  0.00    -0.000 C 
BRANCH  23  24
ATOM     24  C   UNL     1      23.098  -2.607 -33.266  1.00  0.00    -0.000 C 
BRANCH  24  25
ATOM     25  C   UNL     1      21.567  -2.802 -33.323  1.00  0.00    -0.000 C 
BRANCH  25  26
ATOM     26  C   UNL     1      21.177  -4.166 -33.917  1.00  0.00    -0.000 C 
BRANCH  26  27
ATOM     27  C   UNL     1      20.295  -4.997 -32.969  1.00  0.00    -0.000 C 
BRANCH  27  28
ATOM     28  C   UNL     1      20.545  -4.664 -31.488  1.00  0.00    -0.000 C 
BRANCH  28  29
ATOM     29  C   UNL     1      21.615  -5.565 -30.851  1.00  0.00    -0.003 C 
ATOM     30  C   UNL     1      21.349  -7.055 -31.074  1.00  0.00     0.004 C 
ENDBRANCH  28  29
ENDBRANCH  27  28
ENDBRANCH  26  27
ENDBRANCH  25  26
ENDBRANCH  24  25
ENDBRANCH  23  24
ENDBRANCH  22  23
ENDBRANCH  21  22
ENDBRANCH  20  21
ENDBRANCH  19  20
ENDBRANCH  18  19
ENDBRANCH  17  18
ENDBRANCH   1  17
TORSDOF 26
ENDMDL
MODEL 8
REMARK VINA RESULT:    -3.457      1.270      2.109
REMARK INTER + INTRA:         -13.637
REMARK INTER:                  -9.718
REMARK INTRA:                  -3.919
REMARK UNBOUND:                -4.926
REMARK SMILES CCCCCCCCCCCCCCCCCCCCCCCCCCCC(=O)[O-]
REMARK SMILES IDX 15 1 16 2 17 3 18 4 19 5 20 6 21 7 22 8 23 9 24 10 25 11
REMARK SMILES IDX 26 12 27 13 28 14 29 15 30 16 14 17 13 18 12 19 11 20 10 21
REMARK SMILES IDX 9 22 8 23 7 24 6 25 5 26 4 27 3 28 2 29 1 30
REMARK H PARENT
REMARK Flexibility Score: inf
ROOT
ATOM      1  C   UNL     1      23.379  -7.453 -26.629  1.00  0.00     0.000 C 
ENDROOT
BRANCH   1   2
ATOM      2  C   UNL     1      23.798  -8.103 -27.960  1.00  0.00     0.000 C 
BRANCH   2   3
ATOM      3  C   UNL     1      25.173  -8.800 -27.938  1.00  0.00     0.000 C 
BRANCH   3   4
ATOM      4  C   UNL     1      26.008  -8.651 -29.228  1.00  0.00     0.000 C 
BRANCH   4   5
ATOM      5  C   UNL     1      25.675  -7.413 -30.081  1.00  0.00     0.000 C 
BRANCH   5   6
ATOM      6  C   UNL     1      26.897  -6.524 -30.353  1.00  0.00     0.000 C 
BRANCH   6   7
ATOM      7  C   UNL     1      26.490  -5.045 -30.438  1.00  0.00     0.000 C 
BRANCH   7   8
ATOM      8  C   UNL     1      27.677  -4.093 -30.230  1.00  0.00     0.000 C 
BRANCH   8   9
ATOM      9  C   UNL     1      27.307  -2.853 -29.396  1.00  0.00     0.000 C 
BRANCH   9  10
ATOM     10  C   UNL     1      28.125  -2.761 -28.090  1.00  0.00     0.000 C 
BRANCH  10  11
ATOM     11  C   UNL     1      27.518  -1.807 -27.039  1.00  0.00     0.000 C 
BRANCH  11  12
ATOM     12  C   UNL     1      28.079  -1.966 -25.614  1.00  0.00     0.006 C 
BRANCH  12  13
ATOM     13  C   UNL     1      27.222  -1.260 -24.553  1.00  0.00     0.053 C 
BRANCH  13  14
ATOM     14  C   UNL     1      26.409  -2.258 -23.791  1.00  0.00     0.041 C 
ATOM     15  O   UNL     1      26.227  -3.415 -24.251  1.00  0.00    -0.550 OA
ATOM     16  O   UNL     1      25.833  -1.903 -22.577  1.00  0.00    -0.550 OA
ENDBRANCH  13  14
ENDBRANCH  12  13
ENDBRANCH  11  12
ENDBRANCH  10  11
ENDBRANCH   9  10
ENDBRANCH   8   9
ENDBRANCH   7   8
ENDBRANCH   6   7
ENDBRANCH   5   6
ENDBRANCH   4   5
ENDBRANCH   3   4
ENDBRANCH   2   3
ENDBRANCH   1   2
BRANCH   1  17
ATOM     17  C   UNL     1      23.268  -5.924 -26.727  1.00  0.00     0.000 C 
BRANCH  17  18
ATOM     18  C   UNL     1      23.412  -5.454 -28.183  1.00  0.00     0.000 C 
BRANCH  18  19
ATOM     19  C   UNL     1      23.727  -3.951 -28.300  1.00  0.00     0.000 C 
BRANCH  19  20
ATOM     20  C   UNL     1      22.962  -3.206 -29.410  1.00  0.00     0.000 C 
BRANCH  20  21
ATOM     21  C   UNL     1      23.839  -2.193 -30.166  1.00  0.00     0.000 C 
BRANCH  21  22
ATOM     22  C   UNL     1      24.100  -2.603 -31.629  1.00  0.00    -0.000 C 
BRANCH  22  23
ATOM     23  C   UNL     1      23.087  -3.604 -32.217  1.00  0.00    -0.000 C 
BRANCH  23  24
ATOM     24  C   UNL     1      23.583  -5.060 -32.305  1.00  0.00    -0.000 C 
BRANCH  24  25
ATOM     25  C   UNL     1      22.739  -5.946 -33.248  1.00  0.00    -0.000 C 
BRANCH  25  26
ATOM     26  C   UNL     1      21.481  -6.497 -32.556  1.00  0.00    -0.000 C 
BRANCH  26  27
ATOM     27  C   UNL     1      21.774  -7.070 -31.158  1.00  0.00    -0.000 C 
BRANCH  27  28
ATOM     28  C   UNL     1      22.423  -8.465 -31.217  1.00  0.00    -0.000 C 
BRANCH  28  29
ATOM     29  C   UNL     1      21.720  -9.402 -32.212  1.00  0.00    -0.003 C 
ATOM     30  C   UNL     1      20.580 -10.200 -31.576  1.00  0.00     0.004 C 
ENDBRANCH  28  29
ENDBRANCH  27  28
ENDBRANCH  26  27
ENDBRANCH  25  26
ENDBRANCH  24  25
ENDBRANCH  23  24
ENDBRANCH  22  23
ENDBRANCH  21  22
ENDBRANCH  20  21
ENDBRANCH  19  20
ENDBRANCH  18  19
ENDBRANCH  17  18
ENDBRANCH   1  17
TORSDOF 26
ENDMDL
MODEL 9
REMARK VINA RESULT:    -3.424      2.258      5.248
REMARK INTER + INTRA:         -13.556
REMARK INTER:                  -7.655
REMARK INTRA:                  -5.901
REMARK UNBOUND:                -4.926
REMARK SMILES CCCCCCCCCCCCCCCCCCCCCCCCCCCC(=O)[O-]
REMARK SMILES IDX 15 1 16 2 17 3 18 4 19 5 20 6 21 7 22 8 23 9 24 10 25 11
REMARK SMILES IDX 26 12 27 13 28 14 29 15 30 16 14 17 13 18 12 19 11 20 10 21
REMARK SMILES IDX 9 22 8 23 7 24 6 25 5 26 4 27 3 28 2 29 1 30
REMARK H PARENT
REMARK Flexibility Score: inf
ROOT
ATOM      1  C   UNL     1      23.594  -7.707 -26.826  1.00  0.00     0.000 C 
ENDROOT
BRANCH   1   2
ATOM      2  C   UNL     1      23.218  -6.220 -26.691  1.00  0.00     0.000 C 
BRANCH   2   3
ATOM      3  C   UNL     1      23.393  -5.386 -27.976  1.00  0.00     0.000 C 
BRANCH   3   4
ATOM      4  C   UNL     1      24.004  -3.984 -27.772  1.00  0.00     0.000 C 
BRANCH   4   5
ATOM      5  C   UNL     1      24.664  -3.752 -26.401  1.00  0.00     0.000 C 
BRANCH   5   6
ATOM      6  C   UNL     1      25.212  -2.327 -26.230  1.00  0.00     0.000 C 
BRANCH   6   7
ATOM      7  C   UNL     1      26.747  -2.322 -26.275  1.00  0.00     0.000 C 
BRANCH   7   8
ATOM      8  C   UNL     1      27.298  -1.632 -27.533  1.00  0.00     0.000 C 
BRANCH   8   9
ATOM      9  C   UNL     1      27.425  -2.591 -28.731  1.00  0.00     0.000 C 
BRANCH   9  10
ATOM     10  C   UNL     1      26.610  -2.113 -29.952  1.00  0.00     0.000 C 
BRANCH  10  11
ATOM     11  C   UNL     1      25.649  -0.946 -29.643  1.00  0.00     0.000 C 
BRANCH  11  12
ATOM     12  C   UNL     1      24.177  -1.199 -30.016  1.00  0.00     0.006 C 
BRANCH  12  13
ATOM     13  C   UNL     1      24.012  -2.262 -31.114  1.00  0.00     0.053 C 
BRANCH  13  14
ATOM     14  C   UNL     1      22.587  -2.705 -31.200  1.00  0.00     0.041 C 
ATOM     15  O   UNL     1      21.824  -2.595 -30.205  1.00  0.00    -0.550 OA
ATOM     16  O   UNL     1      22.103  -3.262 -32.379  1.00  0.00    -0.550 OA
ENDBRANCH  13  14
ENDBRANCH  12  13
ENDBRANCH  11  12
ENDBRANCH  10  11
ENDBRANCH   9  10
ENDBRANCH   8   9
ENDBRANCH   7   8
ENDBRANCH   6   7
ENDBRANCH   5   6
ENDBRANCH   4   5
ENDBRANCH   3   4
ENDBRANCH   2   3
ENDBRANCH   1   2
BRANCH   1  17
ATOM     17  C   UNL     1      24.318  -8.015 -28.146  1.00  0.00     0.000 C 
BRANCH  17  18
ATOM     18  C   UNL     1      23.784  -9.311 -28.778  1.00  0.00     0.000 C 
BRANCH  18  19
ATOM     19  C   UNL     1      24.741  -9.906 -29.827  1.00  0.00     0.000 C 
BRANCH  19  20
ATOM     20  C   UNL     1      26.137  -9.257 -29.884  1.00  0.00     0.000 C 
BRANCH  20  21
ATOM     21  C   UNL     1      26.623  -9.007 -31.321  1.00  0.00     0.000 C 
BRANCH  21  22
ATOM     22  C   UNL     1      27.563  -7.791 -31.432  1.00  0.00    -0.000 C 
BRANCH  22  23
ATOM     23  C   UNL     1      27.437  -6.762 -30.291  1.00  0.00    -0.000 C 
BRANCH  23  24
ATOM     24  C   UNL     1      26.358  -5.683 -30.501  1.00  0.00    -0.000 C 
BRANCH  24  25
ATOM     25  C   UNL     1      26.155  -5.289 -31.980  1.00  0.00    -0.000 C 
BRANCH  25  26
ATOM     26  C   UNL     1      24.770  -5.701 -32.507  1.00  0.00    -0.000 C 
BRANCH  26  27
ATOM     27  C   UNL     1      23.851  -6.244 -31.398  1.00  0.00    -0.000 C 
BRANCH  27  28
ATOM     28  C   UNL     1      22.895  -7.337 -31.908  1.00  0.00    -0.000 C 
BRANCH  28  29
ATOM     29  C   UNL     1      21.631  -7.468 -31.043  1.00  0.00    -0.003 C 
ATOM     30  C   UNL     1      20.990  -6.118 -30.716  1.00  0.00     0.004 C 
ENDBRANCH  28  29
ENDBRANCH  27  28
ENDBRANCH  26  27
ENDBRANCH  25  26
ENDBRANCH  24  25
ENDBRANCH  23  24
ENDBRANCH  22  23
ENDBRANCH  21  22
ENDBRANCH  20  21
ENDBRANCH  19  20
ENDBRANCH  18  19
ENDBRANCH  17  18
ENDBRANCH   1  17
TORSDOF 26
ENDMDL
