MODEL 1
REMARK VINA RESULT:    -3.565      0.000      0.000
REMARK INTER + INTRA:         -14.220
REMARK INTER:                  -9.399
REMARK INTRA:                  -4.820
REMARK UNBOUND:                -4.820
REMARK SMILES CCCCCCCCCCCCCCCCCCCCCCCCCCCCCC(=O)[O-]
REMARK SMILES IDX 16 1 17 2 18 3 19 4 20 5 21 6 22 7 23 8 24 9 25 10 26 11
REMARK SMILES IDX 27 12 28 13 29 14 30 15 31 16 32 17 15 18 14 19 13 20 12 21
REMARK SMILES IDX 11 22 10 23 9 24 8 25 7 26 6 27 5 28 4 29 3 30 2 31 1 32
REMARK H PARENT
REMARK Flexibility Score: inf
ROOT
ATOM      1  C   UNL     1     -25.004 -15.424   4.885  1.00  0.00     0.000 C 
ENDROOT
BRANCH   1   2
ATOM      2  C   UNL     1     -26.389 -15.770   5.452  1.00  0.00     0.000 C 
BRANCH   2   3
ATOM      3  C   UNL     1     -27.422 -16.056   4.348  1.00  0.00     0.000 C 
BRANCH   3   4
ATOM      4  C   UNL     1     -28.791 -16.470   4.919  1.00  0.00     0.000 C 
BRANCH   4   5
ATOM      5  C   UNL     1     -28.775 -17.825   5.654  1.00  0.00     0.000 C 
BRANCH   5   6
ATOM      6  C   UNL     1     -29.426 -18.952   4.831  1.00  0.00     0.000 C 
BRANCH   6   7
ATOM      7  C   UNL     1     -30.627 -18.457   3.994  1.00  0.00     0.000 C 
BRANCH   7   8
ATOM      8  C   UNL     1     -30.596 -18.921   2.525  1.00  0.00     0.000 C 
BRANCH   8   9
ATOM      9  C   UNL     1     -31.111 -17.886   1.509  1.00  0.00     0.000 C 
BRANCH   9  10
ATOM     10  C   UNL     1     -30.225 -16.634   1.342  1.00  0.00     0.000 C 
BRANCH  10  11
ATOM     11  C   UNL     1     -30.700 -15.391   2.114  1.00  0.00     0.000 C 
BRANCH  11  12
ATOM     12  C   UNL     1     -29.724 -14.210   2.002  1.00  0.00     0.000 C 
BRANCH  12  13
ATOM     13  C   UNL     1     -30.330 -13.078   1.159  1.00  0.00     0.006 C 
BRANCH  13  14
ATOM     14  C   UNL     1     -29.300 -11.993   0.815  1.00  0.00     0.053 C 
BRANCH  14  15
ATOM     15  C   UNL     1     -29.761 -11.124  -0.313  1.00  0.00     0.041 C 
ATOM     16  O   UNL     1     -29.337 -11.324  -1.482  1.00  0.00    -0.550 OA
ATOM     17  O   UNL     1     -30.641 -10.076  -0.070  1.00  0.00    -0.550 OA
ENDBRANCH  14  15
ENDBRANCH  13  14
ENDBRANCH  12  13
ENDBRANCH  11  12
ENDBRANCH  10  11
ENDBRANCH   9  10
ENDBRANCH   8   9
ENDBRANCH   7   8
ENDBRANCH   6   7
ENDBRANCH   5   6
ENDBRANCH   4   5
ENDBRANCH   3   4
ENDBRANCH   2   3
ENDBRANCH   1   2
BRANCH   1  18
ATOM     18  C   UNL     1     -25.010 -15.256   3.355  1.00  0.00     0.000 C 
BRANCH  18  19
ATOM     19  C   UNL     1     -23.685 -14.688   2.819  1.00  0.00     0.000 C 
BRANCH  19  20
ATOM     20  C   UNL     1     -23.085 -13.625   3.755  1.00  0.00     0.000 C 
BRANCH  20  21
ATOM     21  C   UNL     1     -21.652 -13.225   3.366  1.00  0.00     0.000 C 
BRANCH  21  22
ATOM     22  C   UNL     1     -21.055 -12.049   4.166  1.00  0.00     0.000 C 
BRANCH  22  23
ATOM     23  C   UNL     1     -22.050 -11.295   5.067  1.00  0.00     0.000 C 
BRANCH  23  24
ATOM     24  C   UNL     1     -22.709 -10.060   4.424  1.00  0.00    -0.000 C 
BRANCH  24  25
ATOM     25  C   UNL     1     -24.247 -10.021   4.570  1.00  0.00    -0.000 C 
BRANCH  25  26
ATOM     26  C   UNL     1     -24.735 -10.678   5.872  1.00  0.00    -0.000 C 
BRANCH  26  27
ATOM     27  C   UNL     1     -25.591 -11.932   5.617  1.00  0.00    -0.000 C 
BRANCH  27  28
ATOM     28  C   UNL     1     -26.384 -11.849   4.303  1.00  0.00    -0.000 C 
BRANCH  28  29
ATOM     29  C   UNL     1     -27.834 -12.316   4.504  1.00  0.00    -0.000 C 
BRANCH  29  30
ATOM     30  C   UNL     1     -28.231 -12.388   5.987  1.00  0.00    -0.000 C 
BRANCH  30  31
ATOM     31  C   UNL     1     -29.558 -13.132   6.209  1.00  0.00    -0.003 C 
ATOM     32  C   UNL     1     -30.574 -12.774   5.129  1.00  0.00     0.004 C 
ENDBRANCH  30  31
ENDBRANCH  29  30
ENDBRANCH  28  29
ENDBRANCH  27  28
ENDBRANCH  26  27
ENDBRANCH  25  26
ENDBRANCH  24  25
ENDBRANCH  23  24
ENDBRANCH  22  23
ENDBRANCH  21  22
ENDBRANCH  20  21
ENDBRANCH  19  20
ENDBRANCH  18  19
ENDBRANCH   1  18
TORSDOF 28
ENDMDL
MODEL 2
REMARK VINA RESULT:    -3.498      1.403      7.105
REMARK INTER + INTRA:         -14.045
REMARK INTER:                  -9.238
REMARK INTRA:                  -4.807
REMARK UNBOUND:                -4.820
REMARK SMILES CCCCCCCCCCCCCCCCCCCCCCCCCCCCCC(=O)[O-]
REMARK SMILES IDX 16 1 17 2 18 3 19 4 20 5 21 6 22 7 23 8 24 9 25 10 26 11
REMARK SMILES IDX 27 12 28 13 29 14 30 15 31 16 32 17 15 18 14 19 13 20 12 21
REMARK SMILES IDX 11 22 10 23 9 24 8 25 7 26 6 27 5 28 4 29 3 30 2 31 1 32
REMARK H PARENT
REMARK Flexibility Score: inf
ROOT
ATOM      1  C   UNL     1     -23.318 -14.385   3.020  1.00  0.00     0.000 C 
ENDROOT
BRANCH   1   2
ATOM      2  C   UNL     1     -22.816 -13.265   3.944  1.00  0.00     0.000 C 
BRANCH   2   3
ATOM      3  C   UNL     1     -21.383 -12.819   3.602  1.00  0.00     0.000 C 
BRANCH   3   4
ATOM      4  C   UNL     1     -20.923 -11.622   4.455  1.00  0.00     0.000 C 
BRANCH   4   5
ATOM      5  C   UNL     1     -21.648 -11.507   5.810  1.00  0.00     0.000 C 
BRANCH   5   6
ATOM      6  C   UNL     1     -22.186 -10.089   6.075  1.00  0.00     0.000 C 
BRANCH   6   7
ATOM      7  C   UNL     1     -23.728 -10.022   6.028  1.00  0.00     0.000 C 
BRANCH   7   8
ATOM      8  C   UNL     1     -24.303  -9.906   4.604  1.00  0.00     0.000 C 
BRANCH   8   9
ATOM      9  C   UNL     1     -25.804 -10.229   4.484  1.00  0.00     0.000 C 
BRANCH   9  10
ATOM     10  C   UNL     1     -26.176 -11.708   4.716  1.00  0.00     0.000 C 
BRANCH  10  11
ATOM     11  C   UNL     1     -26.862 -12.403   3.527  1.00  0.00     0.000 C 
BRANCH  11  12
ATOM     12  C   UNL     1     -28.384 -12.191   3.507  1.00  0.00     0.000 C 
BRANCH  12  13
ATOM     13  C   UNL     1     -28.988 -12.681   2.183  1.00  0.00     0.006 C 
BRANCH  13  14
ATOM     14  C   UNL     1     -29.764 -11.577   1.453  1.00  0.00     0.053 C 
BRANCH  14  15
ATOM     15  C   UNL     1     -31.024 -12.096   0.836  1.00  0.00     0.041 C 
ATOM     16  O   UNL     1     -31.191 -12.038  -0.412  1.00  0.00    -0.550 OA
ATOM     17  O   UNL     1     -32.027 -12.624   1.640  1.00  0.00    -0.550 OA
ENDBRANCH  14  15
ENDBRANCH  13  14
ENDBRANCH  12  13
ENDBRANCH  11  12
ENDBRANCH  10  11
ENDBRANCH   9  10
ENDBRANCH   8   9
ENDBRANCH   7   8
ENDBRANCH   6   7
ENDBRANCH   5   6
ENDBRANCH   4   5
ENDBRANCH   3   4
ENDBRANCH   2   3
ENDBRANCH   1   2
BRANCH   1  18
ATOM     18  C   UNL     1     -24.526 -15.141   3.601  1.00  0.00     0.000 C 
BRANCH  18  19
ATOM     19  C   UNL     1     -24.624 -15.009   5.130  1.00  0.00     0.000 C 
BRANCH  19  20
ATOM     20  C   UNL     1     -25.715 -15.916   5.726  1.00  0.00     0.000 C 
BRANCH  20  21
ATOM     21  C   UNL     1     -27.084 -15.223   5.821  1.00  0.00     0.000 C 
BRANCH  21  22
ATOM     22  C   UNL     1     -28.139 -15.705   4.805  1.00  0.00     0.000 C 
BRANCH  22  23
ATOM     23  C   UNL     1     -29.578 -15.230   5.076  1.00  0.00     0.000 C 
BRANCH  23  24
ATOM     24  C   UNL     1     -30.547 -16.322   5.566  1.00  0.00    -0.000 C 
BRANCH  24  25
ATOM     25  C   UNL     1     -31.812 -16.478   4.694  1.00  0.00    -0.000 C 
BRANCH  25  26
ATOM     26  C   UNL     1     -31.690 -15.760   3.339  1.00  0.00    -0.000 C 
BRANCH  26  27
ATOM     27  C   UNL     1     -31.462 -16.735   2.171  1.00  0.00    -0.000 C 
BRANCH  27  28
ATOM     28  C   UNL     1     -30.165 -16.442   1.399  1.00  0.00    -0.000 C 
BRANCH  28  29
ATOM     29  C   UNL     1     -29.006 -17.304   1.922  1.00  0.00    -0.000 C 
BRANCH  29  30
ATOM     30  C   UNL     1     -29.437 -18.745   2.238  1.00  0.00    -0.000 C 
BRANCH  30  31
ATOM     31  C   UNL     1     -29.169 -19.136   3.700  1.00  0.00    -0.003 C 
ATOM     32  C   UNL     1     -30.338 -19.928   4.279  1.00  0.00     0.004 C 
ENDBRANCH  30  31
ENDBRANCH  29  30
ENDBRANCH  28  29
ENDBRANCH  27  28
ENDBRANCH  26  27
ENDBRANCH  25  26
ENDBRANCH  24  25
ENDBRANCH  23  24
ENDBRANCH  22  23
ENDBRANCH  21  22
ENDBRANCH  20  21
ENDBRANCH  19  20
ENDBRANCH  18  19
ENDBRANCH   1  18
TORSDOF 28
ENDMDL
MODEL 3
REMARK VINA RESULT:    -3.396      3.306      5.033
REMARK INTER + INTRA:         -13.775
REMARK INTER:                  -9.550
REMARK INTRA:                  -4.224
REMARK UNBOUND:                -4.820
REMARK SMILES CCCCCCCCCCCCCCCCCCCCCCCCCCCCCC(=O)[O-]
REMARK SMILES IDX 16 1 17 2 18 3 19 4 20 5 21 6 22 7 23 8 24 9 25 10 26 11
REMARK SMILES IDX 27 12 28 13 29 14 30 15 31 16 32 17 15 18 14 19 13 20 12 21
REMARK SMILES IDX 11 22 10 23 9 24 8 25 7 26 6 27 5 28 4 29 3 30 2 31 1 32
REMARK H PARENT
REMARK Flexibility Score: inf
ROOT
ATOM      1  C   UNL     1     -24.975 -15.373   4.397  1.00  0.00     0.000 C 
ENDROOT
BRANCH   1   2
ATOM      2  C   UNL     1     -26.373 -15.994   4.542  1.00  0.00     0.000 C 
BRANCH   2   3
ATOM      3  C   UNL     1     -26.877 -16.622   3.230  1.00  0.00     0.000 C 
BRANCH   3   4
ATOM      4  C   UNL     1     -28.401 -16.844   3.233  1.00  0.00     0.000 C 
BRANCH   4   5
ATOM      5  C   UNL     1     -29.013 -16.979   1.826  1.00  0.00     0.000 C 
BRANCH   5   6
ATOM      6  C   UNL     1     -30.448 -16.425   1.749  1.00  0.00     0.000 C 
BRANCH   6   7
ATOM      7  C   UNL     1     -31.095 -16.262   3.142  1.00  0.00     0.000 C 
BRANCH   7   8
ATOM      8  C   UNL     1     -32.116 -17.363   3.487  1.00  0.00     0.000 C 
BRANCH   8   9
ATOM      9  C   UNL     1     -31.513 -18.626   4.128  1.00  0.00     0.000 C 
BRANCH   9  10
ATOM     10  C   UNL     1     -31.123 -19.742   3.138  1.00  0.00     0.000 C 
BRANCH  10  11
ATOM     11  C   UNL     1     -29.792 -20.451   3.444  1.00  0.00     0.000 C 
BRANCH  11  12
ATOM     12  C   UNL     1     -29.410 -21.490   2.378  1.00  0.00     0.000 C 
BRANCH  12  13
ATOM     13  C   UNL     1     -29.930 -21.071   0.995  1.00  0.00     0.006 C 
BRANCH  13  14
ATOM     14  C   UNL     1     -29.534 -22.068  -0.103  1.00  0.00     0.053 C 
BRANCH  14  15
ATOM     15  C   UNL     1     -28.065 -22.353  -0.094  1.00  0.00     0.041 C 
ATOM     16  O   UNL     1     -27.644 -23.512   0.167  1.00  0.00    -0.550 OA
ATOM     17  O   UNL     1     -27.157 -21.333  -0.350  1.00  0.00    -0.550 OA
ENDBRANCH  14  15
ENDBRANCH  13  14
ENDBRANCH  12  13
ENDBRANCH  11  12
ENDBRANCH  10  11
ENDBRANCH   9  10
ENDBRANCH   8   9
ENDBRANCH   7   8
ENDBRANCH   6   7
ENDBRANCH   5   6
ENDBRANCH   4   5
ENDBRANCH   3   4
ENDBRANCH   2   3
ENDBRANCH   1   2
BRANCH   1  18
ATOM     18  C   UNL     1     -24.402 -15.519   2.976  1.00  0.00     0.000 C 
BRANCH  18  19
ATOM     19  C   UNL     1     -23.146 -14.658   2.757  1.00  0.00     0.000 C 
BRANCH  19  20
ATOM     20  C   UNL     1     -23.006 -13.550   3.815  1.00  0.00     0.000 C 
BRANCH  20  21
ATOM     21  C   UNL     1     -21.661 -12.809   3.731  1.00  0.00     0.000 C 
BRANCH  21  22
ATOM     22  C   UNL     1     -21.591 -11.479   4.508  1.00  0.00     0.000 C 
BRANCH  22  23
ATOM     23  C   UNL     1     -22.893 -11.063   5.217  1.00  0.00     0.000 C 
BRANCH  23  24
ATOM     24  C   UNL     1     -23.635  -9.875   4.577  1.00  0.00    -0.000 C 
BRANCH  24  25
ATOM     25  C   UNL     1     -25.171 -10.036   4.546  1.00  0.00    -0.000 C 
BRANCH  25  26
ATOM     26  C   UNL     1     -25.627 -11.447   4.955  1.00  0.00    -0.000 C 
BRANCH  26  27
ATOM     27  C   UNL     1     -26.486 -12.128   3.875  1.00  0.00    -0.000 C 
BRANCH  27  28
ATOM     28  C   UNL     1     -27.859 -12.573   4.405  1.00  0.00    -0.000 C 
BRANCH  28  29
ATOM     29  C   UNL     1     -28.684 -13.248   3.299  1.00  0.00    -0.000 C 
BRANCH  29  30
ATOM     30  C   UNL     1     -28.882 -12.343   2.072  1.00  0.00    -0.000 C 
BRANCH  30  31
ATOM     31  C   UNL     1     -30.006 -12.836   1.148  1.00  0.00    -0.003 C 
ATOM     32  C   UNL     1     -31.360 -12.770   1.849  1.00  0.00     0.004 C 
ENDBRANCH  30  31
ENDBRANCH  29  30
ENDBRANCH  28  29
ENDBRANCH  27  28
ENDBRANCH  26  27
ENDBRANCH  25  26
ENDBRANCH  24  25
ENDBRANCH  23  24
ENDBRANCH  22  23
ENDBRANCH  21  22
ENDBRANCH  20  21
ENDBRANCH  19  20
ENDBRANCH  18  19
ENDBRANCH   1  18
TORSDOF 28
ENDMDL
MODEL 4
REMARK VINA RESULT:    -3.331     12.348     15.622
REMARK INTER + INTRA:         -13.603
REMARK INTER:                  -9.368
REMARK INTRA:                  -4.235
REMARK UNBOUND:                -4.820
REMARK SMILES CCCCCCCCCCCCCCCCCCCCCCCCCCCCCC(=O)[O-]
REMARK SMILES IDX 16 1 17 2 18 3 19 4 20 5 21 6 22 7 23 8 24 9 25 10 26 11
REMARK SMILES IDX 27 12 28 13 29 14 30 15 31 16 32 17 15 18 14 19 13 20 12 21
REMARK SMILES IDX 11 22 10 23 9 24 8 25 7 26 6 27 5 28 4 29 3 30 2 31 1 32
REMARK H PARENT
REMARK Flexibility Score: inf
ROOT
ATOM      1  C   UNL     1     -18.834 -27.163  -2.686  1.00  0.00     0.000 C 
ENDROOT
BRANCH   1   2
ATOM      2  C   UNL     1     -19.047 -25.642  -2.733  1.00  0.00     0.000 C 
BRANCH   2   3
ATOM      3  C   UNL     1     -20.467 -25.260  -3.185  1.00  0.00     0.000 C 
BRANCH   3   4
ATOM      4  C   UNL     1     -20.798 -23.784  -2.895  1.00  0.00     0.000 C 
BRANCH   4   5
ATOM      5  C   UNL     1     -22.233 -23.380  -3.284  1.00  0.00     0.000 C 
BRANCH   5   6
ATOM      6  C   UNL     1     -22.269 -22.388  -4.462  1.00  0.00     0.000 C 
BRANCH   6   7
ATOM      7  C   UNL     1     -21.473 -22.893  -5.686  1.00  0.00     0.000 C 
BRANCH   7   8
ATOM      8  C   UNL     1     -20.400 -21.905  -6.181  1.00  0.00     0.000 C 
BRANCH   8   9
ATOM      9  C   UNL     1     -18.977 -22.181  -5.661  1.00  0.00     0.000 C 
BRANCH   9  10
ATOM     10  C   UNL     1     -18.212 -20.942  -5.154  1.00  0.00     0.000 C 
BRANCH  10  11
ATOM     11  C   UNL     1     -19.000 -20.037  -4.191  1.00  0.00     0.000 C 
BRANCH  11  12
ATOM     12  C   UNL     1     -18.770 -18.541  -4.455  1.00  0.00     0.000 C 
BRANCH  12  13
ATOM     13  C   UNL     1     -17.413 -18.089  -3.896  1.00  0.00     0.006 C 
BRANCH  13  14
ATOM     14  C   UNL     1     -17.504 -16.745  -3.161  1.00  0.00     0.053 C 
BRANCH  14  15
ATOM     15  C   UNL     1     -16.283 -15.906  -3.377  1.00  0.00     0.041 C 
ATOM     16  O   UNL     1     -16.383 -14.654  -3.474  1.00  0.00    -0.550 OA
ATOM     17  O   UNL     1     -15.037 -16.509  -3.495  1.00  0.00    -0.550 OA
ENDBRANCH  14  15
ENDBRANCH  13  14
ENDBRANCH  12  13
ENDBRANCH  11  12
ENDBRANCH  10  11
ENDBRANCH   9  10
ENDBRANCH   8   9
ENDBRANCH   7   8
ENDBRANCH   6   7
ENDBRANCH   5   6
ENDBRANCH   4   5
ENDBRANCH   3   4
ENDBRANCH   2   3
ENDBRANCH   1   2
BRANCH   1  18
ATOM     18  C   UNL     1     -18.034 -27.617  -1.452  1.00  0.00     0.000 C 
BRANCH  18  19
ATOM     19  C   UNL     1     -18.927 -28.241  -0.367  1.00  0.00     0.000 C 
BRANCH  19  20
ATOM     20  C   UNL     1     -19.330 -29.687  -0.704  1.00  0.00     0.000 C 
BRANCH  20  21
ATOM     21  C   UNL     1     -20.839 -29.843  -0.959  1.00  0.00     0.000 C 
BRANCH  21  22
ATOM     22  C   UNL     1     -21.262 -29.840  -2.442  1.00  0.00     0.000 C 
BRANCH  22  23
ATOM     23  C   UNL     1     -22.203 -28.694  -2.854  1.00  0.00     0.000 C 
BRANCH  23  24
ATOM     24  C   UNL     1     -23.169 -28.212  -1.756  1.00  0.00    -0.000 C 
BRANCH  24  25
ATOM     25  C   UNL     1     -23.568 -26.724  -1.877  1.00  0.00    -0.000 C 
BRANCH  25  26
ATOM     26  C   UNL     1     -23.199 -25.908  -0.626  1.00  0.00    -0.000 C 
BRANCH  26  27
ATOM     27  C   UNL     1     -21.867 -26.357   0.001  1.00  0.00    -0.000 C 
BRANCH  27  28
ATOM     28  C   UNL     1     -21.884 -26.290   1.537  1.00  0.00    -0.000 C 
BRANCH  28  29
ATOM     29  C   UNL     1     -21.621 -27.673   2.151  1.00  0.00    -0.000 C 
BRANCH  29  30
ATOM     30  C   UNL     1     -22.796 -28.643   1.950  1.00  0.00    -0.000 C 
BRANCH  30  31
ATOM     31  C   UNL     1     -23.294 -29.251   3.271  1.00  0.00    -0.003 C 
ATOM     32  C   UNL     1     -24.814 -29.156   3.379  1.00  0.00     0.004 C 
ENDBRANCH  30  31
ENDBRANCH  29  30
ENDBRANCH  28  29
ENDBRANCH  27  28
ENDBRANCH  26  27
ENDBRANCH  25  26
ENDBRANCH  24  25
ENDBRANCH  23  24
ENDBRANCH  22  23
ENDBRANCH  21  22
ENDBRANCH  20  21
ENDBRANCH  19  20
ENDBRANCH  18  19
ENDBRANCH   1  18
TORSDOF 28
ENDMDL
MODEL 5
REMARK VINA RESULT:    -3.329     13.246     15.651
REMARK INTER + INTRA:         -13.600
REMARK INTER:                  -7.389
REMARK INTRA:                  -6.211
REMARK UNBOUND:                -4.820
REMARK SMILES CCCCCCCCCCCCCCCCCCCCCCCCCCCCCC(=O)[O-]
REMARK SMILES IDX 16 1 17 2 18 3 19 4 20 5 21 6 22 7 23 8 24 9 25 10 26 11
REMARK SMILES IDX 27 12 28 13 29 14 30 15 31 16 32 17 15 18 14 19 13 20 12 21
REMARK SMILES IDX 11 22 10 23 9 24 8 25 7 26 6 27 5 28 4 29 3 30 2 31 1 32
REMARK H PARENT
REMARK Flexibility Score: inf
ROOT
ATOM      1  C   UNL     1     -19.594 -26.183  -5.260  1.00  0.00     0.000 C 
ENDROOT
BRANCH   1   2
ATOM      2  C   UNL     1     -18.386 -25.867  -4.364  1.00  0.00     0.000 C 
BRANCH   2   3
ATOM      3  C   UNL     1     -18.705 -26.031  -2.867  1.00  0.00     0.000 C 
BRANCH   3   4
ATOM      4  C   UNL     1     -18.940 -27.502  -2.476  1.00  0.00     0.000 C 
BRANCH   4   5
ATOM      5  C   UNL     1     -18.275 -27.906  -1.146  1.00  0.00     0.000 C 
BRANCH   5   6
ATOM      6  C   UNL     1     -18.941 -29.137  -0.502  1.00  0.00     0.000 C 
BRANCH   6   7
ATOM      7  C   UNL     1     -20.112 -29.687  -1.347  1.00  0.00     0.000 C 
BRANCH   7   8
ATOM      8  C   UNL     1     -21.369 -30.024  -0.523  1.00  0.00     0.000 C 
BRANCH   8   9
ATOM      9  C   UNL     1     -21.535 -29.202   0.767  1.00  0.00     0.000 C 
BRANCH   9  10
ATOM     10  C   UNL     1     -22.335 -27.892   0.612  1.00  0.00     0.000 C 
BRANCH  10  11
ATOM     11  C   UNL     1     -21.485 -26.636   0.350  1.00  0.00     0.000 C 
BRANCH  11  12
ATOM     12  C   UNL     1     -21.919 -25.874  -0.912  1.00  0.00     0.000 C 
BRANCH  12  13
ATOM     13  C   UNL     1     -22.938 -26.691  -1.721  1.00  0.00     0.006 C 
BRANCH  13  14
ATOM     14  C   UNL     1     -22.426 -27.033  -3.126  1.00  0.00     0.053 C 
BRANCH  14  15
ATOM     15  C   UNL     1     -23.061 -28.277  -3.664  1.00  0.00     0.041 C 
ATOM     16  O   UNL     1     -23.746 -29.017  -2.908  1.00  0.00    -0.550 OA
ATOM     17  O   UNL     1     -22.879 -28.633  -4.995  1.00  0.00    -0.550 OA
ENDBRANCH  14  15
ENDBRANCH  13  14
ENDBRANCH  12  13
ENDBRANCH  11  12
ENDBRANCH  10  11
ENDBRANCH   9  10
ENDBRANCH   8   9
ENDBRANCH   7   8
ENDBRANCH   6   7
ENDBRANCH   5   6
ENDBRANCH   4   5
ENDBRANCH   3   4
ENDBRANCH   2   3
ENDBRANCH   1   2
BRANCH   1  18
ATOM     18  C   UNL     1     -19.801 -25.141  -6.373  1.00  0.00     0.000 C 
BRANCH  18  19
ATOM     19  C   UNL     1     -18.535 -24.312  -6.647  1.00  0.00     0.000 C 
BRANCH  19  20
ATOM     20  C   UNL     1     -18.837 -23.031  -7.445  1.00  0.00     0.000 C 
BRANCH  20  21
ATOM     21  C   UNL     1     -19.166 -21.829  -6.544  1.00  0.00     0.000 C 
BRANCH  21  22
ATOM     22  C   UNL     1     -18.578 -21.891  -5.120  1.00  0.00     0.000 C 
BRANCH  22  23
ATOM     23  C   UNL     1     -19.427 -21.214  -4.028  1.00  0.00     0.000 C 
BRANCH  23  24
ATOM     24  C   UNL     1     -20.039 -22.171  -2.988  1.00  0.00    -0.000 C 
BRANCH  24  25
ATOM     25  C   UNL     1     -21.036 -23.191  -3.581  1.00  0.00    -0.000 C 
BRANCH  25  26
ATOM     26  C   UNL     1     -22.461 -23.015  -3.029  1.00  0.00    -0.000 C 
BRANCH  26  27
ATOM     27  C   UNL     1     -23.540 -23.510  -4.007  1.00  0.00    -0.000 C 
BRANCH  27  28
ATOM     28  C   UNL     1     -23.062 -23.502  -5.469  1.00  0.00    -0.000 C 
BRANCH  28  29
ATOM     29  C   UNL     1     -23.683 -22.330  -6.245  1.00  0.00    -0.000 C 
BRANCH  29  30
ATOM     30  C   UNL     1     -22.625 -21.373  -6.817  1.00  0.00    -0.000 C 
BRANCH  30  31
ATOM     31  C   UNL     1     -22.433 -20.117  -5.952  1.00  0.00    -0.003 C 
ATOM     32  C   UNL     1     -23.724 -19.307  -5.869  1.00  0.00     0.004 C 
ENDBRANCH  30  31
ENDBRANCH  29  30
ENDBRANCH  28  29
ENDBRANCH  27  28
ENDBRANCH  26  27
ENDBRANCH  25  26
ENDBRANCH  24  25
ENDBRANCH  23  24
ENDBRANCH  22  23
ENDBRANCH  21  22
ENDBRANCH  20  21
ENDBRANCH  19  20
ENDBRANCH  18  19
ENDBRANCH   1  18
TORSDOF 28
ENDMDL
MODEL 6
REMARK VINA RESULT:    -3.318      2.062      6.153
REMARK INTER + INTRA:         -13.571
REMARK INTER:                  -8.697
REMARK INTRA:                  -4.874
REMARK UNBOUND:                -4.820
REMARK SMILES CCCCCCCCCCCCCCCCCCCCCCCCCCCCCC(=O)[O-]
REMARK SMILES IDX 16 1 17 2 18 3 19 4 20 5 21 6 22 7 23 8 24 9 25 10 26 11
REMARK SMILES IDX 27 12 28 13 29 14 30 15 31 16 32 17 15 18 14 19 13 20 12 21
REMARK SMILES IDX 11 22 10 23 9 24 8 25 7 26 6 27 5 28 4 29 3 30 2 31 1 32
REMARK H PARENT
REMARK Flexibility Score: inf
ROOT
ATOM      1  C   UNL     1     -22.943 -12.505   4.708  1.00  0.00     0.000 C 
ENDROOT
BRANCH   1   2
ATOM      2  C   UNL     1     -22.975 -10.969   4.724  1.00  0.00     0.000 C 
BRANCH   2   3
ATOM      3  C   UNL     1     -24.047 -10.412   5.677  1.00  0.00     0.000 C 
BRANCH   3   4
ATOM      4  C   UNL     1     -25.330 -11.265   5.678  1.00  0.00     0.000 C 
BRANCH   4   5
ATOM      5  C   UNL     1     -26.245 -11.015   4.464  1.00  0.00     0.000 C 
BRANCH   5   6
ATOM      6  C   UNL     1     -27.015 -12.277   4.034  1.00  0.00     0.000 C 
BRANCH   6   7
ATOM      7  C   UNL     1     -28.497 -12.245   4.471  1.00  0.00     0.000 C 
BRANCH   7   8
ATOM      8  C   UNL     1     -29.493 -12.348   3.301  1.00  0.00     0.000 C 
BRANCH   8   9
ATOM      9  C   UNL     1     -28.847 -12.518   1.914  1.00  0.00     0.000 C 
BRANCH   9  10
ATOM     10  C   UNL     1     -29.581 -11.812   0.757  1.00  0.00     0.000 C 
BRANCH  10  11
ATOM     11  C   UNL     1     -31.076 -12.154   0.627  1.00  0.00     0.000 C 
BRANCH  11  12
ATOM     12  C   UNL     1     -31.991 -10.960   0.938  1.00  0.00     0.000 C 
BRANCH  12  13
ATOM     13  C   UNL     1     -33.343 -11.436   1.492  1.00  0.00     0.006 C 
BRANCH  13  14
ATOM     14  C   UNL     1     -33.186 -12.571   2.512  1.00  0.00     0.053 C 
BRANCH  14  15
ATOM     15  C   UNL     1     -33.193 -12.061   3.919  1.00  0.00     0.041 C 
ATOM     16  O   UNL     1     -32.675 -12.743   4.844  1.00  0.00    -0.550 OA
ATOM     17  O   UNL     1     -33.792 -10.843   4.216  1.00  0.00    -0.550 OA
ENDBRANCH  14  15
ENDBRANCH  13  14
ENDBRANCH  12  13
ENDBRANCH  11  12
ENDBRANCH  10  11
ENDBRANCH   9  10
ENDBRANCH   8   9
ENDBRANCH   7   8
ENDBRANCH   6   7
ENDBRANCH   5   6
ENDBRANCH   4   5
ENDBRANCH   3   4
ENDBRANCH   2   3
ENDBRANCH   1   2
BRANCH   1  18
ATOM     18  C   UNL     1     -22.021 -13.071   3.614  1.00  0.00     0.000 C 
BRANCH  18  19
ATOM     19  C   UNL     1     -22.643 -14.273   2.884  1.00  0.00     0.000 C 
BRANCH  19  20
ATOM     20  C   UNL     1     -24.168 -14.349   3.078  1.00  0.00     0.000 C 
BRANCH  20  21
ATOM     21  C   UNL     1     -24.663 -15.774   3.376  1.00  0.00     0.000 C 
BRANCH  21  22
ATOM     22  C   UNL     1     -26.087 -15.869   3.960  1.00  0.00     0.000 C 
BRANCH  22  23
ATOM     23  C   UNL     1     -27.105 -16.629   3.090  1.00  0.00     0.000 C 
BRANCH  23  24
ATOM     24  C   UNL     1     -28.507 -15.996   3.016  1.00  0.00    -0.000 C 
BRANCH  24  25
ATOM     25  C   UNL     1     -29.235 -15.920   4.377  1.00  0.00    -0.000 C 
BRANCH  25  26
ATOM     26  C   UNL     1     -30.747 -15.682   4.227  1.00  0.00    -0.000 C 
BRANCH  26  27
ATOM     27  C   UNL     1     -31.201 -15.668   2.757  1.00  0.00    -0.000 C 
BRANCH  27  28
ATOM     28  C   UNL     1     -32.054 -16.893   2.390  1.00  0.00    -0.000 C 
BRANCH  28  29
ATOM     29  C   UNL     1     -31.375 -17.731   1.295  1.00  0.00    -0.000 C 
BRANCH  29  30
ATOM     30  C   UNL     1     -30.514 -18.868   1.869  1.00  0.00    -0.000 C 
BRANCH  30  31
ATOM     31  C   UNL     1     -31.121 -19.487   3.138  1.00  0.00    -0.003 C 
ATOM     32  C   UNL     1     -30.110 -19.498   4.281  1.00  0.00     0.004 C 
ENDBRANCH  30  31
ENDBRANCH  29  30
ENDBRANCH  28  29
ENDBRANCH  27  28
ENDBRANCH  26  27
ENDBRANCH  25  26
ENDBRANCH  24  25
ENDBRANCH  23  24
ENDBRANCH  22  23
ENDBRANCH  21  22
ENDBRANCH  20  21
ENDBRANCH  19  20
ENDBRANCH  18  19
ENDBRANCH   1  18
TORSDOF 28
ENDMDL
MODEL 7
REMARK VINA RESULT:    -3.306      2.934      4.502
REMARK INTER + INTRA:         -13.538
REMARK INTER:                  -8.552
REMARK INTRA:                  -4.986
REMARK UNBOUND:                -4.820
REMARK SMILES CCCCCCCCCCCCCCCCCCCCCCCCCCCCCC(=O)[O-]
REMARK SMILES IDX 16 1 17 2 18 3 19 4 20 5 21 6 22 7 23 8 24 9 25 10 26 11
REMARK SMILES IDX 27 12 28 13 29 14 30 15 31 16 32 17 15 18 14 19 13 20 12 21
REMARK SMILES IDX 11 22 10 23 9 24 8 25 7 26 6 27 5 28 4 29 3 30 2 31 1 32
REMARK H PARENT
REMARK Flexibility Score: inf
ROOT
ATOM      1  C   UNL     1     -24.922 -14.895   4.473  1.00  0.00     0.000 C 
ENDROOT
BRANCH   1   2
ATOM      2  C   UNL     1     -26.339 -15.444   4.698  1.00  0.00     0.000 C 
BRANCH   2   3
ATOM      3  C   UNL     1     -27.044 -15.809   3.379  1.00  0.00     0.000 C 
BRANCH   3   4
ATOM      4  C   UNL     1     -27.680 -17.212   3.423  1.00  0.00     0.000 C 
BRANCH   4   5
ATOM      5  C   UNL     1     -28.410 -17.605   2.124  1.00  0.00     0.000 C 
BRANCH   5   6
ATOM      6  C   UNL     1     -29.364 -16.504   1.625  1.00  0.00     0.000 C 
BRANCH   6   7
ATOM      7  C   UNL     1     -30.834 -16.975   1.568  1.00  0.00     0.000 C 
BRANCH   7   8
ATOM      8  C   UNL     1     -31.753 -16.272   2.585  1.00  0.00     0.000 C 
BRANCH   8   9
ATOM      9  C   UNL     1     -31.025 -15.371   3.599  1.00  0.00     0.000 C 
BRANCH   9  10
ATOM     10  C   UNL     1     -30.863 -15.970   5.011  1.00  0.00     0.000 C 
BRANCH  10  11
ATOM     11  C   UNL     1     -31.457 -17.378   5.195  1.00  0.00     0.000 C 
BRANCH  11  12
ATOM     12  C   UNL     1     -30.382 -18.456   5.403  1.00  0.00     0.000 C 
BRANCH  12  13
ATOM     13  C   UNL     1     -30.884 -19.827   4.928  1.00  0.00     0.006 C 
BRANCH  13  14
ATOM     14  C   UNL     1     -29.990 -20.427   3.834  1.00  0.00     0.053 C 
BRANCH  14  15
ATOM     15  C   UNL     1     -30.785 -20.876   2.648  1.00  0.00     0.041 C 
ATOM     16  O   UNL     1     -30.420 -20.562   1.483  1.00  0.00    -0.550 OA
ATOM     17  O   UNL     1     -31.944 -21.622   2.828  1.00  0.00    -0.550 OA
ENDBRANCH  14  15
ENDBRANCH  13  14
ENDBRANCH  12  13
ENDBRANCH  11  12
ENDBRANCH  10  11
ENDBRANCH   9  10
ENDBRANCH   8   9
ENDBRANCH   7   8
ENDBRANCH   6   7
ENDBRANCH   5   6
ENDBRANCH   4   5
ENDBRANCH   3   4
ENDBRANCH   2   3
ENDBRANCH   1   2
BRANCH   1  18
ATOM     18  C   UNL     1     -24.302 -15.369   3.146  1.00  0.00     0.000 C 
BRANCH  18  19
ATOM     19  C   UNL     1     -23.041 -14.574   2.768  1.00  0.00     0.000 C 
BRANCH  19  20
ATOM     20  C   UNL     1     -22.721 -13.468   3.789  1.00  0.00     0.000 C 
BRANCH  20  21
ATOM     21  C   UNL     1     -21.408 -12.729   3.479  1.00  0.00     0.000 C 
BRANCH  21  22
ATOM     22  C   UNL     1     -21.128 -11.487   4.350  1.00  0.00     0.000 C 
BRANCH  22  23
ATOM     23  C   UNL     1     -21.769 -11.508   5.749  1.00  0.00     0.000 C 
BRANCH  23  24
ATOM     24  C   UNL     1     -22.747 -10.354   6.039  1.00  0.00    -0.000 C 
BRANCH  24  25
ATOM     25  C   UNL     1     -23.543  -9.879   4.804  1.00  0.00    -0.000 C 
BRANCH  25  26
ATOM     26  C   UNL     1     -24.783 -10.746   4.528  1.00  0.00    -0.000 C 
BRANCH  26  27
ATOM     27  C   UNL     1     -25.379 -11.350   5.811  1.00  0.00    -0.000 C 
BRANCH  27  28
ATOM     28  C   UNL     1     -26.804 -11.890   5.603  1.00  0.00    -0.000 C 
BRANCH  28  29
ATOM     29  C   UNL     1     -27.177 -11.903   4.113  1.00  0.00    -0.000 C 
BRANCH  29  30
ATOM     30  C   UNL     1     -28.556 -12.530   3.854  1.00  0.00    -0.000 C 
BRANCH  30  31
ATOM     31  C   UNL     1     -29.299 -11.864   2.686  1.00  0.00    -0.003 C 
ATOM     32  C   UNL     1     -29.469 -12.834   1.520  1.00  0.00     0.004 C 
ENDBRANCH  30  31
ENDBRANCH  29  30
ENDBRANCH  28  29
ENDBRANCH  27  28
ENDBRANCH  26  27
ENDBRANCH  25  26
ENDBRANCH  24  25
ENDBRANCH  23  24
ENDBRANCH  22  23
ENDBRANCH  21  22
ENDBRANCH  20  21
ENDBRANCH  19  20
ENDBRANCH  18  19
ENDBRANCH   1  18
TORSDOF 28
ENDMDL
MODEL 8
REMARK VINA RESULT:    -3.285     12.428     15.630
REMARK INTER + INTRA:         -13.482
REMARK INTER:                  -7.867
REMARK INTRA:                  -5.615
REMARK UNBOUND:                -4.820
REMARK SMILES CCCCCCCCCCCCCCCCCCCCCCCCCCCCCC(=O)[O-]
REMARK SMILES IDX 16 1 17 2 18 3 19 4 20 5 21 6 22 7 23 8 24 9 25 10 26 11
REMARK SMILES IDX 27 12 28 13 29 14 30 15 31 16 32 17 15 18 14 19 13 20 12 21
REMARK SMILES IDX 11 22 10 23 9 24 8 25 7 26 6 27 5 28 4 29 3 30 2 31 1 32
REMARK H PARENT
REMARK Flexibility Score: inf
ROOT
ATOM      1  C   UNL     1     -21.738 -28.914  -3.345  1.00  0.00     0.000 C 
ENDROOT
BRANCH   1   2
ATOM      2  C   UNL     1     -20.432 -29.477  -2.764  1.00  0.00     0.000 C 
BRANCH   2   3
ATOM      3  C   UNL     1     -20.602 -29.990  -1.323  1.00  0.00     0.000 C 
BRANCH   3   4
ATOM      4  C   UNL     1     -19.454 -29.539  -0.400  1.00  0.00     0.000 C 
BRANCH   4   5
ATOM      5  C   UNL     1     -19.083 -28.051  -0.549  1.00  0.00     0.000 C 
BRANCH   5   6
ATOM      6  C   UNL     1     -17.657 -27.848  -1.094  1.00  0.00     0.000 C 
BRANCH   6   7
ATOM      7  C   UNL     1     -17.604 -26.825  -2.250  1.00  0.00     0.000 C 
BRANCH   7   8
ATOM      8  C   UNL     1     -18.946 -26.115  -2.515  1.00  0.00     0.000 C 
BRANCH   8   9
ATOM      9  C   UNL     1     -19.143 -25.626  -3.961  1.00  0.00     0.000 C 
BRANCH   9  10
ATOM     10  C   UNL     1     -20.611 -25.435  -4.394  1.00  0.00     0.000 C 
BRANCH  10  11
ATOM     11  C   UNL     1     -21.131 -23.988  -4.318  1.00  0.00     0.000 C 
BRANCH  11  12
ATOM     12  C   UNL     1     -21.047 -23.397  -2.902  1.00  0.00     0.000 C 
BRANCH  12  13
ATOM     13  C   UNL     1     -20.126 -22.168  -2.876  1.00  0.00     0.006 C 
BRANCH  13  14
ATOM     14  C   UNL     1     -19.969 -21.529  -4.262  1.00  0.00     0.053 C 
BRANCH  14  15
ATOM     15  C   UNL     1     -19.986 -20.033  -4.192  1.00  0.00     0.041 C 
ATOM     16  O   UNL     1     -20.950 -19.386  -4.681  1.00  0.00    -0.550 OA
ATOM     17  O   UNL     1     -18.926 -19.352  -3.606  1.00  0.00    -0.550 OA
ENDBRANCH  14  15
ENDBRANCH  13  14
ENDBRANCH  12  13
ENDBRANCH  11  12
ENDBRANCH  10  11
ENDBRANCH   9  10
ENDBRANCH   8   9
ENDBRANCH   7   8
ENDBRANCH   6   7
ENDBRANCH   5   6
ENDBRANCH   4   5
ENDBRANCH   3   4
ENDBRANCH   2   3
ENDBRANCH   1   2
BRANCH   1  18
ATOM     18  C   UNL     1     -22.466 -27.969  -2.373  1.00  0.00     0.000 C 
BRANCH  18  19
ATOM     19  C   UNL     1     -23.979 -28.238  -2.310  1.00  0.00     0.000 C 
BRANCH  19  20
ATOM     20  C   UNL     1     -24.319 -29.455  -1.433  1.00  0.00     0.000 C 
BRANCH  20  21
ATOM     21  C   UNL     1     -25.251 -29.106  -0.261  1.00  0.00     0.000 C 
BRANCH  21  22
ATOM     22  C   UNL     1     -24.678 -29.385   1.144  1.00  0.00     0.000 C 
BRANCH  22  23
ATOM     23  C   UNL     1     -23.309 -30.089   1.166  1.00  0.00     0.000 C 
BRANCH  23  24
ATOM     24  C   UNL     1     -22.230 -29.397   2.019  1.00  0.00    -0.000 C 
BRANCH  24  25
ATOM     25  C   UNL     1     -22.598 -27.962   2.457  1.00  0.00    -0.000 C 
BRANCH  25  26
ATOM     26  C   UNL     1     -21.569 -26.919   1.991  1.00  0.00    -0.000 C 
BRANCH  26  27
ATOM     27  C   UNL     1     -21.983 -26.222   0.683  1.00  0.00    -0.000 C 
BRANCH  27  28
ATOM     28  C   UNL     1     -23.494 -25.951   0.609  1.00  0.00    -0.000 C 
BRANCH  28  29
ATOM     29  C   UNL     1     -23.794 -24.453   0.771  1.00  0.00    -0.000 C 
BRANCH  29  30
ATOM     30  C   UNL     1     -23.838 -23.711  -0.575  1.00  0.00    -0.000 C 
BRANCH  30  31
ATOM     31  C   UNL     1     -24.323 -24.604  -1.728  1.00  0.00    -0.003 C 
ATOM     32  C   UNL     1     -25.843 -24.561  -1.852  1.00  0.00     0.004 C 
ENDBRANCH  30  31
ENDBRANCH  29  30
ENDBRANCH  28  29
ENDBRANCH  27  28
ENDBRANCH  26  27
ENDBRANCH  25  26
ENDBRANCH  24  25
ENDBRANCH  23  24
ENDBRANCH  22  23
ENDBRANCH  21  22
ENDBRANCH  20  21
ENDBRANCH  19  20
ENDBRANCH  18  19
ENDBRANCH   1  18
TORSDOF 28
ENDMDL
MODEL 9
REMARK VINA RESULT:    -3.268      3.095      6.969
REMARK INTER + INTRA:         -13.439
REMARK INTER:                  -9.157
REMARK INTRA:                  -4.281
REMARK UNBOUND:                -4.820
REMARK SMILES CCCCCCCCCCCCCCCCCCCCCCCCCCCCCC(=O)[O-]
REMARK SMILES IDX 16 1 17 2 18 3 19 4 20 5 21 6 22 7 23 8 24 9 25 10 26 11
REMARK SMILES IDX 27 12 28 13 29 14 30 15 31 16 32 17 15 18 14 19 13 20 12 21
REMARK SMILES IDX 11 22 10 23 9 24 8 25 7 26 6 27 5 28 4 29 3 30 2 31 1 32
REMARK H PARENT
REMARK Flexibility Score: inf
ROOT
ATOM      1  C   UNL     1     -33.758 -11.164   1.497  1.00  0.00     0.000 C 
ENDROOT
BRANCH   1   2
ATOM      2  C   UNL     1     -34.239 -12.091   2.625  1.00  0.00     0.000 C 
BRANCH   2   3
ATOM      3  C   UNL     1     -33.077 -12.816   3.325  1.00  0.00     0.000 C 
BRANCH   3   4
ATOM      4  C   UNL     1     -33.371 -14.311   3.553  1.00  0.00     0.000 C 
BRANCH   4   5
ATOM      5  C   UNL     1     -32.135 -15.132   3.968  1.00  0.00     0.000 C 
BRANCH   5   6
ATOM      6  C   UNL     1     -30.931 -14.245   4.334  1.00  0.00     0.000 C 
BRANCH   6   7
ATOM      7  C   UNL     1     -30.038 -14.878   5.425  1.00  0.00     0.000 C 
BRANCH   7   8
ATOM      8  C   UNL     1     -29.137 -16.016   4.910  1.00  0.00     0.000 C 
BRANCH   8   9
ATOM      9  C   UNL     1     -28.529 -15.777   3.516  1.00  0.00     0.000 C 
BRANCH   9  10
ATOM     10  C   UNL     1     -28.804 -16.888   2.482  1.00  0.00     0.000 C 
BRANCH  10  11
ATOM     11  C   UNL     1     -29.886 -16.558   1.439  1.00  0.00     0.000 C 
BRANCH  11  12
ATOM     12  C   UNL     1     -31.017 -17.597   1.402  1.00  0.00     0.000 C 
BRANCH  12  13
ATOM     13  C   UNL     1     -31.061 -18.404   2.708  1.00  0.00     0.006 C 
BRANCH  13  14
ATOM     14  C   UNL     1     -31.307 -19.898   2.461  1.00  0.00     0.053 C 
BRANCH  14  15
ATOM     15  C   UNL     1     -30.293 -20.483   1.528  1.00  0.00     0.041 C 
ATOM     16  O   UNL     1     -30.664 -21.108   0.499  1.00  0.00    -0.550 OA
ATOM     17  O   UNL     1     -28.938 -20.358   1.806  1.00  0.00    -0.550 OA
ENDBRANCH  14  15
ENDBRANCH  13  14
ENDBRANCH  12  13
ENDBRANCH  11  12
ENDBRANCH  10  11
ENDBRANCH   9  10
ENDBRANCH   8   9
ENDBRANCH   7   8
ENDBRANCH   6   7
ENDBRANCH   5   6
ENDBRANCH   4   5
ENDBRANCH   3   4
ENDBRANCH   2   3
ENDBRANCH   1   2
BRANCH   1  18
ATOM     18  C   UNL     1     -32.224 -11.062   1.422  1.00  0.00     0.000 C 
BRANCH  18  19
ATOM     19  C   UNL     1     -31.698 -11.144  -0.021  1.00  0.00     0.000 C 
BRANCH  19  20
ATOM     20  C   UNL     1     -30.422 -11.996  -0.129  1.00  0.00     0.000 C 
BRANCH  20  21
ATOM     21  C   UNL     1     -30.189 -12.884   1.106  1.00  0.00     0.000 C 
BRANCH  21  22
ATOM     22  C   UNL     1     -28.861 -12.642   1.851  1.00  0.00     0.000 C 
BRANCH  22  23
ATOM     23  C   UNL     1     -28.927 -11.610   2.992  1.00  0.00     0.000 C 
BRANCH  23  24
ATOM     24  C   UNL     1     -27.956 -11.863   4.161  1.00  0.00    -0.000 C 
BRANCH  24  25
ATOM     25  C   UNL     1     -26.619 -12.510   3.739  1.00  0.00    -0.000 C 
BRANCH  25  26
ATOM     26  C   UNL     1     -25.444 -12.078   4.632  1.00  0.00    -0.000 C 
BRANCH  26  27
ATOM     27  C   UNL     1     -25.342 -10.550   4.777  1.00  0.00    -0.000 C 
BRANCH  27  28
ATOM     28  C   UNL     1     -23.926 -10.021   4.494  1.00  0.00    -0.000 C 
BRANCH  28  29
ATOM     29  C   UNL     1     -22.863 -11.066   4.868  1.00  0.00    -0.000 C 
BRANCH  29  30
ATOM     30  C   UNL     1     -21.537 -10.427   5.311  1.00  0.00    -0.000 C 
BRANCH  30  31
ATOM     31  C   UNL     1     -20.623 -10.077   4.126  1.00  0.00    -0.003 C 
ATOM     32  C   UNL     1     -19.734 -11.260   3.752  1.00  0.00     0.004 C 
ENDBRANCH  30  31
ENDBRANCH  29  30
ENDBRANCH  28  29
ENDBRANCH  27  28
ENDBRANCH  26  27
ENDBRANCH  25  26
ENDBRANCH  24  25
ENDBRANCH  23  24
ENDBRANCH  22  23
ENDBRANCH  21  22
ENDBRANCH  20  21
ENDBRANCH  19  20
ENDBRANCH  18  19
ENDBRANCH   1  18
TORSDOF 28
ENDMDL
