MODEL 1
REMARK VINA RESULT:    -4.740      0.000      0.000
REMARK INTER + INTRA:         -11.205
REMARK INTER:                  -9.173
REMARK INTRA:                  -2.031
REMARK UNBOUND:                -2.031
REMARK SMILES CCCCCCCCCCCCCCCCCC(=O)[O-]
REMARK SMILES IDX 10 1 11 2 12 3 13 4 14 5 15 6 16 7 17 8 18 9 19 10 20 11
REMARK SMILES IDX 9 12 8 13 7 14 6 15 5 16 4 17 3 18 2 19 1 20
REMARK H PARENT
REMARK Flexibility Score: inf
ROOT
ATOM      1  C   UNL     1     101.360  87.529  90.560  1.00  0.00     0.000 C 
ENDROOT
BRANCH   1   2
ATOM      2  C   UNL     1     102.074  88.382  91.624  1.00  0.00     0.000 C 
BRANCH   2   3
ATOM      3  C   UNL     1     101.125  88.882  92.728  1.00  0.00     0.000 C 
BRANCH   3   4
ATOM      4  C   UNL     1      99.639  88.710  92.364  1.00  0.00     0.000 C 
BRANCH   4   5
ATOM      5  C   UNL     1      98.770  89.966  92.559  1.00  0.00     0.000 C 
BRANCH   5   6
ATOM      6  C   UNL     1      98.132  90.460  91.249  1.00  0.00     0.000 C 
BRANCH   6   7
ATOM      7  C   UNL     1      99.171  90.857  90.185  1.00  0.00     0.006 C 
BRANCH   7   8
ATOM      8  C   UNL     1      98.558  91.263  88.835  1.00  0.00     0.053 C 
BRANCH   8   9
ATOM      9  C   UNL     1      98.726  92.723  88.541  1.00  0.00     0.041 C 
ATOM     10  O   UNL     1      97.751  93.402  88.126  1.00  0.00    -0.550 OA
ATOM     11  O   UNL     1      99.968  93.327  88.698  1.00  0.00    -0.550 OA
ENDBRANCH   8   9
ENDBRANCH   7   8
ENDBRANCH   6   7
ENDBRANCH   5   6
ENDBRANCH   4   5
ENDBRANCH   3   4
ENDBRANCH   2   3
ENDBRANCH   1   2
BRANCH   1  12
ATOM     12  C   UNL     1     101.271  88.168  89.162  1.00  0.00     0.000 C 
BRANCH  12  13
ATOM     13  C   UNL     1     100.134  87.581  88.306  1.00  0.00    -0.000 C 
BRANCH  13  14
ATOM     14  C   UNL     1     100.295  87.896  86.810  1.00  0.00    -0.000 C 
BRANCH  14  15
ATOM     15  C   UNL     1      99.160  88.781  86.270  1.00  0.00    -0.000 C 
BRANCH  15  16
ATOM     16  C   UNL     1      99.599  89.639  85.071  1.00  0.00    -0.000 C 
BRANCH  16  17
ATOM     17  C   UNL     1      99.059  91.076  85.140  1.00  0.00    -0.000 C 
BRANCH  17  18
ATOM     18  C   UNL     1     100.182  92.067  85.470  1.00  0.00    -0.000 C 
BRANCH  18  19
ATOM     19  C   UNL     1     101.410  91.342  86.032  1.00  0.00    -0.003 C 
ATOM     20  C   UNL     1     102.656  92.217  85.944  1.00  0.00     0.004 C 
ENDBRANCH  18  19
ENDBRANCH  17  18
ENDBRANCH  16  17
ENDBRANCH  15  16
ENDBRANCH  14  15
ENDBRANCH  13  14
ENDBRANCH  12  13
ENDBRANCH   1  12
TORSDOF 16
ENDMDL
MODEL 2
REMARK VINA RESULT:    -4.280     11.160     13.736
REMARK INTER + INTRA:         -10.315
REMARK INTER:                  -7.481
REMARK INTRA:                  -2.835
REMARK UNBOUND:                -2.031
REMARK SMILES CCCCCCCCCCCCCCCCCC(=O)[O-]
REMARK SMILES IDX 10 1 11 2 12 3 13 4 14 5 15 6 16 7 17 8 18 9 19 10 20 11
REMARK SMILES IDX 9 12 8 13 7 14 6 15 5 16 4 17 3 18 2 19 1 20
REMARK H PARENT
REMARK Flexibility Score: inf
ROOT
ATOM      1  C   UNL     1     102.989 100.443  96.544  1.00  0.00     0.000 C 
ENDROOT
BRANCH   1   2
ATOM      2  C   UNL     1     102.144  99.390  95.805  1.00  0.00     0.000 C 
BRANCH   2   3
ATOM      3  C   UNL     1     102.956  98.150  95.393  1.00  0.00     0.000 C 
BRANCH   3   4
ATOM      4  C   UNL     1     104.414  98.482  95.027  1.00  0.00     0.000 C 
BRANCH   4   5
ATOM      5  C   UNL     1     105.411  97.321  95.197  1.00  0.00     0.000 C 
BRANCH   5   6
ATOM      6  C   UNL     1     106.289  97.467  96.452  1.00  0.00     0.000 C 
BRANCH   6   7
ATOM      7  C   UNL     1     106.768  98.911  96.688  1.00  0.00     0.006 C 
BRANCH   7   8
ATOM      8  C   UNL     1     107.834  99.386  95.686  1.00  0.00     0.053 C 
BRANCH   8   9
ATOM      9  C   UNL     1     107.435 100.642  94.973  1.00  0.00     0.041 C 
ATOM     10  O   UNL     1     107.008 100.591  93.790  1.00  0.00    -0.550 OA
ATOM     11  O   UNL     1     107.563 101.874  95.604  1.00  0.00    -0.550 OA
ENDBRANCH   8   9
ENDBRANCH   7   8
ENDBRANCH   6   7
ENDBRANCH   5   6
ENDBRANCH   4   5
ENDBRANCH   3   4
ENDBRANCH   2   3
ENDBRANCH   1   2
BRANCH   1  12
ATOM     12  C   UNL     1     102.631 100.644  98.028  1.00  0.00     0.000 C 
BRANCH  12  13
ATOM     13  C   UNL     1     103.863 100.624  98.950  1.00  0.00    -0.000 C 
BRANCH  13  14
ATOM     14  C   UNL     1     104.279  99.200  99.353  1.00  0.00    -0.000 C 
BRANCH  14  15
ATOM     15  C   UNL     1     103.077  98.250  99.482  1.00  0.00    -0.000 C 
BRANCH  15  16
ATOM     16  C   UNL     1     103.301  96.911  98.759  1.00  0.00    -0.000 C 
BRANCH  16  17
ATOM     17  C   UNL     1     102.006  96.100  98.599  1.00  0.00    -0.000 C 
BRANCH  17  18
ATOM     18  C   UNL     1     100.808  97.024  98.346  1.00  0.00    -0.000 C 
BRANCH  18  19
ATOM     19  C   UNL     1      99.671  96.272  97.647  1.00  0.00    -0.003 C 
ATOM     20  C   UNL     1      99.646  96.574  96.152  1.00  0.00     0.004 C 
ENDBRANCH  18  19
ENDBRANCH  17  18
ENDBRANCH  16  17
ENDBRANCH  15  16
ENDBRANCH  14  15
ENDBRANCH  13  14
ENDBRANCH  12  13
ENDBRANCH   1  12
TORSDOF 16
ENDMDL
MODEL 3
REMARK VINA RESULT:    -4.210     10.489     12.164
REMARK INTER + INTRA:         -10.180
REMARK INTER:                  -7.686
REMARK INTRA:                  -2.494
REMARK UNBOUND:                -2.031
REMARK SMILES CCCCCCCCCCCCCCCCCC(=O)[O-]
REMARK SMILES IDX 10 1 11 2 12 3 13 4 14 5 15 6 16 7 17 8 18 9 19 10 20 11
REMARK SMILES IDX 9 12 8 13 7 14 6 15 5 16 4 17 3 18 2 19 1 20
REMARK H PARENT
REMARK Flexibility Score: inf
ROOT
ATOM      1  C   UNL     1     103.196  95.510  98.761  1.00  0.00     0.000 C 
ENDROOT
BRANCH   1   2
ATOM      2  C   UNL     1     104.441  95.553  97.855  1.00  0.00     0.000 C 
BRANCH   2   3
ATOM      3  C   UNL     1     104.816  96.981  97.419  1.00  0.00     0.000 C 
BRANCH   3   4
ATOM      4  C   UNL     1     105.458  97.032  96.020  1.00  0.00     0.000 C 
BRANCH   4   5
ATOM      5  C   UNL     1     104.801  98.015  95.035  1.00  0.00     0.000 C 
BRANCH   5   6
ATOM      6  C   UNL     1     103.307  98.241  95.323  1.00  0.00     0.000 C 
BRANCH   6   7
ATOM      7  C   UNL     1     102.934  99.731  95.432  1.00  0.00     0.006 C 
BRANCH   7   8
ATOM      8  C   UNL     1     103.748 100.503  96.483  1.00  0.00     0.053 C 
BRANCH   8   9
ATOM      9  C   UNL     1     103.178 100.373  97.863  1.00  0.00     0.041 C 
ATOM     10  O   UNL     1     101.948 100.553  98.060  1.00  0.00    -0.550 OA
ATOM     11  O   UNL     1     104.011 100.081  98.937  1.00  0.00    -0.550 OA
ENDBRANCH   8   9
ENDBRANCH   7   8
ENDBRANCH   6   7
ENDBRANCH   5   6
ENDBRANCH   4   5
ENDBRANCH   3   4
ENDBRANCH   2   3
ENDBRANCH   1   2
BRANCH   1  12
ATOM     12  C   UNL     1     102.499  96.865  98.978  1.00  0.00     0.000 C 
BRANCH  12  13
ATOM     13  C   UNL     1     101.175  96.989  98.203  1.00  0.00    -0.000 C 
BRANCH  13  14
ATOM     14  C   UNL     1     100.488  95.632  97.981  1.00  0.00    -0.000 C 
BRANCH  14  15
ATOM     15  C   UNL     1      99.229  95.746  97.105  1.00  0.00    -0.000 C 
BRANCH  15  16
ATOM     16  C   UNL     1      99.491  96.495  95.788  1.00  0.00    -0.000 C 
BRANCH  16  17
ATOM     17  C   UNL     1      98.228  97.166  95.226  1.00  0.00    -0.000 C 
BRANCH  17  18
ATOM     18  C   UNL     1      98.087  98.599  95.757  1.00  0.00    -0.000 C 
BRANCH  18  19
ATOM     19  C   UNL     1      99.454  99.285  95.859  1.00  0.00    -0.003 C 
ATOM     20  C   UNL     1      99.324 100.798  95.713  1.00  0.00     0.004 C 
ENDBRANCH  18  19
ENDBRANCH  17  18
ENDBRANCH  16  17
ENDBRANCH  15  16
ENDBRANCH  14  15
ENDBRANCH  13  14
ENDBRANCH  12  13
ENDBRANCH   1  12
TORSDOF 16
ENDMDL
MODEL 4
REMARK VINA RESULT:    -4.190     10.818     12.729
REMARK INTER + INTRA:         -10.140
REMARK INTER:                  -7.529
REMARK INTRA:                  -2.611
REMARK UNBOUND:                -2.031
REMARK SMILES CCCCCCCCCCCCCCCCCC(=O)[O-]
REMARK SMILES IDX 10 1 11 2 12 3 13 4 14 5 15 6 16 7 17 8 18 9 19 10 20 11
REMARK SMILES IDX 9 12 8 13 7 14 6 15 5 16 4 17 3 18 2 19 1 20
REMARK H PARENT
REMARK Flexibility Score: inf
ROOT
ATOM      1  C   UNL     1     103.459  98.492  94.982  1.00  0.00     0.000 C 
ENDROOT
BRANCH   1   2
ATOM      2  C   UNL     1     103.037  99.895  94.509  1.00  0.00     0.000 C 
BRANCH   2   3
ATOM      3  C   UNL     1     102.175 100.642  95.542  1.00  0.00     0.000 C 
BRANCH   3   4
ATOM      4  C   UNL     1     100.684 100.683  95.162  1.00  0.00     0.000 C 
BRANCH   4   5
ATOM      5  C   UNL     1      99.728 100.067  96.200  1.00  0.00     0.000 C 
BRANCH   5   6
ATOM      6  C   UNL     1      99.729  98.529  96.173  1.00  0.00     0.000 C 
BRANCH   6   7
ATOM      7  C   UNL     1      99.704  97.902  97.580  1.00  0.00     0.006 C 
BRANCH   7   8
ATOM      8  C   UNL     1     100.249  96.466  97.632  1.00  0.00     0.053 C 
BRANCH   8   9
ATOM      9  C   UNL     1      99.163  95.441  97.760  1.00  0.00     0.041 C 
ATOM     10  O   UNL     1      97.955  95.796  97.762  1.00  0.00    -0.550 OA
ATOM     11  O   UNL     1      99.485  94.097  97.907  1.00  0.00    -0.550 OA
ENDBRANCH   8   9
ENDBRANCH   7   8
ENDBRANCH   6   7
ENDBRANCH   5   6
ENDBRANCH   4   5
ENDBRANCH   3   4
ENDBRANCH   2   3
ENDBRANCH   1   2
BRANCH   1  12
ATOM     12  C   UNL     1     103.429  98.279  96.506  1.00  0.00     0.000 C 
BRANCH  12  13
ATOM     13  C   UNL     1     104.514  97.305  96.997  1.00  0.00    -0.000 C 
BRANCH  13  14
ATOM     14  C   UNL     1     105.744  97.274  96.076  1.00  0.00    -0.000 C 
BRANCH  14  15
ATOM     15  C   UNL     1     107.035  97.689  96.803  1.00  0.00    -0.000 C 
BRANCH  15  16
ATOM     16  C   UNL     1     107.748  98.865  96.116  1.00  0.00    -0.000 C 
BRANCH  16  17
ATOM     17  C   UNL     1     107.074  99.279  94.799  1.00  0.00    -0.000 C 
BRANCH  17  18
ATOM     18  C   UNL     1     106.547 100.717  94.881  1.00  0.00    -0.000 C 
BRANCH  18  19
ATOM     19  C   UNL     1     106.771 101.306  96.278  1.00  0.00    -0.003 C 
ATOM     20  C   UNL     1     105.446 101.535  97.000  1.00  0.00     0.004 C 
ENDBRANCH  18  19
ENDBRANCH  17  18
ENDBRANCH  16  17
ENDBRANCH  15  16
ENDBRANCH  14  15
ENDBRANCH  13  14
ENDBRANCH  12  13
ENDBRANCH   1  12
TORSDOF 16
ENDMDL
MODEL 5
REMARK VINA RESULT:    -4.173     11.527     13.050
REMARK INTER + INTRA:         -10.108
REMARK INTER:                  -7.883
REMARK INTRA:                  -2.225
REMARK UNBOUND:                -2.031
REMARK SMILES CCCCCCCCCCCCCCCCCC(=O)[O-]
REMARK SMILES IDX 10 1 11 2 12 3 13 4 14 5 15 6 16 7 17 8 18 9 19 10 20 11
REMARK SMILES IDX 9 12 8 13 7 14 6 15 5 16 4 17 3 18 2 19 1 20
REMARK H PARENT
REMARK Flexibility Score: inf
ROOT
ATOM      1  C   UNL     1     104.124  95.648  98.038  1.00  0.00     0.000 C 
ENDROOT
BRANCH   1   2
ATOM      2  C   UNL     1     104.429  97.013  97.394  1.00  0.00     0.000 C 
BRANCH   2   3
ATOM      3  C   UNL     1     105.532  96.939  96.324  1.00  0.00     0.000 C 
BRANCH   3   4
ATOM      4  C   UNL     1     105.165  97.691  95.031  1.00  0.00     0.000 C 
BRANCH   4   5
ATOM      5  C   UNL     1     103.876  98.527  95.105  1.00  0.00     0.000 C 
BRANCH   5   6
ATOM      6  C   UNL     1     104.148 100.039  95.187  1.00  0.00     0.000 C 
BRANCH   6   7
ATOM      7  C   UNL     1     104.165 100.572  96.631  1.00  0.00     0.006 C 
BRANCH   7   8
ATOM      8  C   UNL     1     105.374 101.465  96.953  1.00  0.00     0.053 C 
BRANCH   8   9
ATOM      9  C   UNL     1     106.659 100.910  96.415  1.00  0.00     0.041 C 
ATOM     10  O   UNL     1     107.183 101.411  95.386  1.00  0.00    -0.550 OA
ATOM     11  O   UNL     1     107.262  99.821  97.033  1.00  0.00    -0.550 OA
ENDBRANCH   8   9
ENDBRANCH   7   8
ENDBRANCH   6   7
ENDBRANCH   5   6
ENDBRANCH   4   5
ENDBRANCH   3   4
ENDBRANCH   2   3
ENDBRANCH   1   2
BRANCH   1  12
ATOM     12  C   UNL     1     102.901  95.624  98.972  1.00  0.00     0.000 C 
BRANCH  12  13
ATOM     13  C   UNL     1     102.609  96.993  99.613  1.00  0.00    -0.000 C 
BRANCH  13  14
ATOM     14  C   UNL     1     101.281  97.601  99.136  1.00  0.00    -0.000 C 
BRANCH  14  15
ATOM     15  C   UNL     1     100.605  96.755  98.044  1.00  0.00    -0.000 C 
BRANCH  15  16
ATOM     16  C   UNL     1     100.802  97.341  96.636  1.00  0.00    -0.000 C 
BRANCH  16  17
ATOM     17  C   UNL     1      99.848  98.509  96.341  1.00  0.00    -0.000 C 
BRANCH  17  18
ATOM     18  C   UNL     1     100.560  99.856  96.519  1.00  0.00    -0.000 C 
BRANCH  18  19
ATOM     19  C   UNL     1     100.455 100.706  95.248  1.00  0.00    -0.003 C 
ATOM     20  C   UNL     1      99.929 102.104  95.561  1.00  0.00     0.004 C 
ENDBRANCH  18  19
ENDBRANCH  17  18
ENDBRANCH  16  17
ENDBRANCH  15  16
ENDBRANCH  14  15
ENDBRANCH  13  14
ENDBRANCH  12  13
ENDBRANCH   1  12
TORSDOF 16
ENDMDL
MODEL 6
REMARK VINA RESULT:    -4.121     10.393     12.696
REMARK INTER + INTRA:         -10.006
REMARK INTER:                  -7.209
REMARK INTRA:                  -2.798
REMARK UNBOUND:                -2.031
REMARK SMILES CCCCCCCCCCCCCCCCCC(=O)[O-]
REMARK SMILES IDX 10 1 11 2 12 3 13 4 14 5 15 6 16 7 17 8 18 9 19 10 20 11
REMARK SMILES IDX 9 12 8 13 7 14 6 15 5 16 4 17 3 18 2 19 1 20
REMARK H PARENT
REMARK Flexibility Score: inf
ROOT
ATOM      1  C   UNL     1     101.584  98.343  99.933  1.00  0.00     0.000 C 
ENDROOT
BRANCH   1   2
ATOM      2  C   UNL     1     102.138  99.704  99.472  1.00  0.00     0.000 C 
BRANCH   2   3
ATOM      3  C   UNL     1     103.673  99.723  99.370  1.00  0.00     0.000 C 
BRANCH   3   4
ATOM      4  C   UNL     1     104.179  99.690  97.916  1.00  0.00     0.000 C 
BRANCH   4   5
ATOM      5  C   UNL     1     103.080  99.756  96.840  1.00  0.00     0.000 C 
BRANCH   5   6
ATOM      6  C   UNL     1     103.227  98.664  95.767  1.00  0.00     0.000 C 
BRANCH   6   7
ATOM      7  C   UNL     1     104.279  97.600  96.131  1.00  0.00     0.006 C 
BRANCH   7   8
ATOM      8  C   UNL     1     105.423  97.478  95.111  1.00  0.00     0.053 C 
BRANCH   8   9
ATOM      9  C   UNL     1     106.481  98.522  95.304  1.00  0.00     0.041 C 
ATOM     10  O   UNL     1     107.345  98.387  96.209  1.00  0.00    -0.550 OA
ATOM     11  O   UNL     1     106.494  99.659  94.505  1.00  0.00    -0.550 OA
ENDBRANCH   8   9
ENDBRANCH   7   8
ENDBRANCH   6   7
ENDBRANCH   5   6
ENDBRANCH   4   5
ENDBRANCH   3   4
ENDBRANCH   2   3
ENDBRANCH   1   2
BRANCH   1  12
ATOM     12  C   UNL     1     102.592  97.180  99.896  1.00  0.00     0.000 C 
BRANCH  12  13
ATOM     13  C   UNL     1     102.248  96.123  98.832  1.00  0.00    -0.000 C 
BRANCH  13  14
ATOM     14  C   UNL     1     101.055  96.531  97.953  1.00  0.00    -0.000 C 
BRANCH  14  15
ATOM     15  C   UNL     1      99.937  95.474  97.951  1.00  0.00    -0.000 C 
BRANCH  15  16
ATOM     16  C   UNL     1      98.855  95.762  96.897  1.00  0.00    -0.000 C 
BRANCH  16  17
ATOM     17  C   UNL     1      99.393  96.557  95.696  1.00  0.00    -0.000 C 
BRANCH  17  18
ATOM     18  C   UNL     1      98.565  97.828  95.465  1.00  0.00    -0.000 C 
BRANCH  18  19
ATOM     19  C   UNL     1      99.402  99.085  95.727  1.00  0.00    -0.003 C 
ATOM     20  C   UNL     1      99.226  99.576  97.161  1.00  0.00     0.004 C 
ENDBRANCH  18  19
ENDBRANCH  17  18
ENDBRANCH  16  17
ENDBRANCH  15  16
ENDBRANCH  14  15
ENDBRANCH  13  14
ENDBRANCH  12  13
ENDBRANCH   1  12
TORSDOF 16
ENDMDL
MODEL 7
REMARK VINA RESULT:    -4.116     11.619     13.909
REMARK INTER + INTRA:          -9.997
REMARK INTER:                  -6.916
REMARK INTRA:                  -3.080
REMARK UNBOUND:                -2.031
REMARK SMILES CCCCCCCCCCCCCCCCCC(=O)[O-]
REMARK SMILES IDX 10 1 11 2 12 3 13 4 14 5 15 6 16 7 17 8 18 9 19 10 20 11
REMARK SMILES IDX 9 12 8 13 7 14 6 15 5 16 4 17 3 18 2 19 1 20
REMARK H PARENT
REMARK Flexibility Score: inf
ROOT
ATOM      1  C   UNL     1     102.288 100.753  94.893  1.00  0.00     0.000 C 
ENDROOT
BRANCH   1   2
ATOM      2  C   UNL     1     101.380 100.313  96.056  1.00  0.00     0.000 C 
BRANCH   2   3
ATOM      3  C   UNL     1     101.846 100.857  97.418  1.00  0.00     0.000 C 
BRANCH   3   4
ATOM      4  C   UNL     1     102.207 102.353  97.376  1.00  0.00     0.000 C 
BRANCH   4   5
ATOM      5  C   UNL     1     103.627 102.697  97.861  1.00  0.00     0.000 C 
BRANCH   5   6
ATOM      6  C   UNL     1     104.569 101.481  97.862  1.00  0.00     0.000 C 
BRANCH   6   7
ATOM      7  C   UNL     1     105.739 101.625  96.872  1.00  0.00     0.006 C 
BRANCH   7   8
ATOM      8  C   UNL     1     106.859 100.591  97.076  1.00  0.00     0.053 C 
BRANCH   8   9
ATOM      9  C   UNL     1     107.416 100.083  95.781  1.00  0.00     0.041 C 
ATOM     10  O   UNL     1     107.132 100.659  94.699  1.00  0.00    -0.550 OA
ATOM     11  O   UNL     1     108.226  98.953  95.765  1.00  0.00    -0.550 OA
ENDBRANCH   8   9
ENDBRANCH   7   8
ENDBRANCH   6   7
ENDBRANCH   5   6
ENDBRANCH   4   5
ENDBRANCH   3   4
ENDBRANCH   2   3
ENDBRANCH   1   2
BRANCH   1  12
ATOM     12  C   UNL     1     103.509  99.850  94.639  1.00  0.00     0.000 C 
BRANCH  12  13
ATOM     13  C   UNL     1     103.327  98.426  95.193  1.00  0.00    -0.000 C 
BRANCH  13  14
ATOM     14  C   UNL     1     104.657  97.774  95.603  1.00  0.00    -0.000 C 
BRANCH  14  15
ATOM     15  C   UNL     1     104.578  97.086  96.976  1.00  0.00    -0.000 C 
BRANCH  15  16
ATOM     16  C   UNL     1     103.724  97.874  97.983  1.00  0.00    -0.000 C 
BRANCH  16  17
ATOM     17  C   UNL     1     103.081  96.973  99.048  1.00  0.00    -0.000 C 
BRANCH  17  18
ATOM     18  C   UNL     1     101.844  96.259  98.488  1.00  0.00    -0.000 C 
BRANCH  18  19
ATOM     19  C   UNL     1     100.762  97.267  98.085  1.00  0.00    -0.003 C 
ATOM     20  C   UNL     1     100.159  96.917  96.728  1.00  0.00     0.004 C 
ENDBRANCH  18  19
ENDBRANCH  17  18
ENDBRANCH  16  17
ENDBRANCH  15  16
ENDBRANCH  14  15
ENDBRANCH  13  14
ENDBRANCH  12  13
ENDBRANCH   1  12
TORSDOF 16
ENDMDL
MODEL 8
REMARK VINA RESULT:    -4.077     11.544     12.907
REMARK INTER + INTRA:          -9.922
REMARK INTER:                  -6.951
REMARK INTRA:                  -2.971
REMARK UNBOUND:                -2.031
REMARK SMILES CCCCCCCCCCCCCCCCCC(=O)[O-]
REMARK SMILES IDX 10 1 11 2 12 3 13 4 14 5 15 6 16 7 17 8 18 9 19 10 20 11
REMARK SMILES IDX 9 12 8 13 7 14 6 15 5 16 4 17 3 18 2 19 1 20
REMARK H PARENT
REMARK Flexibility Score: inf
ROOT
ATOM      1  C   UNL     1     103.321  98.516  99.521  1.00  0.00     0.000 C 
ENDROOT
BRANCH   1   2
ATOM      2  C   UNL     1     102.562  97.201  99.773  1.00  0.00     0.000 C 
BRANCH   2   3
ATOM      3  C   UNL     1     102.189  96.465  98.474  1.00  0.00     0.000 C 
BRANCH   3   4
ATOM      4  C   UNL     1     100.778  96.820  97.967  1.00  0.00     0.000 C 
BRANCH   4   5
ATOM      5  C   UNL     1     100.739  97.629  96.658  1.00  0.00     0.000 C 
BRANCH   5   6
ATOM      6  C   UNL     1      99.570  98.628  96.608  1.00  0.00     0.000 C 
BRANCH   6   7
ATOM      7  C   UNL     1      99.880  99.877  95.762  1.00  0.00     0.006 C 
BRANCH   7   8
ATOM      8  C   UNL     1      99.627 101.205  96.493  1.00  0.00     0.053 C 
BRANCH   8   9
ATOM      9  C   UNL     1     100.013 102.398  95.671  1.00  0.00     0.041 C 
ATOM     10  O   UNL     1     101.217 102.756  95.601  1.00  0.00    -0.550 OA
ATOM     11  O   UNL     1      99.038 103.132  95.008  1.00  0.00    -0.550 OA
ENDBRANCH   8   9
ENDBRANCH   7   8
ENDBRANCH   6   7
ENDBRANCH   5   6
ENDBRANCH   4   5
ENDBRANCH   3   4
ENDBRANCH   2   3
ENDBRANCH   1   2
BRANCH   1  12
ATOM     12  C   UNL     1     102.438  99.774  99.424  1.00  0.00     0.000 C 
BRANCH  12  13
ATOM     13  C   UNL     1     102.685 100.582  98.138  1.00  0.00    -0.000 C 
BRANCH  13  14
ATOM     14  C   UNL     1     103.813  99.996  97.276  1.00  0.00    -0.000 C 
BRANCH  14  15
ATOM     15  C   UNL     1     103.547 100.155  95.769  1.00  0.00    -0.000 C 
BRANCH  15  16
ATOM     16  C   UNL     1     103.740  98.842  94.993  1.00  0.00    -0.000 C 
BRANCH  16  17
ATOM     17  C   UNL     1     104.397  97.742  95.842  1.00  0.00    -0.000 C 
BRANCH  17  18
ATOM     18  C   UNL     1     105.802  97.415  95.321  1.00  0.00    -0.000 C 
BRANCH  18  19
ATOM     19  C   UNL     1     106.874  98.158  96.126  1.00  0.00    -0.003 C 
ATOM     20  C   UNL     1     107.451  99.325  95.331  1.00  0.00     0.004 C 
ENDBRANCH  18  19
ENDBRANCH  17  18
ENDBRANCH  16  17
ENDBRANCH  15  16
ENDBRANCH  14  15
ENDBRANCH  13  14
ENDBRANCH  12  13
ENDBRANCH   1  12
TORSDOF 16
ENDMDL
MODEL 9
REMARK VINA RESULT:    -4.071     11.700     13.708
REMARK INTER + INTRA:          -9.911
REMARK INTER:                  -7.589
REMARK INTRA:                  -2.322
REMARK UNBOUND:                -2.031
REMARK SMILES CCCCCCCCCCCCCCCCCC(=O)[O-]
REMARK SMILES IDX 10 1 11 2 12 3 13 4 14 5 15 6 16 7 17 8 18 9 19 10 20 11
REMARK SMILES IDX 9 12 8 13 7 14 6 15 5 16 4 17 3 18 2 19 1 20
REMARK H PARENT
REMARK Flexibility Score: inf
ROOT
ATOM      1  C   UNL     1     104.398  96.985  97.247  1.00  0.00     0.000 C 
ENDROOT
BRANCH   1   2
ATOM      2  C   UNL     1     105.676  96.992  96.388  1.00  0.00     0.000 C 
BRANCH   2   3
ATOM      3  C   UNL     1     105.499  97.740  95.055  1.00  0.00     0.000 C 
BRANCH   3   4
ATOM      4  C   UNL     1     106.469  98.926  94.899  1.00  0.00     0.000 C 
BRANCH   4   5
ATOM      5  C   UNL     1     105.821 100.318  95.005  1.00  0.00     0.000 C 
BRANCH   5   6
ATOM      6  C   UNL     1     105.554 100.744  96.458  1.00  0.00     0.000 C 
BRANCH   6   7
ATOM      7  C   UNL     1     106.839 101.090  97.231  1.00  0.00     0.006 C 
BRANCH   7   8
ATOM      8  C   UNL     1     107.305  99.984  98.194  1.00  0.00     0.053 C 
BRANCH   8   9
ATOM      9  C   UNL     1     108.765  99.679  98.057  1.00  0.00     0.041 C 
ATOM     10  O   UNL     1     109.397 100.048  97.033  1.00  0.00    -0.550 OA
ATOM     11  O   UNL     1     109.423  98.958  99.047  1.00  0.00    -0.550 OA
ENDBRANCH   8   9
ENDBRANCH   7   8
ENDBRANCH   6   7
ENDBRANCH   5   6
ENDBRANCH   4   5
ENDBRANCH   3   4
ENDBRANCH   2   3
ENDBRANCH   1   2
BRANCH   1  12
ATOM     12  C   UNL     1     104.145  95.684  98.031  1.00  0.00     0.000 C 
BRANCH  12  13
ATOM     13  C   UNL     1     102.932  95.779  98.973  1.00  0.00    -0.000 C 
BRANCH  13  14
ATOM     14  C   UNL     1     102.636  97.220  99.416  1.00  0.00    -0.000 C 
BRANCH  14  15
ATOM     15  C   UNL     1     101.228  97.685  99.005  1.00  0.00    -0.000 C 
BRANCH  15  16
ATOM     16  C   UNL     1     100.598  96.782  97.931  1.00  0.00    -0.000 C 
BRANCH  16  17
ATOM     17  C   UNL     1     100.771  97.342  96.510  1.00  0.00    -0.000 C 
BRANCH  17  18
ATOM     18  C   UNL     1     100.854  98.873  96.531  1.00  0.00    -0.000 C 
BRANCH  18  19
ATOM     19  C   UNL     1     102.063  99.370  95.730  1.00  0.00    -0.003 C 
ATOM     20  C   UNL     1     102.003 100.880  95.520  1.00  0.00     0.004 C 
ENDBRANCH  18  19
ENDBRANCH  17  18
ENDBRANCH  16  17
ENDBRANCH  15  16
ENDBRANCH  14  15
ENDBRANCH  13  14
ENDBRANCH  12  13
ENDBRANCH   1  12
TORSDOF 16
ENDMDL
