MODEL 1
REMARK VINA RESULT:    -4.848      0.000      0.000
REMARK INTER + INTRA:          -6.046
REMARK INTER:                  -5.840
REMARK INTRA:                  -0.207
REMARK UNBOUND:                -0.207
REMARK SMILES O=c1c(O)c(-c2ccc(O)c(O)c2)oc2cc(O)cc(O)c12
REMARK SMILES IDX 5 1 3 2 2 3 1 4 22 5 20 6 19 7 17 8 16 9 15 10 14 11 6 12
REMARK SMILES IDX 7 13 8 14 9 15 13 16 11 17 10 18 12 20 4 22 21 24 18 26
REMARK H PARENT 10 19 12 21 4 23 21 25 18 27
REMARK Flexibility Score: inf
ROOT
ATOM      1  C   UNL     1      22.335  12.799  86.743  1.00  0.00     0.180 A 
ATOM      2  C   UNL     1      21.799  14.050  86.393  1.00  0.00     0.208 A 
ATOM      3  C   UNL     1      22.662  15.151  86.271  1.00  0.00     0.238 A 
ATOM      4  O   UNL     1      22.183  16.257  85.905  1.00  0.00    -0.285 OA
ATOM      5  C   UNL     1      24.047  14.992  86.516  1.00  0.00     0.111 A 
ATOM      6  C   UNL     1      25.007  16.047  86.461  1.00  0.00     0.134 A 
ATOM      7  C   UNL     1      26.369  15.749  86.592  1.00  0.00     0.093 A 
ATOM      8  C   UNL     1      26.799  14.444  86.844  1.00  0.00     0.123 A 
ATOM      9  C   UNL     1      25.866  13.417  86.958  1.00  0.00     0.094 A 
ATOM     10  C   UNL     1      24.503  13.677  86.795  1.00  0.00     0.146 A 
ATOM     11  O   UNL     1      23.647  12.668  86.902  1.00  0.00    -0.452 OA
ENDROOT
BRANCH   1  12
ATOM     12  C   UNL     1      21.487  11.598  86.915  1.00  0.00     0.025 A 
ATOM     13  C   UNL     1      20.545  11.510  87.955  1.00  0.00     0.016 A 
ATOM     14  C   UNL     1      19.772  10.358  88.112  1.00  0.00     0.051 A 
ATOM     15  C   UNL     1      19.936   9.271  87.243  1.00  0.00     0.157 A 
ATOM     16  C   UNL     1      21.664  10.499  86.059  1.00  0.00     0.062 A 
ATOM     17  C   UNL     1      20.891   9.342  86.214  1.00  0.00     0.158 A 
BRANCH  15  18
ATOM     18  O   UNL     1      19.163   8.122  87.402  1.00  0.00    -0.504 OA
ATOM     19  H   UNL     1      19.147   7.610  88.277  1.00  0.00     0.293 HD
ENDBRANCH  15  18
BRANCH  17  20
ATOM     20  O   UNL     1      21.085   8.275  85.336  1.00  0.00    -0.504 OA
ATOM     21  H   UNL     1      20.486   8.124  84.534  1.00  0.00     0.293 HD
ENDBRANCH  17  20
ENDBRANCH   1  12
BRANCH   2  22
ATOM     22  O   UNL     1      20.432  14.182  86.134  1.00  0.00    -0.502 OA
ATOM     23  H   UNL     1      19.927  13.539  85.537  1.00  0.00     0.293 HD
ENDBRANCH   2  22
BRANCH   6  24
ATOM     24  O   UNL     1      24.676  17.396  86.307  1.00  0.00    -0.507 OA
ATOM     25  H   UNL     1      23.869  17.841  86.721  1.00  0.00     0.293 HD
ENDBRANCH   6  24
BRANCH   8  26
ATOM     26  O   UNL     1      28.155  14.159  86.989  1.00  0.00    -0.508 OA
ATOM     27  H   UNL     1      28.606  13.432  86.444  1.00  0.00     0.293 HD
ENDBRANCH   8  26
TORSDOF 6
ENDMDL
MODEL 2
REMARK VINA RESULT:    -4.551      1.948      3.902
REMARK INTER + INTRA:          -5.688
REMARK INTER:                  -5.364
REMARK INTRA:                  -0.324
REMARK UNBOUND:                -0.207
REMARK SMILES O=c1c(O)c(-c2ccc(O)c(O)c2)oc2cc(O)cc(O)c12
REMARK SMILES IDX 5 1 3 2 2 3 1 4 22 5 20 6 19 7 17 8 16 9 15 10 14 11 6 12
REMARK SMILES IDX 7 13 8 14 9 15 13 16 11 17 10 18 12 20 4 22 21 24 18 26
REMARK H PARENT 10 19 12 21 4 23 21 25 18 27
REMARK Flexibility Score: inf
ROOT
ATOM      1  C   UNL     1      21.203  13.451  86.368  1.00  0.00     0.180 A 
ATOM      2  C   UNL     1      22.525  13.843  86.638  1.00  0.00     0.208 A 
ATOM      3  C   UNL     1      22.923  15.155  86.335  1.00  0.00     0.238 A 
ATOM      4  O   UNL     1      24.093  15.515  86.630  1.00  0.00    -0.285 OA
ATOM      5  C   UNL     1      21.999  16.054  85.752  1.00  0.00     0.111 A 
ATOM      6  C   UNL     1      22.304  17.394  85.367  1.00  0.00     0.134 A 
ATOM      7  C   UNL     1      21.277  18.235  84.919  1.00  0.00     0.093 A 
ATOM      8  C   UNL     1      19.970  17.764  84.780  1.00  0.00     0.123 A 
ATOM      9  C   UNL     1      19.674  16.441  85.097  1.00  0.00     0.094 A 
ATOM     10  C   UNL     1      20.669  15.588  85.580  1.00  0.00     0.146 A 
ATOM     11  O   UNL     1      20.342  14.337  85.880  1.00  0.00    -0.452 OA
ENDROOT
BRANCH   1  12
ATOM     12  C   UNL     1      20.717  12.078  86.636  1.00  0.00     0.025 A 
ATOM     13  C   UNL     1      20.171  11.726  87.883  1.00  0.00     0.016 A 
ATOM     14  C   UNL     1      19.740  10.419  88.121  1.00  0.00     0.051 A 
ATOM     15  C   UNL     1      19.859   9.441  87.125  1.00  0.00     0.157 A 
ATOM     16  C   UNL     1      20.854  11.091  85.647  1.00  0.00     0.062 A 
ATOM     17  C   UNL     1      20.423   9.780  85.883  1.00  0.00     0.158 A 
BRANCH  15  18
ATOM     18  O   UNL     1      19.428   8.138  87.365  1.00  0.00    -0.504 OA
ATOM     19  H   UNL     1      18.813   7.655  86.720  1.00  0.00     0.293 HD
ENDBRANCH  15  18
BRANCH  17  20
ATOM     20  O   UNL     1      20.563   8.829  84.872  1.00  0.00    -0.504 OA
ATOM     21  H   UNL     1      19.820   8.632  84.213  1.00  0.00     0.293 HD
ENDBRANCH  17  20
ENDBRANCH   1  12
BRANCH   2  22
ATOM     22  O   UNL     1      23.416  12.946  87.236  1.00  0.00    -0.502 OA
ATOM     23  H   UNL     1      23.382  11.949  87.064  1.00  0.00     0.293 HD
ENDBRANCH   2  22
BRANCH   6  24
ATOM     24  O   UNL     1      23.593  17.935  85.379  1.00  0.00    -0.507 OA
ATOM     25  H   UNL     1      23.811  18.904  85.194  1.00  0.00     0.293 HD
ENDBRANCH   6  24
BRANCH   8  26
ATOM     26  O   UNL     1      18.958  18.603  84.319  1.00  0.00    -0.508 OA
ATOM     27  H   UNL     1      19.092  19.202  83.512  1.00  0.00     0.293 HD
ENDBRANCH   8  26
TORSDOF 6
ENDMDL
MODEL 3
REMARK VINA RESULT:    -4.546      2.016      2.785
REMARK INTER + INTRA:          -5.683
REMARK INTER:                  -5.374
REMARK INTRA:                  -0.309
REMARK UNBOUND:                -0.207
REMARK SMILES O=c1c(O)c(-c2ccc(O)c(O)c2)oc2cc(O)cc(O)c12
REMARK SMILES IDX 5 1 3 2 2 3 1 4 22 5 20 6 19 7 17 8 16 9 15 10 14 11 6 12
REMARK SMILES IDX 7 13 8 14 9 15 13 16 11 17 10 18 12 20 4 22 21 24 18 26
REMARK H PARENT 10 19 12 21 4 23 21 25 18 27
REMARK Flexibility Score: inf
ROOT
ATOM      1  C   UNL     1      20.522  13.567  86.040  1.00  0.00     0.180 A 
ATOM      2  C   UNL     1      19.553  14.390  85.442  1.00  0.00     0.208 A 
ATOM      3  C   UNL     1      19.877  15.726  85.155  1.00  0.00     0.238 A 
ATOM      4  O   UNL     1      19.022  16.443  84.570  1.00  0.00    -0.285 OA
ATOM      5  C   UNL     1      21.159  16.226  85.484  1.00  0.00     0.111 A 
ATOM      6  C   UNL     1      21.582  17.574  85.276  1.00  0.00     0.134 A 
ATOM      7  C   UNL     1      22.915  17.925  85.518  1.00  0.00     0.093 A 
ATOM      8  C   UNL     1      23.824  16.994  86.025  1.00  0.00     0.123 A 
ATOM      9  C   UNL     1      23.406  15.691  86.287  1.00  0.00     0.094 A 
ATOM     10  C   UNL     1      22.092  15.301  86.021  1.00  0.00     0.146 A 
ATOM     11  O   UNL     1      21.738  14.048  86.276  1.00  0.00    -0.452 OA
ENDROOT
BRANCH   1  12
ATOM     12  C   UNL     1      20.248  12.155  86.395  1.00  0.00     0.025 A 
ATOM     13  C   UNL     1      19.890  11.786  87.703  1.00  0.00     0.016 A 
ATOM     14  C   UNL     1      19.659  10.446  88.021  1.00  0.00     0.051 A 
ATOM     15  C   UNL     1      19.795   9.453  87.042  1.00  0.00     0.157 A 
ATOM     16  C   UNL     1      20.404  11.155  85.422  1.00  0.00     0.062 A 
ATOM     17  C   UNL     1      20.173   9.811  85.736  1.00  0.00     0.158 A 
BRANCH  15  18
ATOM     18  O   UNL     1      19.563   8.116  87.361  1.00  0.00    -0.504 OA
ATOM     19  H   UNL     1      19.823   7.734  88.263  1.00  0.00     0.293 HD
ENDBRANCH  15  18
BRANCH  17  20
ATOM     20  O   UNL     1      20.324   8.846  84.740  1.00  0.00    -0.504 OA
ATOM     21  H   UNL     1      19.617   8.144  84.561  1.00  0.00     0.293 HD
ENDBRANCH  17  20
ENDBRANCH   1  12
BRANCH   2  22
ATOM     22  O   UNL     1      18.300  13.870  85.104  1.00  0.00    -0.502 OA
ATOM     23  H   UNL     1      17.449  14.416  85.168  1.00  0.00     0.293 HD
ENDBRANCH   2  22
BRANCH   6  24
ATOM     24  O   UNL     1      20.731  18.603  84.861  1.00  0.00    -0.507 OA
ATOM     25  H   UNL     1      20.972  19.307  84.178  1.00  0.00     0.293 HD
ENDBRANCH   6  24
BRANCH   8  26
ATOM     26  O   UNL     1      25.145  17.355  86.279  1.00  0.00    -0.508 OA
ATOM     27  H   UNL     1      25.769  17.642  85.533  1.00  0.00     0.293 HD
ENDBRANCH   8  26
TORSDOF 6
ENDMDL
MODEL 4
REMARK VINA RESULT:    -4.093      2.756      6.795
REMARK INTER + INTRA:          -5.137
REMARK INTER:                  -4.877
REMARK INTRA:                  -0.260
REMARK UNBOUND:                -0.207
REMARK SMILES O=c1c(O)c(-c2ccc(O)c(O)c2)oc2cc(O)cc(O)c12
REMARK SMILES IDX 5 1 3 2 2 3 1 4 22 5 20 6 19 7 17 8 16 9 15 10 14 11 6 12
REMARK SMILES IDX 7 13 8 14 9 15 13 16 11 17 10 18 12 20 4 22 21 24 18 26
REMARK H PARENT 10 19 12 21 4 23 21 25 18 27
REMARK Flexibility Score: inf
ROOT
ATOM      1  C   UNL     1      21.375  14.280  85.624  1.00  0.00     0.180 A 
ATOM      2  C   UNL     1      22.446  13.945  84.778  1.00  0.00     0.208 A 
ATOM      3  C   UNL     1      22.806  12.595  84.637  1.00  0.00     0.238 A 
ATOM      4  O   UNL     1      23.732  12.297  83.836  1.00  0.00    -0.285 OA
ATOM      5  C   UNL     1      22.102  11.600  85.354  1.00  0.00     0.111 A 
ATOM      6  C   UNL     1      22.407  10.205  85.318  1.00  0.00     0.134 A 
ATOM      7  C   UNL     1      21.561   9.296  85.965  1.00  0.00     0.093 A 
ATOM      8  C   UNL     1      20.460   9.737  86.703  1.00  0.00     0.123 A 
ATOM      9  C   UNL     1      20.188  11.099  86.793  1.00  0.00     0.094 A 
ATOM     10  C   UNL     1      20.992  12.029  86.128  1.00  0.00     0.146 A 
ATOM     11  O   UNL     1      20.692  13.317  86.232  1.00  0.00    -0.452 OA
ENDROOT
BRANCH   1  12
ATOM     12  C   UNL     1      20.952  15.683  85.844  1.00  0.00     0.025 A 
ATOM     13  C   UNL     1      19.803  16.205  85.225  1.00  0.00     0.016 A 
ATOM     14  C   UNL     1      19.435  17.537  85.428  1.00  0.00     0.051 A 
ATOM     15  C   UNL     1      20.217  18.371  86.239  1.00  0.00     0.157 A 
ATOM     16  C   UNL     1      21.744  16.527  86.638  1.00  0.00     0.062 A 
ATOM     17  C   UNL     1      21.379  17.862  86.844  1.00  0.00     0.158 A 
BRANCH  15  18
ATOM     18  O   UNL     1      19.848  19.700  86.440  1.00  0.00    -0.504 OA
ATOM     19  H   UNL     1      20.481  20.464  86.232  1.00  0.00     0.293 HD
ENDBRANCH  15  18
BRANCH  17  20
ATOM     20  O   UNL     1      22.183  18.667  87.651  1.00  0.00    -0.504 OA
ATOM     21  H   UNL     1      22.533  18.351  88.547  1.00  0.00     0.293 HD
ENDBRANCH  17  20
ENDBRANCH   1  12
BRANCH   2  22
ATOM     22  O   UNL     1      23.115  14.942  84.061  1.00  0.00    -0.502 OA
ATOM     23  H   UNL     1      22.754  15.884  83.974  1.00  0.00     0.293 HD
ENDBRANCH   2  22
BRANCH   6  24
ATOM     24  O   UNL     1      23.534   9.669  84.688  1.00  0.00    -0.507 OA
ATOM     25  H   UNL     1      23.894   8.739  84.848  1.00  0.00     0.293 HD
ENDBRANCH   6  24
BRANCH   8  26
ATOM     26  O   UNL     1      19.633   8.827  87.357  1.00  0.00    -0.508 OA
ATOM     27  H   UNL     1      18.688   9.071  87.631  1.00  0.00     0.293 HD
ENDBRANCH   8  26
TORSDOF 6
ENDMDL
MODEL 5
REMARK VINA RESULT:    -3.999      2.344      4.166
REMARK INTER + INTRA:          -5.023
REMARK INTER:                  -4.688
REMARK INTRA:                  -0.335
REMARK UNBOUND:                -0.207
REMARK SMILES O=c1c(O)c(-c2ccc(O)c(O)c2)oc2cc(O)cc(O)c12
REMARK SMILES IDX 5 1 3 2 2 3 1 4 22 5 20 6 19 7 17 8 16 9 15 10 14 11 6 12
REMARK SMILES IDX 7 13 8 14 9 15 13 16 11 17 10 18 12 20 4 22 21 24 18 26
REMARK H PARENT 10 19 12 21 4 23 21 25 18 27
REMARK Flexibility Score: inf
ROOT
ATOM      1  C   UNL     1      21.408  14.196  86.008  1.00  0.00     0.180 A 
ATOM      2  C   UNL     1      22.793  14.324  86.205  1.00  0.00     0.208 A 
ATOM      3  C   UNL     1      23.351  15.608  86.307  1.00  0.00     0.238 A 
ATOM      4  O   UNL     1      24.585  15.715  86.537  1.00  0.00    -0.285 OA
ATOM      5  C   UNL     1      22.520  16.748  86.194  1.00  0.00     0.111 A 
ATOM      6  C   UNL     1      22.984  18.097  86.241  1.00  0.00     0.134 A 
ATOM      7  C   UNL     1      22.057  19.147  86.250  1.00  0.00     0.093 A 
ATOM      8  C   UNL     1      20.687  18.897  86.146  1.00  0.00     0.123 A 
ATOM      9  C   UNL     1      20.228  17.587  86.040  1.00  0.00     0.094 A 
ATOM     10  C   UNL     1      21.126  16.517  86.065  1.00  0.00     0.146 A 
ATOM     11  O   UNL     1      20.646  15.283  85.972  1.00  0.00    -0.452 OA
ENDROOT
BRANCH   1  12
ATOM     12  C   UNL     1      20.749  12.876  85.866  1.00  0.00     0.025 A 
ATOM     13  C   UNL     1      20.617  12.256  84.612  1.00  0.00     0.016 A 
ATOM     14  C   UNL     1      19.972  11.022  84.499  1.00  0.00     0.051 A 
ATOM     15  C   UNL     1      19.437  10.397  85.633  1.00  0.00     0.157 A 
ATOM     16  C   UNL     1      20.194  12.257  86.997  1.00  0.00     0.062 A 
ATOM     17  C   UNL     1      19.547  11.020  86.888  1.00  0.00     0.158 A 
BRANCH  15  18
ATOM     18  O   UNL     1      18.794   9.165  85.517  1.00  0.00    -0.504 OA
ATOM     19  H   UNL     1      19.309   8.314  85.322  1.00  0.00     0.293 HD
ENDBRANCH  15  18
BRANCH  17  20
ATOM     20  O   UNL     1      19.019  10.428  88.035  1.00  0.00    -0.504 OA
ATOM     21  H   UNL     1      19.610  10.072  88.776  1.00  0.00     0.293 HD
ENDBRANCH  17  20
ENDBRANCH   1  12
BRANCH   2  22
ATOM     22  O   UNL     1      23.593  13.185  86.336  1.00  0.00    -0.502 OA
ATOM     23  H   UNL     1      24.203  12.860  85.596  1.00  0.00     0.293 HD
ENDBRANCH   2  22
BRANCH   6  24
ATOM     24  O   UNL     1      24.335  18.458  86.252  1.00  0.00    -0.507 OA
ATOM     25  H   UNL     1      24.795  18.984  85.524  1.00  0.00     0.293 HD
ENDBRANCH   6  24
BRANCH   8  26
ATOM     26  O   UNL     1      19.772  19.948  86.140  1.00  0.00    -0.508 OA
ATOM     27  H   UNL     1      18.864  19.858  85.696  1.00  0.00     0.293 HD
ENDBRANCH   8  26
TORSDOF 6
ENDMDL
MODEL 6
REMARK VINA RESULT:    -3.989     14.853     16.868
REMARK INTER + INTRA:          -5.012
REMARK INTER:                  -4.692
REMARK INTRA:                  -0.319
REMARK UNBOUND:                -0.207
REMARK SMILES O=c1c(O)c(-c2ccc(O)c(O)c2)oc2cc(O)cc(O)c12
REMARK SMILES IDX 5 1 3 2 2 3 1 4 22 5 20 6 19 7 17 8 16 9 15 10 14 11 6 12
REMARK SMILES IDX 7 13 8 14 9 15 13 16 11 17 10 18 12 20 4 22 21 24 18 26
REMARK H PARENT 10 19 12 21 4 23 21 25 18 27
REMARK Flexibility Score: inf
ROOT
ATOM      1  C   UNL     1      18.682  14.265  71.700  1.00  0.00     0.180 A 
ATOM      2  C   UNL     1      18.014  14.200  70.465  1.00  0.00     0.208 A 
ATOM      3  C   UNL     1      17.563  12.955  69.999  1.00  0.00     0.238 A 
ATOM      4  O   UNL     1      16.918  12.911  68.918  1.00  0.00    -0.285 OA
ATOM      5  C   UNL     1      17.801  11.788  70.764  1.00  0.00     0.111 A 
ATOM      6  C   UNL     1      17.424  10.469  70.369  1.00  0.00     0.134 A 
ATOM      7  C   UNL     1      17.592   9.406  71.265  1.00  0.00     0.093 A 
ATOM      8  C   UNL     1      18.184   9.603  72.514  1.00  0.00     0.123 A 
ATOM      9  C   UNL     1      18.609  10.877  72.885  1.00  0.00     0.094 A 
ATOM     10  C   UNL     1      18.422  11.964  72.028  1.00  0.00     0.146 A 
ATOM     11  O   UNL     1      18.832  13.162  72.425  1.00  0.00    -0.452 OA
ENDROOT
BRANCH   1  12
ATOM     12  C   UNL     1      19.208  15.537  72.246  1.00  0.00     0.025 A 
ATOM     13  C   UNL     1      18.396  16.400  73.003  1.00  0.00     0.016 A 
ATOM     14  C   UNL     1      18.906  17.605  73.489  1.00  0.00     0.051 A 
ATOM     15  C   UNL     1      20.230  17.975  73.215  1.00  0.00     0.157 A 
ATOM     16  C   UNL     1      20.527  15.921  71.956  1.00  0.00     0.062 A 
ATOM     17  C   UNL     1      21.042  17.129  72.441  1.00  0.00     0.158 A 
BRANCH  15  18
ATOM     18  O   UNL     1      20.737  19.179  73.702  1.00  0.00    -0.504 OA
ATOM     19  H   UNL     1      21.734  19.341  73.784  1.00  0.00     0.293 HD
ENDBRANCH  15  18
BRANCH  17  20
ATOM     20  O   UNL     1      22.362  17.471  72.145  1.00  0.00    -0.504 OA
ATOM     21  H   UNL     1      22.697  17.540  71.192  1.00  0.00     0.293 HD
ENDBRANCH  17  20
ENDBRANCH   1  12
BRANCH   2  22
ATOM     22  O   UNL     1      17.770  15.367  69.735  1.00  0.00    -0.502 OA
ATOM     23  H   UNL     1      16.965  15.957  69.905  1.00  0.00     0.293 HD
ENDBRANCH   2  22
BRANCH   6  24
ATOM     24  O   UNL     1      16.911  10.148  69.109  1.00  0.00    -0.507 OA
ATOM     25  H   UNL     1      17.200  10.580  68.244  1.00  0.00     0.293 HD
ENDBRANCH   6  24
BRANCH   8  26
ATOM     26  O   UNL     1      18.362   8.537  73.393  1.00  0.00    -0.508 OA
ATOM     27  H   UNL     1      17.574   8.023  73.770  1.00  0.00     0.293 HD
ENDBRANCH   8  26
TORSDOF 6
ENDMDL
MODEL 7
REMARK VINA RESULT:    -3.910      2.578      6.492
REMARK INTER + INTRA:          -4.917
REMARK INTER:                  -4.614
REMARK INTRA:                  -0.303
REMARK UNBOUND:                -0.207
REMARK SMILES O=c1c(O)c(-c2ccc(O)c(O)c2)oc2cc(O)cc(O)c12
REMARK SMILES IDX 5 1 3 2 2 3 1 4 22 5 20 6 19 7 17 8 16 9 15 10 14 11 6 12
REMARK SMILES IDX 7 13 8 14 9 15 13 16 11 17 10 18 12 20 4 22 21 24 18 26
REMARK H PARENT 10 19 12 21 4 23 21 25 18 27
REMARK Flexibility Score: inf
ROOT
ATOM      1  C   UNL     1      21.387  12.939  85.898  1.00  0.00     0.180 A 
ATOM      2  C   UNL     1      20.845  12.111  86.896  1.00  0.00     0.208 A 
ATOM      3  C   UNL     1      21.030  10.722  86.805  1.00  0.00     0.238 A 
ATOM      4  O   UNL     1      20.588   9.991  87.730  1.00  0.00    -0.285 OA
ATOM      5  C   UNL     1      21.742  10.177  85.710  1.00  0.00     0.111 A 
ATOM      6  C   UNL     1      21.955   8.782  85.495  1.00  0.00     0.134 A 
ATOM      7  C   UNL     1      22.785   8.363  84.448  1.00  0.00     0.093 A 
ATOM      8  C   UNL     1      23.355   9.286  83.568  1.00  0.00     0.123 A 
ATOM      9  C   UNL     1      23.105  10.646  83.734  1.00  0.00     0.094 A 
ATOM     10  C   UNL     1      22.311  11.097  84.791  1.00  0.00     0.146 A 
ATOM     11  O   UNL     1      22.105  12.402  84.918  1.00  0.00    -0.452 OA
ENDROOT
BRANCH   1  12
ATOM     12  C   UNL     1      21.213  14.409  85.912  1.00  0.00     0.025 A 
ATOM     13  C   UNL     1      20.008  15.007  85.500  1.00  0.00     0.016 A 
ATOM     14  C   UNL     1      19.874  16.397  85.499  1.00  0.00     0.051 A 
ATOM     15  C   UNL     1      20.943  17.212  85.895  1.00  0.00     0.157 A 
ATOM     16  C   UNL     1      22.288  15.230  86.287  1.00  0.00     0.062 A 
ATOM     17  C   UNL     1      22.157  16.623  86.287  1.00  0.00     0.158 A 
BRANCH  15  18
ATOM     18  O   UNL     1      20.806  18.599  85.893  1.00  0.00    -0.504 OA
ATOM     19  H   UNL     1      21.467  19.197  85.410  1.00  0.00     0.293 HD
ENDBRANCH  15  18
BRANCH  17  20
ATOM     20  O   UNL     1      23.243  17.406  86.680  1.00  0.00    -0.504 OA
ATOM     21  H   UNL     1      23.167  18.408  86.801  1.00  0.00     0.293 HD
ENDBRANCH  17  20
ENDBRANCH   1  12
BRANCH   2  22
ATOM     22  O   UNL     1      20.164  12.672  87.981  1.00  0.00    -0.502 OA
ATOM     23  H   UNL     1      20.059  12.189  88.865  1.00  0.00     0.293 HD
ENDBRANCH   2  22
BRANCH   6  24
ATOM     24  O   UNL     1      21.358   7.775  86.259  1.00  0.00    -0.507 OA
ATOM     25  H   UNL     1      20.502   7.882  86.783  1.00  0.00     0.293 HD
ENDBRANCH   6  24
BRANCH   8  26
ATOM     26  O   UNL     1      24.167   8.860  82.519  1.00  0.00    -0.508 OA
ATOM     27  H   UNL     1      24.248   9.394  81.661  1.00  0.00     0.293 HD
ENDBRANCH   8  26
TORSDOF 6
ENDMDL
MODEL 8
REMARK VINA RESULT:    -3.898      2.844      7.839
REMARK INTER + INTRA:          -4.903
REMARK INTER:                  -4.579
REMARK INTRA:                  -0.324
REMARK UNBOUND:                -0.207
REMARK SMILES O=c1c(O)c(-c2ccc(O)c(O)c2)oc2cc(O)cc(O)c12
REMARK SMILES IDX 5 1 3 2 2 3 1 4 22 5 20 6 19 7 17 8 16 9 15 10 14 11 6 12
REMARK SMILES IDX 7 13 8 14 9 15 13 16 11 17 10 18 12 20 4 22 21 24 18 26
REMARK H PARENT 10 19 12 21 4 23 21 25 18 27
REMARK Flexibility Score: inf
ROOT
ATOM      1  C   UNL     1      22.047  15.965  86.009  1.00  0.00     0.180 A 
ATOM      2  C   UNL     1      22.885  15.074  86.701  1.00  0.00     0.208 A 
ATOM      3  C   UNL     1      22.421  13.778  86.980  1.00  0.00     0.238 A 
ATOM      4  O   UNL     1      23.197  12.968  87.552  1.00  0.00    -0.285 OA
ATOM      5  C   UNL     1      21.119  13.395  86.578  1.00  0.00     0.111 A 
ATOM      6  C   UNL     1      20.531  12.121  86.843  1.00  0.00     0.134 A 
ATOM      7  C   UNL     1      19.286  11.806  86.285  1.00  0.00     0.093 A 
ATOM      8  C   UNL     1      18.579  12.742  85.528  1.00  0.00     0.123 A 
ATOM      9  C   UNL     1      19.118  14.008  85.313  1.00  0.00     0.094 A 
ATOM     10  C   UNL     1      20.374  14.340  85.825  1.00  0.00     0.146 A 
ATOM     11  O   UNL     1      20.856  15.553  85.589  1.00  0.00    -0.452 OA
ENDROOT
BRANCH   1  12
ATOM     12  C   UNL     1      22.456  17.354  85.701  1.00  0.00     0.025 A 
ATOM     13  C   UNL     1      23.141  17.668  84.514  1.00  0.00     0.016 A 
ATOM     14  C   UNL     1      23.537  18.982  84.254  1.00  0.00     0.051 A 
ATOM     15  C   UNL     1      23.269  19.999  85.180  1.00  0.00     0.157 A 
ATOM     16  C   UNL     1      22.207  18.372  86.635  1.00  0.00     0.062 A 
ATOM     17  C   UNL     1      22.603  19.689  86.378  1.00  0.00     0.158 A 
BRANCH  15  18
ATOM     18  O   UNL     1      23.665  21.309  84.918  1.00  0.00    -0.504 OA
ATOM     19  H   UNL     1      24.643  21.577  84.916  1.00  0.00     0.293 HD
ENDBRANCH  15  18
BRANCH  17  20
ATOM     20  O   UNL     1      22.326  20.677  87.324  1.00  0.00    -0.504 OA
ATOM     21  H   UNL     1      21.437  20.724  87.807  1.00  0.00     0.293 HD
ENDBRANCH  17  20
ENDBRANCH   1  12
BRANCH   2  22
ATOM     22  O   UNL     1      24.176  15.465  87.069  1.00  0.00    -0.502 OA
ATOM     23  H   UNL     1      24.925  15.572  86.396  1.00  0.00     0.293 HD
ENDBRANCH   2  22
BRANCH   6  24
ATOM     24  O   UNL     1      21.111  11.150  87.664  1.00  0.00    -0.507 OA
ATOM     25  H   UNL     1      21.403  10.234  87.353  1.00  0.00     0.293 HD
ENDBRANCH   6  24
BRANCH   8  26
ATOM     26  O   UNL     1      17.333  12.426  84.989  1.00  0.00    -0.508 OA
ATOM     27  H   UNL     1      16.575  13.099  84.975  1.00  0.00     0.293 HD
ENDBRANCH   8  26
TORSDOF 6
ENDMDL
MODEL 9
REMARK VINA RESULT:    -3.872      1.939      4.137
REMARK INTER + INTRA:          -4.871
REMARK INTER:                  -4.547
REMARK INTRA:                  -0.324
REMARK UNBOUND:                -0.207
REMARK SMILES O=c1c(O)c(-c2ccc(O)c(O)c2)oc2cc(O)cc(O)c12
REMARK SMILES IDX 5 1 3 2 2 3 1 4 22 5 20 6 19 7 17 8 16 9 15 10 14 11 6 12
REMARK SMILES IDX 7 13 8 14 9 15 13 16 11 17 10 18 12 20 4 22 21 24 18 26
REMARK H PARENT 10 19 12 21 4 23 21 25 18 27
REMARK Flexibility Score: inf
ROOT
ATOM      1  C   UNL     1      22.129  12.954  85.538  1.00  0.00     0.180 A 
ATOM      2  C   UNL     1      23.350  13.450  86.027  1.00  0.00     0.208 A 
ATOM      3  C   UNL     1      23.465  14.820  86.310  1.00  0.00     0.238 A 
ATOM      4  O   UNL     1      24.544  15.248  86.798  1.00  0.00    -0.285 OA
ATOM      5  C   UNL     1      22.365  15.681  86.085  1.00  0.00     0.111 A 
ATOM      6  C   UNL     1      22.382  17.092  86.297  1.00  0.00     0.134 A 
ATOM      7  C   UNL     1      21.196  17.826  86.166  1.00  0.00     0.093 A 
ATOM      8  C   UNL     1      20.009  17.209  85.766  1.00  0.00     0.123 A 
ATOM      9  C   UNL     1      19.996  15.842  85.498  1.00  0.00     0.094 A 
ATOM     10  C   UNL     1      21.154  15.077  85.655  1.00  0.00     0.146 A 
ATOM     11  O   UNL     1      21.095  13.776  85.400  1.00  0.00    -0.452 OA
ENDROOT
BRANCH   1  12
ATOM     12  C   UNL     1      21.938  11.526  85.194  1.00  0.00     0.025 A 
ATOM     13  C   UNL     1      22.339  11.015  83.947  1.00  0.00     0.016 A 
ATOM     14  C   UNL     1      22.127   9.670  83.635  1.00  0.00     0.051 A 
ATOM     15  C   UNL     1      21.501   8.819  84.557  1.00  0.00     0.157 A 
ATOM     16  C   UNL     1      21.293  10.676  86.106  1.00  0.00     0.062 A 
ATOM     17  C   UNL     1      21.079   9.328  85.797  1.00  0.00     0.158 A 
BRANCH  15  18
ATOM     18  O   UNL     1      21.292   7.477  84.242  1.00  0.00    -0.504 OA
ATOM     19  H   UNL     1      20.624   7.196  83.534  1.00  0.00     0.293 HD
ENDBRANCH  15  18
BRANCH  17  20
ATOM     20  O   UNL     1      20.447   8.510  86.733  1.00  0.00    -0.504 OA
ATOM     21  H   UNL     1      20.953   8.072  87.493  1.00  0.00     0.293 HD
ENDBRANCH  17  20
ENDBRANCH   1  12
BRANCH   2  22
ATOM     22  O   UNL     1      24.418  12.579  86.264  1.00  0.00    -0.502 OA
ATOM     23  H   UNL     1      24.390  11.601  86.005  1.00  0.00     0.293 HD
ENDBRANCH   2  22
BRANCH   6  24
ATOM     24  O   UNL     1      23.534  17.820  86.610  1.00  0.00    -0.507 OA
ATOM     25  H   UNL     1      24.231  17.532  87.281  1.00  0.00     0.293 HD
ENDBRANCH   6  24
BRANCH   8  26
ATOM     26  O   UNL     1      18.837  17.948  85.622  1.00  0.00    -0.508 OA
ATOM     27  H   UNL     1      18.504  18.562  86.357  1.00  0.00     0.293 HD
ENDBRANCH   8  26
TORSDOF 6
ENDMDL
