MODEL 1
REMARK VINA RESULT:    -4.668      0.000      0.000
REMARK INTER + INTRA:          -8.819
REMARK INTER:                  -7.398
REMARK INTRA:                  -1.421
REMARK UNBOUND:                -1.421
REMARK SMILES CCCCCCCCCCCC(=O)[O-]
REMARK SMILES IDX 7 1 8 2 9 3 10 4 11 5 12 6 13 7 14 8 6 9 5 10 4 11 3 12 2 13
REMARK SMILES IDX 1 14
REMARK H PARENT
REMARK Flexibility Score: inf
ROOT
ATOM      1  C   UNL     1      15.459  43.721   3.562  1.00  0.00     0.000 C 
ENDROOT
BRANCH   1   2
ATOM      2  C   UNL     1      16.871  43.322   4.029  1.00  0.00     0.000 C 
BRANCH   2   3
ATOM      3  C   UNL     1      17.088  43.373   5.555  1.00  0.00     0.000 C 
BRANCH   3   4
ATOM      4  C   UNL     1      16.032  42.624   6.393  1.00  0.00     0.006 C 
BRANCH   4   5
ATOM      5  C   UNL     1      15.505  43.413   7.602  1.00  0.00     0.053 C 
BRANCH   5   6
ATOM      6  C   UNL     1      16.618  44.012   8.406  1.00  0.00     0.041 C 
ATOM      7  O   UNL     1      16.744  45.262   8.484  1.00  0.00    -0.550 OA
ATOM      8  O   UNL     1      17.536  43.187   9.043  1.00  0.00    -0.550 OA
ENDBRANCH   5   6
ENDBRANCH   4   5
ENDBRANCH   3   4
ENDBRANCH   2   3
ENDBRANCH   1   2
BRANCH   1   9
ATOM      9  C   UNL     1      15.209  45.236   3.651  1.00  0.00     0.000 C 
BRANCH   9  10
ATOM     10  C   UNL     1      14.133  45.600   4.687  1.00  0.00    -0.000 C 
BRANCH  10  11
ATOM     11  C   UNL     1      12.802  44.871   4.434  1.00  0.00    -0.000 C 
BRANCH  11  12
ATOM     12  C   UNL     1      12.375  43.993   5.620  1.00  0.00    -0.000 C 
BRANCH  12  13
ATOM     13  C   UNL     1      12.445  42.492   5.303  1.00  0.00    -0.003 C 
ATOM     14  C   UNL     1      12.260  42.237   3.809  1.00  0.00     0.004 C 
ENDBRANCH  12  13
ENDBRANCH  11  12
ENDBRANCH  10  11
ENDBRANCH   9  10
ENDBRANCH   1   9
TORSDOF 10
ENDMDL
MODEL 2
REMARK VINA RESULT:    -4.594      1.349      2.639
REMARK INTER + INTRA:          -8.700
REMARK INTER:                  -7.111
REMARK INTRA:                  -1.589
REMARK UNBOUND:                -1.421
REMARK SMILES CCCCCCCCCCCC(=O)[O-]
REMARK SMILES IDX 7 1 8 2 9 3 10 4 11 5 12 6 13 7 14 8 6 9 5 10 4 11 3 12 2 13
REMARK SMILES IDX 1 14
REMARK H PARENT
REMARK Flexibility Score: inf
ROOT
ATOM      1  C   UNL     1      13.155  45.694   7.031  1.00  0.00     0.000 C 
ENDROOT
BRANCH   1   2
ATOM      2  C   UNL     1      13.111  44.270   7.614  1.00  0.00     0.000 C 
BRANCH   2   3
ATOM      3  C   UNL     1      14.479  43.700   8.040  1.00  0.00     0.000 C 
BRANCH   3   4
ATOM      4  C   UNL     1      14.942  42.453   7.259  1.00  0.00     0.006 C 
BRANCH   4   5
ATOM      5  C   UNL     1      16.271  42.632   6.508  1.00  0.00     0.053 C 
BRANCH   5   6
ATOM      6  C   UNL     1      17.269  43.403   7.316  1.00  0.00     0.041 C 
ATOM      7  O   UNL     1      17.584  44.576   6.986  1.00  0.00    -0.550 OA
ATOM      8  O   UNL     1      17.878  42.811   8.415  1.00  0.00    -0.550 OA
ENDBRANCH   5   6
ENDBRANCH   4   5
ENDBRANCH   3   4
ENDBRANCH   2   3
ENDBRANCH   1   2
BRANCH   1   9
ATOM      9  C   UNL     1      14.336  45.906   6.068  1.00  0.00     0.000 C 
BRANCH   9  10
ATOM     10  C   UNL     1      13.896  45.992   4.598  1.00  0.00    -0.000 C 
BRANCH  10  11
ATOM     11  C   UNL     1      14.807  45.179   3.662  1.00  0.00    -0.000 C 
BRANCH  11  12
ATOM     12  C   UNL     1      14.395  43.701   3.575  1.00  0.00    -0.000 C 
BRANCH  12  13
ATOM     13  C   UNL     1      12.873  43.505   3.624  1.00  0.00    -0.003 C 
ATOM     14  C   UNL     1      12.503  42.295   4.477  1.00  0.00     0.004 C 
ENDBRANCH  12  13
ENDBRANCH  11  12
ENDBRANCH  10  11
ENDBRANCH   9  10
ENDBRANCH   1   9
TORSDOF 10
ENDMDL
MODEL 3
REMARK VINA RESULT:    -4.524      1.566      2.605
REMARK INTER + INTRA:          -8.590
REMARK INTER:                  -7.272
REMARK INTRA:                  -1.317
REMARK UNBOUND:                -1.421
REMARK SMILES CCCCCCCCCCCC(=O)[O-]
REMARK SMILES IDX 7 1 8 2 9 3 10 4 11 5 12 6 13 7 14 8 6 9 5 10 4 11 3 12 2 13
REMARK SMILES IDX 1 14
REMARK H PARENT
REMARK Flexibility Score: inf
ROOT
ATOM      1  C   UNL     1      15.035  45.224   3.620  1.00  0.00     0.000 C 
ENDROOT
BRANCH   1   2
ATOM      2  C   UNL     1      15.272  43.703   3.649  1.00  0.00     0.000 C 
BRANCH   2   3
ATOM      3  C   UNL     1      16.711  43.276   4.006  1.00  0.00     0.000 C 
BRANCH   3   4
ATOM      4  C   UNL     1      17.044  43.288   5.511  1.00  0.00     0.006 C 
BRANCH   4   5
ATOM      5  C   UNL     1      15.832  43.071   6.431  1.00  0.00     0.053 C 
BRANCH   5   6
ATOM      6  C   UNL     1      15.704  44.159   7.452  1.00  0.00     0.041 C 
ATOM      7  O   UNL     1      15.517  43.874   8.664  1.00  0.00    -0.550 OA
ATOM      8  O   UNL     1      15.758  45.491   7.060  1.00  0.00    -0.550 OA
ENDBRANCH   5   6
ENDBRANCH   4   5
ENDBRANCH   3   4
ENDBRANCH   2   3
ENDBRANCH   1   2
BRANCH   1   9
ATOM      9  C   UNL     1      13.651  45.620   4.161  1.00  0.00     0.000 C 
BRANCH   9  10
ATOM     10  C   UNL     1      12.817  44.408   4.603  1.00  0.00    -0.000 C 
BRANCH  10  11
ATOM     11  C   UNL     1      11.990  44.692   5.870  1.00  0.00    -0.000 C 
BRANCH  11  12
ATOM     12  C   UNL     1      12.066  46.164   6.306  1.00  0.00    -0.000 C 
BRANCH  12  13
ATOM     13  C   UNL     1      12.491  46.327   7.773  1.00  0.00    -0.003 C 
ATOM     14  C   UNL     1      12.158  45.078   8.583  1.00  0.00     0.004 C 
ENDBRANCH  12  13
ENDBRANCH  11  12
ENDBRANCH  10  11
ENDBRANCH   9  10
ENDBRANCH   1   9
TORSDOF 10
ENDMDL
MODEL 4
REMARK VINA RESULT:    -4.494      1.538      2.690
REMARK INTER + INTRA:          -8.542
REMARK INTER:                  -6.971
REMARK INTRA:                  -1.571
REMARK UNBOUND:                -1.421
REMARK SMILES CCCCCCCCCCCC(=O)[O-]
REMARK SMILES IDX 7 1 8 2 9 3 10 4 11 5 12 6 13 7 14 8 6 9 5 10 4 11 3 12 2 13
REMARK SMILES IDX 1 14
REMARK H PARENT
REMARK Flexibility Score: inf
ROOT
ATOM      1  C   UNL     1      13.747  43.131   4.436  1.00  0.00     0.000 C 
ENDROOT
BRANCH   1   2
ATOM      2  C   UNL     1      13.391  42.674   5.862  1.00  0.00     0.000 C 
BRANCH   2   3
ATOM      3  C   UNL     1      14.556  42.724   6.870  1.00  0.00     0.000 C 
BRANCH   3   4
ATOM      4  C   UNL     1      15.965  42.662   6.247  1.00  0.00     0.006 C 
BRANCH   4   5
ATOM      5  C   UNL     1      16.850  43.880   6.556  1.00  0.00     0.053 C 
BRANCH   5   6
ATOM      6  C   UNL     1      16.907  44.171   8.024  1.00  0.00     0.041 C 
ATOM      7  O   UNL     1      16.454  45.257   8.474  1.00  0.00    -0.550 OA
ATOM      8  O   UNL     1      17.491  43.257   8.892  1.00  0.00    -0.550 OA
ENDBRANCH   5   6
ENDBRANCH   4   5
ENDBRANCH   3   4
ENDBRANCH   2   3
ENDBRANCH   1   2
BRANCH   1   9
ATOM      9  C   UNL     1      13.254  44.556   4.128  1.00  0.00     0.000 C 
BRANCH   9  10
ATOM     10  C   UNL     1      14.324  45.626   4.396  1.00  0.00    -0.000 C 
BRANCH  10  11
ATOM     11  C   UNL     1      14.098  46.364   5.727  1.00  0.00    -0.000 C 
BRANCH  11  12
ATOM     12  C   UNL     1      12.666  46.904   5.867  1.00  0.00    -0.000 C 
BRANCH  12  13
ATOM     13  C   UNL     1      11.943  46.354   7.106  1.00  0.00    -0.003 C 
ATOM     14  C   UNL     1      12.940  45.825   8.133  1.00  0.00     0.004 C 
ENDBRANCH  12  13
ENDBRANCH  11  12
ENDBRANCH  10  11
ENDBRANCH   9  10
ENDBRANCH   1   9
TORSDOF 10
ENDMDL
MODEL 5
REMARK VINA RESULT:    -4.493      2.720      4.656
REMARK INTER + INTRA:          -8.541
REMARK INTER:                  -7.278
REMARK INTRA:                  -1.263
REMARK UNBOUND:                -1.421
REMARK SMILES CCCCCCCCCCCC(=O)[O-]
REMARK SMILES IDX 7 1 8 2 9 3 10 4 11 5 12 6 13 7 14 8 6 9 5 10 4 11 3 12 2 13
REMARK SMILES IDX 1 14
REMARK H PARENT
REMARK Flexibility Score: inf
ROOT
ATOM      1  C   UNL     1      14.938  45.150   3.642  1.00  0.00     0.000 C 
ENDROOT
BRANCH   1   2
ATOM      2  C   UNL     1      13.654  45.477   4.426  1.00  0.00     0.000 C 
BRANCH   2   3
ATOM      3  C   UNL     1      13.788  46.634   5.437  1.00  0.00     0.000 C 
BRANCH   3   4
ATOM      4  C   UNL     1      12.526  46.920   6.276  1.00  0.00     0.006 C 
BRANCH   4   5
ATOM      5  C   UNL     1      12.604  46.424   7.729  1.00  0.00     0.053 C 
BRANCH   5   6
ATOM      6  C   UNL     1      11.761  45.206   7.949  1.00  0.00     0.041 C 
ATOM      7  O   UNL     1      11.373  44.516   6.970  1.00  0.00    -0.550 OA
ATOM      8  O   UNL     1      11.374  44.852   9.235  1.00  0.00    -0.550 OA
ENDBRANCH   5   6
ENDBRANCH   4   5
ENDBRANCH   3   4
ENDBRANCH   2   3
ENDBRANCH   1   2
BRANCH   1   9
ATOM      9  C   UNL     1      15.268  43.647   3.643  1.00  0.00     0.000 C 
BRANCH   9  10
ATOM     10  C   UNL     1      16.708  43.356   4.095  1.00  0.00    -0.000 C 
BRANCH  10  11
ATOM     11  C   UNL     1      16.798  43.019   5.593  1.00  0.00    -0.000 C 
BRANCH  11  12
ATOM     12  C   UNL     1      17.556  44.089   6.394  1.00  0.00    -0.000 C 
BRANCH  12  13
ATOM     13  C   UNL     1      16.631  44.925   7.291  1.00  0.00    -0.003 C 
ATOM     14  C   UNL     1      15.385  44.136   7.683  1.00  0.00     0.004 C 
ENDBRANCH  12  13
ENDBRANCH  11  12
ENDBRANCH  10  11
ENDBRANCH   9  10
ENDBRANCH   1   9
TORSDOF 10
ENDMDL
MODEL 6
REMARK VINA RESULT:    -4.480      1.626      3.167
REMARK INTER + INTRA:          -8.520
REMARK INTER:                  -7.172
REMARK INTRA:                  -1.347
REMARK UNBOUND:                -1.421
REMARK SMILES CCCCCCCCCCCC(=O)[O-]
REMARK SMILES IDX 7 1 8 2 9 3 10 4 11 5 12 6 13 7 14 8 6 9 5 10 4 11 3 12 2 13
REMARK SMILES IDX 1 14
REMARK H PARENT
REMARK Flexibility Score: inf
ROOT
ATOM      1  C   UNL     1      17.839  43.742   6.265  1.00  0.00     0.000 C 
ENDROOT
BRANCH   1   2
ATOM      2  C   UNL     1      17.281  44.931   7.068  1.00  0.00     0.000 C 
BRANCH   2   3
ATOM      3  C   UNL     1      15.754  44.911   7.282  1.00  0.00     0.000 C 
BRANCH   3   4
ATOM      4  C   UNL     1      15.284  44.243   8.590  1.00  0.00     0.006 C 
BRANCH   4   5
ATOM      5  C   UNL     1      14.407  42.997   8.387  1.00  0.00     0.053 C 
BRANCH   5   6
ATOM      6  C   UNL     1      15.104  41.746   8.825  1.00  0.00     0.041 C 
ATOM      7  O   UNL     1      16.358  41.657   8.750  1.00  0.00    -0.550 OA
ATOM      8  O   UNL     1      14.365  40.664   9.285  1.00  0.00    -0.550 OA
ENDBRANCH   5   6
ENDBRANCH   4   5
ENDBRANCH   3   4
ENDBRANCH   2   3
ENDBRANCH   1   2
BRANCH   1   9
ATOM      9  C   UNL     1      16.746  42.980   5.494  1.00  0.00     0.000 C 
BRANCH   9  10
ATOM     10  C   UNL     1      16.700  43.355   4.005  1.00  0.00    -0.000 C 
BRANCH  10  11
ATOM     11  C   UNL     1      15.273  43.658   3.518  1.00  0.00    -0.000 C 
BRANCH  11  12
ATOM     12  C   UNL     1      14.920  45.150   3.617  1.00  0.00    -0.000 C 
BRANCH  12  13
ATOM     13  C   UNL     1      13.432  45.390   3.913  1.00  0.00    -0.003 C 
ATOM     14  C   UNL     1      12.921  44.423   4.978  1.00  0.00     0.004 C 
ENDBRANCH  12  13
ENDBRANCH  11  12
ENDBRANCH  10  11
ENDBRANCH   9  10
ENDBRANCH   1   9
TORSDOF 10
ENDMDL
MODEL 7
REMARK VINA RESULT:    -4.408      2.422      4.304
REMARK INTER + INTRA:          -8.407
REMARK INTER:                  -7.089
REMARK INTRA:                  -1.317
REMARK UNBOUND:                -1.421
REMARK SMILES CCCCCCCCCCCC(=O)[O-]
REMARK SMILES IDX 7 1 8 2 9 3 10 4 11 5 12 6 13 7 14 8 6 9 5 10 4 11 3 12 2 13
REMARK SMILES IDX 1 14
REMARK H PARENT
REMARK Flexibility Score: inf
ROOT
ATOM      1  C   UNL     1      15.561  43.255   5.057  1.00  0.00     0.000 C 
ENDROOT
BRANCH   1   2
ATOM      2  C   UNL     1      14.997  43.739   3.708  1.00  0.00     0.000 C 
BRANCH   2   3
ATOM      3  C   UNL     1      14.717  45.254   3.628  1.00  0.00     0.000 C 
BRANCH   3   4
ATOM      4  C   UNL     1      13.320  45.689   4.113  1.00  0.00     0.006 C 
BRANCH   4   5
ATOM      5  C   UNL     1      13.332  46.584   5.362  1.00  0.00     0.053 C 
BRANCH   5   6
ATOM      6  C   UNL     1      12.929  45.831   6.593  1.00  0.00     0.041 C 
ATOM      7  O   UNL     1      12.990  46.382   7.723  1.00  0.00    -0.550 OA
ATOM      8  O   UNL     1      12.519  44.508   6.494  1.00  0.00    -0.550 OA
ENDBRANCH   5   6
ENDBRANCH   4   5
ENDBRANCH   3   4
ENDBRANCH   2   3
ENDBRANCH   1   2
BRANCH   1   9
ATOM      9  C   UNL     1      17.093  43.365   5.134  1.00  0.00     0.000 C 
BRANCH   9  10
ATOM     10  C   UNL     1      17.584  43.880   6.496  1.00  0.00    -0.000 C 
BRANCH  10  11
ATOM     11  C   UNL     1      16.799  45.114   6.976  1.00  0.00    -0.000 C 
BRANCH  11  12
ATOM     12  C   UNL     1      16.115  44.887   8.334  1.00  0.00    -0.000 C 
BRANCH  12  13
ATOM     13  C   UNL     1      16.133  43.414   8.769  1.00  0.00    -0.003 C 
ATOM     14  C   UNL     1      14.735  42.807   8.711  1.00  0.00     0.004 C 
ENDBRANCH  12  13
ENDBRANCH  11  12
ENDBRANCH  10  11
ENDBRANCH   9  10
ENDBRANCH   1   9
TORSDOF 10
ENDMDL
MODEL 8
REMARK VINA RESULT:    -4.402      1.301      2.682
REMARK INTER + INTRA:          -8.396
REMARK INTER:                  -6.832
REMARK INTRA:                  -1.564
REMARK UNBOUND:                -1.421
REMARK SMILES CCCCCCCCCCCC(=O)[O-]
REMARK SMILES IDX 7 1 8 2 9 3 10 4 11 5 12 6 13 7 14 8 6 9 5 10 4 11 3 12 2 13
REMARK SMILES IDX 1 14
REMARK H PARENT
REMARK Flexibility Score: inf
ROOT
ATOM      1  C   UNL     1      14.126  43.327   3.307  1.00  0.00     0.000 C 
ENDROOT
BRANCH   1   2
ATOM      2  C   UNL     1      14.605  44.756   3.620  1.00  0.00     0.000 C 
BRANCH   2   3
ATOM      3  C   UNL     1      15.832  44.840   4.551  1.00  0.00     0.000 C 
BRANCH   3   4
ATOM      4  C   UNL     1      16.411  43.483   4.997  1.00  0.00     0.006 C 
BRANCH   4   5
ATOM      5  C   UNL     1      16.051  43.081   6.436  1.00  0.00     0.053 C 
BRANCH   5   6
ATOM      6  C   UNL     1      16.987  43.687   7.436  1.00  0.00     0.041 C 
ATOM      7  O   UNL     1      17.847  42.973   8.015  1.00  0.00    -0.550 OA
ATOM      8  O   UNL     1      16.887  45.036   7.753  1.00  0.00    -0.550 OA
ENDBRANCH   5   6
ENDBRANCH   4   5
ENDBRANCH   3   4
ENDBRANCH   2   3
ENDBRANCH   1   2
BRANCH   1   9
ATOM      9  C   UNL     1      12.665  43.085   3.726  1.00  0.00     0.000 C 
BRANCH   9  10
ATOM     10  C   UNL     1      12.512  42.849   5.237  1.00  0.00    -0.000 C 
BRANCH  10  11
ATOM     11  C   UNL     1      11.913  44.065   5.965  1.00  0.00    -0.000 C 
BRANCH  11  12
ATOM     12  C   UNL     1      12.729  44.475   7.201  1.00  0.00    -0.000 C 
BRANCH  12  13
ATOM     13  C   UNL     1      13.379  45.858   7.051  1.00  0.00    -0.003 C 
ATOM     14  C   UNL     1      12.626  46.712   6.034  1.00  0.00     0.004 C 
ENDBRANCH  12  13
ENDBRANCH  11  12
ENDBRANCH  10  11
ENDBRANCH   9  10
ENDBRANCH   1   9
TORSDOF 10
ENDMDL
MODEL 9
REMARK VINA RESULT:    -4.366      3.062      4.862
REMARK INTER + INTRA:          -8.340
REMARK INTER:                  -6.684
REMARK INTRA:                  -1.656
REMARK UNBOUND:                -1.421
REMARK SMILES CCCCCCCCCCCC(=O)[O-]
REMARK SMILES IDX 7 1 8 2 9 3 10 4 11 5 12 6 13 7 14 8 6 9 5 10 4 11 3 12 2 13
REMARK SMILES IDX 1 14
REMARK H PARENT
REMARK Flexibility Score: inf
ROOT
ATOM      1  C   UNL     1      12.952  43.267   3.662  1.00  0.00     0.000 C 
ENDROOT
BRANCH   1   2
ATOM      2  C   UNL     1      12.768  42.934   5.154  1.00  0.00     0.000 C 
BRANCH   2   3
ATOM      3  C   UNL     1      11.668  43.745   5.869  1.00  0.00     0.000 C 
BRANCH   3   4
ATOM      4  C   UNL     1      12.180  44.853   6.811  1.00  0.00     0.006 C 
BRANCH   4   5
ATOM      5  C   UNL     1      12.740  46.090   6.091  1.00  0.00     0.053 C 
BRANCH   5   6
ATOM      6  C   UNL     1      11.739  46.692   5.154  1.00  0.00     0.041 C 
ATOM      7  O   UNL     1      10.665  47.176   5.598  1.00  0.00    -0.550 OA
ATOM      8  O   UNL     1      11.977  46.687   3.786  1.00  0.00    -0.550 OA
ENDBRANCH   5   6
ENDBRANCH   4   5
ENDBRANCH   3   4
ENDBRANCH   2   3
ENDBRANCH   1   2
BRANCH   1   9
ATOM      9  C   UNL     1      14.431  43.415   3.264  1.00  0.00     0.000 C 
BRANCH   9  10
ATOM     10  C   UNL     1      15.009  44.791   3.632  1.00  0.00    -0.000 C 
BRANCH  10  11
ATOM     11  C   UNL     1      15.963  44.725   4.837  1.00  0.00    -0.000 C 
BRANCH  11  12
ATOM     12  C   UNL     1      16.599  43.337   5.012  1.00  0.00    -0.000 C 
BRANCH  12  13
ATOM     13  C   UNL     1      16.308  42.719   6.388  1.00  0.00    -0.003 C 
ATOM     14  C   UNL     1      15.702  43.750   7.335  1.00  0.00     0.004 C 
ENDBRANCH  12  13
ENDBRANCH  11  12
ENDBRANCH  10  11
ENDBRANCH   9  10
ENDBRANCH   1   9
TORSDOF 10
ENDMDL
