MODEL 1
REMARK VINA RESULT:    -6.497      0.000      0.000
REMARK INTER + INTRA:          -7.305
REMARK INTER:                  -7.067
REMARK INTRA:                  -0.238
REMARK UNBOUND:                -0.238
REMARK SMILES C[C@@H]1[C@H](C)CC[C@]2(C(=O)[O-])CC[C@@]3(C)C(=CC[C@@H]4[C@@]5(C)CC[C@@H](O)C(C)(C)[C@H]5CC[C@]43C)[C@H]12
REMARK SMILES IDX 7 1 6 2 11 3 33 4 5 5 12 6 15 7 2 8 3 9 13 10 16 11 1 12
REMARK SMILES IDX 4 13 14 14 31 15 17 16 18 17 30 18 32 19 19 20 29 21 28 22
REMARK SMILES IDX 21 23 20 24 25 25 22 26 23 27 26 28 27 29 8 30 9 31 10 32
REMARK SMILES IDX 24 33
REMARK H PARENT 24 34
REMARK Flexibility Score: inf
ROOT
ATOM      1  C   UNL     1     -48.836 -59.879  -0.762  1.00  0.00     0.017 C 
ATOM      2  C   UNL     1     -49.224 -59.271   0.627  1.00  0.00     0.014 C 
ATOM      3  C   UNL     1     -50.145 -60.414  -1.463  1.00  0.00     0.014 C 
ATOM      4  C   UNL     1     -47.806 -61.049  -0.554  1.00  0.00     0.030 C 
ATOM      5  C   UNL     1     -48.059 -59.064   1.626  1.00  0.00     0.004 C 
ATOM      6  C   UNL     1     -49.902 -61.708  -2.275  1.00  0.00     0.013 C 
ATOM      7  C   UNL     1     -48.608 -62.317  -0.211  1.00  0.00    -0.063 C 
ATOM      8  C   UNL     1     -46.536 -60.670   0.304  1.00  0.00    -0.003 C 
ATOM      9  C   UNL     1     -46.664 -59.293   1.027  1.00  0.00    -0.011 C 
ATOM     10  C   UNL     1     -49.388 -62.944  -1.399  1.00  0.00    -0.006 C 
ATOM     11  C   UNL     1     -48.999 -62.496   1.067  1.00  0.00    -0.027 C 
ATOM     12  C   UNL     1     -45.976 -61.817   1.176  1.00  0.00     0.008 C 
ATOM     13  C   UNL     1     -45.572 -59.039   2.078  1.00  0.00     0.008 C 
ATOM     14  C   UNL     1     -48.348 -63.687  -2.300  1.00  0.00     0.017 C 
ATOM     15  C   UNL     1     -50.556 -63.997  -0.923  1.00  0.00    -0.020 C 
ATOM     16  C   UNL     1     -50.063 -63.440   1.496  1.00  0.00     0.032 C 
ATOM     17  C   UNL     1     -51.180 -63.577   0.439  1.00  0.00     0.006 C 
ATOM     18  C   UNL     1     -51.731 -63.993  -1.921  1.00  0.00     0.008 C 
ATOM     19  C   UNL     1     -49.987 -65.451  -0.814  1.00  0.00     0.012 C 
ATOM     20  C   UNL     1     -52.473 -64.398   0.957  1.00  0.00    -0.025 C 
ATOM     21  C   UNL     1     -52.841 -64.997  -1.644  1.00  0.00     0.005 C 
ATOM     22  C   UNL     1     -53.222 -65.290  -0.154  1.00  0.00     0.003 C 
ATOM     23  C   UNL     1     -53.471 -63.351   1.565  1.00  0.00     0.010 C 
ATOM     24  C   UNL     1     -52.054 -65.357   2.125  1.00  0.00     0.012 C 
ATOM     25  C   UNL     1     -54.807 -65.387   0.023  1.00  0.00    -0.006 C 
ATOM     26  C   UNL     1     -54.482 -62.846   0.533  1.00  0.00     0.033 C 
ATOM     27  C   UNL     1     -55.451 -63.952   0.050  1.00  0.00     0.120 C 
ATOM     28  C   UNL     1     -55.191 -66.148   1.329  1.00  0.00     0.014 C 
ATOM     29  C   UNL     1     -55.448 -66.271  -1.099  1.00  0.00     0.014 C 
ENDROOT
BRANCH   1  30
ATOM     30  C   UNL     1     -48.238 -58.803  -1.669  1.00  0.00     0.048 C 
ATOM     31  O   UNL     1     -48.555 -57.593  -1.516  1.00  0.00    -0.550 OA
ATOM     32  O   UNL     1     -47.271 -59.124  -2.616  1.00  0.00    -0.550 OA
ENDBRANCH   1  30
BRANCH  27  33
ATOM     33  O   UNL     1     -55.933 -63.592  -1.222  1.00  0.00    -0.393 OA
ATOM     34  H   UNL     1     -55.344 -62.868  -1.565  1.00  0.00     0.210 HD
ENDBRANCH  27  33
TORSDOF 2
ENDMDL
MODEL 2
REMARK VINA RESULT:    -6.431      2.701      4.447
REMARK INTER + INTRA:          -7.233
REMARK INTER:                  -7.079
REMARK INTRA:                  -0.153
REMARK UNBOUND:                -0.238
REMARK SMILES C[C@@H]1[C@H](C)CC[C@]2(C(=O)[O-])CC[C@@]3(C)C(=CC[C@@H]4[C@@]5(C)CC[C@@H](O)C(C)(C)[C@H]5CC[C@]43C)[C@H]12
REMARK SMILES IDX 7 1 6 2 11 3 33 4 5 5 12 6 15 7 2 8 3 9 13 10 16 11 1 12
REMARK SMILES IDX 4 13 14 14 31 15 17 16 18 17 30 18 32 19 19 20 29 21 28 22
REMARK SMILES IDX 21 23 20 24 25 25 22 26 23 27 26 28 27 29 8 30 9 31 10 32
REMARK SMILES IDX 24 33
REMARK H PARENT 24 34
REMARK Flexibility Score: inf
ROOT
ATOM      1  C   UNL     1     -47.474 -64.622  -0.487  1.00  0.00     0.017 C 
ATOM      2  C   UNL     1     -47.655 -65.184  -1.937  1.00  0.00     0.014 C 
ATOM      3  C   UNL     1     -48.537 -65.307   0.456  1.00  0.00     0.014 C 
ATOM      4  C   UNL     1     -47.675 -63.062  -0.499  1.00  0.00     0.030 C 
ATOM      5  C   UNL     1     -46.995 -64.361  -3.070  1.00  0.00     0.004 C 
ATOM      6  C   UNL     1     -49.085 -64.347   1.538  1.00  0.00     0.013 C 
ATOM      7  C   UNL     1     -49.187 -62.789  -0.428  1.00  0.00    -0.063 C 
ATOM      8  C   UNL     1     -46.788 -62.288  -1.551  1.00  0.00    -0.003 C 
ATOM      9  C   UNL     1     -46.083 -63.227  -2.580  1.00  0.00    -0.011 C 
ATOM     10  C   UNL     1     -49.843 -63.066   0.954  1.00  0.00    -0.006 C 
ATOM     11  C   UNL     1     -49.898 -62.842  -1.573  1.00  0.00    -0.027 C 
ATOM     12  C   UNL     1     -47.451 -61.032  -2.159  1.00  0.00     0.008 C 
ATOM     13  C   UNL     1     -45.452 -62.484  -3.768  1.00  0.00     0.008 C 
ATOM     14  C   UNL     1     -49.451 -61.884   1.900  1.00  0.00     0.017 C 
ATOM     15  C   UNL     1     -51.478 -63.195   0.880  1.00  0.00    -0.020 C 
ATOM     16  C   UNL     1     -51.378 -62.971  -1.639  1.00  0.00     0.032 C 
ATOM     17  C   UNL     1     -51.941 -63.809  -0.472  1.00  0.00     0.006 C 
ATOM     18  C   UNL     1     -51.996 -64.164   1.960  1.00  0.00     0.008 C 
ATOM     19  C   UNL     1     -52.158 -61.799   1.082  1.00  0.00     0.012 C 
ATOM     20  C   UNL     1     -53.506 -64.181  -0.631  1.00  0.00    -0.025 C 
ATOM     21  C   UNL     1     -53.508 -64.301   2.061  1.00  0.00     0.005 C 
ATOM     22  C   UNL     1     -54.348 -64.252   0.739  1.00  0.00     0.003 C 
ATOM     23  C   UNL     1     -53.580 -65.559  -1.377  1.00  0.00     0.010 C 
ATOM     24  C   UNL     1     -54.206 -63.127  -1.557  1.00  0.00     0.012 C 
ATOM     25  C   UNL     1     -55.507 -65.351   0.757  1.00  0.00    -0.006 C 
ATOM     26  C   UNL     1     -53.628 -66.742  -0.406  1.00  0.00     0.033 C 
ATOM     27  C   UNL     1     -54.925 -66.777   0.436  1.00  0.00     0.120 C 
ATOM     28  C   UNL     1     -56.631 -65.012  -0.269  1.00  0.00     0.014 C 
ATOM     29  C   UNL     1     -56.269 -65.348   2.125  1.00  0.00     0.014 C 
ENDROOT
BRANCH   1  30
ATOM     30  C   UNL     1     -46.088 -64.973   0.054  1.00  0.00     0.048 C 
ATOM     31  O   UNL     1     -45.447 -64.143   0.752  1.00  0.00    -0.550 OA
ATOM     32  O   UNL     1     -45.547 -66.241  -0.137  1.00  0.00    -0.550 OA
ENDBRANCH   1  30
BRANCH  27  33
ATOM     33  O   UNL     1     -54.664 -67.493   1.619  1.00  0.00    -0.393 OA
ATOM     34  H   UNL     1     -54.037 -68.228   1.385  1.00  0.00     0.210 HD
ENDBRANCH  27  33
TORSDOF 2
ENDMDL
MODEL 3
REMARK VINA RESULT:    -6.240      2.762      8.329
REMARK INTER + INTRA:          -7.025
REMARK INTER:                  -6.783
REMARK INTRA:                  -0.242
REMARK UNBOUND:                -0.238
REMARK SMILES C[C@@H]1[C@H](C)CC[C@]2(C(=O)[O-])CC[C@@]3(C)C(=CC[C@@H]4[C@@]5(C)CC[C@@H](O)C(C)(C)[C@H]5CC[C@]43C)[C@H]12
REMARK SMILES IDX 7 1 6 2 11 3 33 4 5 5 12 6 15 7 2 8 3 9 13 10 16 11 1 12
REMARK SMILES IDX 4 13 14 14 31 15 17 16 18 17 30 18 32 19 19 20 29 21 28 22
REMARK SMILES IDX 21 23 20 24 25 25 22 26 23 27 26 28 27 29 8 30 9 31 10 32
REMARK SMILES IDX 24 33
REMARK H PARENT 24 34
REMARK Flexibility Score: inf
ROOT
ATOM      1  C   UNL     1     -49.002 -63.641  -0.348  1.00  0.00     0.017 C 
ATOM      2  C   UNL     1     -49.914 -63.156   0.828  1.00  0.00     0.014 C 
ATOM      3  C   UNL     1     -47.521 -63.179  -0.063  1.00  0.00     0.014 C 
ATOM      4  C   UNL     1     -49.519 -63.027  -1.701  1.00  0.00     0.030 C 
ATOM      5  C   UNL     1     -51.437 -63.154   0.549  1.00  0.00     0.004 C 
ATOM      6  C   UNL     1     -46.762 -62.775  -1.349  1.00  0.00     0.013 C 
ATOM      7  C   UNL     1     -48.935 -61.608  -1.819  1.00  0.00    -0.063 C 
ATOM      8  C   UNL     1     -51.050 -63.270  -1.998  1.00  0.00    -0.003 C 
ATOM      9  C   UNL     1     -51.839 -63.827  -0.771  1.00  0.00    -0.011 C 
ATOM     10  C   UNL     1     -47.415 -61.546  -2.136  1.00  0.00    -0.006 C 
ATOM     11  C   UNL     1     -49.566 -60.605  -1.176  1.00  0.00    -0.027 C 
ATOM     12  C   UNL     1     -51.753 -62.126  -2.762  1.00  0.00     0.008 C 
ATOM     13  C   UNL     1     -53.365 -63.804  -0.951  1.00  0.00     0.008 C 
ATOM     14  C   UNL     1     -47.242 -61.885  -3.653  1.00  0.00     0.017 C 
ATOM     15  C   UNL     1     -46.747 -60.079  -1.820  1.00  0.00    -0.020 C 
ATOM     16  C   UNL     1     -48.957 -59.282  -0.880  1.00  0.00     0.032 C 
ATOM     17  C   UNL     1     -47.441 -59.386  -0.612  1.00  0.00     0.006 C 
ATOM     18  C   UNL     1     -45.272 -60.232  -1.402  1.00  0.00     0.008 C 
ATOM     19  C   UNL     1     -46.826 -59.147  -3.075  1.00  0.00     0.012 C 
ATOM     20  C   UNL     1     -46.781 -58.021  -0.050  1.00  0.00    -0.025 C 
ATOM     21  C   UNL     1     -44.509 -58.936  -1.171  1.00  0.00     0.005 C 
ATOM     22  C   UNL     1     -45.271 -57.731  -0.524  1.00  0.00     0.003 C 
ATOM     23  C   UNL     1     -46.846 -58.089   1.517  1.00  0.00     0.010 C 
ATOM     24  C   UNL     1     -47.656 -56.796  -0.486  1.00  0.00     0.012 C 
ATOM     25  C   UNL     1     -44.359 -56.991   0.559  1.00  0.00    -0.006 C 
ATOM     26  C   UNL     1     -45.576 -58.690   2.125  1.00  0.00     0.033 C 
ATOM     27  C   UNL     1     -44.327 -57.804   1.906  1.00  0.00     0.120 C 
ATOM     28  C   UNL     1     -44.869 -55.545   0.843  1.00  0.00     0.014 C 
ATOM     29  C   UNL     1     -42.912 -56.751   0.011  1.00  0.00     0.014 C 
ENDROOT
BRANCH   1  30
ATOM     30  C   UNL     1     -48.998 -65.168  -0.428  1.00  0.00     0.048 C 
ATOM     31  O   UNL     1     -49.254 -65.861   0.594  1.00  0.00    -0.550 OA
ATOM     32  O   UNL     1     -48.802 -65.819  -1.641  1.00  0.00    -0.550 OA
ENDBRANCH   1  30
BRANCH  27  33
ATOM     33  O   UNL     1     -43.186 -58.625   1.971  1.00  0.00    -0.393 OA
ATOM     34  H   UNL     1     -42.413 -58.037   2.182  1.00  0.00     0.210 HD
ENDBRANCH  27  33
TORSDOF 2
ENDMDL
MODEL 4
REMARK VINA RESULT:    -6.043      2.023      7.683
REMARK INTER + INTRA:          -6.811
REMARK INTER:                  -6.792
REMARK INTRA:                  -0.019
REMARK UNBOUND:                -0.238
REMARK SMILES C[C@@H]1[C@H](C)CC[C@]2(C(=O)[O-])CC[C@@]3(C)C(=CC[C@@H]4[C@@]5(C)CC[C@@H](O)C(C)(C)[C@H]5CC[C@]43C)[C@H]12
REMARK SMILES IDX 7 1 6 2 11 3 33 4 5 5 12 6 15 7 2 8 3 9 13 10 16 11 1 12
REMARK SMILES IDX 4 13 14 14 31 15 17 16 18 17 30 18 32 19 19 20 29 21 28 22
REMARK SMILES IDX 21 23 20 24 25 25 22 26 23 27 26 28 27 29 8 30 9 31 10 32
REMARK SMILES IDX 24 33
REMARK H PARENT 24 34
REMARK Flexibility Score: inf
ROOT
ATOM      1  C   UNL     1     -52.919 -65.412  -0.037  1.00  0.00     0.017 C 
ATOM      2  C   UNL     1     -53.060 -65.362   1.521  1.00  0.00     0.014 C 
ATOM      3  C   UNL     1     -51.386 -65.360  -0.407  1.00  0.00     0.014 C 
ATOM      4  C   UNL     1     -53.680 -64.191  -0.672  1.00  0.00     0.030 C 
ATOM      5  C   UNL     1     -54.464 -65.000   2.064  1.00  0.00     0.004 C 
ATOM      6  C   UNL     1     -51.109 -64.553  -1.697  1.00  0.00     0.013 C 
ATOM      7  C   UNL     1     -52.736 -62.976  -0.615  1.00  0.00    -0.063 C 
ATOM      8  C   UNL     1     -55.183 -64.036  -0.217  1.00  0.00    -0.003 C 
ATOM      9  C   UNL     1     -55.562 -64.948   0.992  1.00  0.00    -0.011 C 
ATOM     10  C   UNL     1     -51.548 -63.018  -1.616  1.00  0.00    -0.006 C 
ATOM     11  C   UNL     1     -52.669 -62.276   0.535  1.00  0.00    -0.027 C 
ATOM     12  C   UNL     1     -55.684 -62.578  -0.119  1.00  0.00     0.008 C 
ATOM     13  C   UNL     1     -56.922 -64.610   1.623  1.00  0.00     0.008 C 
ATOM     14  C   UNL     1     -52.119 -62.673  -3.031  1.00  0.00     0.017 C 
ATOM     15  C   UNL     1     -50.345 -61.966  -1.237  1.00  0.00    -0.020 C 
ATOM     16  C   UNL     1     -51.574 -61.333   0.883  1.00  0.00     0.032 C 
ATOM     17  C   UNL     1     -50.216 -61.780   0.302  1.00  0.00     0.006 C 
ATOM     18  C   UNL     1     -48.979 -62.516  -1.691  1.00  0.00     0.008 C 
ATOM     19  C   UNL     1     -50.584 -60.575  -1.914  1.00  0.00     0.012 C 
ATOM     20  C   UNL     1     -48.958 -60.926   0.853  1.00  0.00    -0.025 C 
ATOM     21  C   UNL     1     -47.788 -61.592  -1.481  1.00  0.00     0.005 C 
ATOM     22  C   UNL     1     -47.761 -60.695  -0.198  1.00  0.00     0.003 C 
ATOM     23  C   UNL     1     -48.417 -61.669   2.125  1.00  0.00     0.010 C 
ATOM     24  C   UNL     1     -49.447 -59.514   1.326  1.00  0.00     0.012 C 
ATOM     25  C   UNL     1     -46.300 -60.662   0.447  1.00  0.00    -0.006 C 
ATOM     26  C   UNL     1     -47.306 -62.666   1.786  1.00  0.00     0.033 C 
ATOM     27  C   UNL     1     -46.022 -61.981   1.260  1.00  0.00     0.120 C 
ATOM     28  C   UNL     1     -46.118 -59.432   1.387  1.00  0.00     0.014 C 
ATOM     29  C   UNL     1     -45.203 -60.433  -0.647  1.00  0.00     0.014 C 
ENDROOT
BRANCH   1  30
ATOM     30  C   UNL     1     -53.478 -66.726  -0.583  1.00  0.00     0.048 C 
ATOM     31  O   UNL     1     -54.274 -66.723  -1.560  1.00  0.00    -0.550 OA
ATOM     32  O   UNL     1     -53.054 -67.949  -0.073  1.00  0.00    -0.550 OA
ENDBRANCH   1  30
BRANCH  27  33
ATOM     33  O   UNL     1     -45.313 -62.913   0.480  1.00  0.00    -0.393 OA
ATOM     34  H   UNL     1     -44.426 -63.041   0.911  1.00  0.00     0.210 HD
ENDBRANCH  27  33
TORSDOF 2
ENDMDL
MODEL 5
REMARK VINA RESULT:    -6.013      1.609      2.558
REMARK INTER + INTRA:          -6.778
REMARK INTER:                  -6.627
REMARK INTRA:                  -0.152
REMARK UNBOUND:                -0.238
REMARK SMILES C[C@@H]1[C@H](C)CC[C@]2(C(=O)[O-])CC[C@@]3(C)C(=CC[C@@H]4[C@@]5(C)CC[C@@H](O)C(C)(C)[C@H]5CC[C@]43C)[C@H]12
REMARK SMILES IDX 7 1 6 2 11 3 33 4 5 5 12 6 15 7 2 8 3 9 13 10 16 11 1 12
REMARK SMILES IDX 4 13 14 14 31 15 17 16 18 17 30 18 32 19 19 20 29 21 28 22
REMARK SMILES IDX 21 23 20 24 25 25 22 26 23 27 26 28 27 29 8 30 9 31 10 32
REMARK SMILES IDX 24 33
REMARK H PARENT 24 34
REMARK Flexibility Score: inf
ROOT
ATOM      1  C   UNL     1     -47.698 -59.991  -1.726  1.00  0.00     0.017 C 
ATOM      2  C   UNL     1     -48.870 -58.967  -1.891  1.00  0.00     0.014 C 
ATOM      3  C   UNL     1     -48.200 -61.413  -2.191  1.00  0.00     0.014 C 
ATOM      4  C   UNL     1     -47.246 -60.033  -0.219  1.00  0.00     0.030 C 
ATOM      5  C   UNL     1     -48.715 -57.630  -1.125  1.00  0.00     0.004 C 
ATOM      6  C   UNL     1     -47.610 -62.563  -1.341  1.00  0.00     0.013 C 
ATOM      7  C   UNL     1     -48.197 -60.987   0.524  1.00  0.00    -0.063 C 
ATOM      8  C   UNL     1     -46.898 -58.627   0.409  1.00  0.00    -0.003 C 
ATOM      9  C   UNL     1     -47.335 -57.424  -0.485  1.00  0.00    -0.011 C 
ATOM     10  C   UNL     1     -47.996 -62.496   0.210  1.00  0.00    -0.006 C 
ATOM     11  C   UNL     1     -49.384 -60.503   0.942  1.00  0.00    -0.027 C 
ATOM     12  C   UNL     1     -47.239 -58.485   1.909  1.00  0.00     0.008 C 
ATOM     13  C   UNL     1     -47.263 -56.064   0.227  1.00  0.00     0.008 C 
ATOM     14  C   UNL     1     -46.716 -62.964   0.977  1.00  0.00     0.017 C 
ATOM     15  C   UNL     1     -49.275 -63.425   0.653  1.00  0.00    -0.020 C 
ATOM     16  C   UNL     1     -50.546 -61.344   1.332  1.00  0.00     0.032 C 
ATOM     17  C   UNL     1     -50.617 -62.651   0.513  1.00  0.00     0.006 C 
ATOM     18  C   UNL     1     -49.414 -64.641  -0.284  1.00  0.00     0.008 C 
ATOM     19  C   UNL     1     -49.114 -63.934   2.124  1.00  0.00     0.012 C 
ATOM     20  C   UNL     1     -51.989 -63.481   0.727  1.00  0.00    -0.025 C 
ATOM     21  C   UNL     1     -50.508 -65.636   0.075  1.00  0.00     0.005 C 
ATOM     22  C   UNL     1     -51.849 -65.083   0.667  1.00  0.00     0.003 C 
ATOM     23  C   UNL     1     -53.000 -62.990  -0.368  1.00  0.00     0.010 C 
ATOM     24  C   UNL     1     -52.614 -63.115   2.117  1.00  0.00     0.012 C 
ATOM     25  C   UNL     1     -53.107 -65.842   0.039  1.00  0.00    -0.006 C 
ATOM     26  C   UNL     1     -52.942 -63.845  -1.637  1.00  0.00     0.033 C 
ATOM     27  C   UNL     1     -53.419 -65.298  -1.405  1.00  0.00     0.120 C 
ATOM     28  C   UNL     1     -54.375 -65.683   0.933  1.00  0.00     0.014 C 
ATOM     29  C   UNL     1     -52.882 -67.391   0.021  1.00  0.00     0.014 C 
ENDROOT
BRANCH   1  30
ATOM     30  C   UNL     1     -46.520 -59.605  -2.621  1.00  0.00     0.048 C 
ATOM     31  O   UNL     1     -46.722 -59.146  -3.777  1.00  0.00    -0.550 OA
ATOM     32  O   UNL     1     -45.214 -59.667  -2.148  1.00  0.00    -0.550 OA
ENDBRANCH   1  30
BRANCH  27  33
ATOM     33  O   UNL     1     -52.835 -66.117  -2.389  1.00  0.00    -0.393 OA
ATOM     34  H   UNL     1     -52.759 -65.572  -3.216  1.00  0.00     0.210 HD
ENDBRANCH  27  33
TORSDOF 2
ENDMDL
MODEL 6
REMARK VINA RESULT:    -5.853      4.878     10.926
REMARK INTER + INTRA:          -6.605
REMARK INTER:                  -6.362
REMARK INTRA:                  -0.242
REMARK UNBOUND:                -0.238
REMARK SMILES C[C@@H]1[C@H](C)CC[C@]2(C(=O)[O-])CC[C@@]3(C)C(=CC[C@@H]4[C@@]5(C)CC[C@@H](O)C(C)(C)[C@H]5CC[C@]43C)[C@H]12
REMARK SMILES IDX 7 1 6 2 11 3 33 4 5 5 12 6 15 7 2 8 3 9 13 10 16 11 1 12
REMARK SMILES IDX 4 13 14 14 31 15 17 16 18 17 30 18 32 19 19 20 29 21 28 22
REMARK SMILES IDX 21 23 20 24 25 25 22 26 23 27 26 28 27 29 8 30 9 31 10 32
REMARK SMILES IDX 24 33
REMARK H PARENT 24 34
REMARK Flexibility Score: inf
ROOT
ATOM      1  C   UNL     1     -46.784 -59.055   0.457  1.00  0.00     0.017 C 
ATOM      2  C   UNL     1     -47.091 -58.222  -0.832  1.00  0.00     0.014 C 
ATOM      3  C   UNL     1     -45.762 -58.248   1.348  1.00  0.00     0.014 C 
ATOM      4  C   UNL     1     -46.177 -60.448   0.050  1.00  0.00     0.030 C 
ATOM      5  C   UNL     1     -47.741 -58.999  -2.003  1.00  0.00     0.004 C 
ATOM      6  C   UNL     1     -44.747 -59.163   2.073  1.00  0.00     0.013 C 
ATOM      7  C   UNL     1     -44.671 -60.244  -0.192  1.00  0.00    -0.063 C 
ATOM      8  C   UNL     1     -47.034 -61.265  -0.995  1.00  0.00    -0.003 C 
ATOM      9  C   UNL     1     -48.178 -60.427  -1.648  1.00  0.00    -0.011 C 
ATOM     10  C   UNL     1     -43.822 -60.022   1.091  1.00  0.00    -0.006 C 
ATOM     11  C   UNL     1     -44.277 -59.774  -1.392  1.00  0.00    -0.027 C 
ATOM     12  C   UNL     1     -46.210 -62.125  -1.978  1.00  0.00     0.008 C 
ATOM     13  C   UNL     1     -48.835 -61.111  -2.858  1.00  0.00     0.008 C 
ATOM     14  C   UNL     1     -43.657 -61.413   1.787  1.00  0.00     0.017 C 
ATOM     15  C   UNL     1     -42.342 -59.379   0.785  1.00  0.00    -0.020 C 
ATOM     16  C   UNL     1     -42.941 -59.182  -1.666  1.00  0.00     0.032 C 
ATOM     17  C   UNL     1     -42.379 -58.426  -0.443  1.00  0.00     0.006 C 
ATOM     18  C   UNL     1     -41.877 -58.500   1.962  1.00  0.00     0.008 C 
ATOM     19  C   UNL     1     -41.283 -60.506   0.543  1.00  0.00     0.012 C 
ATOM     20  C   UNL     1     -41.049 -57.564  -0.764  1.00  0.00    -0.025 C 
ATOM     21  C   UNL     1     -40.476 -57.919   1.844  1.00  0.00     0.005 C 
ATOM     22  C   UNL     1     -39.973 -57.473   0.429  1.00  0.00     0.003 C 
ATOM     23  C   UNL     1     -41.520 -56.123  -1.170  1.00  0.00     0.010 C 
ATOM     24  C   UNL     1     -40.317 -58.169  -2.011  1.00  0.00     0.012 C 
ATOM     25  C   UNL     1     -39.181 -56.088   0.514  1.00  0.00    -0.006 C 
ATOM     26  C   UNL     1     -41.578 -55.172   0.027  1.00  0.00     0.033 C 
ATOM     27  C   UNL     1     -40.183 -54.881   0.633  1.00  0.00     0.120 C 
ATOM     28  C   UNL     1     -38.267 -55.877  -0.732  1.00  0.00     0.014 C 
ATOM     29  C   UNL     1     -38.160 -56.092   1.701  1.00  0.00     0.014 C 
ENDROOT
BRANCH   1  30
ATOM     30  C   UNL     1     -48.055 -59.253   1.282  1.00  0.00     0.048 C 
ATOM     31  O   UNL     1     -49.030 -58.465   1.150  1.00  0.00    -0.550 OA
ATOM     32  O   UNL     1     -48.196 -60.350   2.125  1.00  0.00    -0.550 OA
ENDBRANCH   1  30
BRANCH  27  33
ATOM     33  O   UNL     1     -40.356 -54.500   1.976  1.00  0.00    -0.393 OA
ATOM     34  H   UNL     1     -40.962 -53.712   1.982  1.00  0.00     0.210 HD
ENDBRANCH  27  33
TORSDOF 2
ENDMDL
MODEL 7
REMARK VINA RESULT:    -5.733      3.109      5.408
REMARK INTER + INTRA:          -6.474
REMARK INTER:                  -6.231
REMARK INTRA:                  -0.243
REMARK UNBOUND:                -0.238
REMARK SMILES C[C@@H]1[C@H](C)CC[C@]2(C(=O)[O-])CC[C@@]3(C)C(=CC[C@@H]4[C@@]5(C)CC[C@@H](O)C(C)(C)[C@H]5CC[C@]43C)[C@H]12
REMARK SMILES IDX 7 1 6 2 11 3 33 4 5 5 12 6 15 7 2 8 3 9 13 10 16 11 1 12
REMARK SMILES IDX 4 13 14 14 31 15 17 16 18 17 30 18 32 19 19 20 29 21 28 22
REMARK SMILES IDX 21 23 20 24 25 25 22 26 23 27 26 28 27 29 8 30 9 31 10 32
REMARK SMILES IDX 24 33
REMARK H PARENT 24 34
REMARK Flexibility Score: inf
ROOT
ATOM      1  C   UNL     1     -44.587 -58.853   0.406  1.00  0.00     0.017 C 
ATOM      2  C   UNL     1     -43.381 -59.841   0.549  1.00  0.00     0.014 C 
ATOM      3  C   UNL     1     -45.867 -59.522   1.043  1.00  0.00     0.014 C 
ATOM      4  C   UNL     1     -44.831 -58.540  -1.117  1.00  0.00     0.030 C 
ATOM      5  C   UNL     1     -42.157 -59.552  -0.353  1.00  0.00     0.004 C 
ATOM      6  C   UNL     1     -47.165 -59.185   0.272  1.00  0.00     0.013 C 
ATOM      7  C   UNL     1     -45.684 -59.683  -1.694  1.00  0.00    -0.063 C 
ATOM      8  C   UNL     1     -43.557 -58.039  -1.903  1.00  0.00    -0.003 C 
ATOM      9  C   UNL     1     -42.227 -58.215  -1.105  1.00  0.00    -0.011 C 
ATOM     10  C   UNL     1     -47.173 -59.685  -1.247  1.00  0.00    -0.006 C 
ATOM     11  C   UNL     1     -45.058 -60.814  -2.075  1.00  0.00    -0.027 C 
ATOM     12  C   UNL     1     -43.494 -58.479  -3.383  1.00  0.00     0.008 C 
ATOM     13  C   UNL     1     -40.962 -57.999  -1.950  1.00  0.00     0.008 C 
ATOM     14  C   UNL     1     -47.902 -58.558  -2.051  1.00  0.00     0.017 C 
ATOM     15  C   UNL     1     -47.925 -61.121  -1.507  1.00  0.00    -0.020 C 
ATOM     16  C   UNL     1     -45.737 -62.118  -2.299  1.00  0.00     0.032 C 
ATOM     17  C   UNL     1     -46.940 -62.316  -1.352  1.00  0.00     0.006 C 
ATOM     18  C   UNL     1     -49.018 -61.362  -0.447  1.00  0.00     0.008 C 
ATOM     19  C   UNL     1     -48.578 -61.162  -2.929  1.00  0.00     0.012 C 
ATOM     20  C   UNL     1     -47.559 -63.809  -1.387  1.00  0.00    -0.025 C 
ATOM     21  C   UNL     1     -49.855 -62.619  -0.630  1.00  0.00     0.005 C 
ATOM     22  C   UNL     1     -49.152 -63.907  -1.179  1.00  0.00     0.003 C 
ATOM     23  C   UNL     1     -46.823 -64.640  -0.279  1.00  0.00     0.010 C 
ATOM     24  C   UNL     1     -47.222 -64.486  -2.760  1.00  0.00     0.012 C 
ATOM     25  C   UNL     1     -49.647 -65.207  -0.394  1.00  0.00    -0.006 C 
ATOM     26  C   UNL     1     -47.562 -64.605   1.061  1.00  0.00     0.033 C 
ATOM     27  C   UNL     1     -48.938 -65.313   1.007  1.00  0.00     0.120 C 
ATOM     28  C   UNL     1     -49.369 -66.507  -1.209  1.00  0.00     0.014 C 
ATOM     29  C   UNL     1     -51.205 -65.216  -0.239  1.00  0.00     0.014 C 
ENDROOT
BRANCH   1  30
ATOM     30  C   UNL     1     -44.315 -57.561   1.175  1.00  0.00     0.048 C 
ATOM     31  O   UNL     1     -43.485 -57.545   2.123  1.00  0.00    -0.550 OA
ATOM     32  O   UNL     1     -44.906 -56.362   0.789  1.00  0.00    -0.550 OA
ENDBRANCH   1  30
BRANCH  27  33
ATOM     33  O   UNL     1     -49.749 -64.778   2.024  1.00  0.00    -0.393 OA
ATOM     34  H   UNL     1     -49.149 -64.306   2.661  1.00  0.00     0.210 HD
ENDBRANCH  27  33
TORSDOF 2
ENDMDL
MODEL 8
REMARK VINA RESULT:    -5.446      2.189      4.092
REMARK INTER + INTRA:          -6.161
REMARK INTER:                  -5.923
REMARK INTRA:                  -0.238
REMARK UNBOUND:                -0.238
REMARK SMILES C[C@@H]1[C@H](C)CC[C@]2(C(=O)[O-])CC[C@@]3(C)C(=CC[C@@H]4[C@@]5(C)CC[C@@H](O)C(C)(C)[C@H]5CC[C@]43C)[C@H]12
REMARK SMILES IDX 7 1 6 2 11 3 33 4 5 5 12 6 15 7 2 8 3 9 13 10 16 11 1 12
REMARK SMILES IDX 4 13 14 14 31 15 17 16 18 17 30 18 32 19 19 20 29 21 28 22
REMARK SMILES IDX 21 23 20 24 25 25 22 26 23 27 26 28 27 29 8 30 9 31 10 32
REMARK SMILES IDX 24 33
REMARK H PARENT 24 34
REMARK Flexibility Score: inf
ROOT
ATOM      1  C   UNL     1     -46.583 -58.030   0.694  1.00  0.00     0.017 C 
ATOM      2  C   UNL     1     -45.966 -58.667   1.984  1.00  0.00     0.014 C 
ATOM      3  C   UNL     1     -48.043 -58.595   0.500  1.00  0.00     0.014 C 
ATOM      4  C   UNL     1     -45.686 -58.387  -0.549  1.00  0.00     0.030 C 
ATOM      5  C   UNL     1     -44.428 -58.559   2.124  1.00  0.00     0.004 C 
ATOM      6  C   UNL     1     -48.410 -58.809  -0.988  1.00  0.00     0.013 C 
ATOM      7  C   UNL     1     -46.098 -59.789  -1.031  1.00  0.00    -0.063 C 
ATOM      8  C   UNL     1     -44.156 -58.034  -0.386  1.00  0.00    -0.003 C 
ATOM      9  C   UNL     1     -43.759 -57.658   1.077  1.00  0.00    -0.011 C 
ATOM     10  C   UNL     1     -47.475 -59.860  -1.748  1.00  0.00    -0.006 C 
ATOM     11  C   UNL     1     -45.571 -60.858  -0.402  1.00  0.00    -0.027 C 
ATOM     12  C   UNL     1     -43.187 -59.004  -1.098  1.00  0.00     0.008 C 
ATOM     13  C   UNL     1     -42.241 -57.588   1.309  1.00  0.00     0.008 C 
ATOM     14  C   UNL     1     -47.281 -59.279  -3.187  1.00  0.00     0.017 C 
ATOM     15  C   UNL     1     -48.076 -61.386  -1.846  1.00  0.00    -0.020 C 
ATOM     16  C   UNL     1     -46.122 -62.237  -0.481  1.00  0.00     0.032 C 
ATOM     17  C   UNL     1     -47.660 -62.242  -0.616  1.00  0.00     0.006 C 
ATOM     18  C   UNL     1     -49.617 -61.366  -1.819  1.00  0.00     0.008 C 
ATOM     19  C   UNL     1     -47.599 -62.090  -3.161  1.00  0.00     0.012 C 
ATOM     20  C   UNL     1     -48.324 -63.708  -0.462  1.00  0.00    -0.025 C 
ATOM     21  C   UNL     1     -50.301 -62.713  -1.998  1.00  0.00     0.005 C 
ATOM     22  C   UNL     1     -49.631 -63.977  -1.361  1.00  0.00     0.003 C 
ATOM     23  C   UNL     1     -48.669 -63.901   1.056  1.00  0.00     0.010 C 
ATOM     24  C   UNL     1     -47.266 -64.806  -0.830  1.00  0.00     0.012 C 
ATOM     25  C   UNL     1     -50.725 -64.925  -0.685  1.00  0.00    -0.006 C 
ATOM     26  C   UNL     1     -50.098 -63.464   1.386  1.00  0.00     0.033 C 
ATOM     27  C   UNL     1     -51.171 -64.352   0.711  1.00  0.00     0.120 C 
ATOM     28  C   UNL     1     -50.185 -66.376  -0.497  1.00  0.00     0.014 C 
ATOM     29  C   UNL     1     -51.957 -65.130  -1.630  1.00  0.00     0.014 C 
ENDROOT
BRANCH   1  30
ATOM     30  C   UNL     1     -46.695 -56.513   0.847  1.00  0.00     0.048 C 
ATOM     31  O   UNL     1     -46.931 -55.786  -0.155  1.00  0.00    -0.550 OA
ATOM     32  O   UNL     1     -46.628 -55.916   2.101  1.00  0.00    -0.550 OA
ENDBRANCH   1  30
BRANCH  27  33
ATOM     33  O   UNL     1     -52.355 -63.601   0.592  1.00  0.00    -0.393 OA
ATOM     34  H   UNL     1     -53.091 -64.242   0.407  1.00  0.00     0.210 HD
ENDBRANCH  27  33
TORSDOF 2
ENDMDL
MODEL 9
REMARK VINA RESULT:    -5.427      2.264      3.957
REMARK INTER + INTRA:          -6.141
REMARK INTER:                  -6.007
REMARK INTRA:                  -0.134
REMARK UNBOUND:                -0.238
REMARK SMILES C[C@@H]1[C@H](C)CC[C@]2(C(=O)[O-])CC[C@@]3(C)C(=CC[C@@H]4[C@@]5(C)CC[C@@H](O)C(C)(C)[C@H]5CC[C@]43C)[C@H]12
REMARK SMILES IDX 7 1 6 2 11 3 33 4 5 5 12 6 15 7 2 8 3 9 13 10 16 11 1 12
REMARK SMILES IDX 4 13 14 14 31 15 17 16 18 17 30 18 32 19 19 20 29 21 28 22
REMARK SMILES IDX 21 23 20 24 25 25 22 26 23 27 26 28 27 29 8 30 9 31 10 32
REMARK SMILES IDX 24 33
REMARK H PARENT 24 34
REMARK Flexibility Score: inf
ROOT
ATOM      1  C   UNL     1     -47.349 -62.901  -0.042  1.00  0.00     0.017 C 
ATOM      2  C   UNL     1     -47.288 -63.513  -1.482  1.00  0.00     0.014 C 
ATOM      3  C   UNL     1     -48.280 -63.808   0.853  1.00  0.00     0.014 C 
ATOM      4  C   UNL     1     -47.918 -61.436  -0.118  1.00  0.00     0.030 C 
ATOM      5  C   UNL     1     -46.768 -62.573  -2.597  1.00  0.00     0.004 C 
ATOM      6  C   UNL     1     -49.117 -62.992   1.866  1.00  0.00     0.013 C 
ATOM      7  C   UNL     1     -49.453 -61.537  -0.153  1.00  0.00    -0.063 C 
ATOM      8  C   UNL     1     -47.172 -60.487  -1.135  1.00  0.00    -0.003 C 
ATOM      9  C   UNL     1     -46.192 -61.244  -2.086  1.00  0.00    -0.011 C 
ATOM     10  C   UNL     1     -50.118 -61.942   1.192  1.00  0.00    -0.006 C 
ATOM     11  C   UNL     1     -50.048 -61.779  -1.338  1.00  0.00    -0.027 C 
ATOM     12  C   UNL     1     -48.074 -59.440  -1.825  1.00  0.00     0.008 C 
ATOM     13  C   UNL     1     -45.677 -60.389  -3.254  1.00  0.00     0.008 C 
ATOM     14  C   UNL     1     -50.090 -60.686   2.123  1.00  0.00     0.017 C 
ATOM     15  C   UNL     1     -51.665 -62.465   1.018  1.00  0.00    -0.020 C 
ATOM     16  C   UNL     1     -51.445 -62.264  -1.495  1.00  0.00     0.032 C 
ATOM     17  C   UNL     1     -51.870 -63.195  -0.340  1.00  0.00     0.006 C 
ATOM     18  C   UNL     1     -52.009 -63.514   2.094  1.00  0.00     0.008 C 
ATOM     19  C   UNL     1     -52.674 -61.273   1.130  1.00  0.00     0.012 C 
ATOM     20  C   UNL     1     -53.285 -63.938  -0.587  1.00  0.00    -0.025 C 
ATOM     21  C   UNL     1     -53.446 -64.012   2.102  1.00  0.00     0.005 C 
ATOM     22  C   UNL     1     -54.178 -64.189   0.728  1.00  0.00     0.003 C 
ATOM     23  C   UNL     1     -52.972 -65.305  -1.290  1.00  0.00     0.010 C 
ATOM     24  C   UNL     1     -54.151 -63.099  -1.590  1.00  0.00     0.012 C 
ATOM     25  C   UNL     1     -55.037 -65.536   0.707  1.00  0.00    -0.006 C 
ATOM     26  C   UNL     1     -52.801 -66.448  -0.288  1.00  0.00     0.033 C 
ATOM     27  C   UNL     1     -54.108 -66.783   0.471  1.00  0.00     0.120 C 
ATOM     28  C   UNL     1     -56.135 -65.496  -0.399  1.00  0.00     0.014 C 
ATOM     29  C   UNL     1     -55.871 -65.695   2.023  1.00  0.00     0.014 C 
ENDROOT
BRANCH   1  30
ATOM     30  C   UNL     1     -45.961 -62.897   0.597  1.00  0.00     0.048 C 
ATOM     31  O   UNL     1     -45.578 -61.912   1.285  1.00  0.00    -0.550 OA
ATOM     32  O   UNL     1     -45.131 -64.009   0.509  1.00  0.00    -0.550 OA
ENDBRANCH   1  30
BRANCH  27  33
ATOM     33  O   UNL     1     -53.765 -67.395   1.691  1.00  0.00    -0.393 OA
ATOM     34  H   UNL     1     -54.048 -68.346   1.632  1.00  0.00     0.210 HD
ENDBRANCH  27  33
TORSDOF 2
ENDMDL
