MODEL 1
REMARK VINA RESULT:    -6.038      0.000      0.000
REMARK INTER + INTRA:         -10.590
REMARK INTER:                  -7.979
REMARK INTRA:                  -2.611
REMARK UNBOUND:                -2.611
REMARK SMILES CC[C@H](C=C[C@H](C)[C@@H]1CC[C@H]2C3=CC[C@@H]4C[C@@H](O)CC[C@]4(C)[C@H]3CC[C@@]21C)C(C)C
REMARK SMILES IDX 6 1 7 2 5 3 4 4 3 5 2 6 1 7 28 8 29 9 30 10 8 11 9 12 26 13
REMARK SMILES IDX 10 14 11 15 25 16 27 17 12 18 24 19 23 20 13 21 21 22 14 23
REMARK SMILES IDX 15 24 20 25 22 26 16 27 19 28 17 29 18 30
REMARK H PARENT 18 31
REMARK Flexibility Score: inf
ROOT
ATOM      1  C   UNL     1     143.827 136.758 142.572  1.00  0.00     0.012 C 
ATOM      2  C   UNL     1     144.623 136.693 141.246  1.00  0.00     0.012 C 
ENDROOT
BRANCH   1   3
ATOM      3  C   UNL     1     144.093 138.077 143.292  1.00  0.00    -0.028 C 
ATOM      4  C   UNL     1     144.799 138.270 144.427  1.00  0.00    -0.027 C 
BRANCH   4   5
ATOM      5  C   UNL     1     145.437 137.200 145.295  1.00  0.00     0.014 C 
BRANCH   5   6
ATOM      6  C   UNL     1     146.661 137.828 146.008  1.00  0.00     0.004 C 
ATOM      7  C   UNL     1     146.727 139.353 145.914  1.00  0.00     0.004 C 
ENDBRANCH   5   6
BRANCH   5   8
ATOM      8  C   UNL     1     144.341 136.577 146.224  1.00  0.00    -0.011 C 
ATOM      9  C   UNL     1     144.892 135.470 147.139  1.00  0.00     0.008 C 
ATOM     10  C   UNL     1     143.550 137.614 147.040  1.00  0.00     0.008 C 
ENDBRANCH   5   8
ENDBRANCH   4   5
ENDBRANCH   1   3
BRANCH   1  11
ATOM     11  C   UNL     1     142.295 136.447 142.411  1.00  0.00     0.002 C 
ATOM     12  C   UNL     1     141.422 137.746 142.430  1.00  0.00     0.005 C 
ATOM     13  C   UNL     1     141.640 135.532 143.509  1.00  0.00    -0.023 C 
ATOM     14  C   UNL     1     140.397 137.610 143.560  1.00  0.00     0.009 C 
ATOM     15  C   UNL     1     141.018 136.559 144.460  1.00  0.00     0.021 C 
ATOM     16  C   UNL     1     142.562 134.612 144.363  1.00  0.00     0.008 C 
ATOM     17  C   UNL     1     140.566 134.645 142.804  1.00  0.00     0.012 C 
ATOM     18  C   UNL     1     140.215 135.871 145.546  1.00  0.00    -0.067 C 
ATOM     19  C   UNL     1     141.810 133.950 145.551  1.00  0.00     0.009 C 
ATOM     20  C   UNL     1     141.061 134.985 146.454  1.00  0.00     0.021 C 
ATOM     21  C   UNL     1     138.873 135.790 145.503  1.00  0.00    -0.027 C 
ATOM     22  C   UNL     1     140.275 134.374 147.683  1.00  0.00    -0.023 C 
ATOM     23  C   UNL     1     138.065 135.046 146.518  1.00  0.00     0.031 C 
ATOM     24  C   UNL     1     138.844 133.927 147.250  1.00  0.00     0.002 C 
ATOM     25  C   UNL     1     140.147 135.456 148.800  1.00  0.00     0.010 C 
ATOM     26  C   UNL     1     141.070 133.161 148.256  1.00  0.00     0.012 C 
ATOM     27  C   UNL     1     138.014 133.419 148.456  1.00  0.00     0.036 C 
ATOM     28  C   UNL     1     139.306 134.998 150.008  1.00  0.00     0.032 C 
ATOM     29  C   UNL     1     137.929 134.442 149.613  1.00  0.00     0.114 C 
BRANCH  29  30
ATOM     30  O   UNL     1     137.349 133.834 150.738  1.00  0.00    -0.393 OA
ATOM     31  H   UNL     1     136.539 134.362 150.967  1.00  0.00     0.210 HD
ENDBRANCH  29  30
ENDBRANCH   1  11
TORSDOF 6
ENDMDL
MODEL 2
REMARK VINA RESULT:    -5.804      5.468      8.966
REMARK INTER + INTRA:         -10.281
REMARK INTER:                  -7.139
REMARK INTRA:                  -3.142
REMARK UNBOUND:                -2.611
REMARK SMILES CC[C@H](C=C[C@H](C)[C@@H]1CC[C@H]2C3=CC[C@@H]4C[C@@H](O)CC[C@]4(C)[C@H]3CC[C@@]21C)C(C)C
REMARK SMILES IDX 6 1 7 2 5 3 4 4 3 5 2 6 1 7 28 8 29 9 30 10 8 11 9 12 26 13
REMARK SMILES IDX 10 14 11 15 25 16 27 17 12 18 24 19 23 20 13 21 21 22 14 23
REMARK SMILES IDX 15 24 20 25 22 26 16 27 19 28 17 29 18 30
REMARK H PARENT 18 31
REMARK Flexibility Score: inf
ROOT
ATOM      1  C   UNL     1     137.099 141.445 141.170  1.00  0.00     0.012 C 
ATOM      2  C   UNL     1     135.614 141.476 140.736  1.00  0.00     0.012 C 
ENDROOT
BRANCH   1   3
ATOM      3  C   UNL     1     137.331 142.384 142.350  1.00  0.00    -0.028 C 
ATOM      4  C   UNL     1     138.246 143.373 142.450  1.00  0.00    -0.027 C 
BRANCH   4   5
ATOM      5  C   UNL     1     139.310 143.736 141.429  1.00  0.00     0.014 C 
BRANCH   5   6
ATOM      6  C   UNL     1     138.719 144.812 140.482  1.00  0.00     0.004 C 
ATOM      7  C   UNL     1     138.358 144.292 139.090  1.00  0.00     0.004 C 
ENDBRANCH   5   6
BRANCH   5   8
ATOM      8  C   UNL     1     140.626 144.126 142.181  1.00  0.00    -0.011 C 
ATOM      9  C   UNL     1     140.905 143.233 143.402  1.00  0.00     0.008 C 
ATOM     10  C   UNL     1     141.865 144.209 141.274  1.00  0.00     0.008 C 
ENDBRANCH   5   8
ENDBRANCH   4   5
ENDBRANCH   1   3
BRANCH   1  11
ATOM     11  C   UNL     1     137.660 139.999 141.420  1.00  0.00     0.002 C 
ATOM     12  C   UNL     1     137.631 139.606 142.934  1.00  0.00     0.005 C 
ATOM     13  C   UNL     1     139.147 139.731 140.986  1.00  0.00    -0.023 C 
ATOM     14  C   UNL     1     139.058 139.243 143.356  1.00  0.00     0.009 C 
ATOM     15  C   UNL     1     139.909 139.922 142.300  1.00  0.00     0.021 C 
ATOM     16  C   UNL     1     139.800 140.676 139.933  1.00  0.00     0.008 C 
ATOM     17  C   UNL     1     139.228 138.265 140.457  1.00  0.00     0.012 C 
ATOM     18  C   UNL     1     141.376 139.583 142.128  1.00  0.00    -0.067 C 
ATOM     19  C   UNL     1     141.328 140.435 139.782  1.00  0.00     0.009 C 
ATOM     20  C   UNL     1     142.095 140.498 141.143  1.00  0.00     0.021 C 
ATOM     21  C   UNL     1     141.895 138.411 142.538  1.00  0.00    -0.027 C 
ATOM     22  C   UNL     1     143.657 140.261 141.055  1.00  0.00    -0.023 C 
ATOM     23  C   UNL     1     143.319 138.020 142.304  1.00  0.00     0.031 C 
ATOM     24  C   UNL     1     143.982 138.736 141.103  1.00  0.00     0.002 C 
ATOM     25  C   UNL     1     144.351 140.960 142.266  1.00  0.00     0.010 C 
ATOM     26  C   UNL     1     144.205 140.890 139.739  1.00  0.00     0.012 C 
ATOM     27  C   UNL     1     145.511 138.477 141.123  1.00  0.00     0.036 C 
ATOM     28  C   UNL     1     145.869 140.707 142.337  1.00  0.00     0.032 C 
ATOM     29  C   UNL     1     146.240 139.216 142.270  1.00  0.00     0.114 C 
BRANCH  29  30
ATOM     30  O   UNL     1     147.628 139.105 142.095  1.00  0.00    -0.393 OA
ATOM     31  H   UNL     1     147.829 139.416 141.173  1.00  0.00     0.210 HD
ENDBRANCH  29  30
ENDBRANCH   1  11
TORSDOF 6
ENDMDL
MODEL 3
REMARK VINA RESULT:    -5.749      5.262      7.887
REMARK INTER + INTRA:         -10.208
REMARK INTER:                  -7.083
REMARK INTRA:                  -3.125
REMARK UNBOUND:                -2.611
REMARK SMILES CC[C@H](C=C[C@H](C)[C@@H]1CC[C@H]2C3=CC[C@@H]4C[C@@H](O)CC[C@]4(C)[C@H]3CC[C@@]21C)C(C)C
REMARK SMILES IDX 6 1 7 2 5 3 4 4 3 5 2 6 1 7 28 8 29 9 30 10 8 11 9 12 26 13
REMARK SMILES IDX 10 14 11 15 25 16 27 17 12 18 24 19 23 20 13 21 21 22 14 23
REMARK SMILES IDX 15 24 20 25 22 26 16 27 19 28 17 29 18 30
REMARK H PARENT 18 31
REMARK Flexibility Score: inf
ROOT
ATOM      1  C   UNL     1     144.976 139.518 141.534  1.00  0.00     0.012 C 
ATOM      2  C   UNL     1     146.419 140.071 141.629  1.00  0.00     0.012 C 
ENDROOT
BRANCH   1   3
ATOM      3  C   UNL     1     144.994 137.997 141.407  1.00  0.00    -0.028 C 
ATOM      4  C   UNL     1     144.264 137.231 140.567  1.00  0.00    -0.027 C 
BRANCH   4   5
ATOM      5  C   UNL     1     143.198 137.707 139.596  1.00  0.00     0.014 C 
BRANCH   5   6
ATOM      6  C   UNL     1     143.862 137.893 138.208  1.00  0.00     0.004 C 
ATOM      7  C   UNL     1     144.085 139.353 137.810  1.00  0.00     0.004 C 
ENDBRANCH   5   6
BRANCH   5   8
ATOM      8  C   UNL     1     141.982 136.722 139.652  1.00  0.00    -0.011 C 
ATOM      9  C   UNL     1     141.797 136.077 141.036  1.00  0.00     0.008 C 
ATOM     10  C   UNL     1     140.659 137.331 139.156  1.00  0.00     0.008 C 
ENDBRANCH   5   8
ENDBRANCH   4   5
ENDBRANCH   1   3
BRANCH   1  11
ATOM     11  C   UNL     1     144.023 140.026 142.675  1.00  0.00     0.002 C 
ATOM     12  C   UNL     1     143.551 138.865 143.613  1.00  0.00     0.005 C 
ATOM     13  C   UNL     1     142.686 140.718 142.224  1.00  0.00    -0.023 C 
ATOM     14  C   UNL     1     142.020 138.839 143.599  1.00  0.00     0.009 C 
ATOM     15  C   UNL     1     141.678 139.569 142.314  1.00  0.00     0.021 C 
ATOM     16  C   UNL     1     142.594 141.299 140.781  1.00  0.00     0.008 C 
ATOM     17  C   UNL     1     142.380 141.862 143.242  1.00  0.00     0.012 C 
ATOM     18  C   UNL     1     140.272 140.061 142.033  1.00  0.00    -0.067 C 
ATOM     19  C   UNL     1     141.152 141.736 140.404  1.00  0.00     0.009 C 
ATOM     20  C   UNL     1     140.094 140.605 140.620  1.00  0.00     0.021 C 
ATOM     21  C   UNL     1     139.385 140.298 143.016  1.00  0.00    -0.027 C 
ATOM     22  C   UNL     1     138.603 140.987 140.253  1.00  0.00    -0.023 C 
ATOM     23  C   UNL     1     138.022 140.862 142.771  1.00  0.00     0.031 C 
ATOM     24  C   UNL     1     137.902 141.679 141.463  1.00  0.00     0.002 C 
ATOM     25  C   UNL     1     137.814 139.690 139.892  1.00  0.00     0.010 C 
ATOM     26  C   UNL     1     138.599 141.931 139.012  1.00  0.00     0.012 C 
ATOM     27  C   UNL     1     136.409 141.973 141.168  1.00  0.00     0.036 C 
ATOM     28  C   UNL     1     136.318 139.934 139.615  1.00  0.00     0.032 C 
ATOM     29  C   UNL     1     135.615 140.718 140.735  1.00  0.00     0.114 C 
BRANCH  29  30
ATOM     30  O   UNL     1     134.340 141.099 140.286  1.00  0.00    -0.393 OA
ATOM     31  H   UNL     1     133.687 140.779 140.963  1.00  0.00     0.210 HD
ENDBRANCH  29  30
ENDBRANCH   1  11
TORSDOF 6
ENDMDL
MODEL 4
REMARK VINA RESULT:    -5.712      2.887      7.402
REMARK INTER + INTRA:         -10.160
REMARK INTER:                  -7.435
REMARK INTRA:                  -2.725
REMARK UNBOUND:                -2.611
REMARK SMILES CC[C@H](C=C[C@H](C)[C@@H]1CC[C@H]2C3=CC[C@@H]4C[C@@H](O)CC[C@]4(C)[C@H]3CC[C@@]21C)C(C)C
REMARK SMILES IDX 6 1 7 2 5 3 4 4 3 5 2 6 1 7 28 8 29 9 30 10 8 11 9 12 26 13
REMARK SMILES IDX 10 14 11 15 25 16 27 17 12 18 24 19 23 20 13 21 21 22 14 23
REMARK SMILES IDX 15 24 20 25 22 26 16 27 19 28 17 29 18 30
REMARK H PARENT 18 31
REMARK Flexibility Score: inf
ROOT
ATOM      1  C   UNL     1     139.654 133.435 147.453  1.00  0.00     0.012 C 
ATOM      2  C   UNL     1     139.089 132.138 148.083  1.00  0.00     0.012 C 
ENDROOT
BRANCH   1   3
ATOM      3  C   UNL     1     138.587 134.525 147.430  1.00  0.00    -0.028 C 
ATOM      4  C   UNL     1     138.163 135.243 146.366  1.00  0.00    -0.027 C 
BRANCH   4   5
ATOM      5  C   UNL     1     138.706 135.176 144.949  1.00  0.00     0.014 C 
BRANCH   5   6
ATOM      6  C   UNL     1     137.804 134.213 144.136  1.00  0.00     0.004 C 
ATOM      7  C   UNL     1     138.365 132.797 143.997  1.00  0.00     0.004 C 
ENDBRANCH   5   6
BRANCH   5   8
ATOM      8  C   UNL     1     138.844 136.631 144.388  1.00  0.00    -0.011 C 
ATOM      9  C   UNL     1     139.631 136.691 143.068  1.00  0.00     0.008 C 
ATOM     10  C   UNL     1     137.507 137.381 144.258  1.00  0.00     0.008 C 
ENDBRANCH   5   8
ENDBRANCH   4   5
ENDBRANCH   1   3
BRANCH   1  11
ATOM     11  C   UNL     1     141.007 133.915 148.091  1.00  0.00     0.002 C 
ATOM     12  C   UNL     1     140.793 135.044 149.153  1.00  0.00     0.005 C 
ATOM     13  C   UNL     1     142.078 134.515 147.108  1.00  0.00    -0.023 C 
ATOM     14  C   UNL     1     141.619 136.260 148.725  1.00  0.00     0.009 C 
ATOM     15  C   UNL     1     141.835 136.021 147.242  1.00  0.00     0.021 C 
ATOM     16  C   UNL     1     141.982 134.166 145.593  1.00  0.00     0.008 C 
ATOM     17  C   UNL     1     143.487 134.090 147.630  1.00  0.00     0.012 C 
ATOM     18  C   UNL     1     142.865 136.806 146.455  1.00  0.00    -0.067 C 
ATOM     19  C   UNL     1     142.954 135.010 144.723  1.00  0.00     0.009 C 
ATOM     20  C   UNL     1     142.801 136.549 144.953  1.00  0.00     0.021 C 
ATOM     21  C   UNL     1     143.920 137.396 147.044  1.00  0.00    -0.027 C 
ATOM     22  C   UNL     1     143.764 137.465 144.095  1.00  0.00    -0.023 C 
ATOM     23  C   UNL     1     144.994 138.104 146.280  1.00  0.00     0.031 C 
ATOM     24  C   UNL     1     145.139 137.636 144.812  1.00  0.00     0.002 C 
ATOM     25  C   UNL     1     143.112 138.871 143.918  1.00  0.00     0.010 C 
ATOM     26  C   UNL     1     143.965 136.830 142.685  1.00  0.00     0.012 C 
ATOM     27  C   UNL     1     146.067 138.612 144.045  1.00  0.00     0.036 C 
ATOM     28  C   UNL     1     144.013 139.881 143.180  1.00  0.00     0.032 C 
ATOM     29  C   UNL     1     145.421 139.994 143.788  1.00  0.00     0.114 C 
BRANCH  29  30
ATOM     30  O   UNL     1     146.230 140.738 142.915  1.00  0.00    -0.393 OA
ATOM     31  H   UNL     1     146.130 141.692 143.170  1.00  0.00     0.210 HD
ENDBRANCH  29  30
ENDBRANCH   1  11
TORSDOF 6
ENDMDL
MODEL 5
REMARK VINA RESULT:    -5.593      3.479      7.456
REMARK INTER + INTRA:         -10.002
REMARK INTER:                  -7.266
REMARK INTRA:                  -2.736
REMARK UNBOUND:                -2.611
REMARK SMILES CC[C@H](C=C[C@H](C)[C@@H]1CC[C@H]2C3=CC[C@@H]4C[C@@H](O)CC[C@]4(C)[C@H]3CC[C@@]21C)C(C)C
REMARK SMILES IDX 6 1 7 2 5 3 4 4 3 5 2 6 1 7 28 8 29 9 30 10 8 11 9 12 26 13
REMARK SMILES IDX 10 14 11 15 25 16 27 17 12 18 24 19 23 20 13 21 21 22 14 23
REMARK SMILES IDX 15 24 20 25 22 26 16 27 19 28 17 29 18 30
REMARK H PARENT 18 31
REMARK Flexibility Score: inf
ROOT
ATOM      1  C   UNL     1     139.781 135.936 144.868  1.00  0.00     0.012 C 
ATOM      2  C   UNL     1     138.236 135.891 144.947  1.00  0.00     0.012 C 
ENDROOT
BRANCH   1   3
ATOM      3  C   UNL     1     140.395 134.913 145.819  1.00  0.00    -0.028 C 
ATOM      4  C   UNL     1     141.314 135.131 146.785  1.00  0.00    -0.027 C 
BRANCH   4   5
ATOM      5  C   UNL     1     142.007 136.445 147.101  1.00  0.00     0.014 C 
BRANCH   5   6
ATOM      6  C   UNL     1     142.060 136.600 148.643  1.00  0.00     0.004 C 
ATOM      7  C   UNL     1     140.971 135.827 149.388  1.00  0.00     0.004 C 
ENDBRANCH   5   6
BRANCH   5   8
ATOM      8  C   UNL     1     143.383 136.488 146.356  1.00  0.00    -0.011 C 
ATOM      9  C   UNL     1     144.239 137.704 146.750  1.00  0.00     0.008 C 
ATOM     10  C   UNL     1     144.199 135.189 146.472  1.00  0.00     0.008 C 
ENDBRANCH   5   8
ENDBRANCH   4   5
ENDBRANCH   1   3
BRANCH   1  11
ATOM     11  C   UNL     1     140.348 135.829 143.406  1.00  0.00     0.002 C 
ATOM     12  C   UNL     1     141.206 134.538 143.197  1.00  0.00     0.005 C 
ATOM     13  C   UNL     1     141.288 136.994 142.925  1.00  0.00    -0.023 C 
ATOM     14  C   UNL     1     142.599 134.967 142.727  1.00  0.00     0.009 C 
ATOM     15  C   UNL     1     142.682 136.412 143.179  1.00  0.00     0.021 C 
ATOM     16  C   UNL     1     141.219 138.364 143.663  1.00  0.00     0.008 C 
ATOM     17  C   UNL     1     141.008 137.230 141.408  1.00  0.00     0.012 C 
ATOM     18  C   UNL     1     143.758 137.344 142.660  1.00  0.00    -0.067 C 
ATOM     19  C   UNL     1     142.358 139.330 143.236  1.00  0.00     0.009 C 
ATOM     20  C   UNL     1     143.781 138.695 143.368  1.00  0.00     0.021 C 
ATOM     21  C   UNL     1     144.391 137.129 141.493  1.00  0.00    -0.027 C 
ATOM     22  C   UNL     1     144.986 139.629 142.949  1.00  0.00    -0.023 C 
ATOM     23  C   UNL     1     145.396 138.078 140.919  1.00  0.00     0.031 C 
ATOM     24  C   UNL     1     145.242 139.536 141.412  1.00  0.00     0.002 C 
ATOM     25  C   UNL     1     146.276 139.173 143.700  1.00  0.00     0.010 C 
ATOM     26  C   UNL     1     144.669 141.100 143.356  1.00  0.00     0.012 C 
ATOM     27  C   UNL     1     146.483 140.362 140.988  1.00  0.00     0.036 C 
ATOM     28  C   UNL     1     147.539 139.953 143.288  1.00  0.00     0.032 C 
ATOM     29  C   UNL     1     147.764 139.983 141.767  1.00  0.00     0.114 C 
BRANCH  29  30
ATOM     30  O   UNL     1     148.781 140.908 141.481  1.00  0.00    -0.393 OA
ATOM     31  H   UNL     1     149.526 140.724 142.111  1.00  0.00     0.210 HD
ENDBRANCH  29  30
ENDBRANCH   1  11
TORSDOF 6
ENDMDL
MODEL 6
REMARK VINA RESULT:    -5.584      5.069      7.364
REMARK INTER + INTRA:          -9.990
REMARK INTER:                  -6.993
REMARK INTRA:                  -2.997
REMARK UNBOUND:                -2.611
REMARK SMILES CC[C@H](C=C[C@H](C)[C@@H]1CC[C@H]2C3=CC[C@@H]4C[C@@H](O)CC[C@]4(C)[C@H]3CC[C@@]21C)C(C)C
REMARK SMILES IDX 6 1 7 2 5 3 4 4 3 5 2 6 1 7 28 8 29 9 30 10 8 11 9 12 26 13
REMARK SMILES IDX 10 14 11 15 25 16 27 17 12 18 24 19 23 20 13 21 21 22 14 23
REMARK SMILES IDX 15 24 20 25 22 26 16 27 19 28 17 29 18 30
REMARK H PARENT 18 31
REMARK Flexibility Score: inf
ROOT
ATOM      1  C   UNL     1     138.598 143.886 139.787  1.00  0.00     0.012 C 
ATOM      2  C   UNL     1     138.102 144.554 138.481  1.00  0.00     0.012 C 
ENDROOT
BRANCH   1   3
ATOM      3  C   UNL     1     139.393 144.881 140.627  1.00  0.00    -0.028 C 
ATOM      4  C   UNL     1     140.533 144.655 141.315  1.00  0.00    -0.027 C 
BRANCH   4   5
ATOM      5  C   UNL     1     141.257 143.329 141.467  1.00  0.00     0.014 C 
BRANCH   5   6
ATOM      6  C   UNL     1     142.375 143.267 140.396  1.00  0.00     0.004 C 
ATOM      7  C   UNL     1     142.122 142.249 139.283  1.00  0.00     0.004 C 
ENDBRANCH   5   6
BRANCH   5   8
ATOM      8  C   UNL     1     141.717 143.167 142.956  1.00  0.00    -0.011 C 
ATOM      9  C   UNL     1     140.932 144.067 143.925  1.00  0.00     0.008 C 
ATOM     10  C   UNL     1     141.727 141.711 143.453  1.00  0.00     0.008 C 
ENDBRANCH   5   8
ENDBRANCH   4   5
ENDBRANCH   1   3
BRANCH   1  11
ATOM     11  C   UNL     1     137.467 143.162 140.602  1.00  0.00     0.002 C 
ATOM     12  C   UNL     1     137.307 143.750 142.043  1.00  0.00     0.005 C 
ATOM     13  C   UNL     1     137.643 141.618 140.838  1.00  0.00    -0.023 C 
ATOM     14  C   UNL     1     137.496 142.606 143.044  1.00  0.00     0.009 C 
ATOM     15  C   UNL     1     138.259 141.571 142.240  1.00  0.00     0.021 C 
ATOM     16  C   UNL     1     138.590 140.820 139.892  1.00  0.00     0.008 C 
ATOM     17  C   UNL     1     136.225 140.968 140.788  1.00  0.00     0.012 C 
ATOM     18  C   UNL     1     138.399 140.140 142.720  1.00  0.00    -0.067 C 
ATOM     19  C   UNL     1     138.844 139.369 140.388  1.00  0.00     0.009 C 
ATOM     20  C   UNL     1     139.349 139.307 141.867  1.00  0.00     0.021 C 
ATOM     21  C   UNL     1     137.533 139.587 143.589  1.00  0.00    -0.027 C 
ATOM     22  C   UNL     1     139.627 137.856 142.431  1.00  0.00    -0.023 C 
ATOM     23  C   UNL     1     137.602 138.155 144.013  1.00  0.00     0.031 C 
ATOM     24  C   UNL     1     138.316 137.229 143.000  1.00  0.00     0.002 C 
ATOM     25  C   UNL     1     140.680 137.945 143.580  1.00  0.00     0.010 C 
ATOM     26  C   UNL     1     140.207 136.959 141.295  1.00  0.00     0.012 C 
ATOM     27  C   UNL     1     138.579 135.848 143.653  1.00  0.00     0.036 C 
ATOM     28  C   UNL     1     140.952 136.595 144.273  1.00  0.00     0.032 C 
ATOM     29  C   UNL     1     139.672 135.889 144.747  1.00  0.00     0.114 C 
BRANCH  29  30
ATOM     30  O   UNL     1     139.998 134.579 145.136  1.00  0.00    -0.393 OA
ATOM     31  H   UNL     1     140.972 134.570 145.331  1.00  0.00     0.210 HD
ENDBRANCH  29  30
ENDBRANCH   1  11
TORSDOF 6
ENDMDL
MODEL 7
REMARK VINA RESULT:    -5.573      6.816     11.262
REMARK INTER + INTRA:          -9.976
REMARK INTER:                  -7.094
REMARK INTRA:                  -2.882
REMARK UNBOUND:                -2.611
REMARK SMILES CC[C@H](C=C[C@H](C)[C@@H]1CC[C@H]2C3=CC[C@@H]4C[C@@H](O)CC[C@]4(C)[C@H]3CC[C@@]21C)C(C)C
REMARK SMILES IDX 6 1 7 2 5 3 4 4 3 5 2 6 1 7 28 8 29 9 30 10 8 11 9 12 26 13
REMARK SMILES IDX 10 14 11 15 25 16 27 17 12 18 24 19 23 20 13 21 21 22 14 23
REMARK SMILES IDX 15 24 20 25 22 26 16 27 19 28 17 29 18 30
REMARK H PARENT 18 31
REMARK Flexibility Score: inf
ROOT
ATOM      1  C   UNL     1     141.555 139.624 142.431  1.00  0.00     0.012 C 
ATOM      2  C   UNL     1     140.716 138.457 143.008  1.00  0.00     0.012 C 
ENDROOT
BRANCH   1   3
ATOM      3  C   UNL     1     141.339 140.893 143.250  1.00  0.00    -0.028 C 
ATOM      4  C   UNL     1     140.878 142.087 142.816  1.00  0.00    -0.027 C 
BRANCH   4   5
ATOM      5  C   UNL     1     140.531 142.463 141.386  1.00  0.00     0.014 C 
BRANCH   5   6
ATOM      6  C   UNL     1     139.115 143.093 141.386  1.00  0.00     0.004 C 
ATOM      7  C   UNL     1     138.545 143.354 142.781  1.00  0.00     0.004 C 
ENDBRANCH   5   6
BRANCH   5   8
ATOM      8  C   UNL     1     141.681 143.350 140.800  1.00  0.00    -0.011 C 
ATOM      9  C   UNL     1     141.264 144.105 139.527  1.00  0.00     0.008 C 
ATOM     10  C   UNL     1     142.310 144.314 141.821  1.00  0.00     0.008 C 
ENDBRANCH   5   8
ENDBRANCH   4   5
ENDBRANCH   1   3
BRANCH   1  11
ATOM     11  C   UNL     1     143.074 139.277 142.230  1.00  0.00     0.002 C 
ATOM     12  C   UNL     1     143.980 139.923 143.330  1.00  0.00     0.005 C 
ATOM     13  C   UNL     1     143.731 139.736 140.877  1.00  0.00    -0.023 C 
ATOM     14  C   UNL     1     145.027 140.794 142.629  1.00  0.00     0.009 C 
ATOM     15  C   UNL     1     144.401 141.056 141.272  1.00  0.00     0.021 C 
ATOM     16  C   UNL     1     142.806 140.035 139.660  1.00  0.00     0.008 C 
ATOM     17  C   UNL     1     144.766 138.644 140.461  1.00  0.00     0.012 C 
ATOM     18  C   UNL     1     145.212 141.615 140.121  1.00  0.00    -0.067 C 
ATOM     19  C   UNL     1     143.569 140.698 138.479  1.00  0.00     0.009 C 
ATOM     20  C   UNL     1     144.364 141.975 138.905  1.00  0.00     0.021 C 
ATOM     21  C   UNL     1     146.550 141.493 140.059  1.00  0.00    -0.027 C 
ATOM     22  C   UNL     1     145.163 142.697 137.746  1.00  0.00    -0.023 C 
ATOM     23  C   UNL     1     147.362 141.963 138.894  1.00  0.00     0.031 C 
ATOM     24  C   UNL     1     146.572 142.051 137.567  1.00  0.00     0.002 C 
ATOM     25  C   UNL     1     145.345 144.204 138.110  1.00  0.00     0.010 C 
ATOM     26  C   UNL     1     144.351 142.603 136.418  1.00  0.00     0.012 C 
ATOM     27  C   UNL     1     147.417 142.805 136.508  1.00  0.00     0.036 C 
ATOM     28  C   UNL     1     146.201 144.985 137.094  1.00  0.00     0.032 C 
ATOM     29  C   UNL     1     147.555 144.317 136.801  1.00  0.00     0.114 C 
BRANCH  29  30
ATOM     30  O   UNL     1     148.145 144.959 135.700  1.00  0.00    -0.393 OA
ATOM     31  H   UNL     1     148.342 144.255 135.028  1.00  0.00     0.210 HD
ENDBRANCH  29  30
ENDBRANCH   1  11
TORSDOF 6
ENDMDL
MODEL 8
REMARK VINA RESULT:    -5.524      4.566      7.102
REMARK INTER + INTRA:          -9.911
REMARK INTER:                  -7.026
REMARK INTRA:                  -2.885
REMARK UNBOUND:                -2.611
REMARK SMILES CC[C@H](C=C[C@H](C)[C@@H]1CC[C@H]2C3=CC[C@@H]4C[C@@H](O)CC[C@]4(C)[C@H]3CC[C@@]21C)C(C)C
REMARK SMILES IDX 6 1 7 2 5 3 4 4 3 5 2 6 1 7 28 8 29 9 30 10 8 11 9 12 26 13
REMARK SMILES IDX 10 14 11 15 25 16 27 17 12 18 24 19 23 20 13 21 21 22 14 23
REMARK SMILES IDX 15 24 20 25 22 26 16 27 19 28 17 29 18 30
REMARK H PARENT 18 31
REMARK Flexibility Score: inf
ROOT
ATOM      1  C   UNL     1     138.213 142.810 140.489  1.00  0.00     0.012 C 
ATOM      2  C   UNL     1     137.361 143.560 139.436  1.00  0.00     0.012 C 
ENDROOT
BRANCH   1   3
ATOM      3  C   UNL     1     138.416 143.676 141.728  1.00  0.00    -0.028 C 
ATOM      4  C   UNL     1     139.570 143.915 142.389  1.00  0.00    -0.027 C 
BRANCH   4   5
ATOM      5  C   UNL     1     140.931 143.313 142.088  1.00  0.00     0.014 C 
BRANCH   5   6
ATOM      6  C   UNL     1     141.718 144.321 141.212  1.00  0.00     0.004 C 
ATOM      7  C   UNL     1     142.079 143.795 139.823  1.00  0.00     0.004 C 
ENDBRANCH   5   6
BRANCH   5   8
ATOM      8  C   UNL     1     141.611 142.892 143.435  1.00  0.00    -0.011 C 
ATOM      9  C   UNL     1     143.013 142.292 143.235  1.00  0.00     0.008 C 
ATOM     10  C   UNL     1     141.642 144.006 144.495  1.00  0.00     0.008 C 
ENDBRANCH   5   8
ENDBRANCH   4   5
ENDBRANCH   1   3
BRANCH   1  11
ATOM     11  C   UNL     1     137.683 141.371 140.828  1.00  0.00     0.002 C 
ATOM     12  C   UNL     1     136.918 141.328 142.193  1.00  0.00     0.005 C 
ATOM     13  C   UNL     1     138.759 140.233 140.960  1.00  0.00    -0.023 C 
ATOM     14  C   UNL     1     137.605 140.293 143.088  1.00  0.00     0.009 C 
ATOM     15  C   UNL     1     138.986 140.172 142.473  1.00  0.00     0.021 C 
ATOM     16  C   UNL     1     140.152 140.440 140.293  1.00  0.00     0.008 C 
ATOM     17  C   UNL     1     138.129 138.919 140.399  1.00  0.00     0.012 C 
ATOM     18  C   UNL     1     139.917 139.033 142.835  1.00  0.00    -0.067 C 
ATOM     19  C   UNL     1     141.179 139.348 140.703  1.00  0.00     0.009 C 
ATOM     20  C   UNL     1     141.318 139.190 142.253  1.00  0.00     0.021 C 
ATOM     21  C   UNL     1     139.465 137.865 143.326  1.00  0.00    -0.027 C 
ATOM     22  C   UNL     1     142.350 138.092 142.735  1.00  0.00    -0.023 C 
ATOM     23  C   UNL     1     140.355 136.697 143.611  1.00  0.00     0.031 C 
ATOM     24  C   UNL     1     141.669 136.690 142.795  1.00  0.00     0.002 C 
ATOM     25  C   UNL     1     142.863 138.462 144.162  1.00  0.00     0.010 C 
ATOM     26  C   UNL     1     143.569 138.062 141.763  1.00  0.00     0.012 C 
ATOM     27  C   UNL     1     142.628 135.612 143.363  1.00  0.00     0.036 C 
ATOM     28  C   UNL     1     143.801 137.403 144.774  1.00  0.00     0.032 C 
ATOM     29  C   UNL     1     143.212 135.983 144.746  1.00  0.00     0.114 C 
BRANCH  29  30
ATOM     30  O   UNL     1     144.221 135.070 145.092  1.00  0.00    -0.393 OA
ATOM     31  H   UNL     1     145.088 135.503 144.875  1.00  0.00     0.210 HD
ENDBRANCH  29  30
ENDBRANCH   1  11
TORSDOF 6
ENDMDL
MODEL 9
REMARK VINA RESULT:    -5.493      1.972      3.148
REMARK INTER + INTRA:          -9.870
REMARK INTER:                  -7.066
REMARK INTRA:                  -2.803
REMARK UNBOUND:                -2.611
REMARK SMILES CC[C@H](C=C[C@H](C)[C@@H]1CC[C@H]2C3=CC[C@@H]4C[C@@H](O)CC[C@]4(C)[C@H]3CC[C@@]21C)C(C)C
REMARK SMILES IDX 6 1 7 2 5 3 4 4 3 5 2 6 1 7 28 8 29 9 30 10 8 11 9 12 26 13
REMARK SMILES IDX 10 14 11 15 25 16 27 17 12 18 24 19 23 20 13 21 21 22 14 23
REMARK SMILES IDX 15 24 20 25 22 26 16 27 19 28 17 29 18 30
REMARK H PARENT 18 31
REMARK Flexibility Score: inf
ROOT
ATOM      1  C   UNL     1     143.568 137.281 139.710  1.00  0.00     0.012 C 
ATOM      2  C   UNL     1     143.868 137.069 138.206  1.00  0.00     0.012 C 
ENDROOT
BRANCH   1   3
ATOM      3  C   UNL     1     143.689 138.757 140.077  1.00  0.00    -0.028 C 
ATOM      4  C   UNL     1     144.541 139.320 140.961  1.00  0.00    -0.027 C 
BRANCH   4   5
ATOM      5  C   UNL     1     145.537 138.598 141.852  1.00  0.00     0.014 C 
BRANCH   5   6
ATOM      6  C   UNL     1     146.898 139.332 141.743  1.00  0.00     0.004 C 
ATOM      7  C   UNL     1     146.783 140.854 141.653  1.00  0.00     0.004 C 
ENDBRANCH   5   6
BRANCH   5   8
ATOM      8  C   UNL     1     144.934 138.473 143.292  1.00  0.00    -0.011 C 
ATOM      9  C   UNL     1     146.011 138.352 144.383  1.00  0.00     0.008 C 
ATOM     10  C   UNL     1     143.924 139.577 143.646  1.00  0.00     0.008 C 
ENDBRANCH   5   8
ENDBRANCH   4   5
ENDBRANCH   1   3
BRANCH   1  11
ATOM     11  C   UNL     1     142.214 136.641 140.185  1.00  0.00     0.002 C 
ATOM     12  C   UNL     1     141.064 137.697 140.288  1.00  0.00     0.005 C 
ATOM     13  C   UNL     1     142.217 135.943 141.593  1.00  0.00    -0.023 C 
ATOM     14  C   UNL     1     140.524 137.669 141.721  1.00  0.00     0.009 C 
ATOM     15  C   UNL     1     141.662 137.042 142.503  1.00  0.00     0.021 C 
ATOM     16  C   UNL     1     143.579 135.487 142.199  1.00  0.00     0.008 C 
ATOM     17  C   UNL     1     141.270 134.704 141.509  1.00  0.00     0.012 C 
ATOM     18  C   UNL     1     141.464 136.526 143.914  1.00  0.00    -0.067 C 
ATOM     19  C   UNL     1     143.451 135.033 143.680  1.00  0.00     0.009 C 
ATOM     20  C   UNL     1     142.763 136.102 144.591  1.00  0.00     0.021 C 
ATOM     21  C   UNL     1     140.254 136.173 144.386  1.00  0.00    -0.027 C 
ATOM     22  C   UNL     1     142.604 135.700 146.112  1.00  0.00    -0.023 C 
ATOM     23  C   UNL     1     140.045 135.583 145.744  1.00  0.00     0.031 C 
ATOM     24  C   UNL     1     141.294 134.879 146.327  1.00  0.00     0.002 C 
ATOM     25  C   UNL     1     142.533 136.994 146.981  1.00  0.00     0.010 C 
ATOM     26  C   UNL     1     143.843 134.868 146.562  1.00  0.00     0.012 C 
ATOM     27  C   UNL     1     141.059 134.559 147.825  1.00  0.00     0.036 C 
ATOM     28  C   UNL     1     142.275 136.721 148.475  1.00  0.00     0.032 C 
ATOM     29  C   UNL     1     141.056 135.818 148.725  1.00  0.00     0.114 C 
BRANCH  29  30
ATOM     30  O   UNL     1     141.050 135.432 150.075  1.00  0.00    -0.393 OA
ATOM     31  H   UNL     1     141.769 135.947 150.526  1.00  0.00     0.210 HD
ENDBRANCH  29  30
ENDBRANCH   1  11
TORSDOF 6
ENDMDL
