MODEL 1
REMARK VINA RESULT:    -5.063      0.000      0.000
REMARK INTER + INTRA:         -13.720
REMARK INTER:                 -10.983
REMARK INTRA:                  -2.737
REMARK UNBOUND:                -2.737
REMARK SMILES CCCCCCCCCCCCCCCCCCCCCC(=O)[O-]
REMARK SMILES IDX 12 1 11 2 10 3 9 4 8 5 7 6 6 7 5 8 4 9 3 10 2 11 1 12 13 13
REMARK SMILES IDX 14 14 15 15 16 16 17 17 18 18 19 19 20 20 21 21 22 22 23 23
REMARK SMILES IDX 24 24
REMARK H PARENT
REMARK Flexibility Score: inf
ROOT
ATOM      1  C   UNL     1      14.589  30.296  59.668  1.00  0.00     0.000 C 
ENDROOT
BRANCH   1   2
ATOM      2  C   UNL     1      14.332  30.035  58.176  1.00  0.00     0.000 C 
BRANCH   2   3
ATOM      3  C   UNL     1      13.372  31.061  57.547  1.00  0.00     0.000 C 
BRANCH   3   4
ATOM      4  C   UNL     1      13.582  31.192  56.023  1.00  0.00    -0.000 C 
BRANCH   4   5
ATOM      5  C   UNL     1      14.605  30.195  55.453  1.00  0.00    -0.000 C 
BRANCH   5   6
ATOM      6  C   UNL     1      15.369  30.752  54.241  1.00  0.00    -0.000 C 
BRANCH   6   7
ATOM      7  C   UNL     1      16.743  31.340  54.612  1.00  0.00    -0.000 C 
BRANCH   7   8
ATOM      8  C   UNL     1      17.183  31.127  56.073  1.00  0.00    -0.000 C 
BRANCH   8   9
ATOM      9  C   UNL     1      17.579  32.436  56.778  1.00  0.00    -0.000 C 
BRANCH   9  10
ATOM     10  C   UNL     1      16.366  33.214  57.322  1.00  0.00    -0.000 C 
BRANCH  10  11
ATOM     11  C   UNL     1      16.346  34.715  56.980  1.00  0.00    -0.003 C 
ATOM     12  C   UNL     1      15.129  35.127  56.154  1.00  0.00     0.004 C 
ENDBRANCH  10  11
ENDBRANCH   9  10
ENDBRANCH   8   9
ENDBRANCH   7   8
ENDBRANCH   6   7
ENDBRANCH   5   6
ENDBRANCH   4   5
ENDBRANCH   3   4
ENDBRANCH   2   3
ENDBRANCH   1   2
BRANCH   1  13
ATOM     13  C   UNL     1      16.063  30.102  60.059  1.00  0.00     0.000 C 
BRANCH  13  14
ATOM     14  C   UNL     1      16.233  29.529  61.477  1.00  0.00     0.000 C 
BRANCH  14  15
ATOM     15  C   UNL     1      14.969  29.657  62.352  1.00  0.00     0.000 C 
BRANCH  15  16
ATOM     16  C   UNL     1      14.490  28.295  62.879  1.00  0.00     0.000 C 
BRANCH  16  17
ATOM     17  C   UNL     1      13.203  27.805  62.194  1.00  0.00     0.000 C 
BRANCH  17  18
ATOM     18  C   UNL     1      12.325  28.946  61.638  1.00  0.00     0.000 C 
BRANCH  18  19
ATOM     19  C   UNL     1      11.441  28.485  60.469  1.00  0.00     0.000 C 
BRANCH  19  20
ATOM     20  C   UNL     1      10.452  29.565  59.996  1.00  0.00     0.006 C 
BRANCH  20  21
ATOM     21  C   UNL     1       8.980  29.116  60.018  1.00  0.00     0.053 C 
BRANCH  21  22
ATOM     22  C   UNL     1       8.244  29.615  61.224  1.00  0.00     0.041 C 
ATOM     23  O   UNL     1       7.139  30.204  61.093  1.00  0.00    -0.550 OA
ATOM     24  O   UNL     1       8.760  29.400  62.495  1.00  0.00    -0.550 OA
ENDBRANCH  21  22
ENDBRANCH  20  21
ENDBRANCH  19  20
ENDBRANCH  18  19
ENDBRANCH  17  18
ENDBRANCH  16  17
ENDBRANCH  15  16
ENDBRANCH  14  15
ENDBRANCH  13  14
ENDBRANCH   1  13
TORSDOF 20
ENDMDL
MODEL 2
REMARK VINA RESULT:    -5.010      1.288      2.336
REMARK INTER + INTRA:         -13.605
REMARK INTER:                 -10.273
REMARK INTRA:                  -3.332
REMARK UNBOUND:                -2.737
REMARK SMILES CCCCCCCCCCCCCCCCCCCCCC(=O)[O-]
REMARK SMILES IDX 12 1 11 2 10 3 9 4 8 5 7 6 6 7 5 8 4 9 3 10 2 11 1 12 13 13
REMARK SMILES IDX 14 14 15 15 16 16 17 17 18 18 19 19 20 20 21 21 22 22 23 23
REMARK SMILES IDX 24 24
REMARK H PARENT
REMARK Flexibility Score: inf
ROOT
ATOM      1  C   UNL     1      17.058  30.731  60.832  1.00  0.00     0.000 C 
ENDROOT
BRANCH   1   2
ATOM      2  C   UNL     1      16.184  29.812  59.964  1.00  0.00     0.000 C 
BRANCH   2   3
ATOM      3  C   UNL     1      15.043  30.566  59.258  1.00  0.00     0.000 C 
BRANCH   3   4
ATOM      4  C   UNL     1      14.384  29.714  58.152  1.00  0.00    -0.000 C 
BRANCH   4   5
ATOM      5  C   UNL     1      14.635  30.248  56.730  1.00  0.00    -0.000 C 
BRANCH   5   6
ATOM      6  C   UNL     1      13.473  31.104  56.201  1.00  0.00    -0.000 C 
BRANCH   6   7
ATOM      7  C   UNL     1      13.854  31.942  54.967  1.00  0.00    -0.000 C 
BRANCH   7   8
ATOM      8  C   UNL     1      14.928  33.022  55.204  1.00  0.00    -0.000 C 
BRANCH   8   9
ATOM      9  C   UNL     1      14.778  33.728  56.562  1.00  0.00    -0.000 C 
BRANCH   9  10
ATOM     10  C   UNL     1      16.078  33.716  57.390  1.00  0.00    -0.000 C 
BRANCH  10  11
ATOM     11  C   UNL     1      17.301  33.112  56.677  1.00  0.00    -0.003 C 
ATOM     12  C   UNL     1      18.048  32.088  57.529  1.00  0.00     0.004 C 
ENDBRANCH  10  11
ENDBRANCH   9  10
ENDBRANCH   8   9
ENDBRANCH   7   8
ENDBRANCH   6   7
ENDBRANCH   5   6
ENDBRANCH   4   5
ENDBRANCH   3   4
ENDBRANCH   2   3
ENDBRANCH   1   2
BRANCH   1  13
ATOM     13  C   UNL     1      17.495  30.065  62.147  1.00  0.00     0.000 C 
BRANCH  13  14
ATOM     14  C   UNL     1      16.952  28.634  62.300  1.00  0.00     0.000 C 
BRANCH  14  15
ATOM     15  C   UNL     1      15.955  28.471  63.466  1.00  0.00     0.000 C 
BRANCH  15  16
ATOM     16  C   UNL     1      14.500  28.391  62.977  1.00  0.00     0.000 C 
BRANCH  16  17
ATOM     17  C   UNL     1      13.867  29.775  62.747  1.00  0.00     0.000 C 
BRANCH  17  18
ATOM     18  C   UNL     1      12.650  29.748  61.798  1.00  0.00     0.000 C 
BRANCH  18  19
ATOM     19  C   UNL     1      12.497  28.395  61.085  1.00  0.00     0.000 C 
BRANCH  19  20
ATOM     20  C   UNL     1      11.416  28.408  59.990  1.00  0.00     0.006 C 
BRANCH  20  21
ATOM     21  C   UNL     1      10.784  29.790  59.753  1.00  0.00     0.053 C 
BRANCH  21  22
ATOM     22  C   UNL     1       9.324  29.821  60.091  1.00  0.00     0.041 C 
ATOM     23  O   UNL     1       8.848  28.998  60.916  1.00  0.00    -0.550 OA
ATOM     24  O   UNL     1       8.496  30.779  59.522  1.00  0.00    -0.550 OA
ENDBRANCH  21  22
ENDBRANCH  20  21
ENDBRANCH  19  20
ENDBRANCH  18  19
ENDBRANCH  17  18
ENDBRANCH  16  17
ENDBRANCH  15  16
ENDBRANCH  14  15
ENDBRANCH  13  14
ENDBRANCH   1  13
TORSDOF 20
ENDMDL
MODEL 3
REMARK VINA RESULT:    -4.969      3.127      5.006
REMARK INTER + INTRA:         -13.517
REMARK INTER:                 -10.443
REMARK INTRA:                  -3.074
REMARK UNBOUND:                -2.737
REMARK SMILES CCCCCCCCCCCCCCCCCCCCCC(=O)[O-]
REMARK SMILES IDX 12 1 11 2 10 3 9 4 8 5 7 6 6 7 5 8 4 9 3 10 2 11 1 12 13 13
REMARK SMILES IDX 14 14 15 15 16 16 17 17 18 18 19 19 20 20 21 21 22 22 23 23
REMARK SMILES IDX 24 24
REMARK H PARENT
REMARK Flexibility Score: inf
ROOT
ATOM      1  C   UNL     1      16.940  32.409  55.266  1.00  0.00     0.000 C 
ENDROOT
BRANCH   1   2
ATOM      2  C   UNL     1      16.979  30.875  55.352  1.00  0.00     0.000 C 
BRANCH   2   3
ATOM      3  C   UNL     1      15.635  30.222  54.981  1.00  0.00     0.000 C 
BRANCH   3   4
ATOM      4  C   UNL     1      14.761  31.151  54.111  1.00  0.00    -0.000 C 
BRANCH   4   5
ATOM      5  C   UNL     1      13.432  31.550  54.776  1.00  0.00    -0.000 C 
BRANCH   5   6
ATOM      6  C   UNL     1      12.810  32.812  54.156  1.00  0.00    -0.000 C 
BRANCH   6   7
ATOM      7  C   UNL     1      13.851  33.896  53.822  1.00  0.00    -0.000 C 
BRANCH   7   8
ATOM      8  C   UNL     1      13.865  35.115  54.766  1.00  0.00    -0.000 C 
BRANCH   8   9
ATOM      9  C   UNL     1      15.227  35.830  54.803  1.00  0.00    -0.000 C 
BRANCH   9  10
ATOM     10  C   UNL     1      15.533  36.464  56.173  1.00  0.00    -0.000 C 
BRANCH  10  11
ATOM     11  C   UNL     1      17.025  36.712  56.459  1.00  0.00    -0.003 C 
ATOM     12  C   UNL     1      17.285  38.023  57.199  1.00  0.00     0.004 C 
ENDBRANCH  10  11
ENDBRANCH   9  10
ENDBRANCH   8   9
ENDBRANCH   7   8
ENDBRANCH   6   7
ENDBRANCH   5   6
ENDBRANCH   4   5
ENDBRANCH   3   4
ENDBRANCH   2   3
ENDBRANCH   1   2
BRANCH   1  13
ATOM     13  C   UNL     1      17.320  33.087  56.593  1.00  0.00     0.000 C 
BRANCH  13  14
ATOM     14  C   UNL     1      16.458  32.608  57.775  1.00  0.00     0.000 C 
BRANCH  14  15
ATOM     15  C   UNL     1      15.017  33.159  57.753  1.00  0.00     0.000 C 
BRANCH  15  16
ATOM     16  C   UNL     1      13.993  32.123  58.243  1.00  0.00     0.000 C 
BRANCH  16  17
ATOM     17  C   UNL     1      14.564  30.696  58.299  1.00  0.00     0.000 C 
BRANCH  17  18
ATOM     18  C   UNL     1      14.953  30.241  59.723  1.00  0.00     0.000 C 
BRANCH  18  19
ATOM     19  C   UNL     1      13.731  30.105  60.645  1.00  0.00     0.000 C 
BRANCH  19  20
ATOM     20  C   UNL     1      14.106  29.777  62.101  1.00  0.00     0.006 C 
BRANCH  20  21
ATOM     21  C   UNL     1      15.333  28.860  62.238  1.00  0.00     0.053 C 
BRANCH  21  22
ATOM     22  C   UNL     1      15.596  28.458  63.657  1.00  0.00     0.041 C 
ATOM     23  O   UNL     1      16.148  29.264  64.451  1.00  0.00    -0.550 OA
ATOM     24  O   UNL     1      15.201  27.208  64.114  1.00  0.00    -0.550 OA
ENDBRANCH  21  22
ENDBRANCH  20  21
ENDBRANCH  19  20
ENDBRANCH  18  19
ENDBRANCH  17  18
ENDBRANCH  16  17
ENDBRANCH  15  16
ENDBRANCH  14  15
ENDBRANCH  13  14
ENDBRANCH   1  13
TORSDOF 20
ENDMDL
MODEL 4
REMARK VINA RESULT:    -4.951      1.350      3.334
REMARK INTER + INTRA:         -13.478
REMARK INTER:                 -10.533
REMARK INTRA:                  -2.945
REMARK UNBOUND:                -2.737
REMARK SMILES CCCCCCCCCCCCCCCCCCCCCC(=O)[O-]
REMARK SMILES IDX 12 1 11 2 10 3 9 4 8 5 7 6 6 7 5 8 4 9 3 10 2 11 1 12 13 13
REMARK SMILES IDX 14 14 15 15 16 16 17 17 18 18 19 19 20 20 21 21 22 22 23 23
REMARK SMILES IDX 24 24
REMARK H PARENT
REMARK Flexibility Score: inf
ROOT
ATOM      1  C   UNL     1      14.578  30.281  56.281  1.00  0.00     0.000 C 
ENDROOT
BRANCH   1   2
ATOM      2  C   UNL     1      14.701  30.779  54.832  1.00  0.00     0.000 C 
BRANCH   2   3
ATOM      3  C   UNL     1      15.890  30.150  54.084  1.00  0.00     0.000 C 
BRANCH   3   4
ATOM      4  C   UNL     1      17.134  31.065  54.100  1.00  0.00    -0.000 C 
BRANCH   4   5
ATOM      5  C   UNL     1      17.986  30.925  55.374  1.00  0.00    -0.000 C 
BRANCH   5   6
ATOM      6  C   UNL     1      18.264  32.275  56.055  1.00  0.00    -0.000 C 
BRANCH   6   7
ATOM      7  C   UNL     1      17.538  32.431  57.404  1.00  0.00    -0.000 C 
BRANCH   7   8
ATOM      8  C   UNL     1      16.491  33.561  57.466  1.00  0.00    -0.000 C 
BRANCH   8   9
ATOM      9  C   UNL     1      16.203  34.189  56.092  1.00  0.00    -0.000 C 
BRANCH   9  10
ATOM     10  C   UNL     1      16.849  35.577  55.919  1.00  0.00    -0.000 C 
BRANCH  10  11
ATOM     11  C   UNL     1      16.087  36.738  56.582  1.00  0.00    -0.003 C 
ATOM     12  C   UNL     1      17.007  37.738  57.281  1.00  0.00     0.004 C 
ENDBRANCH  10  11
ENDBRANCH   9  10
ENDBRANCH   8   9
ENDBRANCH   7   8
ENDBRANCH   6   7
ENDBRANCH   5   6
ENDBRANCH   4   5
ENDBRANCH   3   4
ENDBRANCH   2   3
ENDBRANCH   1   2
BRANCH   1  13
ATOM     13  C   UNL     1      13.669  31.175  57.140  1.00  0.00     0.000 C 
BRANCH  13  14
ATOM     14  C   UNL     1      13.979  31.070  58.644  1.00  0.00     0.000 C 
BRANCH  14  15
ATOM     15  C   UNL     1      15.032  29.995  58.985  1.00  0.00     0.000 C 
BRANCH  15  16
ATOM     16  C   UNL     1      16.014  30.470  60.067  1.00  0.00     0.000 C 
BRANCH  16  17
ATOM     17  C   UNL     1      16.218  29.436  61.188  1.00  0.00     0.000 C 
BRANCH  17  18
ATOM     18  C   UNL     1      15.262  29.627  62.386  1.00  0.00     0.000 C 
BRANCH  18  19
ATOM     19  C   UNL     1      14.058  28.674  62.328  1.00  0.00     0.000 C 
BRANCH  19  20
ATOM     20  C   UNL     1      12.762  29.365  61.870  1.00  0.00     0.006 C 
BRANCH  20  21
ATOM     21  C   UNL     1      12.051  28.651  60.707  1.00  0.00     0.053 C 
BRANCH  21  22
ATOM     22  C   UNL     1      10.770  29.323  60.316  1.00  0.00     0.041 C 
ATOM     23  O   UNL     1      10.497  29.506  59.101  1.00  0.00    -0.550 OA
ATOM     24  O   UNL     1       9.862  29.717  61.290  1.00  0.00    -0.550 OA
ENDBRANCH  21  22
ENDBRANCH  20  21
ENDBRANCH  19  20
ENDBRANCH  18  19
ENDBRANCH  17  18
ENDBRANCH  16  17
ENDBRANCH  15  16
ENDBRANCH  14  15
ENDBRANCH  13  14
ENDBRANCH   1  13
TORSDOF 20
ENDMDL
MODEL 5
REMARK VINA RESULT:    -4.891      3.479      7.915
REMARK INTER + INTRA:         -13.346
REMARK INTER:                 -10.315
REMARK INTRA:                  -3.031
REMARK UNBOUND:                -2.737
REMARK SMILES CCCCCCCCCCCCCCCCCCCCCC(=O)[O-]
REMARK SMILES IDX 12 1 11 2 10 3 9 4 8 5 7 6 6 7 5 8 4 9 3 10 2 11 1 12 13 13
REMARK SMILES IDX 14 14 15 15 16 16 17 17 18 18 19 19 20 20 21 21 22 22 23 23
REMARK SMILES IDX 24 24
REMARK H PARENT
REMARK Flexibility Score: inf
ROOT
ATOM      1  C   UNL     1      15.798  30.518  60.211  1.00  0.00     0.000 C 
ENDROOT
BRANCH   1   2
ATOM      2  C   UNL     1      16.462  29.494  61.146  1.00  0.00     0.000 C 
BRANCH   2   3
ATOM      3  C   UNL     1      16.755  30.067  62.544  1.00  0.00     0.000 C 
BRANCH   3   4
ATOM      4  C   UNL     1      15.997  29.305  63.653  1.00  0.00    -0.000 C 
BRANCH   4   5
ATOM      5  C   UNL     1      15.508  27.912  63.220  1.00  0.00    -0.000 C 
BRANCH   5   6
ATOM      6  C   UNL     1      13.986  27.744  63.363  1.00  0.00    -0.000 C 
BRANCH   6   7
ATOM      7  C   UNL     1      13.214  28.131  62.088  1.00  0.00    -0.000 C 
BRANCH   7   8
ATOM      8  C   UNL     1      12.663  29.570  62.059  1.00  0.00    -0.000 C 
BRANCH   8   9
ATOM      9  C   UNL     1      11.173  29.635  61.682  1.00  0.00    -0.000 C 
BRANCH   9  10
ATOM     10  C   UNL     1      10.898  29.160  60.242  1.00  0.00    -0.000 C 
BRANCH  10  11
ATOM     11  C   UNL     1       9.528  29.567  59.671  1.00  0.00    -0.003 C 
ATOM     12  C   UNL     1       9.541  29.756  58.155  1.00  0.00     0.004 C 
ENDBRANCH  10  11
ENDBRANCH   9  10
ENDBRANCH   8   9
ENDBRANCH   7   8
ENDBRANCH   6   7
ENDBRANCH   5   6
ENDBRANCH   4   5
ENDBRANCH   3   4
ENDBRANCH   2   3
ENDBRANCH   1   2
BRANCH   1  13
ATOM     13  C   UNL     1      14.901  29.858  59.151  1.00  0.00     0.000 C 
BRANCH  13  14
ATOM     14  C   UNL     1      13.779  30.789  58.657  1.00  0.00     0.000 C 
BRANCH  14  15
ATOM     15  C   UNL     1      13.596  30.779  57.125  1.00  0.00     0.000 C 
BRANCH  15  16
ATOM     16  C   UNL     1      14.845  30.257  56.396  1.00  0.00     0.000 C 
BRANCH  16  17
ATOM     17  C   UNL     1      15.715  31.385  55.815  1.00  0.00     0.000 C 
BRANCH  17  18
ATOM     18  C   UNL     1      17.101  31.503  56.484  1.00  0.00     0.000 C 
BRANCH  18  19
ATOM     19  C   UNL     1      17.159  32.652  57.504  1.00  0.00     0.000 C 
BRANCH  19  20
ATOM     20  C   UNL     1      15.982  33.634  57.375  1.00  0.00     0.006 C 
BRANCH  20  21
ATOM     21  C   UNL     1      16.370  35.001  56.784  1.00  0.00     0.053 C 
BRANCH  21  22
ATOM     22  C   UNL     1      15.640  35.306  55.512  1.00  0.00     0.041 C 
ATOM     23  O   UNL     1      14.816  36.256  55.467  1.00  0.00    -0.550 OA
ATOM     24  O   UNL     1      15.893  34.564  54.366  1.00  0.00    -0.550 OA
ENDBRANCH  21  22
ENDBRANCH  20  21
ENDBRANCH  19  20
ENDBRANCH  18  19
ENDBRANCH  17  18
ENDBRANCH  16  17
ENDBRANCH  15  16
ENDBRANCH  14  15
ENDBRANCH  13  14
ENDBRANCH   1  13
TORSDOF 20
ENDMDL
MODEL 6
REMARK VINA RESULT:    -4.872      1.483      2.532
REMARK INTER + INTRA:         -13.306
REMARK INTER:                 -10.082
REMARK INTRA:                  -3.224
REMARK UNBOUND:                -2.737
REMARK SMILES CCCCCCCCCCCCCCCCCCCCCC(=O)[O-]
REMARK SMILES IDX 12 1 11 2 10 3 9 4 8 5 7 6 6 7 5 8 4 9 3 10 2 11 1 12 13 13
REMARK SMILES IDX 14 14 15 15 16 16 17 17 18 18 19 19 20 20 21 21 22 22 23 23
REMARK SMILES IDX 24 24
REMARK H PARENT
REMARK Flexibility Score: inf
ROOT
ATOM      1  C   UNL     1      13.614  30.932  58.257  1.00  0.00     0.000 C 
ENDROOT
BRANCH   1   2
ATOM      2  C   UNL     1      13.555  31.119  56.732  1.00  0.00     0.000 C 
BRANCH   2   3
ATOM      3  C   UNL     1      14.461  30.131  55.975  1.00  0.00     0.000 C 
BRANCH   3   4
ATOM      4  C   UNL     1      15.477  30.857  55.067  1.00  0.00    -0.000 C 
BRANCH   4   5
ATOM      5  C   UNL     1      16.932  30.744  55.555  1.00  0.00    -0.000 C 
BRANCH   5   6
ATOM      6  C   UNL     1      17.620  32.112  55.697  1.00  0.00    -0.000 C 
BRANCH   6   7
ATOM      7  C   UNL     1      17.659  32.619  57.151  1.00  0.00    -0.000 C 
BRANCH   7   8
ATOM      8  C   UNL     1      16.422  33.416  57.608  1.00  0.00    -0.000 C 
BRANCH   8   9
ATOM      9  C   UNL     1      16.095  34.601  56.683  1.00  0.00    -0.000 C 
BRANCH   9  10
ATOM     10  C   UNL     1      14.752  34.435  55.947  1.00  0.00    -0.000 C 
BRANCH  10  11
ATOM     11  C   UNL     1      14.701  35.046  54.535  1.00  0.00    -0.003 C 
ATOM     12  C   UNL     1      13.705  36.199  54.416  1.00  0.00     0.004 C 
ENDBRANCH  10  11
ENDBRANCH   9  10
ENDBRANCH   8   9
ENDBRANCH   7   8
ENDBRANCH   6   7
ENDBRANCH   5   6
ENDBRANCH   4   5
ENDBRANCH   3   4
ENDBRANCH   2   3
ENDBRANCH   1   2
BRANCH   1  13
ATOM     13  C   UNL     1      14.641  29.871  58.685  1.00  0.00     0.000 C 
BRANCH  13  14
ATOM     14  C   UNL     1      15.804  30.463  59.500  1.00  0.00     0.000 C 
BRANCH  14  15
ATOM     15  C   UNL     1      16.105  29.689  60.801  1.00  0.00     0.000 C 
BRANCH  15  16
ATOM     16  C   UNL     1      15.002  29.877  61.854  1.00  0.00     0.000 C 
BRANCH  16  17
ATOM     17  C   UNL     1      14.651  28.574  62.594  1.00  0.00     0.000 C 
BRANCH  17  18
ATOM     18  C   UNL     1      13.280  27.987  62.196  1.00  0.00     0.000 C 
BRANCH  18  19
ATOM     19  C   UNL     1      12.285  29.075  61.759  1.00  0.00     0.000 C 
BRANCH  19  20
ATOM     20  C   UNL     1      11.442  28.667  60.538  1.00  0.00     0.006 C 
BRANCH  20  21
ATOM     21  C   UNL     1      10.497  29.773  60.034  1.00  0.00     0.053 C 
BRANCH  21  22
ATOM     22  C   UNL     1       9.899  29.454  58.698  1.00  0.00     0.041 C 
ATOM     23  O   UNL     1       9.038  28.542  58.591  1.00  0.00    -0.550 OA
ATOM     24  O   UNL     1      10.266  30.185  57.576  1.00  0.00    -0.550 OA
ENDBRANCH  21  22
ENDBRANCH  20  21
ENDBRANCH  19  20
ENDBRANCH  18  19
ENDBRANCH  17  18
ENDBRANCH  16  17
ENDBRANCH  15  16
ENDBRANCH  14  15
ENDBRANCH  13  14
ENDBRANCH   1  13
TORSDOF 20
ENDMDL
MODEL 7
REMARK VINA RESULT:    -4.852      1.497      2.420
REMARK INTER + INTRA:         -13.262
REMARK INTER:                 -10.187
REMARK INTRA:                  -3.075
REMARK UNBOUND:                -2.737
REMARK SMILES CCCCCCCCCCCCCCCCCCCCCC(=O)[O-]
REMARK SMILES IDX 12 1 11 2 10 3 9 4 8 5 7 6 6 7 5 8 4 9 3 10 2 11 1 12 13 13
REMARK SMILES IDX 14 14 15 15 16 16 17 17 18 18 19 19 20 20 21 21 22 22 23 23
REMARK SMILES IDX 24 24
REMARK H PARENT
REMARK Flexibility Score: inf
ROOT
ATOM      1  C   UNL     1      14.531  30.796  59.421  1.00  0.00     0.000 C 
ENDROOT
BRANCH   1   2
ATOM      2  C   UNL     1      14.210  30.958  57.927  1.00  0.00     0.000 C 
BRANCH   2   3
ATOM      3  C   UNL     1      14.986  29.967  57.039  1.00  0.00     0.000 C 
BRANCH   3   4
ATOM      4  C   UNL     1      14.676  30.168  55.540  1.00  0.00    -0.000 C 
BRANCH   4   5
ATOM      5  C   UNL     1      13.545  31.176  55.274  1.00  0.00    -0.000 C 
BRANCH   5   6
ATOM      6  C   UNL     1      13.903  32.201  54.185  1.00  0.00    -0.000 C 
BRANCH   6   7
ATOM      7  C   UNL     1      13.629  33.655  54.611  1.00  0.00    -0.000 C 
BRANCH   7   8
ATOM      8  C   UNL     1      14.466  34.167  55.799  1.00  0.00    -0.000 C 
BRANCH   8   9
ATOM      9  C   UNL     1      15.914  34.514  55.408  1.00  0.00    -0.000 C 
BRANCH   9  10
ATOM     10  C   UNL     1      16.934  33.471  55.903  1.00  0.00    -0.000 C 
BRANCH  10  11
ATOM     11  C   UNL     1      16.931  33.226  57.423  1.00  0.00    -0.003 C 
ATOM     12  C   UNL     1      17.906  32.132  57.856  1.00  0.00     0.004 C 
ENDBRANCH  10  11
ENDBRANCH   9  10
ENDBRANCH   8   9
ENDBRANCH   7   8
ENDBRANCH   6   7
ENDBRANCH   5   6
ENDBRANCH   4   5
ENDBRANCH   3   4
ENDBRANCH   2   3
ENDBRANCH   1   2
BRANCH   1  13
ATOM     13  C   UNL     1      15.747  29.889  59.672  1.00  0.00     0.000 C 
BRANCH  13  14
ATOM     14  C   UNL     1      16.420  30.157  61.029  1.00  0.00     0.000 C 
BRANCH  14  15
ATOM     15  C   UNL     1      16.562  28.897  61.909  1.00  0.00     0.000 C 
BRANCH  15  16
ATOM     16  C   UNL     1      15.782  29.022  63.227  1.00  0.00     0.000 C 
BRANCH  16  17
ATOM     17  C   UNL     1      14.614  28.027  63.331  1.00  0.00     0.000 C 
BRANCH  17  18
ATOM     18  C   UNL     1      13.519  28.246  62.264  1.00  0.00     0.000 C 
BRANCH  18  19
ATOM     19  C   UNL     1      12.916  29.659  62.331  1.00  0.00     0.000 C 
BRANCH  19  20
ATOM     20  C   UNL     1      11.428  29.699  61.939  1.00  0.00     0.006 C 
BRANCH  20  21
ATOM     21  C   UNL     1      11.119  29.024  60.591  1.00  0.00     0.053 C 
BRANCH  21  22
ATOM     22  C   UNL     1      10.266  29.877  59.703  1.00  0.00     0.041 C 
ATOM     23  O   UNL     1       9.052  30.061  59.977  1.00  0.00    -0.550 OA
ATOM     24  O   UNL     1      10.819  30.496  58.589  1.00  0.00    -0.550 OA
ENDBRANCH  21  22
ENDBRANCH  20  21
ENDBRANCH  19  20
ENDBRANCH  18  19
ENDBRANCH  17  18
ENDBRANCH  16  17
ENDBRANCH  15  16
ENDBRANCH  14  15
ENDBRANCH  13  14
ENDBRANCH   1  13
TORSDOF 20
ENDMDL
MODEL 8
REMARK VINA RESULT:    -4.823      2.124      4.568
REMARK INTER + INTRA:         -13.199
REMARK INTER:                 -10.148
REMARK INTRA:                  -3.051
REMARK UNBOUND:                -2.737
REMARK SMILES CCCCCCCCCCCCCCCCCCCCCC(=O)[O-]
REMARK SMILES IDX 12 1 11 2 10 3 9 4 8 5 7 6 6 7 5 8 4 9 3 10 2 11 1 12 13 13
REMARK SMILES IDX 14 14 15 15 16 16 17 17 18 18 19 19 20 20 21 21 22 22 23 23
REMARK SMILES IDX 24 24
REMARK H PARENT
REMARK Flexibility Score: inf
ROOT
ATOM      1  C   UNL     1      16.748  30.798  55.167  1.00  0.00     0.000 C 
ENDROOT
BRANCH   1   2
ATOM      2  C   UNL     1      15.568  30.458  54.242  1.00  0.00     0.000 C 
BRANCH   2   3
ATOM      3  C   UNL     1      14.300  31.265  54.572  1.00  0.00     0.000 C 
BRANCH   3   4
ATOM      4  C   UNL     1      13.874  32.179  53.403  1.00  0.00    -0.000 C 
BRANCH   4   5
ATOM      5  C   UNL     1      14.421  33.613  53.509  1.00  0.00    -0.000 C 
BRANCH   5   6
ATOM      6  C   UNL     1      13.588  34.501  54.448  1.00  0.00    -0.000 C 
BRANCH   6   7
ATOM      7  C   UNL     1      14.392  35.671  55.043  1.00  0.00    -0.000 C 
BRANCH   7   8
ATOM      8  C   UNL     1      15.713  36.003  54.321  1.00  0.00    -0.000 C 
BRANCH   8   9
ATOM      9  C   UNL     1      16.818  36.479  55.279  1.00  0.00    -0.000 C 
BRANCH   9  10
ATOM     10  C   UNL     1      16.295  36.773  56.698  1.00  0.00    -0.000 C 
BRANCH  10  11
ATOM     11  C   UNL     1      17.061  37.868  57.462  1.00  0.00    -0.003 C 
ATOM     12  C   UNL     1      17.968  38.706  56.563  1.00  0.00     0.004 C 
ENDBRANCH  10  11
ENDBRANCH   9  10
ENDBRANCH   8   9
ENDBRANCH   7   8
ENDBRANCH   6   7
ENDBRANCH   5   6
ENDBRANCH   4   5
ENDBRANCH   3   4
ENDBRANCH   2   3
ENDBRANCH   1   2
BRANCH   1  13
ATOM     13  C   UNL     1      17.315  32.204  54.912  1.00  0.00     0.000 C 
BRANCH  13  14
ATOM     14  C   UNL     1      17.388  33.058  56.190  1.00  0.00     0.000 C 
BRANCH  14  15
ATOM     15  C   UNL     1      16.575  32.481  57.367  1.00  0.00     0.000 C 
BRANCH  15  16
ATOM     16  C   UNL     1      15.222  33.190  57.539  1.00  0.00     0.000 C 
BRANCH  16  17
ATOM     17  C   UNL     1      14.201  32.353  58.328  1.00  0.00     0.000 C 
BRANCH  17  18
ATOM     18  C   UNL     1      14.361  30.831  58.126  1.00  0.00     0.000 C 
BRANCH  18  19
ATOM     19  C   UNL     1      13.631  30.019  59.207  1.00  0.00     0.000 C 
BRANCH  19  20
ATOM     20  C   UNL     1      12.104  30.207  59.175  1.00  0.00     0.006 C 
BRANCH  20  21
ATOM     21  C   UNL     1      11.336  29.236  60.089  1.00  0.00     0.053 C 
BRANCH  21  22
ATOM     22  C   UNL     1      11.908  29.172  61.472  1.00  0.00     0.041 C 
ATOM     23  O   UNL     1      11.602  30.046  62.325  1.00  0.00    -0.550 OA
ATOM     24  O   UNL     1      12.753  28.130  61.832  1.00  0.00    -0.550 OA
ENDBRANCH  21  22
ENDBRANCH  20  21
ENDBRANCH  19  20
ENDBRANCH  18  19
ENDBRANCH  17  18
ENDBRANCH  16  17
ENDBRANCH  15  16
ENDBRANCH  14  15
ENDBRANCH  13  14
ENDBRANCH   1  13
TORSDOF 20
ENDMDL
MODEL 9
REMARK VINA RESULT:    -4.815      2.905      4.693
REMARK INTER + INTRA:         -13.181
REMARK INTER:                  -9.748
REMARK INTRA:                  -3.433
REMARK UNBOUND:                -2.737
REMARK SMILES CCCCCCCCCCCCCCCCCCCCCC(=O)[O-]
REMARK SMILES IDX 12 1 11 2 10 3 9 4 8 5 7 6 6 7 5 8 4 9 3 10 2 11 1 12 13 13
REMARK SMILES IDX 14 14 15 15 16 16 17 17 18 18 19 19 20 20 21 21 22 22 23 23
REMARK SMILES IDX 24 24
REMARK H PARENT
REMARK Flexibility Score: inf
ROOT
ATOM      1  C   UNL     1      16.491  33.215  57.742  1.00  0.00     0.000 C 
ENDROOT
BRANCH   1   2
ATOM      2  C   UNL     1      17.524  32.482  56.870  1.00  0.00     0.000 C 
BRANCH   2   3
ATOM      3  C   UNL     1      17.562  33.007  55.423  1.00  0.00     0.000 C 
BRANCH   3   4
ATOM      4  C   UNL     1      17.204  31.907  54.400  1.00  0.00    -0.000 C 
BRANCH   4   5
ATOM      5  C   UNL     1      16.812  30.567  55.046  1.00  0.00    -0.000 C 
BRANCH   5   6
ATOM      6  C   UNL     1      15.339  30.198  54.806  1.00  0.00    -0.000 C 
BRANCH   6   7
ATOM      7  C   UNL     1      14.589  31.235  53.950  1.00  0.00    -0.000 C 
BRANCH   7   8
ATOM      8  C   UNL     1      13.511  32.050  54.691  1.00  0.00    -0.000 C 
BRANCH   8   9
ATOM      9  C   UNL     1      13.446  33.517  54.231  1.00  0.00    -0.000 C 
BRANCH   9  10
ATOM     10  C   UNL     1      14.145  34.482  55.207  1.00  0.00    -0.000 C 
BRANCH  10  11
ATOM     11  C   UNL     1      14.246  35.940  54.723  1.00  0.00    -0.003 C 
ATOM     12  C   UNL     1      12.967  36.441  54.055  1.00  0.00     0.004 C 
ENDBRANCH  10  11
ENDBRANCH   9  10
ENDBRANCH   8   9
ENDBRANCH   7   8
ENDBRANCH   6   7
ENDBRANCH   5   6
ENDBRANCH   4   5
ENDBRANCH   3   4
ENDBRANCH   2   3
ENDBRANCH   1   2
BRANCH   1  13
ATOM     13  C   UNL     1      15.251  32.357  58.039  1.00  0.00     0.000 C 
BRANCH  13  14
ATOM     14  C   UNL     1      15.607  30.928  58.485  1.00  0.00     0.000 C 
BRANCH  14  15
ATOM     15  C   UNL     1      14.456  29.917  58.304  1.00  0.00     0.000 C 
BRANCH  15  16
ATOM     16  C   UNL     1      13.102  30.613  58.094  1.00  0.00     0.000 C 
BRANCH  16  17
ATOM     17  C   UNL     1      12.071  30.261  59.181  1.00  0.00     0.000 C 
BRANCH  17  18
ATOM     18  C   UNL     1      12.568  29.196  60.182  1.00  0.00     0.000 C 
BRANCH  18  19
ATOM     19  C   UNL     1      12.339  29.618  61.643  1.00  0.00     0.000 C 
BRANCH  19  20
ATOM     20  C   UNL     1      13.616  30.133  62.330  1.00  0.00     0.006 C 
BRANCH  20  21
ATOM     21  C   UNL     1      14.906  29.445  61.847  1.00  0.00     0.053 C 
BRANCH  21  22
ATOM     22  C   UNL     1      16.063  29.680  62.769  1.00  0.00     0.041 C 
ATOM     23  O   UNL     1      15.977  29.370  63.986  1.00  0.00    -0.550 OA
ATOM     24  O   UNL     1      17.250  30.210  62.279  1.00  0.00    -0.550 OA
ENDBRANCH  21  22
ENDBRANCH  20  21
ENDBRANCH  19  20
ENDBRANCH  18  19
ENDBRANCH  17  18
ENDBRANCH  16  17
ENDBRANCH  15  16
ENDBRANCH  14  15
ENDBRANCH  13  14
ENDBRANCH   1  13
TORSDOF 20
ENDMDL
