MODEL 1
REMARK VINA RESULT:    27.818      0.000      0.000
REMARK INTER + INTRA:          33.259
REMARK INTER:                  33.509
REMARK INTRA:                  -0.250
REMARK UNBOUND:                -0.250
REMARK SMILES O=c1c(O)c(-c2ccc(O)c(O)c2)oc2cc(O)cc(O)c12
REMARK SMILES IDX 5 1 3 2 2 3 1 4 22 5 20 6 19 7 17 8 16 9 15 10 14 11 6 12
REMARK SMILES IDX 7 13 8 14 9 15 13 16 11 17 10 18 12 20 4 22 21 24 18 26
REMARK H PARENT 10 19 12 21 4 23 21 25 18 27
REMARK Flexibility Score: inf
ROOT
ATOM      1  C   UNL     1      -2.148  -0.478   2.672  1.00  0.00     0.180 A 
ATOM      2  C   UNL     1      -3.053   0.249   3.465  1.00  0.00     0.208 A 
ATOM      3  C   UNL     1      -4.429   0.124   3.217  1.00  0.00     0.238 A 
ATOM      4  O   UNL     1      -5.231   0.819   3.893  1.00  0.00    -0.285 OA
ATOM      5  C   UNL     1      -4.884  -0.739   2.191  1.00  0.00     0.111 A 
ATOM      6  C   UNL     1      -6.257  -0.973   1.879  1.00  0.00     0.134 A 
ATOM      7  C   UNL     1      -6.589  -1.746   0.759  1.00  0.00     0.093 A 
ATOM      8  C   UNL     1      -5.598  -2.346  -0.021  1.00  0.00     0.123 A 
ATOM      9  C   UNL     1      -4.257  -2.171   0.310  1.00  0.00     0.094 A 
ATOM     10  C   UNL     1      -3.893  -1.376   1.400  1.00  0.00     0.146 A 
ATOM     11  O   UNL     1      -2.603  -1.228   1.675  1.00  0.00    -0.452 OA
ENDROOT
BRANCH   1  12
ATOM     12  C   UNL     1      -0.685  -0.417   2.889  1.00  0.00     0.025 A 
ATOM     13  C   UNL     1       0.132   0.194   1.925  1.00  0.00     0.016 A 
ATOM     14  C   UNL     1       1.518   0.243   2.100  1.00  0.00     0.051 A 
ATOM     15  C   UNL     1       2.109  -0.328   3.229  1.00  0.00     0.157 A 
ATOM     16  C   UNL     1      -0.086  -1.010   4.015  1.00  0.00     0.062 A 
ATOM     17  C   UNL     1       1.305  -0.962   4.191  1.00  0.00     0.158 A 
BRANCH  15  18
ATOM     18  O   UNL     1       3.494  -0.261   3.378  1.00  0.00    -0.504 OA
ATOM     19  H   UNL     1       3.930  -0.041   4.264  1.00  0.00     0.293 HD
ENDBRANCH  15  18
BRANCH  17  20
ATOM     20  O   UNL     1       1.889  -1.547   5.314  1.00  0.00    -0.504 OA
ATOM     21  H   UNL     1       2.805  -1.266   5.643  1.00  0.00     0.293 HD
ENDBRANCH  17  20
ENDBRANCH   1  12
BRANCH   2  22
ATOM     22  O   UNL     1      -2.581   1.112   4.458  1.00  0.00    -0.502 OA
ATOM     23  H   UNL     1      -3.195   1.553   5.131  1.00  0.00     0.293 HD
ENDBRANCH   2  22
BRANCH   6  24
ATOM     24  O   UNL     1      -7.324  -0.497   2.647  1.00  0.00    -0.507 OA
ATOM     25  H   UNL     1      -7.232  -0.062   3.553  1.00  0.00     0.293 HD
ENDBRANCH   6  24
BRANCH   8  26
ATOM     26  O   UNL     1      -5.937  -3.125  -1.125  1.00  0.00    -0.508 OA
ATOM     27  H   UNL     1      -6.100  -2.713  -2.036  1.00  0.00     0.293 HD
ENDBRANCH   8  26
TORSDOF 6
ENDMDL
