MODEL 1
REMARK VINA RESULT:     0.508      0.000      0.000
REMARK INTER + INTRA:           1.020
REMARK INTER:                   0.626
REMARK INTRA:                   0.394
REMARK UNBOUND:                 0.394
REMARK SMILES Oc1cc(O)c2cc(O)c(-c3cc(O)c(O)c(O)c3)[o+]c2c1
REMARK SMILES IDX 10 1 20 2 21 3 22 4 2 5 3 6 4 7 6 8 7 9 8 10 11 11 12 12
REMARK SMILES IDX 13 13 19 14 15 15 17 16 14 17 16 19 18 21 9 23 1 25 5 27
REMARK H PARENT 14 18 16 20 18 22 9 24 1 26 5 28
REMARK Flexibility Score: inf
ROOT
ATOM      1  C   UNL     1      15.477  27.979  40.405  1.00  0.00     0.402 A 
ATOM      2  O   UNL     1      14.243  28.068  39.916  1.00  0.00    -0.202 OA
ATOM      3  C   UNL     1      13.973  28.075  38.614  1.00  0.00     0.368 A 
ATOM      4  C   UNL     1      12.643  28.168  38.196  1.00  0.00     0.162 A 
ATOM      5  C   UNL     1      12.330  28.174  36.836  1.00  0.00     0.128 A 
ATOM      6  C   UNL     1      13.353  28.086  35.886  1.00  0.00     0.093 A 
ATOM      7  C   UNL     1      14.694  27.991  36.279  1.00  0.00     0.136 A 
ATOM      8  C   UNL     1      15.016  27.988  37.661  1.00  0.00     0.125 A 
ATOM      9  C   UNL     1      16.331  27.909  38.146  1.00  0.00     0.078 A 
ATOM     10  C   UNL     1      16.572  27.915  39.524  1.00  0.00     0.223 A 
ENDROOT
BRANCH   1  11
ATOM     11  C   UNL     1      15.647  27.972  41.877  1.00  0.00     0.091 A 
ATOM     12  C   UNL     1      16.923  27.949  42.465  1.00  0.00     0.068 A 
ATOM     13  C   UNL     1      17.065  27.919  43.859  1.00  0.00     0.162 A 
ATOM     14  C   UNL     1      14.514  27.929  42.702  1.00  0.00     0.068 A 
ATOM     15  C   UNL     1      15.924  27.901  44.679  1.00  0.00     0.200 A 
ATOM     16  C   UNL     1      14.646  27.902  44.094  1.00  0.00     0.162 A 
BRANCH  13  17
ATOM     17  O   UNL     1      18.336  27.903  44.432  1.00  0.00    -0.504 OA
ATOM     18  H   UNL     1      19.175  27.913  43.864  1.00  0.00     0.293 HD
ENDBRANCH  13  17
BRANCH  15  19
ATOM     19  O   UNL     1      16.046  27.875  46.069  1.00  0.00    -0.502 OA
ATOM     20  H   UNL     1      16.915  28.097  46.539  1.00  0.00     0.293 HD
ENDBRANCH  15  19
BRANCH  16  21
ATOM     21  O   UNL     1      13.494  27.875  44.881  1.00  0.00    -0.504 OA
ATOM     22  H   UNL     1      13.221  27.056  45.408  1.00  0.00     0.293 HD
ENDBRANCH  16  21
ENDBRANCH   1  11
BRANCH  10  23
ATOM     23  O   UNL     1      17.881  27.888  40.006  1.00  0.00    -0.500 OA
ATOM     24  H   UNL     1      18.612  27.372  39.531  1.00  0.00     0.294 HD
ENDBRANCH  10  23
BRANCH   5  25
ATOM     25  O   UNL     1      10.998  28.268  36.440  1.00  0.00    -0.507 OA
ATOM     26  H   UNL     1      10.657  27.792  35.613  1.00  0.00     0.293 HD
ENDBRANCH   5  25
BRANCH   7  27
ATOM     27  O   UNL     1      15.655  27.903  35.269  1.00  0.00    -0.507 OA
ATOM     28  H   UNL     1      15.458  27.639  34.315  1.00  0.00     0.293 HD
ENDBRANCH   7  27
TORSDOF 7
ENDMDL
MODEL 2
REMARK VINA RESULT:     0.609      0.284      1.817
REMARK INTER + INTRA:           1.145
REMARK INTER:                   0.685
REMARK INTRA:                   0.461
REMARK UNBOUND:                 0.394
REMARK SMILES Oc1cc(O)c2cc(O)c(-c3cc(O)c(O)c(O)c3)[o+]c2c1
REMARK SMILES IDX 10 1 20 2 21 3 22 4 2 5 3 6 4 7 6 8 7 9 8 10 11 11 12 12
REMARK SMILES IDX 13 13 19 14 15 15 17 16 14 17 16 19 18 21 9 23 1 25 5 27
REMARK H PARENT 14 18 16 20 18 22 9 24 1 26 5 28
REMARK Flexibility Score: inf
ROOT
ATOM      1  C   UNL     1      15.566  27.907  40.254  1.00  0.00     0.402 A 
ATOM      2  O   UNL     1      14.352  27.893  39.710  1.00  0.00    -0.202 OA
ATOM      3  C   UNL     1      14.141  27.907  38.398  1.00  0.00     0.368 A 
ATOM      4  C   UNL     1      12.827  27.885  37.921  1.00  0.00     0.162 A 
ATOM      5  C   UNL     1      12.576  27.896  36.549  1.00  0.00     0.128 A 
ATOM      6  C   UNL     1      13.643  27.926  35.645  1.00  0.00     0.093 A 
ATOM      7  C   UNL     1      14.968  27.948  36.098  1.00  0.00     0.136 A 
ATOM      8  C   UNL     1      15.228  27.940  37.492  1.00  0.00     0.125 A 
ATOM      9  C   UNL     1      16.522  27.972  38.037  1.00  0.00     0.078 A 
ATOM     10  C   UNL     1      16.700  27.967  39.423  1.00  0.00     0.223 A 
ENDROOT
BRANCH   1  11
ATOM     11  C   UNL     1      15.672  27.880  41.732  1.00  0.00     0.091 A 
ATOM     12  C   UNL     1      14.527  27.886  42.547  1.00  0.00     0.068 A 
ATOM     13  C   UNL     1      14.646  27.883  43.943  1.00  0.00     0.162 A 
ATOM     14  C   UNL     1      16.939  27.905  42.334  1.00  0.00     0.068 A 
ATOM     15  C   UNL     1      15.920  27.884  44.538  1.00  0.00     0.200 A 
ATOM     16  C   UNL     1      17.067  27.899  43.727  1.00  0.00     0.162 A 
BRANCH  13  17
ATOM     17  O   UNL     1      13.503  27.884  44.742  1.00  0.00    -0.504 OA
ATOM     18  H   UNL     1      13.541  28.126  45.725  1.00  0.00     0.293 HD
ENDBRANCH  13  17
BRANCH  15  19
ATOM     19  O   UNL     1      16.057  27.877  45.927  1.00  0.00    -0.502 OA
ATOM     20  H   UNL     1      16.948  27.721  46.380  1.00  0.00     0.293 HD
ENDBRANCH  15  19
BRANCH  16  21
ATOM     21  O   UNL     1      18.345  27.909  44.287  1.00  0.00    -0.504 OA
ATOM     22  H   UNL     1      19.123  28.383  43.845  1.00  0.00     0.293 HD
ENDBRANCH  16  21
ENDBRANCH   1  11
BRANCH  10  23
ATOM     23  O   UNL     1      17.984  28.050  39.965  1.00  0.00    -0.500 OA
ATOM     24  H   UNL     1      18.782  28.319  39.403  1.00  0.00     0.294 HD
ENDBRANCH  10  23
BRANCH   5  25
ATOM     25  O   UNL     1      11.259  27.875  36.093  1.00  0.00    -0.507 OA
ATOM     26  H   UNL     1      10.491  28.186  36.677  1.00  0.00     0.293 HD
ENDBRANCH   5  25
BRANCH   7  27
ATOM     27  O   UNL     1      15.978  27.974  35.132  1.00  0.00    -0.507 OA
ATOM     28  H   UNL     1      16.931  28.257  35.310  1.00  0.00     0.293 HD
ENDBRANCH   7  27
TORSDOF 7
ENDMDL
MODEL 3
REMARK VINA RESULT:     1.331      1.007      7.061
REMARK INTER + INTRA:           2.036
REMARK INTER:                   1.575
REMARK INTRA:                   0.461
REMARK UNBOUND:                 0.394
REMARK SMILES Oc1cc(O)c2cc(O)c(-c3cc(O)c(O)c(O)c3)[o+]c2c1
REMARK SMILES IDX 10 1 20 2 21 3 22 4 2 5 3 6 4 7 6 8 7 9 8 10 11 11 12 12
REMARK SMILES IDX 13 13 19 14 15 15 17 16 14 17 16 19 18 21 9 23 1 25 5 27
REMARK H PARENT 14 18 16 20 18 22 9 24 1 26 5 28
REMARK Flexibility Score: inf
ROOT
ATOM      1  C   UNL     1      15.922  27.950  39.969  1.00  0.00     0.402 A 
ATOM      2  O   UNL     1      14.992  27.930  40.921  1.00  0.00    -0.202 OA
ATOM      3  C   UNL     1      15.277  27.919  42.219  1.00  0.00     0.368 A 
ATOM      4  C   UNL     1      14.231  27.902  43.145  1.00  0.00     0.162 A 
ATOM      5  C   UNL     1      14.500  27.894  44.514  1.00  0.00     0.128 A 
ATOM      6  C   UNL     1      15.826  27.905  44.963  1.00  0.00     0.093 A 
ATOM      7  C   UNL     1      16.892  27.923  44.055  1.00  0.00     0.136 A 
ATOM      8  C   UNL     1      16.622  27.928  42.663  1.00  0.00     0.125 A 
ATOM      9  C   UNL     1      17.626  27.934  41.681  1.00  0.00     0.078 A 
ATOM     10  C   UNL     1      17.282  27.934  40.326  1.00  0.00     0.223 A 
ENDROOT
BRANCH   1  11
ATOM     11  C   UNL     1      15.477  27.970  38.556  1.00  0.00     0.091 A 
ATOM     12  C   UNL     1      14.113  27.935  38.219  1.00  0.00     0.068 A 
ATOM     13  C   UNL     1      13.711  27.931  36.876  1.00  0.00     0.162 A 
ATOM     14  C   UNL     1      16.434  27.966  37.531  1.00  0.00     0.068 A 
ATOM     15  C   UNL     1      14.677  27.951  35.855  1.00  0.00     0.200 A 
ATOM     16  C   UNL     1      16.043  27.965  36.189  1.00  0.00     0.162 A 
BRANCH  13  17
ATOM     17  O   UNL     1      12.356  27.902  36.553  1.00  0.00    -0.504 OA
ATOM     18  H   UNL     1      12.004  27.346  35.782  1.00  0.00     0.293 HD
ENDBRANCH  13  17
BRANCH  15  19
ATOM     19  O   UNL     1      14.295  27.952  34.513  1.00  0.00    -0.502 OA
ATOM     20  H   UNL     1      14.901  27.606  33.779  1.00  0.00     0.293 HD
ENDBRANCH  15  19
BRANCH  16  21
ATOM     21  O   UNL     1      17.026  27.976  35.199  1.00  0.00    -0.504 OA
ATOM     22  H   UNL     1      17.604  28.788  35.024  1.00  0.00     0.293 HD
ENDBRANCH  16  21
ENDBRANCH   1  11
BRANCH  10  23
ATOM     23  O   UNL     1      18.280  27.888  39.351  1.00  0.00    -0.500 OA
ATOM     24  H   UNL     1      18.832  27.054  39.193  1.00  0.00     0.294 HD
ENDBRANCH  10  23
BRANCH   5  25
ATOM     25  O   UNL     1      13.443  27.875  45.421  1.00  0.00    -0.507 OA
ATOM     26  H   UNL     1      12.592  27.358  45.233  1.00  0.00     0.293 HD
ENDBRANCH   5  25
BRANCH   7  27
ATOM     27  O   UNL     1      18.185  27.937  44.583  1.00  0.00    -0.507 OA
ATOM     28  H   UNL     1      18.479  28.511  45.361  1.00  0.00     0.293 HD
ENDBRANCH   7  27
TORSDOF 7
ENDMDL
MODEL 4
REMARK VINA RESULT:     1.378      1.034      6.833
REMARK INTER + INTRA:           2.094
REMARK INTER:                   1.710
REMARK INTRA:                   0.384
REMARK UNBOUND:                 0.394
REMARK SMILES Oc1cc(O)c2cc(O)c(-c3cc(O)c(O)c(O)c3)[o+]c2c1
REMARK SMILES IDX 10 1 20 2 21 3 22 4 2 5 3 6 4 7 6 8 7 9 8 10 11 11 12 12
REMARK SMILES IDX 13 13 19 14 15 15 17 16 14 17 16 19 18 21 9 23 1 25 5 27
REMARK H PARENT 14 18 16 20 18 22 9 24 1 26 5 28
REMARK Flexibility Score: inf
ROOT
ATOM      1  C   UNL     1      16.021  27.907  39.964  1.00  0.00     0.402 A 
ATOM      2  O   UNL     1      15.082  27.886  40.906  1.00  0.00    -0.202 OA
ATOM      3  C   UNL     1      15.353  27.902  42.207  1.00  0.00     0.368 A 
ATOM      4  C   UNL     1      14.297  27.881  43.122  1.00  0.00     0.162 A 
ATOM      5  C   UNL     1      14.552  27.900  44.494  1.00  0.00     0.128 A 
ATOM      6  C   UNL     1      15.872  27.941  44.956  1.00  0.00     0.093 A 
ATOM      7  C   UNL     1      16.948  27.963  44.059  1.00  0.00     0.136 A 
ATOM      8  C   UNL     1      16.693  27.941  42.664  1.00  0.00     0.125 A 
ATOM      9  C   UNL     1      17.707  27.948  41.693  1.00  0.00     0.078 A 
ATOM     10  C   UNL     1      17.378  27.920  40.335  1.00  0.00     0.223 A 
ENDROOT
BRANCH   1  11
ATOM     11  C   UNL     1      15.591  27.896  38.546  1.00  0.00     0.091 A 
ATOM     12  C   UNL     1      16.525  27.946  37.498  1.00  0.00     0.068 A 
ATOM     13  C   UNL     1      16.099  27.957  36.163  1.00  0.00     0.162 A 
ATOM     14  C   UNL     1      14.222  27.893  38.241  1.00  0.00     0.068 A 
ATOM     15  C   UNL     1      14.725  27.930  35.865  1.00  0.00     0.200 A 
ATOM     16  C   UNL     1      13.787  27.902  36.912  1.00  0.00     0.162 A 
BRANCH  13  17
ATOM     17  O   UNL     1      17.035  28.001  35.131  1.00  0.00    -0.504 OA
ATOM     18  H   UNL     1      18.001  27.730  35.278  1.00  0.00     0.293 HD
ENDBRANCH  13  17
BRANCH  15  19
ATOM     19  O   UNL     1      14.283  27.937  34.542  1.00  0.00    -0.502 OA
ATOM     20  H   UNL     1      13.320  27.748  34.294  1.00  0.00     0.293 HD
ENDBRANCH  15  19
BRANCH  16  21
ATOM     21  O   UNL     1      12.417  27.883  36.649  1.00  0.00    -0.504 OA
ATOM     22  H   UNL     1      11.771  27.330  37.199  1.00  0.00     0.293 HD
ENDBRANCH  16  21
ENDBRANCH   1  11
BRANCH  10  23
ATOM     23  O   UNL     1      18.386  27.876  39.371  1.00  0.00    -0.500 OA
ATOM     24  H   UNL     1      18.451  28.572  38.637  1.00  0.00     0.294 HD
ENDBRANCH  10  23
BRANCH   5  25
ATOM     25  O   UNL     1      13.486  27.878  45.390  1.00  0.00    -0.507 OA
ATOM     26  H   UNL     1      12.665  27.307  45.223  1.00  0.00     0.293 HD
ENDBRANCH   5  25
BRANCH   7  27
ATOM     27  O   UNL     1      18.235  28.008  44.601  1.00  0.00    -0.507 OA
ATOM     28  H   UNL     1      18.913  27.263  44.525  1.00  0.00     0.293 HD
ENDBRANCH   7  27
TORSDOF 7
ENDMDL
MODEL 5
REMARK VINA RESULT:     1.998      1.524      7.273
REMARK INTER + INTRA:           2.859
REMARK INTER:                   2.398
REMARK INTRA:                   0.461
REMARK UNBOUND:                 0.394
REMARK SMILES Oc1cc(O)c2cc(O)c(-c3cc(O)c(O)c(O)c3)[o+]c2c1
REMARK SMILES IDX 10 1 20 2 21 3 22 4 2 5 3 6 4 7 6 8 7 9 8 10 11 11 12 12
REMARK SMILES IDX 13 13 19 14 15 15 17 16 14 17 16 19 18 21 9 23 1 25 5 27
REMARK H PARENT 14 18 16 20 18 22 9 24 1 26 5 28
REMARK Flexibility Score: inf
ROOT
ATOM      1  C   UNL     1      15.846  27.915  39.858  1.00  0.00     0.402 A 
ATOM      2  O   UNL     1      16.849  27.915  40.732  1.00  0.00    -0.202 OA
ATOM      3  C   UNL     1      16.668  27.908  42.049  1.00  0.00     0.368 A 
ATOM      4  C   UNL     1      17.785  27.904  42.889  1.00  0.00     0.162 A 
ATOM      5  C   UNL     1      17.626  27.893  44.274  1.00  0.00     0.128 A 
ATOM      6  C   UNL     1      16.340  27.885  44.828  1.00  0.00     0.093 A 
ATOM      7  C   UNL     1      15.205  27.888  44.008  1.00  0.00     0.136 A 
ATOM      8  C   UNL     1      15.363  27.902  42.598  1.00  0.00     0.125 A 
ATOM      9  C   UNL     1      14.283  27.918  41.700  1.00  0.00     0.078 A 
ATOM     10  C   UNL     1      14.518  27.936  40.322  1.00  0.00     0.223 A 
ENDROOT
BRANCH   1  11
ATOM     11  C   UNL     1      16.176  27.914  38.414  1.00  0.00     0.091 A 
ATOM     12  C   UNL     1      17.508  27.981  37.968  1.00  0.00     0.068 A 
ATOM     13  C   UNL     1      17.800  28.002  36.597  1.00  0.00     0.162 A 
ATOM     14  C   UNL     1      15.140  27.903  37.468  1.00  0.00     0.068 A 
ATOM     15  C   UNL     1      16.756  27.967  35.657  1.00  0.00     0.200 A 
ATOM     16  C   UNL     1      15.423  27.922  36.099  1.00  0.00     0.162 A 
BRANCH  13  17
ATOM     17  O   UNL     1      19.125  28.062  36.168  1.00  0.00    -0.504 OA
ATOM     18  H   UNL     1      19.540  28.928  35.845  1.00  0.00     0.293 HD
ENDBRANCH  13  17
BRANCH  15  19
ATOM     19  O   UNL     1      17.030  27.983  34.289  1.00  0.00    -0.502 OA
ATOM     20  H   UNL     1      17.296  27.148  33.782  1.00  0.00     0.293 HD
ENDBRANCH  15  19
BRANCH  16  21
ATOM     21  O   UNL     1      14.364  27.894  35.190  1.00  0.00    -0.504 OA
ATOM     22  H   UNL     1      14.098  28.707  34.649  1.00  0.00     0.293 HD
ENDBRANCH  16  21
ENDBRANCH   1  11
BRANCH  10  23
ATOM     23  O   UNL     1      13.447  28.003  39.430  1.00  0.00    -0.500 OA
ATOM     24  H   UNL     1      13.580  28.250  38.457  1.00  0.00     0.294 HD
ENDBRANCH  10  23
BRANCH   5  25
ATOM     25  O   UNL     1      18.752  27.891  45.094  1.00  0.00    -0.507 OA
ATOM     26  H   UNL     1      18.934  28.644  45.748  1.00  0.00     0.293 HD
ENDBRANCH   5  25
BRANCH   7  27
ATOM     27  O   UNL     1      13.958  27.875  44.637  1.00  0.00    -0.507 OA
ATOM     28  H   UNL     1      13.132  28.334  44.279  1.00  0.00     0.293 HD
ENDBRANCH   7  27
TORSDOF 7
ENDMDL
MODEL 6
REMARK VINA RESULT:     2.067      1.540      7.460
REMARK INTER + INTRA:           2.945
REMARK INTER:                   2.569
REMARK INTRA:                   0.376
REMARK UNBOUND:                 0.394
REMARK SMILES Oc1cc(O)c2cc(O)c(-c3cc(O)c(O)c(O)c3)[o+]c2c1
REMARK SMILES IDX 10 1 20 2 21 3 22 4 2 5 3 6 4 7 6 8 7 9 8 10 11 11 12 12
REMARK SMILES IDX 13 13 19 14 15 15 17 16 14 17 16 19 18 21 9 23 1 25 5 27
REMARK H PARENT 14 18 16 20 18 22 9 24 1 26 5 28
REMARK Flexibility Score: inf
ROOT
ATOM      1  C   UNL     1      15.711  28.147  39.730  1.00  0.00     0.402 A 
ATOM      2  O   UNL     1      16.708  28.192  40.610  1.00  0.00    -0.202 OA
ATOM      3  C   UNL     1      16.524  28.143  41.925  1.00  0.00     0.368 A 
ATOM      4  C   UNL     1      17.636  28.193  42.770  1.00  0.00     0.162 A 
ATOM      5  C   UNL     1      17.472  28.140  44.155  1.00  0.00     0.128 A 
ATOM      6  C   UNL     1      16.188  28.036  44.701  1.00  0.00     0.093 A 
ATOM      7  C   UNL     1      15.058  27.984  43.876  1.00  0.00     0.136 A 
ATOM      8  C   UNL     1      15.220  28.040  42.468  1.00  0.00     0.125 A 
ATOM      9  C   UNL     1      14.145  28.006  41.565  1.00  0.00     0.078 A 
ATOM     10  C   UNL     1      14.383  28.071  40.189  1.00  0.00     0.223 A 
ENDROOT
BRANCH   1  11
ATOM     11  C   UNL     1      16.046  28.199  38.289  1.00  0.00     0.091 A 
ATOM     12  C   UNL     1      15.062  28.020  37.301  1.00  0.00     0.068 A 
ATOM     13  C   UNL     1      15.402  28.050  35.942  1.00  0.00     0.162 A 
ATOM     14  C   UNL     1      17.382  28.376  37.897  1.00  0.00     0.068 A 
ATOM     15  C   UNL     1      16.739  28.251  35.558  1.00  0.00     0.200 A 
ATOM     16  C   UNL     1      17.730  28.410  36.543  1.00  0.00     0.162 A 
BRANCH  13  17
ATOM     17  O   UNL     1      14.416  27.876  34.972  1.00  0.00    -0.504 OA
ATOM     18  H   UNL     1      14.251  26.976  34.537  1.00  0.00     0.293 HD
ENDBRANCH  13  17
BRANCH  15  19
ATOM     19  O   UNL     1      17.095  28.288  34.209  1.00  0.00    -0.502 OA
ATOM     20  H   UNL     1      16.479  28.665  33.499  1.00  0.00     0.293 HD
ENDBRANCH  15  19
BRANCH  16  21
ATOM     21  O   UNL     1      19.067  28.603  36.194  1.00  0.00    -0.504 OA
ATOM     22  H   UNL     1      19.593  29.410  36.504  1.00  0.00     0.293 HD
ENDBRANCH  16  21
ENDBRANCH   1  11
BRANCH  10  23
ATOM     23  O   UNL     1      13.312  28.088  39.293  1.00  0.00    -0.500 OA
ATOM     24  H   UNL     1      13.337  27.566  38.425  1.00  0.00     0.294 HD
ENDBRANCH  10  23
BRANCH   5  25
ATOM     25  O   UNL     1      18.593  28.192  44.980  1.00  0.00    -0.507 OA
ATOM     26  H   UNL     1      18.507  28.219  45.990  1.00  0.00     0.293 HD
ENDBRANCH   5  25
BRANCH   7  27
ATOM     27  O   UNL     1      13.812  27.876  44.498  1.00  0.00    -0.507 OA
ATOM     28  H   UNL     1      13.183  28.651  44.655  1.00  0.00     0.293 HD
ENDBRANCH   7  27
TORSDOF 7
ENDMDL
