MODEL 1
REMARK VINA RESULT:     7.284      0.000      0.000
REMARK INTER + INTRA:           7.872
REMARK INTER:                   7.923
REMARK INTRA:                  -0.051
REMARK UNBOUND:                -0.051
REMARK SMILES COc1cc2ccc(=O)oc2cc1O
REMARK SMILES IDX 3 1 13 2 12 3 11 4 5 5 4 6 6 7 7 8 8 9 9 10 10 11 2 12 1 13
REMARK SMILES IDX 14 14
REMARK H PARENT 14 15
REMARK Flexibility Score: inf
ROOT
ATOM      1  C   UNL     1      -8.326  -5.567  20.711  1.00  0.00     0.161 A 
ATOM      2  C   UNL     1      -8.847  -6.755  20.161  1.00  0.00     0.161 A 
ATOM      3  C   UNL     1      -9.105  -7.857  20.983  1.00  0.00     0.098 A 
ATOM      4  C   UNL     1      -8.847  -7.794  22.355  1.00  0.00     0.142 A 
ATOM      5  C   UNL     1      -8.325  -6.609  22.914  1.00  0.00     0.022 A 
ATOM      6  C   UNL     1      -8.066  -5.503  22.095  1.00  0.00     0.062 A 
ATOM      7  C   UNL     1      -8.078  -6.575  24.291  1.00  0.00     0.019 A 
ATOM      8  C   UNL     1      -8.353  -7.702  25.064  1.00  0.00     0.094 A 
ATOM      9  C   UNL     1      -8.870  -8.842  24.440  1.00  0.00     0.336 A 
ATOM     10  O   UNL     1      -9.125  -9.871  25.120  1.00  0.00    -0.246 OA
ATOM     11  O   UNL     1      -9.096  -8.848  23.128  1.00  0.00    -0.423 OA
ENDROOT
BRANCH   1  12
ATOM     12  O   UNL     1      -8.079  -4.479  19.857  1.00  0.00    -0.493 OA
ATOM     13  C   UNL     1      -6.871  -3.726  19.837  1.00  0.00     0.278 C 
ENDBRANCH   1  12
BRANCH   2  14
ATOM     14  O   UNL     1      -9.117  -6.858  18.797  1.00  0.00    -0.504 OA
ATOM     15  H   UNL     1      -8.752  -6.197  18.122  1.00  0.00     0.293 HD
ENDBRANCH   2  14
TORSDOF 2
ENDMDL
MODEL 2
REMARK VINA RESULT:     7.764      1.331      5.382
REMARK INTER + INTRA:           8.394
REMARK INTER:                   8.263
REMARK INTRA:                   0.131
REMARK UNBOUND:                -0.051
REMARK SMILES COc1cc2ccc(=O)oc2cc1O
REMARK SMILES IDX 3 1 13 2 12 3 11 4 5 5 4 6 6 7 7 8 8 9 9 10 10 11 2 12 1 13
REMARK SMILES IDX 14 14
REMARK H PARENT 14 15
REMARK Flexibility Score: inf
ROOT
ATOM      1  C   UNL     1      -8.770  -8.090  23.279  1.00  0.00     0.161 A 
ATOM      2  C   UNL     1      -8.037  -6.997  23.781  1.00  0.00     0.161 A 
ATOM      3  C   UNL     1      -7.668  -5.947  22.933  1.00  0.00     0.098 A 
ATOM      4  C   UNL     1      -8.019  -5.973  21.581  1.00  0.00     0.142 A 
ATOM      5  C   UNL     1      -8.753  -7.063  21.070  1.00  0.00     0.022 A 
ATOM      6  C   UNL     1      -9.125  -8.116  21.916  1.00  0.00     0.062 A 
ATOM      7  C   UNL     1      -9.090  -7.060  19.712  1.00  0.00     0.019 A 
ATOM      8  C   UNL     1      -8.697  -5.989  18.910  1.00  0.00     0.094 A 
ATOM      9  C   UNL     1      -7.971  -4.942  19.488  1.00  0.00     0.336 A 
ATOM     10  O   UNL     1      -7.607  -3.965  18.781  1.00  0.00    -0.246 OA
ATOM     11  O   UNL     1      -7.663  -4.970  20.782  1.00  0.00    -0.423 OA
ENDROOT
BRANCH   1  12
ATOM     12  O   UNL     1      -9.125  -9.126  24.159  1.00  0.00    -0.493 OA
ATOM     13  C   UNL     1      -8.198 -10.010  24.782  1.00  0.00     0.278 C 
ENDBRANCH   1  12
BRANCH   2  14
ATOM     14  O   UNL     1      -7.667  -6.935  25.125  1.00  0.00    -0.504 OA
ATOM     15  H   UNL     1      -8.088  -6.278  25.771  1.00  0.00     0.293 HD
ENDBRANCH   2  14
TORSDOF 2
ENDMDL
MODEL 3
REMARK VINA RESULT:     8.688      2.647      4.135
REMARK INTER + INTRA:           9.398
REMARK INTER:                   9.463
REMARK INTRA:                  -0.065
REMARK UNBOUND:                -0.051
REMARK SMILES COc1cc2ccc(=O)oc2cc1O
REMARK SMILES IDX 3 1 13 2 12 3 11 4 5 5 4 6 6 7 7 8 8 9 9 10 10 11 2 12 1 13
REMARK SMILES IDX 14 14
REMARK H PARENT 14 15
REMARK Flexibility Score: inf
ROOT
ATOM      1  C   UNL     1      -6.617  -3.045  21.138  1.00  0.00     0.161 A 
ATOM      2  C   UNL     1      -6.390  -3.215  19.759  1.00  0.00     0.161 A 
ATOM      3  C   UNL     1      -6.874  -4.351  19.100  1.00  0.00     0.098 A 
ATOM      4  C   UNL     1      -7.583  -5.328  19.802  1.00  0.00     0.142 A 
ATOM      5  C   UNL     1      -7.815  -5.167  21.183  1.00  0.00     0.022 A 
ATOM      6  C   UNL     1      -7.333  -4.031  21.847  1.00  0.00     0.062 A 
ATOM      7  C   UNL     1      -8.528  -6.163  21.860  1.00  0.00     0.019 A 
ATOM      8  C   UNL     1      -8.988  -7.275  21.155  1.00  0.00     0.094 A 
ATOM      9  C   UNL     1      -8.720  -7.366  19.785  1.00  0.00     0.336 A 
ATOM     10  O   UNL     1      -9.125  -8.363  19.131  1.00  0.00    -0.246 OA
ATOM     11  O   UNL     1      -8.038  -6.405  19.167  1.00  0.00    -0.423 OA
ENDROOT
BRANCH   1  12
ATOM     12  O   UNL     1      -6.119  -1.892  21.768  1.00  0.00    -0.493 OA
ATOM     13  C   UNL     1      -6.907  -0.760  22.122  1.00  0.00     0.278 C 
ENDBRANCH   1  12
BRANCH   2  14
ATOM     14  O   UNL     1      -5.687  -2.262  19.023  1.00  0.00    -0.504 OA
ATOM     15  H   UNL     1      -6.093  -1.785  18.226  1.00  0.00     0.293 HD
ENDBRANCH   2  14
TORSDOF 2
ENDMDL
