MODEL 1
REMARK VINA RESULT:    -1.898      0.000      0.000
REMARK INTER + INTRA:          -2.039
REMARK INTER:                  -2.176
REMARK INTRA:                   0.137
REMARK UNBOUND:                 0.137
REMARK SMILES O=C([O-])C=Cc1ccc(O)cc1
REMARK SMILES IDX 6 1 7 2 12 3 8 4 11 5 9 6 5 7 4 8 2 9 1 10 3 11 10 12
REMARK H PARENT 10 13
REMARK Flexibility Score: inf
ROOT
ATOM      1  C   UNL     1      21.638  14.359   0.622  1.00  0.00    -0.025 A 
ATOM      2  C   UNL     1      20.616  14.967  -0.124  1.00  0.00     0.012 A 
ATOM      3  C   UNL     1      21.440  14.125   1.994  1.00  0.00     0.012 A 
ATOM      4  C   UNL     1      19.438  15.384   0.502  1.00  0.00     0.047 A 
ATOM      5  C   UNL     1      20.261  14.543   2.618  1.00  0.00     0.047 A 
ATOM      6  C   UNL     1      19.258  15.176   1.875  1.00  0.00     0.115 A 
ENDROOT
BRANCH   1   7
ATOM      7  C   UNL     1      22.851  13.878  -0.070  1.00  0.00     0.010 C 
ATOM      8  C   UNL     1      24.094  13.906   0.434  1.00  0.00     0.025 C 
BRANCH   8   9
ATOM      9  C   UNL     1      24.498  14.587   1.678  1.00  0.00     0.064 C 
ATOM     10  O   UNL     1      24.883  13.900   2.660  1.00  0.00    -0.545 OA
ATOM     11  O   UNL     1      24.534  15.974   1.768  1.00  0.00    -0.545 OA
ENDBRANCH   8   9
ENDBRANCH   1   7
BRANCH   6  12
ATOM     12  O   UNL     1      18.089  15.589   2.510  1.00  0.00    -0.508 OA
ATOM     13  H   UNL     1      17.559  14.962   3.103  1.00  0.00     0.293 HD
ENDBRANCH   6  12
TORSDOF 3
ENDMDL
