MODEL 1
REMARK VINA RESULT:    -5.823      0.000      0.000
REMARK INTER + INTRA:         -12.854
REMARK INTER:                 -10.589
REMARK INTRA:                  -2.265
REMARK UNBOUND:                -2.265
REMARK SMILES CCCCCCCCCCCCCCCC(=O)[O-]
REMARK SMILES IDX 9 1 10 2 11 3 12 4 13 5 14 6 15 7 16 8 17 9 18 10 8 11 7 12
REMARK SMILES IDX 6 13 5 14 4 15 3 16 2 17 1 18
REMARK H PARENT
REMARK Flexibility Score: inf
ROOT
ATOM      1  C   UNL     1      29.009  34.516  26.323  1.00  0.00     0.000 C 
ENDROOT
BRANCH   1   2
ATOM      2  C   UNL     1      30.331  34.739  27.072  1.00  0.00     0.000 C 
BRANCH   2   3
ATOM      3  C   UNL     1      30.374  36.137  27.707  1.00  0.00     0.000 C 
BRANCH   3   4
ATOM      4  C   UNL     1      31.750  36.807  27.570  1.00  0.00     0.000 C 
BRANCH   4   5
ATOM      5  C   UNL     1      31.789  37.856  26.445  1.00  0.00     0.000 C 
BRANCH   5   6
ATOM      6  C   UNL     1      30.394  38.389  26.071  1.00  0.00     0.006 C 
BRANCH   6   7
ATOM      7  C   UNL     1      30.080  38.314  24.566  1.00  0.00     0.053 C 
BRANCH   7   8
ATOM      8  C   UNL     1      29.299  39.497  24.079  1.00  0.00     0.041 C 
ATOM      9  O   UNL     1      28.044  39.513  24.173  1.00  0.00    -0.550 OA
ATOM     10  O   UNL     1      29.958  40.570  23.490  1.00  0.00    -0.550 OA
ENDBRANCH   7   8
ENDBRANCH   6   7
ENDBRANCH   5   6
ENDBRANCH   4   5
ENDBRANCH   3   4
ENDBRANCH   2   3
ENDBRANCH   1   2
BRANCH   1  11
ATOM     11  C   UNL     1      27.881  35.427  26.833  1.00  0.00     0.000 C 
BRANCH  11  12
ATOM     12  C   UNL     1      27.258  36.282  25.715  1.00  0.00    -0.000 C 
BRANCH  12  13
ATOM     13  C   UNL     1      26.427  37.454  26.260  1.00  0.00    -0.000 C 
BRANCH  13  14
ATOM     14  C   UNL     1      26.619  37.662  27.770  1.00  0.00    -0.000 C 
BRANCH  14  15
ATOM     15  C   UNL     1      27.646  38.769  28.046  1.00  0.00    -0.000 C 
BRANCH  15  16
ATOM     16  C   UNL     1      28.239  38.700  29.465  1.00  0.00    -0.000 C 
BRANCH  16  17
ATOM     17  C   UNL     1      29.706  39.147  29.577  1.00  0.00    -0.003 C 
ATOM     18  C   UNL     1      30.241  39.096  31.008  1.00  0.00     0.004 C 
ENDBRANCH  16  17
ENDBRANCH  15  16
ENDBRANCH  14  15
ENDBRANCH  13  14
ENDBRANCH  12  13
ENDBRANCH  11  12
ENDBRANCH   1  11
TORSDOF 14
ENDMDL
MODEL 2
REMARK VINA RESULT:    -5.608      2.340      4.411
REMARK INTER + INTRA:         -12.462
REMARK INTER:                 -10.284
REMARK INTRA:                  -2.179
REMARK UNBOUND:                -2.265
REMARK SMILES CCCCCCCCCCCCCCCC(=O)[O-]
REMARK SMILES IDX 9 1 10 2 11 3 12 4 13 5 14 6 15 7 16 8 17 9 18 10 8 11 7 12
REMARK SMILES IDX 6 13 5 14 4 15 3 16 2 17 1 18
REMARK H PARENT
REMARK Flexibility Score: inf
ROOT
ATOM      1  C   UNL     1      28.734  39.151  29.669  1.00  0.00     0.000 C 
ENDROOT
BRANCH   1   2
ATOM      2  C   UNL     1      30.138  38.634  29.322  1.00  0.00     0.000 C 
BRANCH   2   3
ATOM      3  C   UNL     1      30.782  39.490  28.220  1.00  0.00     0.000 C 
BRANCH   3   4
ATOM      4  C   UNL     1      31.642  38.659  27.255  1.00  0.00     0.000 C 
BRANCH   4   5
ATOM      5  C   UNL     1      31.651  37.161  27.608  1.00  0.00     0.000 C 
BRANCH   5   6
ATOM      6  C   UNL     1      30.778  36.315  26.663  1.00  0.00     0.006 C 
BRANCH   6   7
ATOM      7  C   UNL     1      30.165  35.069  27.328  1.00  0.00     0.053 C 
BRANCH   7   8
ATOM      8  C   UNL     1      29.344  34.253  26.378  1.00  0.00     0.041 C 
ATOM      9  O   UNL     1      29.846  33.254  25.798  1.00  0.00    -0.550 OA
ATOM     10  O   UNL     1      28.029  34.615  26.107  1.00  0.00    -0.550 OA
ENDBRANCH   7   8
ENDBRANCH   6   7
ENDBRANCH   5   6
ENDBRANCH   4   5
ENDBRANCH   3   4
ENDBRANCH   2   3
ENDBRANCH   1   2
BRANCH   1  11
ATOM     11  C   UNL     1      27.686  38.028  29.717  1.00  0.00     0.000 C 
BRANCH  11  12
ATOM     12  C   UNL     1      27.654  37.194  28.423  1.00  0.00    -0.000 C 
BRANCH  12  13
ATOM     13  C   UNL     1      26.348  37.379  27.633  1.00  0.00    -0.000 C 
BRANCH  13  14
ATOM     14  C   UNL     1      26.454  38.481  26.569  1.00  0.00    -0.000 C 
BRANCH  14  15
ATOM     15  C   UNL     1      27.920  38.753  26.203  1.00  0.00    -0.000 C 
BRANCH  15  16
ATOM     16  C   UNL     1      28.256  38.376  24.749  1.00  0.00    -0.000 C 
BRANCH  16  17
ATOM     17  C   UNL     1      29.680  38.743  24.297  1.00  0.00    -0.003 C 
ATOM     18  C   UNL     1      29.823  40.212  23.902  1.00  0.00     0.004 C 
ENDBRANCH  16  17
ENDBRANCH  15  16
ENDBRANCH  14  15
ENDBRANCH  13  14
ENDBRANCH  12  13
ENDBRANCH  11  12
ENDBRANCH   1  11
TORSDOF 14
ENDMDL
MODEL 3
REMARK VINA RESULT:    -5.606      1.147      4.541
REMARK INTER + INTRA:         -12.459
REMARK INTER:                 -10.237
REMARK INTRA:                  -2.222
REMARK UNBOUND:                -2.265
REMARK SMILES CCCCCCCCCCCCCCCC(=O)[O-]
REMARK SMILES IDX 9 1 10 2 11 3 12 4 13 5 14 6 15 7 16 8 17 9 18 10 8 11 7 12
REMARK SMILES IDX 6 13 5 14 4 15 3 16 2 17 1 18
REMARK H PARENT
REMARK Flexibility Score: inf
ROOT
ATOM      1  C   UNL     1      29.597  38.719  29.769  1.00  0.00     0.000 C 
ENDROOT
BRANCH   1   2
ATOM      2  C   UNL     1      28.107  38.835  29.415  1.00  0.00     0.000 C 
BRANCH   2   3
ATOM      3  C   UNL     1      27.539  37.477  28.976  1.00  0.00     0.000 C 
BRANCH   3   4
ATOM      4  C   UNL     1      26.703  37.574  27.690  1.00  0.00     0.000 C 
BRANCH   4   5
ATOM      5  C   UNL     1      27.127  38.753  26.796  1.00  0.00     0.000 C 
BRANCH   5   6
ATOM      6  C   UNL     1      27.772  38.302  25.472  1.00  0.00     0.006 C 
BRANCH   6   7
ATOM      7  C   UNL     1      28.036  39.452  24.484  1.00  0.00     0.053 C 
BRANCH   7   8
ATOM      8  C   UNL     1      29.466  39.514  24.040  1.00  0.00     0.041 C 
ATOM      9  O   UNL     1      29.956  40.596  23.622  1.00  0.00    -0.550 OA
ATOM     10  O   UNL     1      30.250  38.366  24.056  1.00  0.00    -0.550 OA
ENDBRANCH   7   8
ENDBRANCH   6   7
ENDBRANCH   5   6
ENDBRANCH   4   5
ENDBRANCH   3   4
ENDBRANCH   2   3
ENDBRANCH   1   2
BRANCH   1  11
ATOM     11  C   UNL     1      30.477  39.663  28.935  1.00  0.00     0.000 C 
BRANCH  11  12
ATOM     12  C   UNL     1      30.654  39.181  27.484  1.00  0.00    -0.000 C 
BRANCH  12  13
ATOM     13  C   UNL     1      32.018  38.515  27.245  1.00  0.00    -0.000 C 
BRANCH  13  14
ATOM     14  C   UNL     1      31.895  37.019  26.919  1.00  0.00    -0.000 C 
BRANCH  14  15
ATOM     15  C   UNL     1      30.426  36.573  26.928  1.00  0.00    -0.000 C 
BRANCH  15  16
ATOM     16  C   UNL     1      30.240  35.126  27.418  1.00  0.00    -0.000 C 
BRANCH  16  17
ATOM     17  C   UNL     1      29.462  34.212  26.455  1.00  0.00    -0.003 C 
ATOM     18  C   UNL     1      28.003  34.632  26.278  1.00  0.00     0.004 C 
ENDBRANCH  16  17
ENDBRANCH  15  16
ENDBRANCH  14  15
ENDBRANCH  13  14
ENDBRANCH  12  13
ENDBRANCH  11  12
ENDBRANCH   1  11
TORSDOF 14
ENDMDL
MODEL 4
REMARK VINA RESULT:    -5.549      2.424      4.727
REMARK INTER + INTRA:         -12.355
REMARK INTER:                 -10.139
REMARK INTRA:                  -2.216
REMARK UNBOUND:                -2.265
REMARK SMILES CCCCCCCCCCCCCCCC(=O)[O-]
REMARK SMILES IDX 9 1 10 2 11 3 12 4 13 5 14 6 15 7 16 8 17 9 18 10 8 11 7 12
REMARK SMILES IDX 6 13 5 14 4 15 3 16 2 17 1 18
REMARK H PARENT
REMARK Flexibility Score: inf
ROOT
ATOM      1  C   UNL     1      28.345  38.860  24.465  1.00  0.00     0.000 C 
ENDROOT
BRANCH   1   2
ATOM      2  C   UNL     1      27.534  39.879  25.280  1.00  0.00     0.000 C 
BRANCH   2   3
ATOM      3  C   UNL     1      27.167  39.312  26.660  1.00  0.00     0.000 C 
BRANCH   3   4
ATOM      4  C   UNL     1      26.379  37.996  26.566  1.00  0.00     0.000 C 
BRANCH   4   5
ATOM      5  C   UNL     1      26.648  37.059  27.758  1.00  0.00     0.000 C 
BRANCH   5   6
ATOM      6  C   UNL     1      28.040  36.404  27.706  1.00  0.00     0.006 C 
BRANCH   6   7
ATOM      7  C   UNL     1      28.159  35.271  26.670  1.00  0.00     0.053 C 
BRANCH   7   8
ATOM      8  C   UNL     1      29.477  34.563  26.737  1.00  0.00     0.041 C 
ATOM      9  O   UNL     1      30.381  34.971  27.512  1.00  0.00    -0.550 OA
ATOM     10  O   UNL     1      29.721  33.468  25.915  1.00  0.00    -0.550 OA
ENDBRANCH   7   8
ENDBRANCH   6   7
ENDBRANCH   5   6
ENDBRANCH   4   5
ENDBRANCH   3   4
ENDBRANCH   2   3
ENDBRANCH   1   2
BRANCH   1  11
ATOM     11  C   UNL     1      29.861  39.020  24.664  1.00  0.00     0.000 C 
BRANCH  11  12
ATOM     12  C   UNL     1      30.600  37.670  24.696  1.00  0.00    -0.000 C 
BRANCH  12  13
ATOM     13  C   UNL     1      31.678  37.611  25.790  1.00  0.00    -0.000 C 
BRANCH  13  14
ATOM     14  C   UNL     1      31.580  38.783  26.778  1.00  0.00    -0.000 C 
BRANCH  14  15
ATOM     15  C   UNL     1      30.902  38.346  28.084  1.00  0.00    -0.000 C 
BRANCH  15  16
ATOM     16  C   UNL     1      30.015  39.444  28.697  1.00  0.00    -0.000 C 
BRANCH  16  17
ATOM     17  C   UNL     1      29.271  39.034  29.980  1.00  0.00    -0.003 C 
ATOM     18  C   UNL     1      30.165  39.040  31.219  1.00  0.00     0.004 C 
ENDBRANCH  16  17
ENDBRANCH  15  16
ENDBRANCH  14  15
ENDBRANCH  13  14
ENDBRANCH  12  13
ENDBRANCH  11  12
ENDBRANCH   1  11
TORSDOF 14
ENDMDL
MODEL 5
REMARK VINA RESULT:    -5.504      2.450      4.500
REMARK INTER + INTRA:         -12.274
REMARK INTER:                 -10.090
REMARK INTRA:                  -2.184
REMARK UNBOUND:                -2.265
REMARK SMILES CCCCCCCCCCCCCCCC(=O)[O-]
REMARK SMILES IDX 9 1 10 2 11 3 12 4 13 5 14 6 15 7 16 8 17 9 18 10 8 11 7 12
REMARK SMILES IDX 6 13 5 14 4 15 3 16 2 17 1 18
REMARK H PARENT
REMARK Flexibility Score: inf
ROOT
ATOM      1  C   UNL     1      28.621  38.729  24.382  1.00  0.00     0.000 C 
ENDROOT
BRANCH   1   2
ATOM      2  C   UNL     1      30.122  38.977  24.596  1.00  0.00     0.000 C 
BRANCH   2   3
ATOM      3  C   UNL     1      30.916  37.667  24.485  1.00  0.00     0.000 C 
BRANCH   3   4
ATOM      4  C   UNL     1      31.585  37.269  25.811  1.00  0.00     0.000 C 
BRANCH   4   5
ATOM      5  C   UNL     1      31.669  38.440  26.806  1.00  0.00     0.000 C 
BRANCH   5   6
ATOM      6  C   UNL     1      30.906  38.172  28.116  1.00  0.00     0.006 C 
BRANCH   6   7
ATOM      7  C   UNL     1      30.350  39.442  28.785  1.00  0.00     0.053 C 
BRANCH   7   8
ATOM      8  C   UNL     1      29.607  39.149  30.054  1.00  0.00     0.041 C 
ATOM      9  O   UNL     1      30.201  39.192  31.163  1.00  0.00    -0.550 OA
ATOM     10  O   UNL     1      28.264  38.795  30.006  1.00  0.00    -0.550 OA
ENDBRANCH   7   8
ENDBRANCH   6   7
ENDBRANCH   5   6
ENDBRANCH   4   5
ENDBRANCH   3   4
ENDBRANCH   2   3
ENDBRANCH   1   2
BRANCH   1  11
ATOM     11  C   UNL     1      27.742  39.687  25.201  1.00  0.00     0.000 C 
BRANCH  11  12
ATOM     12  C   UNL     1      27.422  39.144  26.605  1.00  0.00    -0.000 C 
BRANCH  12  13
ATOM     13  C   UNL     1      26.255  38.143  26.599  1.00  0.00    -0.000 C 
BRANCH  13  14
ATOM     14  C   UNL     1      26.465  36.987  27.589  1.00  0.00    -0.000 C 
BRANCH  14  15
ATOM     15  C   UNL     1      27.935  36.544  27.612  1.00  0.00    -0.000 C 
BRANCH  15  16
ATOM     16  C   UNL     1      28.232  35.396  26.631  1.00  0.00    -0.000 C 
BRANCH  16  17
ATOM     17  C   UNL     1      29.556  34.653  26.884  1.00  0.00    -0.003 C 
ATOM     18  C   UNL     1      29.790  33.498  25.912  1.00  0.00     0.004 C 
ENDBRANCH  16  17
ENDBRANCH  15  16
ENDBRANCH  14  15
ENDBRANCH  13  14
ENDBRANCH  12  13
ENDBRANCH  11  12
ENDBRANCH   1  11
TORSDOF 14
ENDMDL
MODEL 6
REMARK VINA RESULT:    -5.486      0.863      3.391
REMARK INTER + INTRA:         -12.241
REMARK INTER:                 -10.228
REMARK INTRA:                  -2.014
REMARK UNBOUND:                -2.265
REMARK SMILES CCCCCCCCCCCCCCCC(=O)[O-]
REMARK SMILES IDX 9 1 10 2 11 3 12 4 13 5 14 6 15 7 16 8 17 9 18 10 8 11 7 12
REMARK SMILES IDX 6 13 5 14 4 15 3 16 2 17 1 18
REMARK H PARENT
REMARK Flexibility Score: inf
ROOT
ATOM      1  C   UNL     1      28.035  38.323  28.947  1.00  0.00     0.000 C 
ENDROOT
BRANCH   1   2
ATOM      2  C   UNL     1      29.302  38.777  29.687  1.00  0.00     0.000 C 
BRANCH   2   3
ATOM      3  C   UNL     1      30.458  39.011  28.703  1.00  0.00     0.000 C 
BRANCH   3   4
ATOM      4  C   UNL     1      31.130  37.702  28.259  1.00  0.00     0.000 C 
BRANCH   4   5
ATOM      5  C   UNL     1      31.311  37.617  26.733  1.00  0.00     0.000 C 
BRANCH   5   6
ATOM      6  C   UNL     1      30.706  38.820  25.987  1.00  0.00     0.006 C 
BRANCH   6   7
ATOM      7  C   UNL     1      30.157  38.477  24.591  1.00  0.00     0.053 C 
BRANCH   7   8
ATOM      8  C   UNL     1      29.358  39.596  23.994  1.00  0.00     0.041 C 
ATOM      9  O   UNL     1      28.101  39.591  24.068  1.00  0.00    -0.550 OA
ATOM     10  O   UNL     1      30.002  40.630  23.324  1.00  0.00    -0.550 OA
ENDBRANCH   7   8
ENDBRANCH   6   7
ENDBRANCH   5   6
ENDBRANCH   4   5
ENDBRANCH   3   4
ENDBRANCH   2   3
ENDBRANCH   1   2
BRANCH   1  11
ATOM     11  C   UNL     1      27.852  39.036  27.597  1.00  0.00     0.000 C 
BRANCH  11  12
ATOM     12  C   UNL     1      26.470  38.776  26.972  1.00  0.00    -0.000 C 
BRANCH  12  13
ATOM     13  C   UNL     1      26.218  37.285  26.693  1.00  0.00    -0.000 C 
BRANCH  13  14
ATOM     14  C   UNL     1      27.201  36.703  25.667  1.00  0.00    -0.000 C 
BRANCH  14  15
ATOM     15  C   UNL     1      27.573  35.256  26.022  1.00  0.00    -0.000 C 
BRANCH  15  16
ATOM     16  C   UNL     1      28.519  35.159  27.232  1.00  0.00    -0.000 C 
BRANCH  16  17
ATOM     17  C   UNL     1      29.896  34.541  26.930  1.00  0.00    -0.003 C 
ATOM     18  C   UNL     1      29.826  33.376  25.943  1.00  0.00     0.004 C 
ENDBRANCH  16  17
ENDBRANCH  15  16
ENDBRANCH  14  15
ENDBRANCH  13  14
ENDBRANCH  12  13
ENDBRANCH  11  12
ENDBRANCH   1  11
TORSDOF 14
ENDMDL
MODEL 7
REMARK VINA RESULT:    -5.453      2.224      4.945
REMARK INTER + INTRA:         -12.180
REMARK INTER:                 -10.079
REMARK INTRA:                  -2.102
REMARK UNBOUND:                -2.265
REMARK SMILES CCCCCCCCCCCCCCCC(=O)[O-]
REMARK SMILES IDX 9 1 10 2 11 3 12 4 13 5 14 6 15 7 16 8 17 9 18 10 8 11 7 12
REMARK SMILES IDX 6 13 5 14 4 15 3 16 2 17 1 18
REMARK H PARENT
REMARK Flexibility Score: inf
ROOT
ATOM      1  C   UNL     1      29.184  34.285  26.617  1.00  0.00     0.000 C 
ENDROOT
BRANCH   1   2
ATOM      2  C   UNL     1      27.725  34.763  26.585  1.00  0.00     0.000 C 
BRANCH   2   3
ATOM      3  C   UNL     1      27.555  35.946  25.619  1.00  0.00     0.000 C 
BRANCH   3   4
ATOM      4  C   UNL     1      26.856  37.148  26.274  1.00  0.00     0.000 C 
BRANCH   4   5
ATOM      5  C   UNL     1      27.178  37.275  27.774  1.00  0.00     0.000 C 
BRANCH   5   6
ATOM      6  C   UNL     1      28.003  38.531  28.108  1.00  0.00     0.006 C 
BRANCH   6   7
ATOM      7  C   UNL     1      28.246  38.736  29.614  1.00  0.00     0.053 C 
BRANCH   7   8
ATOM      8  C   UNL     1      29.655  39.139  29.923  1.00  0.00     0.041 C 
ATOM      9  O   UNL     1      30.317  39.822  29.098  1.00  0.00    -0.550 OA
ATOM     10  O   UNL     1      30.251  38.731  31.111  1.00  0.00    -0.550 OA
ENDBRANCH   7   8
ENDBRANCH   6   7
ENDBRANCH   5   6
ENDBRANCH   4   5
ENDBRANCH   3   4
ENDBRANCH   2   3
ENDBRANCH   1   2
BRANCH   1  11
ATOM     11  C   UNL     1      30.187  35.440  26.468  1.00  0.00     0.000 C 
BRANCH  11  12
ATOM     12  C   UNL     1      30.868  35.810  27.798  1.00  0.00    -0.000 C 
BRANCH  12  13
ATOM     13  C   UNL     1      31.657  37.126  27.712  1.00  0.00    -0.000 C 
BRANCH  13  14
ATOM     14  C   UNL     1      31.887  37.583  26.264  1.00  0.00    -0.000 C 
BRANCH  14  15
ATOM     15  C   UNL     1      30.926  38.721  25.889  1.00  0.00    -0.000 C 
BRANCH  15  16
ATOM     16  C   UNL     1      30.152  38.448  24.587  1.00  0.00    -0.000 C 
BRANCH  16  17
ATOM     17  C   UNL     1      29.471  39.682  23.968  1.00  0.00    -0.003 C 
ATOM     18  C   UNL     1      27.999  39.811  24.356  1.00  0.00     0.004 C 
ENDBRANCH  16  17
ENDBRANCH  15  16
ENDBRANCH  14  15
ENDBRANCH  13  14
ENDBRANCH  12  13
ENDBRANCH  11  12
ENDBRANCH   1  11
TORSDOF 14
ENDMDL
MODEL 8
REMARK VINA RESULT:    -5.336      2.305      3.623
REMARK INTER + INTRA:         -11.968
REMARK INTER:                 -10.135
REMARK INTRA:                  -1.832
REMARK UNBOUND:                -2.265
REMARK SMILES CCCCCCCCCCCCCCCC(=O)[O-]
REMARK SMILES IDX 9 1 10 2 11 3 12 4 13 5 14 6 15 7 16 8 17 9 18 10 8 11 7 12
REMARK SMILES IDX 6 13 5 14 4 15 3 16 2 17 1 18
REMARK H PARENT
REMARK Flexibility Score: inf
ROOT
ATOM      1  C   UNL     1      28.999  39.395  24.242  1.00  0.00     0.000 C 
ENDROOT
BRANCH   1   2
ATOM      2  C   UNL     1      30.260  38.560  24.512  1.00  0.00     0.000 C 
BRANCH   2   3
ATOM      3  C   UNL     1      30.750  38.757  25.954  1.00  0.00     0.000 C 
BRANCH   3   4
ATOM      4  C   UNL     1      31.872  37.778  26.335  1.00  0.00     0.000 C 
BRANCH   4   5
ATOM      5  C   UNL     1      31.642  37.120  27.707  1.00  0.00     0.000 C 
BRANCH   5   6
ATOM      6  C   UNL     1      30.589  35.997  27.668  1.00  0.00     0.006 C 
BRANCH   6   7
ATOM      7  C   UNL     1      30.406  35.361  26.278  1.00  0.00     0.053 C 
BRANCH   7   8
ATOM      8  C   UNL     1      29.443  34.214  26.289  1.00  0.00     0.041 C 
ATOM      9  O   UNL     1      29.785  33.091  25.835  1.00  0.00    -0.550 OA
ATOM     10  O   UNL     1      28.152  34.395  26.772  1.00  0.00    -0.550 OA
ENDBRANCH   7   8
ENDBRANCH   6   7
ENDBRANCH   5   6
ENDBRANCH   4   5
ENDBRANCH   3   4
ENDBRANCH   2   3
ENDBRANCH   1   2
BRANCH   1  11
ATOM     11  C   UNL     1      27.855  39.069  25.216  1.00  0.00     0.000 C 
BRANCH  11  12
ATOM     12  C   UNL     1      27.603  37.556  25.347  1.00  0.00    -0.000 C 
BRANCH  12  13
ATOM     13  C   UNL     1      26.408  37.233  26.259  1.00  0.00    -0.000 C 
BRANCH  13  14
ATOM     14  C   UNL     1      26.428  38.039  27.566  1.00  0.00    -0.000 C 
BRANCH  14  15
ATOM     15  C   UNL     1      27.534  37.535  28.505  1.00  0.00    -0.000 C 
BRANCH  15  16
ATOM     16  C   UNL     1      27.944  38.575  29.563  1.00  0.00    -0.000 C 
BRANCH  16  17
ATOM     17  C   UNL     1      29.359  39.152  29.389  1.00  0.00    -0.003 C 
ATOM     18  C   UNL     1      30.216  39.023  30.649  1.00  0.00     0.004 C 
ENDBRANCH  16  17
ENDBRANCH  15  16
ENDBRANCH  14  15
ENDBRANCH  13  14
ENDBRANCH  12  13
ENDBRANCH  11  12
ENDBRANCH   1  11
TORSDOF 14
ENDMDL
MODEL 9
REMARK VINA RESULT:    -5.302      2.190      5.053
REMARK INTER + INTRA:         -11.905
REMARK INTER:                  -9.671
REMARK INTRA:                  -2.234
REMARK UNBOUND:                -2.265
REMARK SMILES CCCCCCCCCCCCCCCC(=O)[O-]
REMARK SMILES IDX 9 1 10 2 11 3 12 4 13 5 14 6 15 7 16 8 17 9 18 10 8 11 7 12
REMARK SMILES IDX 6 13 5 14 4 15 3 16 2 17 1 18
REMARK H PARENT
REMARK Flexibility Score: inf
ROOT
ATOM      1  C   UNL     1      27.743  39.064  25.200  1.00  0.00     0.000 C 
ENDROOT
BRANCH   1   2
ATOM      2  C   UNL     1      27.645  37.556  25.470  1.00  0.00     0.000 C 
BRANCH   2   3
ATOM      3  C   UNL     1      26.280  37.193  26.073  1.00  0.00     0.000 C 
BRANCH   3   4
ATOM      4  C   UNL     1      26.106  37.725  27.504  1.00  0.00     0.000 C 
BRANCH   4   5
ATOM      5  C   UNL     1      27.099  37.091  28.495  1.00  0.00     0.000 C 
BRANCH   5   6
ATOM      6  C   UNL     1      27.739  38.120  29.446  1.00  0.00     0.006 C 
BRANCH   6   7
ATOM      7  C   UNL     1      28.636  39.150  28.738  1.00  0.00     0.053 C 
BRANCH   7   8
ATOM      8  C   UNL     1      29.928  39.384  29.460  1.00  0.00     0.041 C 
ATOM      9  O   UNL     1      30.087  38.959  30.635  1.00  0.00    -0.550 OA
ATOM     10  O   UNL     1      30.947  40.103  28.846  1.00  0.00    -0.550 OA
ENDBRANCH   7   8
ENDBRANCH   6   7
ENDBRANCH   5   6
ENDBRANCH   4   5
ENDBRANCH   3   4
ENDBRANCH   2   3
ENDBRANCH   1   2
BRANCH   1  11
ATOM     11  C   UNL     1      28.997  39.440  24.394  1.00  0.00     0.000 C 
BRANCH  11  12
ATOM     12  C   UNL     1      30.141  38.426  24.573  1.00  0.00    -0.000 C 
BRANCH  12  13
ATOM     13  C   UNL     1      30.954  38.673  25.855  1.00  0.00    -0.000 C 
BRANCH  13  14
ATOM     14  C   UNL     1      31.933  37.530  26.162  1.00  0.00    -0.000 C 
BRANCH  14  15
ATOM     15  C   UNL     1      31.685  36.957  27.565  1.00  0.00    -0.000 C 
BRANCH  15  16
ATOM     16  C   UNL     1      30.383  36.141  27.659  1.00  0.00    -0.000 C 
BRANCH  16  17
ATOM     17  C   UNL     1      30.204  35.079  26.560  1.00  0.00    -0.003 C 
ATOM     18  C   UNL     1      28.813  34.446  26.560  1.00  0.00     0.004 C 
ENDBRANCH  16  17
ENDBRANCH  15  16
ENDBRANCH  14  15
ENDBRANCH  13  14
ENDBRANCH  12  13
ENDBRANCH  11  12
ENDBRANCH   1  11
TORSDOF 14
ENDMDL
