MODEL 1
REMARK VINA RESULT:    -2.760      0.000      0.000
REMARK INTER + INTRA:          -6.849
REMARK INTER:                  -5.988
REMARK INTRA:                  -0.861
REMARK UNBOUND:                -0.861
REMARK SMILES CCCCCCCCCCCCCCCCCCCCCC(=O)[O-]
REMARK SMILES IDX 12 1 11 2 10 3 9 4 8 5 7 6 6 7 5 8 4 9 3 10 2 11 1 12 13 13
REMARK SMILES IDX 14 14 15 15 16 16 17 17 18 18 19 19 20 20 21 21 22 22 23 23
REMARK SMILES IDX 24 24
REMARK H PARENT
REMARK Flexibility Score: inf
ROOT
ATOM      1  C   UNL     1      -1.266 -23.040  15.731  1.00  0.00     0.000 C 
ENDROOT
BRANCH   1   2
ATOM      2  C   UNL     1      -2.516 -22.229  16.135  1.00  0.00     0.000 C 
BRANCH   2   3
ATOM      3  C   UNL     1      -3.696 -23.125  16.554  1.00  0.00     0.000 C 
BRANCH   3   4
ATOM      4  C   UNL     1      -5.059 -22.450  16.282  1.00  0.00    -0.000 C 
BRANCH   4   5
ATOM      5  C   UNL     1      -6.145 -22.841  17.297  1.00  0.00    -0.000 C 
BRANCH   5   6
ATOM      6  C   UNL     1      -7.367 -21.909  17.240  1.00  0.00    -0.000 C 
BRANCH   6   7
ATOM      7  C   UNL     1      -8.641 -22.559  17.809  1.00  0.00    -0.000 C 
BRANCH   7   8
ATOM      8  C   UNL     1      -9.356 -21.749  18.905  1.00  0.00    -0.000 C 
BRANCH   8   9
ATOM      9  C   UNL     1     -10.468 -20.846  18.354  1.00  0.00    -0.000 C 
BRANCH   9  10
ATOM     10  C   UNL     1     -10.798 -21.208  16.898  1.00  0.00    -0.000 C 
BRANCH  10  11
ATOM     11  C   UNL     1     -10.605 -20.024  15.936  1.00  0.00    -0.003 C 
ATOM     12  C   UNL     1      -9.646 -20.342  14.789  1.00  0.00     0.004 C 
ENDBRANCH  10  11
ENDBRANCH   9  10
ENDBRANCH   8   9
ENDBRANCH   7   8
ENDBRANCH   6   7
ENDBRANCH   5   6
ENDBRANCH   4   5
ENDBRANCH   3   4
ENDBRANCH   2   3
ENDBRANCH   1   2
BRANCH   1  13
ATOM     13  C   UNL     1       0.067 -22.411  16.182  1.00  0.00     0.000 C 
BRANCH  13  14
ATOM     14  C   UNL     1       1.328 -23.011  15.535  1.00  0.00     0.000 C 
BRANCH  14  15
ATOM     15  C   UNL     1       2.631 -22.231  15.794  1.00  0.00     0.000 C 
BRANCH  15  16
ATOM     16  C   UNL     1       3.783 -23.099  16.345  1.00  0.00     0.000 C 
BRANCH  16  17
ATOM     17  C   UNL     1       5.160 -22.440  16.151  1.00  0.00     0.000 C 
BRANCH  17  18
ATOM     18  C   UNL     1       5.792 -21.968  17.474  1.00  0.00     0.000 C 
BRANCH  18  19
ATOM     19  C   UNL     1       7.283 -21.589  17.387  1.00  0.00     0.000 C 
BRANCH  19  20
ATOM     20  C   UNL     1       7.958 -22.101  16.101  1.00  0.00     0.006 C 
BRANCH  20  21
ATOM     21  C   UNL     1       8.459 -20.954  15.213  1.00  0.00     0.053 C 
BRANCH  21  22
ATOM     22  C   UNL     1       8.305 -21.264  13.754  1.00  0.00     0.041 C 
ATOM     23  O   UNL     1       7.687 -22.298  13.386  1.00  0.00    -0.550 OA
ATOM     24  O   UNL     1       8.846 -20.409  12.800  1.00  0.00    -0.550 OA
ENDBRANCH  21  22
ENDBRANCH  20  21
ENDBRANCH  19  20
ENDBRANCH  18  19
ENDBRANCH  17  18
ENDBRANCH  16  17
ENDBRANCH  15  16
ENDBRANCH  14  15
ENDBRANCH  13  14
ENDBRANCH   1  13
TORSDOF 20
ENDMDL
MODEL 2
REMARK VINA RESULT:    -2.263      5.460     13.893
REMARK INTER + INTRA:          -5.770
REMARK INTER:                  -4.902
REMARK INTRA:                  -0.868
REMARK UNBOUND:                -0.861
REMARK SMILES CCCCCCCCCCCCCCCCCCCCCC(=O)[O-]
REMARK SMILES IDX 12 1 11 2 10 3 9 4 8 5 7 6 6 7 5 8 4 9 3 10 2 11 1 12 13 13
REMARK SMILES IDX 14 14 15 15 16 16 17 17 18 18 19 19 20 20 21 21 22 22 23 23
REMARK SMILES IDX 24 24
REMARK H PARENT
REMARK Flexibility Score: inf
ROOT
ATOM      1  C   UNL     1       2.932 -22.863  14.914  1.00  0.00     0.000 C 
ENDROOT
BRANCH   1   2
ATOM      2  C   UNL     1       3.508 -23.078  16.330  1.00  0.00     0.000 C 
BRANCH   2   3
ATOM      3  C   UNL     1       4.518 -21.989  16.733  1.00  0.00     0.000 C 
BRANCH   3   4
ATOM      4  C   UNL     1       5.978 -22.475  16.595  1.00  0.00    -0.000 C 
BRANCH   4   5
ATOM      5  C   UNL     1       7.005 -21.491  17.178  1.00  0.00    -0.000 C 
BRANCH   5   6
ATOM      6  C   UNL     1       8.364 -21.566  16.461  1.00  0.00    -0.000 C 
BRANCH   6   7
ATOM      7  C   UNL     1       8.345 -22.507  15.243  1.00  0.00    -0.000 C 
BRANCH   7   8
ATOM      8  C   UNL     1       8.976 -21.933  13.962  1.00  0.00    -0.000 C 
BRANCH   8   9
ATOM      9  C   UNL     1       8.167 -20.773  13.363  1.00  0.00    -0.000 C 
BRANCH   9  10
ATOM     10  C   UNL     1       7.493 -21.197  12.049  1.00  0.00    -0.000 C 
BRANCH  10  11
ATOM     11  C   UNL     1       8.003 -20.396  10.839  1.00  0.00    -0.003 C 
ATOM     12  C   UNL     1       7.015 -19.324  10.379  1.00  0.00     0.004 C 
ENDBRANCH  10  11
ENDBRANCH   9  10
ENDBRANCH   8   9
ENDBRANCH   7   8
ENDBRANCH   6   7
ENDBRANCH   5   6
ENDBRANCH   4   5
ENDBRANCH   3   4
ENDBRANCH   2   3
ENDBRANCH   1   2
BRANCH   1  13
ATOM     13  C   UNL     1       1.408 -23.076  14.813  1.00  0.00     0.000 C 
BRANCH  13  14
ATOM     14  C   UNL     1       0.584 -22.464  15.959  1.00  0.00     0.000 C 
BRANCH  14  15
ATOM     15  C   UNL     1      -0.786 -23.124  16.205  1.00  0.00     0.000 C 
BRANCH  15  16
ATOM     16  C   UNL     1      -1.927 -22.119  16.476  1.00  0.00     0.000 C 
BRANCH  16  17
ATOM     17  C   UNL     1      -3.230 -22.499  15.751  1.00  0.00     0.000 C 
BRANCH  17  18
ATOM     18  C   UNL     1      -4.353 -22.921  16.716  1.00  0.00     0.000 C 
BRANCH  18  19
ATOM     19  C   UNL     1      -5.654 -22.102  16.602  1.00  0.00     0.000 C 
BRANCH  19  20
ATOM     20  C   UNL     1      -6.619 -22.344  17.776  1.00  0.00     0.006 C 
BRANCH  20  21
ATOM     21  C   UNL     1      -7.902 -23.062  17.335  1.00  0.00     0.053 C 
BRANCH  21  22
ATOM     22  C   UNL     1      -9.127 -22.449  17.943  1.00  0.00     0.041 C 
ATOM     23  O   UNL     1     -10.273 -22.850  17.605  1.00  0.00    -0.550 OA
ATOM     24  O   UNL     1      -9.004 -21.433  18.884  1.00  0.00    -0.550 OA
ENDBRANCH  21  22
ENDBRANCH  20  21
ENDBRANCH  19  20
ENDBRANCH  18  19
ENDBRANCH  17  18
ENDBRANCH  16  17
ENDBRANCH  15  16
ENDBRANCH  14  15
ENDBRANCH  13  14
ENDBRANCH   1  13
TORSDOF 20
ENDMDL
MODEL 3
REMARK VINA RESULT:    -2.216      5.978     13.949
REMARK INTER + INTRA:          -5.669
REMARK INTER:                  -4.345
REMARK INTRA:                  -1.324
REMARK UNBOUND:                -0.861
REMARK SMILES CCCCCCCCCCCCCCCCCCCCCC(=O)[O-]
REMARK SMILES IDX 12 1 11 2 10 3 9 4 8 5 7 6 6 7 5 8 4 9 3 10 2 11 1 12 13 13
REMARK SMILES IDX 14 14 15 15 16 16 17 17 18 18 19 19 20 20 21 21 22 22 23 23
REMARK SMILES IDX 24 24
REMARK H PARENT
REMARK Flexibility Score: inf
ROOT
ATOM      1  C   UNL     1       0.596 -21.630  16.776  1.00  0.00     0.000 C 
ENDROOT
BRANCH   1   2
ATOM      2  C   UNL     1       2.129 -21.496  16.639  1.00  0.00     0.000 C 
BRANCH   2   3
ATOM      3  C   UNL     1       2.760 -22.663  15.859  1.00  0.00     0.000 C 
BRANCH   3   4
ATOM      4  C   UNL     1       4.221 -22.923  16.290  1.00  0.00    -0.000 C 
BRANCH   4   5
ATOM      5  C   UNL     1       4.923 -21.673  16.847  1.00  0.00    -0.000 C 
BRANCH   5   6
ATOM      6  C   UNL     1       6.084 -22.022  17.793  1.00  0.00    -0.000 C 
BRANCH   6   7
ATOM      7  C   UNL     1       7.241 -22.742  17.076  1.00  0.00    -0.000 C 
BRANCH   7   8
ATOM      8  C   UNL     1       8.422 -21.841  16.671  1.00  0.00    -0.000 C 
BRANCH   8   9
ATOM      9  C   UNL     1       8.263 -21.239  15.267  1.00  0.00    -0.000 C 
BRANCH   9  10
ATOM     10  C   UNL     1       8.100 -22.344  14.213  1.00  0.00    -0.000 C 
BRANCH  10  11
ATOM     11  C   UNL     1       7.158 -21.934  13.068  1.00  0.00    -0.003 C 
ATOM     12  C   UNL     1       5.898 -22.796  12.999  1.00  0.00     0.004 C 
ENDBRANCH  10  11
ENDBRANCH   9  10
ENDBRANCH   8   9
ENDBRANCH   7   8
ENDBRANCH   6   7
ENDBRANCH   5   6
ENDBRANCH   4   5
ENDBRANCH   3   4
ENDBRANCH   2   3
ENDBRANCH   1   2
BRANCH   1  13
ATOM     13  C   UNL     1      -0.020 -22.745  15.907  1.00  0.00     0.000 C 
BRANCH  13  14
ATOM     14  C   UNL     1      -1.469 -23.125  16.260  1.00  0.00     0.000 C 
BRANCH  14  15
ATOM     15  C   UNL     1      -2.512 -22.015  16.024  1.00  0.00     0.000 C 
BRANCH  15  16
ATOM     16  C   UNL     1      -3.947 -22.540  15.804  1.00  0.00     0.000 C 
BRANCH  16  17
ATOM     17  C   UNL     1      -4.688 -22.797  17.128  1.00  0.00     0.000 C 
BRANCH  17  18
ATOM     18  C   UNL     1      -6.197 -22.505  17.039  1.00  0.00     0.000 C 
BRANCH  18  19
ATOM     19  C   UNL     1      -7.029 -22.993  18.241  1.00  0.00     0.000 C 
BRANCH  19  20
ATOM     20  C   UNL     1      -8.526 -22.659  18.110  1.00  0.00     0.006 C 
BRANCH  20  21
ATOM     21  C   UNL     1      -8.857 -21.259  18.643  1.00  0.00     0.053 C 
BRANCH  21  22
ATOM     22  C   UNL     1     -10.219 -21.203  19.267  1.00  0.00     0.041 C 
ATOM     23  O   UNL     1     -10.648 -20.126  19.760  1.00  0.00    -0.550 OA
ATOM     24  O   UNL     1     -11.016 -22.341  19.303  1.00  0.00    -0.550 OA
ENDBRANCH  21  22
ENDBRANCH  20  21
ENDBRANCH  19  20
ENDBRANCH  18  19
ENDBRANCH  17  18
ENDBRANCH  16  17
ENDBRANCH  15  16
ENDBRANCH  14  15
ENDBRANCH  13  14
ENDBRANCH   1  13
TORSDOF 20
ENDMDL
MODEL 4
REMARK VINA RESULT:    -2.207      5.243     13.733
REMARK INTER + INTRA:          -5.649
REMARK INTER:                  -5.089
REMARK INTRA:                  -0.560
REMARK UNBOUND:                -0.861
REMARK SMILES CCCCCCCCCCCCCCCCCCCCCC(=O)[O-]
REMARK SMILES IDX 12 1 11 2 10 3 9 4 8 5 7 6 6 7 5 8 4 9 3 10 2 11 1 12 13 13
REMARK SMILES IDX 14 14 15 15 16 16 17 17 18 18 19 19 20 20 21 21 22 22 23 23
REMARK SMILES IDX 24 24
REMARK H PARENT
REMARK Flexibility Score: inf
ROOT
ATOM      1  C   UNL     1       3.629 -23.038  15.779  1.00  0.00     0.000 C 
ENDROOT
BRANCH   1   2
ATOM      2  C   UNL     1       3.829 -22.938  14.251  1.00  0.00     0.000 C 
BRANCH   2   3
ATOM      3  C   UNL     1       5.297 -23.125  13.830  1.00  0.00     0.000 C 
BRANCH   3   4
ATOM      4  C   UNL     1       5.464 -23.113  12.294  1.00  0.00    -0.000 C 
BRANCH   4   5
ATOM      5  C   UNL     1       6.292 -21.924  11.781  1.00  0.00    -0.000 C 
BRANCH   5   6
ATOM      6  C   UNL     1       7.585 -21.716  12.588  1.00  0.00    -0.000 C 
BRANCH   6   7
ATOM      7  C   UNL     1       8.049 -22.994  13.310  1.00  0.00    -0.000 C 
BRANCH   7   8
ATOM      8  C   UNL     1       8.886 -22.761  14.580  1.00  0.00    -0.000 C 
BRANCH   8   9
ATOM      9  C   UNL     1       8.900 -21.292  15.028  1.00  0.00    -0.000 C 
BRANCH   9  10
ATOM     10  C   UNL     1       7.875 -21.051  16.146  1.00  0.00    -0.000 C 
BRANCH  10  11
ATOM     11  C   UNL     1       7.732 -22.259  17.087  1.00  0.00    -0.003 C 
ATOM     12  C   UNL     1       6.605 -22.087  18.105  1.00  0.00     0.004 C 
ENDBRANCH  10  11
ENDBRANCH   9  10
ENDBRANCH   8   9
ENDBRANCH   7   8
ENDBRANCH   6   7
ENDBRANCH   5   6
ENDBRANCH   4   5
ENDBRANCH   3   4
ENDBRANCH   2   3
ENDBRANCH   1   2
BRANCH   1  13
ATOM     13  C   UNL     1       2.340 -22.366  16.292  1.00  0.00     0.000 C 
BRANCH  13  14
ATOM     14  C   UNL     1       1.031 -23.070  15.896  1.00  0.00     0.000 C 
BRANCH  14  15
ATOM     15  C   UNL     1      -0.259 -22.339  16.317  1.00  0.00     0.000 C 
BRANCH  15  16
ATOM     16  C   UNL     1      -1.554 -23.107  15.975  1.00  0.00     0.000 C 
BRANCH  16  17
ATOM     17  C   UNL     1      -2.803 -22.209  16.037  1.00  0.00     0.000 C 
BRANCH  17  18
ATOM     18  C   UNL     1      -4.070 -22.970  16.469  1.00  0.00     0.000 C 
BRANCH  18  19
ATOM     19  C   UNL     1      -5.362 -22.131  16.486  1.00  0.00     0.000 C 
BRANCH  19  20
ATOM     20  C   UNL     1      -6.609 -22.957  16.849  1.00  0.00     0.006 C 
BRANCH  20  21
ATOM     21  C   UNL     1      -7.455 -22.283  17.938  1.00  0.00     0.053 C 
BRANCH  21  22
ATOM     22  C   UNL     1      -8.784 -21.827  17.415  1.00  0.00     0.041 C 
ATOM     23  O   UNL     1      -9.807 -21.878  18.148  1.00  0.00    -0.550 OA
ATOM     24  O   UNL     1      -8.892 -21.343  16.116  1.00  0.00    -0.550 OA
ENDBRANCH  21  22
ENDBRANCH  20  21
ENDBRANCH  19  20
ENDBRANCH  18  19
ENDBRANCH  17  18
ENDBRANCH  16  17
ENDBRANCH  15  16
ENDBRANCH  14  15
ENDBRANCH  13  14
ENDBRANCH   1  13
TORSDOF 20
ENDMDL
MODEL 5
REMARK VINA RESULT:    -2.154      2.133      3.643
REMARK INTER + INTRA:          -5.534
REMARK INTER:                  -4.890
REMARK INTRA:                  -0.644
REMARK UNBOUND:                -0.861
REMARK SMILES CCCCCCCCCCCCCCCCCCCCCC(=O)[O-]
REMARK SMILES IDX 12 1 11 2 10 3 9 4 8 5 7 6 6 7 5 8 4 9 3 10 2 11 1 12 13 13
REMARK SMILES IDX 14 14 15 15 16 16 17 17 18 18 19 19 20 20 21 21 22 22 23 23
REMARK SMILES IDX 24 24
REMARK H PARENT
REMARK Flexibility Score: inf
ROOT
ATOM      1  C   UNL     1       1.309 -22.805  15.267  1.00  0.00     0.000 C 
ENDROOT
BRANCH   1   2
ATOM      2  C   UNL     1       0.281 -22.244  16.273  1.00  0.00     0.000 C 
BRANCH   2   3
ATOM      3  C   UNL     1      -1.036 -23.038  16.283  1.00  0.00     0.000 C 
BRANCH   3   4
ATOM      4  C   UNL     1      -2.254 -22.135  16.582  1.00  0.00    -0.000 C 
BRANCH   4   5
ATOM      5  C   UNL     1      -3.475 -22.448  15.702  1.00  0.00    -0.000 C 
BRANCH   5   6
ATOM      6  C   UNL     1      -4.689 -22.912  16.523  1.00  0.00    -0.000 C 
BRANCH   6   7
ATOM      7  C   UNL     1      -5.916 -22.000  16.343  1.00  0.00    -0.000 C 
BRANCH   7   8
ATOM      8  C   UNL     1      -7.246 -22.733  16.089  1.00  0.00    -0.000 C 
BRANCH   8   9
ATOM      9  C   UNL     1      -7.988 -23.092  17.385  1.00  0.00    -0.000 C 
BRANCH   9  10
ATOM     10  C   UNL     1      -8.009 -21.900  18.353  1.00  0.00    -0.000 C 
BRANCH  10  11
ATOM     11  C   UNL     1      -9.120 -22.017  19.410  1.00  0.00    -0.003 C 
ATOM     12  C   UNL     1      -9.649 -20.658  19.867  1.00  0.00     0.004 C 
ENDBRANCH  10  11
ENDBRANCH   9  10
ENDBRANCH   8   9
ENDBRANCH   7   8
ENDBRANCH   6   7
ENDBRANCH   5   6
ENDBRANCH   4   5
ENDBRANCH   3   4
ENDBRANCH   2   3
ENDBRANCH   1   2
BRANCH   1  13
ATOM     13  C   UNL     1       2.777 -22.655  15.714  1.00  0.00     0.000 C 
BRANCH  13  14
ATOM     14  C   UNL     1       3.826 -23.062  14.665  1.00  0.00     0.000 C 
BRANCH  14  15
ATOM     15  C   UNL     1       5.277 -23.125  15.182  1.00  0.00     0.000 C 
BRANCH  15  16
ATOM     16  C   UNL     1       6.340 -22.834  14.101  1.00  0.00     0.000 C 
BRANCH  16  17
ATOM     17  C   UNL     1       7.621 -22.215  14.688  1.00  0.00     0.000 C 
BRANCH  17  18
ATOM     18  C   UNL     1       8.897 -22.660  13.950  1.00  0.00     0.000 C 
BRANCH  18  19
ATOM     19  C   UNL     1       8.789 -22.681  12.412  1.00  0.00     0.000 C 
BRANCH  19  20
ATOM     20  C   UNL     1       8.808 -21.273  11.791  1.00  0.00     0.006 C 
BRANCH  20  21
ATOM     21  C   UNL     1       7.403 -20.787  11.411  1.00  0.00     0.053 C 
BRANCH  21  22
ATOM     22  C   UNL     1       7.424 -19.891  10.209  1.00  0.00     0.041 C 
ATOM     23  O   UNL     1       6.514 -19.038  10.037  1.00  0.00    -0.550 OA
ATOM     24  O   UNL     1       8.451 -19.998   9.278  1.00  0.00    -0.550 OA
ENDBRANCH  21  22
ENDBRANCH  20  21
ENDBRANCH  19  20
ENDBRANCH  18  19
ENDBRANCH  17  18
ENDBRANCH  16  17
ENDBRANCH  15  16
ENDBRANCH  14  15
ENDBRANCH  13  14
ENDBRANCH   1  13
TORSDOF 20
ENDMDL
MODEL 6
REMARK VINA RESULT:    -1.908      5.639     14.149
REMARK INTER + INTRA:          -5.001
REMARK INTER:                  -4.085
REMARK INTRA:                  -0.916
REMARK UNBOUND:                -0.861
REMARK SMILES CCCCCCCCCCCCCCCCCCCCCC(=O)[O-]
REMARK SMILES IDX 12 1 11 2 10 3 9 4 8 5 7 6 6 7 5 8 4 9 3 10 2 11 1 12 13 13
REMARK SMILES IDX 14 14 15 15 16 16 17 17 18 18 19 19 20 20 21 21 22 22 23 23
REMARK SMILES IDX 24 24
REMARK H PARENT
REMARK Flexibility Score: inf
ROOT
ATOM      1  C   UNL     1      -0.756 -22.458  16.365  1.00  0.00     0.000 C 
ENDROOT
BRANCH   1   2
ATOM      2  C   UNL     1       0.265 -23.125  15.417  1.00  0.00     0.000 C 
BRANCH   2   3
ATOM      3  C   UNL     1       1.712 -23.016  15.930  1.00  0.00     0.000 C 
BRANCH   3   4
ATOM      4  C   UNL     1       2.091 -21.560  16.283  1.00  0.00    -0.000 C 
BRANCH   4   5
ATOM      5  C   UNL     1       3.381 -21.451  17.112  1.00  0.00    -0.000 C 
BRANCH   5   6
ATOM      6  C   UNL     1       4.511 -22.338  16.561  1.00  0.00    -0.000 C 
BRANCH   6   7
ATOM      7  C   UNL     1       5.792 -22.269  17.413  1.00  0.00    -0.000 C 
BRANCH   7   8
ATOM      8  C   UNL     1       7.037 -21.738  16.681  1.00  0.00    -0.000 C 
BRANCH   8   9
ATOM      9  C   UNL     1       7.677 -22.781  15.753  1.00  0.00    -0.000 C 
BRANCH   9  10
ATOM     10  C   UNL     1       8.574 -22.106  14.705  1.00  0.00    -0.000 C 
BRANCH  10  11
ATOM     11  C   UNL     1       8.750 -20.600  14.961  1.00  0.00    -0.003 C 
ATOM     12  C   UNL     1       9.015 -19.808  13.680  1.00  0.00     0.004 C 
ENDBRANCH  10  11
ENDBRANCH   9  10
ENDBRANCH   8   9
ENDBRANCH   7   8
ENDBRANCH   6   7
ENDBRANCH   5   6
ENDBRANCH   4   5
ENDBRANCH   3   4
ENDBRANCH   2   3
ENDBRANCH   1   2
BRANCH   1  13
ATOM     13  C   UNL     1      -2.146 -23.125  16.367  1.00  0.00     0.000 C 
BRANCH  13  14
ATOM     14  C   UNL     1      -3.327 -22.179  16.092  1.00  0.00     0.000 C 
BRANCH  14  15
ATOM     15  C   UNL     1      -4.662 -22.592  16.743  1.00  0.00     0.000 C 
BRANCH  15  16
ATOM     16  C   UNL     1      -5.910 -22.141  15.954  1.00  0.00     0.000 C 
BRANCH  16  17
ATOM     17  C   UNL     1      -7.213 -22.351  16.746  1.00  0.00     0.000 C 
BRANCH  17  18
ATOM     18  C   UNL     1      -6.972 -22.576  18.250  1.00  0.00     0.000 C 
BRANCH  18  19
ATOM     19  C   UNL     1      -8.245 -22.602  19.119  1.00  0.00     0.000 C 
BRANCH  19  20
ATOM     20  C   UNL     1      -9.079 -21.314  18.999  1.00  0.00     0.006 C 
BRANCH  20  21
ATOM     21  C   UNL     1     -10.440 -21.564  18.335  1.00  0.00     0.053 C 
BRANCH  21  22
ATOM     22  C   UNL     1     -10.739 -20.554  17.268  1.00  0.00     0.041 C 
ATOM     23  O   UNL     1     -10.674 -20.876  16.052  1.00  0.00    -0.550 OA
ATOM     24  O   UNL     1     -11.091 -19.255  17.619  1.00  0.00    -0.550 OA
ENDBRANCH  21  22
ENDBRANCH  20  21
ENDBRANCH  19  20
ENDBRANCH  18  19
ENDBRANCH  17  18
ENDBRANCH  16  17
ENDBRANCH  15  16
ENDBRANCH  14  15
ENDBRANCH  13  14
ENDBRANCH   1  13
TORSDOF 20
ENDMDL
MODEL 7
REMARK VINA RESULT:    -1.644      1.885      3.962
REMARK INTER + INTRA:          -4.428
REMARK INTER:                  -3.396
REMARK INTRA:                  -1.032
REMARK UNBOUND:                -0.861
REMARK SMILES CCCCCCCCCCCCCCCCCCCCCC(=O)[O-]
REMARK SMILES IDX 12 1 11 2 10 3 9 4 8 5 7 6 6 7 5 8 4 9 3 10 2 11 1 12 13 13
REMARK SMILES IDX 14 14 15 15 16 16 17 17 18 18 19 19 20 20 21 21 22 22 23 23
REMARK SMILES IDX 24 24
REMARK H PARENT
REMARK Flexibility Score: inf
ROOT
ATOM      1  C   UNL     1      -4.684 -22.855  17.051  1.00  0.00     0.000 C 
ENDROOT
BRANCH   1   2
ATOM      2  C   UNL     1      -5.988 -22.563  16.278  1.00  0.00     0.000 C 
BRANCH   2   3
ATOM      3  C   UNL     1      -7.248 -22.781  17.134  1.00  0.00     0.000 C 
BRANCH   3   4
ATOM      4  C   UNL     1      -8.327 -21.709  16.859  1.00  0.00    -0.000 C 
BRANCH   4   5
ATOM      5  C   UNL     1      -9.632 -21.945  17.636  1.00  0.00    -0.000 C 
BRANCH   5   6
ATOM      6  C   UNL     1      -9.502 -23.070  18.676  1.00  0.00    -0.000 C 
BRANCH   6   7
ATOM      7  C   UNL     1     -10.675 -23.100  19.672  1.00  0.00    -0.000 C 
BRANCH   7   8
ATOM      8  C   UNL     1     -10.278 -23.004  21.156  1.00  0.00    -0.000 C 
BRANCH   8   9
ATOM      9  C   UNL     1      -9.373 -21.799  21.457  1.00  0.00    -0.000 C 
BRANCH   9  10
ATOM     10  C   UNL     1     -10.158 -20.688  22.169  1.00  0.00    -0.000 C 
BRANCH  10  11
ATOM     11  C   UNL     1     -10.933 -19.791  21.189  1.00  0.00    -0.003 C 
ATOM     12  C   UNL     1     -10.144 -19.482  19.917  1.00  0.00     0.004 C 
ENDBRANCH  10  11
ENDBRANCH   9  10
ENDBRANCH   8   9
ENDBRANCH   7   8
ENDBRANCH   6   7
ENDBRANCH   5   6
ENDBRANCH   4   5
ENDBRANCH   3   4
ENDBRANCH   2   3
ENDBRANCH   1   2
BRANCH   1  13
ATOM     13  C   UNL     1      -3.463 -23.125  16.149  1.00  0.00     0.000 C 
BRANCH  13  14
ATOM     14  C   UNL     1      -2.377 -22.035  16.172  1.00  0.00     0.000 C 
BRANCH  14  15
ATOM     15  C   UNL     1      -1.006 -22.488  16.711  1.00  0.00     0.000 C 
BRANCH  15  16
ATOM     16  C   UNL     1      -0.069 -23.068  15.630  1.00  0.00     0.000 C 
BRANCH  16  17
ATOM     17  C   UNL     1       1.376 -22.557  15.771  1.00  0.00     0.000 C 
BRANCH  17  18
ATOM     18  C   UNL     1       2.239 -22.846  14.528  1.00  0.00     0.000 C 
BRANCH  18  19
ATOM     19  C   UNL     1       3.745 -23.022  14.805  1.00  0.00     0.000 C 
BRANCH  19  20
ATOM     20  C   UNL     1       4.085 -23.006  16.307  1.00  0.00     0.006 C 
BRANCH  20  21
ATOM     21  C   UNL     1       5.069 -21.885  16.667  1.00  0.00     0.053 C 
BRANCH  21  22
ATOM     22  C   UNL     1       6.491 -22.358  16.647  1.00  0.00     0.041 C 
ATOM     23  O   UNL     1       6.968 -22.895  15.611  1.00  0.00    -0.550 OA
ATOM     24  O   UNL     1       7.292 -22.205  17.773  1.00  0.00    -0.550 OA
ENDBRANCH  21  22
ENDBRANCH  20  21
ENDBRANCH  19  20
ENDBRANCH  18  19
ENDBRANCH  17  18
ENDBRANCH  16  17
ENDBRANCH  15  16
ENDBRANCH  14  15
ENDBRANCH  13  14
ENDBRANCH   1  13
TORSDOF 20
ENDMDL
MODEL 8
REMARK VINA RESULT:    -1.514      5.812     14.173
REMARK INTER + INTRA:          -4.145
REMARK INTER:                  -3.361
REMARK INTRA:                  -0.785
REMARK UNBOUND:                -0.861
REMARK SMILES CCCCCCCCCCCCCCCCCCCCCC(=O)[O-]
REMARK SMILES IDX 12 1 11 2 10 3 9 4 8 5 7 6 6 7 5 8 4 9 3 10 2 11 1 12 13 13
REMARK SMILES IDX 14 14 15 15 16 16 17 17 18 18 19 19 20 20 21 21 22 22 23 23
REMARK SMILES IDX 24 24
REMARK H PARENT
REMARK Flexibility Score: inf
ROOT
ATOM      1  C   UNL     1       0.718 -22.817  15.626  1.00  0.00     0.000 C 
ENDROOT
BRANCH   1   2
ATOM      2  C   UNL     1       2.009 -22.040  15.964  1.00  0.00     0.000 C 
BRANCH   2   3
ATOM      3  C   UNL     1       3.266 -22.925  15.912  1.00  0.00     0.000 C 
BRANCH   3   4
ATOM      4  C   UNL     1       3.978 -22.838  14.543  1.00  0.00    -0.000 C 
BRANCH   4   5
ATOM      5  C   UNL     1       5.486 -23.125  14.621  1.00  0.00    -0.000 C 
BRANCH   5   6
ATOM      6  C   UNL     1       6.289 -22.345  13.566  1.00  0.00    -0.000 C 
BRANCH   6   7
ATOM      7  C   UNL     1       7.566 -21.705  14.141  1.00  0.00    -0.000 C 
BRANCH   7   8
ATOM      8  C   UNL     1       8.590 -21.235  13.093  1.00  0.00    -0.000 C 
BRANCH   8   9
ATOM      9  C   UNL     1       8.113 -21.449  11.649  1.00  0.00    -0.000 C 
BRANCH   9  10
ATOM     10  C   UNL     1       7.959 -20.107  10.918  1.00  0.00    -0.000 C 
BRANCH  10  11
ATOM     11  C   UNL     1       6.687 -20.047  10.055  1.00  0.00    -0.003 C 
ATOM     12  C   UNL     1       6.733 -18.933   9.009  1.00  0.00     0.004 C 
ENDBRANCH  10  11
ENDBRANCH   9  10
ENDBRANCH   8   9
ENDBRANCH   7   8
ENDBRANCH   6   7
ENDBRANCH   5   6
ENDBRANCH   4   5
ENDBRANCH   3   4
ENDBRANCH   2   3
ENDBRANCH   1   2
BRANCH   1  13
ATOM     13  C   UNL     1      -0.372 -22.735  16.714  1.00  0.00     0.000 C 
BRANCH  13  14
ATOM     14  C   UNL     1      -1.701 -22.104  16.265  1.00  0.00     0.000 C 
BRANCH  14  15
ATOM     15  C   UNL     1      -2.873 -23.091  16.105  1.00  0.00     0.000 C 
BRANCH  15  16
ATOM     16  C   UNL     1      -4.211 -22.574  16.675  1.00  0.00     0.000 C 
BRANCH  16  17
ATOM     17  C   UNL     1      -4.924 -21.607  15.713  1.00  0.00     0.000 C 
BRANCH  17  18
ATOM     18  C   UNL     1      -6.459 -21.713  15.782  1.00  0.00     0.000 C 
BRANCH  18  19
ATOM     19  C   UNL     1      -6.995 -22.941  16.544  1.00  0.00     0.000 C 
BRANCH  19  20
ATOM     20  C   UNL     1      -7.889 -22.562  17.739  1.00  0.00     0.006 C 
BRANCH  20  21
ATOM     21  C   UNL     1      -9.061 -21.662  17.324  1.00  0.00     0.053 C 
BRANCH  21  22
ATOM     22  C   UNL     1     -10.000 -21.402  18.464  1.00  0.00     0.041 C 
ATOM     23  O   UNL     1      -9.862 -20.374  19.178  1.00  0.00    -0.550 OA
ATOM     24  O   UNL     1     -11.029 -22.296  18.736  1.00  0.00    -0.550 OA
ENDBRANCH  21  22
ENDBRANCH  20  21
ENDBRANCH  19  20
ENDBRANCH  18  19
ENDBRANCH  17  18
ENDBRANCH  16  17
ENDBRANCH  15  16
ENDBRANCH  14  15
ENDBRANCH  13  14
ENDBRANCH   1  13
TORSDOF 20
ENDMDL
MODEL 9
REMARK VINA RESULT:    -1.029      1.503      2.187
REMARK INTER + INTRA:          -3.095
REMARK INTER:                  -2.119
REMARK INTRA:                  -0.976
REMARK UNBOUND:                -0.861
REMARK SMILES CCCCCCCCCCCCCCCCCCCCCC(=O)[O-]
REMARK SMILES IDX 12 1 11 2 10 3 9 4 8 5 7 6 6 7 5 8 4 9 3 10 2 11 1 12 13 13
REMARK SMILES IDX 14 14 15 15 16 16 17 17 18 18 19 19 20 20 21 21 22 22 23 23
REMARK SMILES IDX 24 24
REMARK H PARENT
REMARK Flexibility Score: inf
ROOT
ATOM      1  C   UNL     1      -2.915 -22.325  16.114  1.00  0.00     0.000 C 
ENDROOT
BRANCH   1   2
ATOM      2  C   UNL     1      -3.716 -23.082  17.196  1.00  0.00     0.000 C 
BRANCH   2   3
ATOM      3  C   UNL     1      -5.225 -23.125  16.897  1.00  0.00     0.000 C 
BRANCH   3   4
ATOM      4  C   UNL     1      -5.756 -21.758  16.410  1.00  0.00    -0.000 C 
BRANCH   4   5
ATOM      5  C   UNL     1      -7.292 -21.677  16.384  1.00  0.00    -0.000 C 
BRANCH   5   6
ATOM      6  C   UNL     1      -7.958 -23.004  16.782  1.00  0.00    -0.000 C 
BRANCH   6   7
ATOM      7  C   UNL     1      -9.029 -22.830  17.874  1.00  0.00    -0.000 C 
BRANCH   7   8
ATOM      8  C   UNL     1      -8.524 -22.224  19.196  1.00  0.00    -0.000 C 
BRANCH   8   9
ATOM      9  C   UNL     1      -9.635 -21.538  20.004  1.00  0.00    -0.000 C 
BRANCH   9  10
ATOM     10  C   UNL     1      -9.601 -20.016  19.800  1.00  0.00    -0.000 C 
BRANCH  10  11
ATOM     11  C   UNL     1     -10.875 -19.482  19.123  1.00  0.00    -0.003 C 
ATOM     12  C   UNL     1     -11.113 -17.997  19.395  1.00  0.00     0.004 C 
ENDBRANCH  10  11
ENDBRANCH   9  10
ENDBRANCH   8   9
ENDBRANCH   7   8
ENDBRANCH   6   7
ENDBRANCH   5   6
ENDBRANCH   4   5
ENDBRANCH   3   4
ENDBRANCH   2   3
ENDBRANCH   1   2
BRANCH   1  13
ATOM     13  C   UNL     1      -1.636 -23.052  15.651  1.00  0.00     0.000 C 
BRANCH  13  14
ATOM     14  C   UNL     1      -0.344 -22.624  16.367  1.00  0.00     0.000 C 
BRANCH  14  15
ATOM     15  C   UNL     1       0.960 -22.932  15.605  1.00  0.00     0.000 C 
BRANCH  15  16
ATOM     16  C   UNL     1       2.154 -22.045  16.020  1.00  0.00     0.000 C 
BRANCH  16  17
ATOM     17  C   UNL     1       3.500 -22.781  15.903  1.00  0.00     0.000 C 
BRANCH  17  18
ATOM     18  C   UNL     1       4.580 -22.210  16.840  1.00  0.00     0.000 C 
BRANCH  18  19
ATOM     19  C   UNL     1       6.024 -22.306  16.309  1.00  0.00     0.000 C 
BRANCH  19  20
ATOM     20  C   UNL     1       6.109 -22.961  14.919  1.00  0.00     0.006 C 
BRANCH  20  21
ATOM     21  C   UNL     1       7.530 -22.912  14.340  1.00  0.00     0.053 C 
BRANCH  21  22
ATOM     22  C   UNL     1       7.670 -21.858  13.283  1.00  0.00     0.041 C 
ATOM     23  O   UNL     1       8.607 -21.019  13.344  1.00  0.00    -0.550 OA
ATOM     24  O   UNL     1       6.765 -21.804  12.230  1.00  0.00    -0.550 OA
ENDBRANCH  21  22
ENDBRANCH  20  21
ENDBRANCH  19  20
ENDBRANCH  18  19
ENDBRANCH  17  18
ENDBRANCH  16  17
ENDBRANCH  15  16
ENDBRANCH  14  15
ENDBRANCH  13  14
ENDBRANCH   1  13
TORSDOF 20
ENDMDL
