MODEL 1
REMARK VINA RESULT:    -3.390      0.000      0.000
REMARK INTER + INTRA:          -9.366
REMARK INTER:                  -6.562
REMARK INTRA:                  -2.805
REMARK UNBOUND:                -2.805
REMARK SMILES CCCCCCCCCCCCCCCCCC(=O)[O-]
REMARK SMILES IDX 10 1 11 2 12 3 13 4 14 5 15 6 16 7 17 8 18 9 19 10 20 11
REMARK SMILES IDX 9 12 8 13 7 14 6 15 5 16 4 17 3 18 2 19 1 20
REMARK H PARENT
REMARK Flexibility Score: inf
ROOT
ATOM      1  C   UNL     1      -4.162 -66.885  -4.013  1.00  0.00     0.000 C 
ENDROOT
BRANCH   1   2
ATOM      2  C   UNL     1      -4.646 -65.426  -3.929  1.00  0.00     0.000 C 
BRANCH   2   3
ATOM      3  C   UNL     1      -3.800 -64.572  -2.970  1.00  0.00     0.000 C 
BRANCH   3   4
ATOM      4  C   UNL     1      -3.015 -63.469  -3.700  1.00  0.00     0.000 C 
BRANCH   4   5
ATOM      5  C   UNL     1      -3.081 -63.613  -5.231  1.00  0.00     0.000 C 
BRANCH   5   6
ATOM      6  C   UNL     1      -2.399 -62.445  -5.962  1.00  0.00     0.000 C 
BRANCH   6   7
ATOM      7  C   UNL     1      -1.777 -62.866  -7.303  1.00  0.00     0.006 C 
BRANCH   7   8
ATOM      8  C   UNL     1      -1.240 -64.299  -7.230  1.00  0.00     0.053 C 
BRANCH   8   9
ATOM      9  C   UNL     1       0.199 -64.299  -6.819  1.00  0.00     0.041 C 
ATOM     10  O   UNL     1       0.649 -65.221  -6.089  1.00  0.00    -0.550 OA
ATOM     11  O   UNL     1       1.031 -63.256  -7.202  1.00  0.00    -0.550 OA
ENDBRANCH   8   9
ENDBRANCH   7   8
ENDBRANCH   6   7
ENDBRANCH   5   6
ENDBRANCH   4   5
ENDBRANCH   3   4
ENDBRANCH   2   3
ENDBRANCH   1   2
BRANCH   1  12
ATOM     12  C   UNL     1      -3.548 -67.254  -5.379  1.00  0.00     0.000 C 
BRANCH  12  13
ATOM     13  C   UNL     1      -4.613 -67.354  -6.486  1.00  0.00    -0.000 C 
BRANCH  13  14
ATOM     14  C   UNL     1      -4.448 -66.270  -7.563  1.00  0.00    -0.000 C 
BRANCH  14  15
ATOM     15  C   UNL     1      -5.789 -65.643  -7.980  1.00  0.00    -0.000 C 
BRANCH  15  16
ATOM     16  C   UNL     1      -6.254 -64.533  -7.019  1.00  0.00    -0.000 C 
BRANCH  16  17
ATOM     17  C   UNL     1      -6.095 -63.100  -7.561  1.00  0.00    -0.000 C 
BRANCH  17  18
ATOM     18  C   UNL     1      -6.262 -62.027  -6.475  1.00  0.00    -0.000 C 
BRANCH  18  19
ATOM     19  C   UNL     1      -7.254 -62.485  -5.398  1.00  0.00    -0.003 C 
ATOM     20  C   UNL     1      -6.701 -62.233  -3.998  1.00  0.00     0.004 C 
ENDBRANCH  18  19
ENDBRANCH  17  18
ENDBRANCH  16  17
ENDBRANCH  15  16
ENDBRANCH  14  15
ENDBRANCH  13  14
ENDBRANCH  12  13
ENDBRANCH   1  12
TORSDOF 16
ENDMDL
MODEL 2
REMARK VINA RESULT:    -3.377     13.942     16.432
REMARK INTER + INTRA:          -9.340
REMARK INTER:                  -6.261
REMARK INTRA:                  -3.079
REMARK UNBOUND:                -2.805
REMARK SMILES CCCCCCCCCCCCCCCCCC(=O)[O-]
REMARK SMILES IDX 10 1 11 2 12 3 13 4 14 5 15 6 16 7 17 8 18 9 19 10 20 11
REMARK SMILES IDX 9 12 8 13 7 14 6 15 5 16 4 17 3 18 2 19 1 20
REMARK H PARENT
REMARK Flexibility Score: inf
ROOT
ATOM      1  C   UNL     1     -13.668 -75.786  -9.154  1.00  0.00     0.000 C 
ENDROOT
BRANCH   1   2
ATOM      2  C   UNL     1     -13.378 -76.638  -7.905  1.00  0.00     0.000 C 
BRANCH   2   3
ATOM      3  C   UNL     1     -14.413 -77.755  -7.692  1.00  0.00     0.000 C 
BRANCH   3   4
ATOM      4  C   UNL     1     -15.283 -77.522  -6.446  1.00  0.00     0.000 C 
BRANCH   4   5
ATOM      5  C   UNL     1     -16.178 -76.276  -6.575  1.00  0.00     0.000 C 
BRANCH   5   6
ATOM      6  C   UNL     1     -17.175 -76.385  -7.741  1.00  0.00     0.000 C 
BRANCH   6   7
ATOM      7  C   UNL     1     -17.568 -75.015  -8.315  1.00  0.00     0.006 C 
BRANCH   7   8
ATOM      8  C   UNL     1     -16.625 -73.919  -7.809  1.00  0.00     0.053 C 
BRANCH   8   9
ATOM      9  C   UNL     1     -17.335 -72.603  -7.749  1.00  0.00     0.041 C 
ATOM     10  O   UNL     1     -18.013 -72.204  -8.732  1.00  0.00    -0.550 OA
ATOM     11  O   UNL     1     -17.210 -71.796  -6.626  1.00  0.00    -0.550 OA
ENDBRANCH   8   9
ENDBRANCH   7   8
ENDBRANCH   6   7
ENDBRANCH   5   6
ENDBRANCH   4   5
ENDBRANCH   3   4
ENDBRANCH   2   3
ENDBRANCH   1   2
BRANCH   1  12
ATOM     12  C   UNL     1     -13.936 -76.621 -10.424  1.00  0.00     0.000 C 
BRANCH  12  13
ATOM     13  C   UNL     1     -15.209 -76.165 -11.159  1.00  0.00    -0.000 C 
BRANCH  13  14
ATOM     14  C   UNL     1     -14.995 -74.871 -11.960  1.00  0.00    -0.000 C 
BRANCH  14  15
ATOM     15  C   UNL     1     -15.897 -73.721 -11.478  1.00  0.00    -0.000 C 
BRANCH  15  16
ATOM     16  C   UNL     1     -15.099 -72.540 -10.895  1.00  0.00    -0.000 C 
BRANCH  16  17
ATOM     17  C   UNL     1     -13.602 -72.530 -11.254  1.00  0.00    -0.000 C 
BRANCH  17  18
ATOM     18  C   UNL     1     -12.698 -72.243 -10.046  1.00  0.00    -0.000 C 
BRANCH  18  19
ATOM     19  C   UNL     1     -11.444 -73.127 -10.077  1.00  0.00    -0.003 C 
ATOM     20  C   UNL     1     -11.373 -73.936 -11.369  1.00  0.00     0.004 C 
ENDBRANCH  18  19
ENDBRANCH  17  18
ENDBRANCH  16  17
ENDBRANCH  15  16
ENDBRANCH  14  15
ENDBRANCH  13  14
ENDBRANCH  12  13
ENDBRANCH   1  12
TORSDOF 16
ENDMDL
MODEL 3
REMARK VINA RESULT:    -3.359     12.360     14.807
REMARK INTER + INTRA:          -9.305
REMARK INTER:                  -7.191
REMARK INTRA:                  -2.113
REMARK UNBOUND:                -2.805
REMARK SMILES CCCCCCCCCCCCCCCCCC(=O)[O-]
REMARK SMILES IDX 10 1 11 2 12 3 13 4 14 5 15 6 16 7 17 8 18 9 19 10 20 11
REMARK SMILES IDX 9 12 8 13 7 14 6 15 5 16 4 17 3 18 2 19 1 20
REMARK H PARENT
REMARK Flexibility Score: inf
ROOT
ATOM      1  C   UNL     1     -16.379 -74.231  -8.791  1.00  0.00     0.000 C 
ENDROOT
BRANCH   1   2
ATOM      2  C   UNL     1     -15.742 -72.939  -9.333  1.00  0.00     0.000 C 
BRANCH   2   3
ATOM      3  C   UNL     1     -14.206 -72.999  -9.362  1.00  0.00     0.000 C 
BRANCH   3   4
ATOM      4  C   UNL     1     -13.661 -73.525 -10.701  1.00  0.00     0.000 C 
BRANCH   4   5
ATOM      5  C   UNL     1     -12.203 -74.006 -10.596  1.00  0.00     0.000 C 
BRANCH   5   6
ATOM      6  C   UNL     1     -11.446 -73.343  -9.434  1.00  0.00     0.000 C 
BRANCH   6   7
ATOM      7  C   UNL     1     -10.086 -72.769  -9.862  1.00  0.00     0.006 C 
BRANCH   7   8
ATOM      8  C   UNL     1      -9.793 -71.455  -9.131  1.00  0.00     0.053 C 
BRANCH   8   9
ATOM      9  C   UNL     1      -8.336 -71.349  -8.808  1.00  0.00     0.041 C 
ATOM     10  O   UNL     1      -7.939 -71.475  -7.619  1.00  0.00    -0.550 OA
ATOM     11  O   UNL     1      -7.420 -71.063  -9.813  1.00  0.00    -0.550 OA
ENDBRANCH   8   9
ENDBRANCH   7   8
ENDBRANCH   6   7
ENDBRANCH   5   6
ENDBRANCH   4   5
ENDBRANCH   3   4
ENDBRANCH   2   3
ENDBRANCH   1   2
BRANCH   1  12
ATOM     12  C   UNL     1     -16.991 -74.075  -7.383  1.00  0.00     0.000 C 
BRANCH  12  13
ATOM     13  C   UNL     1     -17.246 -75.434  -6.708  1.00  0.00    -0.000 C 
BRANCH  13  14
ATOM     14  C   UNL     1     -16.363 -76.553  -7.284  1.00  0.00    -0.000 C 
BRANCH  14  15
ATOM     15  C   UNL     1     -15.216 -76.947  -6.338  1.00  0.00    -0.000 C 
BRANCH  15  16
ATOM     16  C   UNL     1     -13.916 -77.291  -7.087  1.00  0.00    -0.000 C 
BRANCH  16  17
ATOM     17  C   UNL     1     -13.796 -76.677  -8.494  1.00  0.00    -0.000 C 
BRANCH  17  18
ATOM     18  C   UNL     1     -13.843 -77.727  -9.613  1.00  0.00    -0.000 C 
BRANCH  18  19
ATOM     19  C   UNL     1     -14.264 -77.093 -10.944  1.00  0.00    -0.003 C 
ATOM     20  C   UNL     1     -15.781 -77.120 -11.112  1.00  0.00     0.004 C 
ENDBRANCH  18  19
ENDBRANCH  17  18
ENDBRANCH  16  17
ENDBRANCH  15  16
ENDBRANCH  14  15
ENDBRANCH  13  14
ENDBRANCH  12  13
ENDBRANCH   1  12
TORSDOF 16
ENDMDL
MODEL 4
REMARK VINA RESULT:    -3.338      3.957      5.831
REMARK INTER + INTRA:          -9.265
REMARK INTER:                  -6.904
REMARK INTRA:                  -2.361
REMARK UNBOUND:                -2.805
REMARK SMILES CCCCCCCCCCCCCCCCCC(=O)[O-]
REMARK SMILES IDX 10 1 11 2 12 3 13 4 14 5 15 6 16 7 17 8 18 9 19 10 20 11
REMARK SMILES IDX 9 12 8 13 7 14 6 15 5 16 4 17 3 18 2 19 1 20
REMARK H PARENT
REMARK Flexibility Score: inf
ROOT
ATOM      1  C   UNL     1      -4.399 -66.459  -6.916  1.00  0.00     0.000 C 
ENDROOT
BRANCH   1   2
ATOM      2  C   UNL     1      -3.607 -66.445  -5.596  1.00  0.00     0.000 C 
BRANCH   2   3
ATOM      3  C   UNL     1      -4.240 -67.333  -4.512  1.00  0.00     0.000 C 
BRANCH   3   4
ATOM      4  C   UNL     1      -4.633 -66.539  -3.255  1.00  0.00     0.000 C 
BRANCH   4   5
ATOM      5  C   UNL     1      -4.362 -65.031  -3.401  1.00  0.00     0.000 C 
BRANCH   5   6
ATOM      6  C   UNL     1      -5.589 -64.175  -3.051  1.00  0.00     0.000 C 
BRANCH   6   7
ATOM      7  C   UNL     1      -6.230 -64.575  -1.713  1.00  0.00     0.006 C 
BRANCH   7   8
ATOM      8  C   UNL     1      -7.757 -64.626  -1.831  1.00  0.00     0.053 C 
BRANCH   8   9
ATOM      9  C   UNL     1      -8.377 -63.478  -1.098  1.00  0.00     0.041 C 
ATOM     10  O   UNL     1      -9.464 -63.633  -0.481  1.00  0.00    -0.550 OA
ATOM     11  O   UNL     1      -7.781 -62.224  -1.136  1.00  0.00    -0.550 OA
ENDBRANCH   8   9
ENDBRANCH   7   8
ENDBRANCH   6   7
ENDBRANCH   5   6
ENDBRANCH   4   5
ENDBRANCH   3   4
ENDBRANCH   2   3
ENDBRANCH   1   2
BRANCH   1  12
ATOM     12  C   UNL     1      -5.387 -65.282  -7.057  1.00  0.00     0.000 C 
BRANCH  12  13
ATOM     13  C   UNL     1      -4.706 -63.923  -6.813  1.00  0.00    -0.000 C 
BRANCH  13  14
ATOM     14  C   UNL     1      -5.627 -62.736  -7.139  1.00  0.00    -0.000 C 
BRANCH  14  15
ATOM     15  C   UNL     1      -6.205 -62.073  -5.877  1.00  0.00    -0.000 C 
BRANCH  15  16
ATOM     16  C   UNL     1      -7.694 -62.400  -5.659  1.00  0.00    -0.000 C 
BRANCH  16  17
ATOM     17  C   UNL     1      -8.455 -62.829  -6.927  1.00  0.00    -0.000 C 
BRANCH  17  18
ATOM     18  C   UNL     1      -9.024 -64.252  -6.832  1.00  0.00    -0.000 C 
BRANCH  18  19
ATOM     19  C   UNL     1      -8.910 -64.980  -8.177  1.00  0.00    -0.003 C 
ATOM     20  C   UNL     1      -8.335 -64.062  -9.253  1.00  0.00     0.004 C 
ENDBRANCH  18  19
ENDBRANCH  17  18
ENDBRANCH  16  17
ENDBRANCH  15  16
ENDBRANCH  14  15
ENDBRANCH  13  14
ENDBRANCH  12  13
ENDBRANCH   1  12
TORSDOF 16
ENDMDL
MODEL 5
REMARK VINA RESULT:    -3.263      2.374      4.210
REMARK INTER + INTRA:          -9.121
REMARK INTER:                  -6.980
REMARK INTRA:                  -2.140
REMARK UNBOUND:                -2.805
REMARK SMILES CCCCCCCCCCCCCCCCCC(=O)[O-]
REMARK SMILES IDX 10 1 11 2 12 3 13 4 14 5 15 6 16 7 17 8 18 9 19 10 20 11
REMARK SMILES IDX 9 12 8 13 7 14 6 15 5 16 4 17 3 18 2 19 1 20
REMARK H PARENT
REMARK Flexibility Score: inf
ROOT
ATOM      1  C   UNL     1      -4.040 -69.126  -9.653  1.00  0.00     0.000 C 
ENDROOT
BRANCH   1   2
ATOM      2  C   UNL     1      -4.149 -68.411 -11.011  1.00  0.00     0.000 C 
BRANCH   2   3
ATOM      3  C   UNL     1      -3.402 -67.067 -11.040  1.00  0.00     0.000 C 
BRANCH   3   4
ATOM      4  C   UNL     1      -4.336 -65.868 -10.807  1.00  0.00     0.000 C 
BRANCH   4   5
ATOM      5  C   UNL     1      -3.567 -64.549 -10.620  1.00  0.00     0.000 C 
BRANCH   5   6
ATOM      6  C   UNL     1      -2.635 -64.578  -9.397  1.00  0.00     0.000 C 
BRANCH   6   7
ATOM      7  C   UNL     1      -2.886 -63.409  -8.432  1.00  0.00     0.006 C 
BRANCH   7   8
ATOM      8  C   UNL     1      -1.668 -63.171  -7.533  1.00  0.00     0.053 C 
BRANCH   8   9
ATOM      9  C   UNL     1      -1.069 -64.475  -7.107  1.00  0.00     0.041 C 
ATOM     10  O   UNL     1      -1.683 -65.220  -6.298  1.00  0.00    -0.550 OA
ATOM     11  O   UNL     1       0.189 -64.845  -7.565  1.00  0.00    -0.550 OA
ENDBRANCH   8   9
ENDBRANCH   7   8
ENDBRANCH   6   7
ENDBRANCH   5   6
ENDBRANCH   4   5
ENDBRANCH   3   4
ENDBRANCH   2   3
ENDBRANCH   1   2
BRANCH   1  12
ATOM     12  C   UNL     1      -5.079 -68.646  -8.617  1.00  0.00     0.000 C 
BRANCH  12  13
ATOM     13  C   UNL     1      -4.564 -68.785  -7.173  1.00  0.00    -0.000 C 
BRANCH  13  14
ATOM     14  C   UNL     1      -4.402 -67.427  -6.472  1.00  0.00    -0.000 C 
BRANCH  14  15
ATOM     15  C   UNL     1      -5.058 -66.276  -7.254  1.00  0.00    -0.000 C 
BRANCH  15  16
ATOM     16  C   UNL     1      -5.375 -65.057  -6.369  1.00  0.00    -0.000 C 
BRANCH  16  17
ATOM     17  C   UNL     1      -6.505 -64.152  -6.893  1.00  0.00    -0.000 C 
BRANCH  17  18
ATOM     18  C   UNL     1      -7.111 -64.653  -8.212  1.00  0.00    -0.000 C 
BRANCH  18  19
ATOM     19  C   UNL     1      -8.635 -64.791  -8.098  1.00  0.00    -0.003 C 
ATOM     20  C   UNL     1      -9.135 -64.277  -6.751  1.00  0.00     0.004 C 
ENDBRANCH  18  19
ENDBRANCH  17  18
ENDBRANCH  16  17
ENDBRANCH  15  16
ENDBRANCH  14  15
ENDBRANCH  13  14
ENDBRANCH  12  13
ENDBRANCH   1  12
TORSDOF 16
ENDMDL
MODEL 6
REMARK VINA RESULT:    -3.246     13.402     15.560
REMARK INTER + INTRA:          -9.086
REMARK INTER:                  -6.952
REMARK INTRA:                  -2.135
REMARK UNBOUND:                -2.805
REMARK SMILES CCCCCCCCCCCCCCCCCC(=O)[O-]
REMARK SMILES IDX 10 1 11 2 12 3 13 4 14 5 15 6 16 7 17 8 18 9 19 10 20 11
REMARK SMILES IDX 9 12 8 13 7 14 6 15 5 16 4 17 3 18 2 19 1 20
REMARK H PARENT
REMARK Flexibility Score: inf
ROOT
ATOM      1  C   UNL     1     -14.614 -77.917  -7.395  1.00  0.00     0.000 C 
ENDROOT
BRANCH   1   2
ATOM      2  C   UNL     1     -13.601 -77.149  -8.262  1.00  0.00     0.000 C 
BRANCH   2   3
ATOM      3  C   UNL     1     -13.804 -77.388  -9.768  1.00  0.00     0.000 C 
BRANCH   3   4
ATOM      4  C   UNL     1     -14.371 -76.154 -10.489  1.00  0.00     0.000 C 
BRANCH   4   5
ATOM      5  C   UNL     1     -14.505 -74.936  -9.558  1.00  0.00     0.000 C 
BRANCH   5   6
ATOM      6  C   UNL     1     -14.145 -73.616 -10.259  1.00  0.00     0.000 C 
BRANCH   6   7
ATOM      7  C   UNL     1     -13.202 -72.738  -9.422  1.00  0.00     0.006 C 
BRANCH   7   8
ATOM      8  C   UNL     1     -11.982 -73.537  -8.954  1.00  0.00     0.053 C 
BRANCH   8   9
ATOM      9  C   UNL     1     -10.750 -73.079  -9.670  1.00  0.00     0.041 C 
ATOM     10  O   UNL     1     -10.416 -73.612 -10.761  1.00  0.00    -0.550 OA
ATOM     11  O   UNL     1      -9.944 -72.097  -9.109  1.00  0.00    -0.550 OA
ENDBRANCH   8   9
ENDBRANCH   7   8
ENDBRANCH   6   7
ENDBRANCH   5   6
ENDBRANCH   4   5
ENDBRANCH   3   4
ENDBRANCH   2   3
ENDBRANCH   1   2
BRANCH   1  12
ATOM     12  C   UNL     1     -15.315 -77.037  -6.338  1.00  0.00     0.000 C 
BRANCH  12  13
ATOM     13  C   UNL     1     -16.777 -76.735  -6.712  1.00  0.00    -0.000 C 
BRANCH  13  14
ATOM     14  C   UNL     1     -16.998 -75.259  -7.080  1.00  0.00    -0.000 C 
BRANCH  14  15
ATOM     15  C   UNL     1     -17.660 -74.460  -5.944  1.00  0.00    -0.000 C 
BRANCH  15  16
ATOM     16  C   UNL     1     -17.684 -72.945  -6.215  1.00  0.00    -0.000 C 
BRANCH  16  17
ATOM     17  C   UNL     1     -17.031 -72.513  -7.541  1.00  0.00    -0.000 C 
BRANCH  17  18
ATOM     18  C   UNL     1     -18.052 -72.038  -8.585  1.00  0.00    -0.000 C 
BRANCH  18  19
ATOM     19  C   UNL     1     -17.464 -72.109 -10.000  1.00  0.00    -0.003 C 
ATOM     20  C   UNL     1     -17.962 -73.347 -10.742  1.00  0.00     0.004 C 
ENDBRANCH  18  19
ENDBRANCH  17  18
ENDBRANCH  16  17
ENDBRANCH  15  16
ENDBRANCH  14  15
ENDBRANCH  13  14
ENDBRANCH  12  13
ENDBRANCH   1  12
TORSDOF 16
ENDMDL
MODEL 7
REMARK VINA RESULT:    -3.188      2.932      5.237
REMARK INTER + INTRA:          -8.974
REMARK INTER:                  -6.489
REMARK INTRA:                  -2.485
REMARK UNBOUND:                -2.805
REMARK SMILES CCCCCCCCCCCCCCCCCC(=O)[O-]
REMARK SMILES IDX 10 1 11 2 12 3 13 4 14 5 15 6 16 7 17 8 18 9 19 10 20 11
REMARK SMILES IDX 9 12 8 13 7 14 6 15 5 16 4 17 3 18 2 19 1 20
REMARK H PARENT
REMARK Flexibility Score: inf
ROOT
ATOM      1  C   UNL     1      -4.530 -64.291  -6.788  1.00  0.00     0.000 C 
ENDROOT
BRANCH   1   2
ATOM      2  C   UNL     1      -5.291 -65.456  -7.445  1.00  0.00     0.000 C 
BRANCH   2   3
ATOM      3  C   UNL     1      -4.782 -66.833  -6.986  1.00  0.00     0.000 C 
BRANCH   3   4
ATOM      4  C   UNL     1      -3.879 -66.745  -5.745  1.00  0.00     0.000 C 
BRANCH   4   5
ATOM      5  C   UNL     1      -4.375 -67.635  -4.591  1.00  0.00     0.000 C 
BRANCH   5   6
ATOM      6  C   UNL     1      -4.674 -66.831  -3.315  1.00  0.00     0.000 C 
BRANCH   6   7
ATOM      7  C   UNL     1      -4.026 -65.438  -3.325  1.00  0.00     0.006 C 
BRANCH   7   8
ATOM      8  C   UNL     1      -4.817 -64.461  -2.450  1.00  0.00     0.053 C 
BRANCH   8   9
ATOM      9  C   UNL     1      -4.196 -64.353  -1.092  1.00  0.00     0.041 C 
ATOM     10  O   UNL     1      -4.891 -64.545  -0.060  1.00  0.00    -0.550 OA
ATOM     11  O   UNL     1      -2.861 -63.992  -0.965  1.00  0.00    -0.550 OA
ENDBRANCH   8   9
ENDBRANCH   7   8
ENDBRANCH   6   7
ENDBRANCH   5   6
ENDBRANCH   4   5
ENDBRANCH   3   4
ENDBRANCH   2   3
ENDBRANCH   1   2
BRANCH   1  12
ATOM     12  C   UNL     1      -5.430 -63.089  -6.430  1.00  0.00     0.000 C 
BRANCH  12  13
ATOM     13  C   UNL     1      -6.689 -63.518  -5.657  1.00  0.00    -0.000 C 
BRANCH  13  14
ATOM     14  C   UNL     1      -7.827 -62.490  -5.767  1.00  0.00    -0.000 C 
BRANCH  14  15
ATOM     15  C   UNL     1      -8.911 -62.915  -6.773  1.00  0.00    -0.000 C 
BRANCH  15  16
ATOM     16  C   UNL     1      -8.970 -64.440  -6.978  1.00  0.00    -0.000 C 
BRANCH  16  17
ATOM     17  C   UNL     1      -8.827 -64.902  -8.440  1.00  0.00    -0.000 C 
BRANCH  17  18
ATOM     18  C   UNL     1      -8.721 -63.734  -9.431  1.00  0.00    -0.000 C 
BRANCH  18  19
ATOM     19  C   UNL     1      -7.255 -63.398  -9.730  1.00  0.00    -0.003 C 
ATOM     20  C   UNL     1      -6.689 -64.316 -10.809  1.00  0.00     0.004 C 
ENDBRANCH  18  19
ENDBRANCH  17  18
ENDBRANCH  16  17
ENDBRANCH  15  16
ENDBRANCH  14  15
ENDBRANCH  13  14
ENDBRANCH  12  13
ENDBRANCH   1  12
TORSDOF 16
ENDMDL
MODEL 8
REMARK VINA RESULT:    -3.115      7.017      9.804
REMARK INTER + INTRA:          -8.833
REMARK INTER:                  -6.024
REMARK INTRA:                  -2.809
REMARK UNBOUND:                -2.805
REMARK SMILES CCCCCCCCCCCCCCCCCC(=O)[O-]
REMARK SMILES IDX 10 1 11 2 12 3 13 4 14 5 15 6 16 7 17 8 18 9 19 10 20 11
REMARK SMILES IDX 9 12 8 13 7 14 6 15 5 16 4 17 3 18 2 19 1 20
REMARK H PARENT
REMARK Flexibility Score: inf
ROOT
ATOM      1  C   UNL     1      -7.346 -64.540  -0.523  1.00  0.00     0.000 C 
ENDROOT
BRANCH   1   2
ATOM      2  C   UNL     1      -6.579 -63.856  -1.669  1.00  0.00     0.000 C 
BRANCH   2   3
ATOM      3  C   UNL     1      -5.693 -62.697  -1.184  1.00  0.00     0.000 C 
BRANCH   3   4
ATOM      4  C   UNL     1      -6.293 -61.319  -1.510  1.00  0.00     0.000 C 
BRANCH   4   5
ATOM      5  C   UNL     1      -6.719 -60.548  -0.249  1.00  0.00     0.000 C 
BRANCH   5   6
ATOM      6  C   UNL     1      -6.324 -61.274   1.048  1.00  0.00     0.000 C 
BRANCH   6   7
ATOM      7  C   UNL     1      -7.442 -61.256   2.102  1.00  0.00     0.006 C 
BRANCH   7   8
ATOM      8  C   UNL     1      -8.757 -60.754   1.497  1.00  0.00     0.053 C 
BRANCH   8   9
ATOM      9  C   UNL     1      -9.314 -59.631   2.314  1.00  0.00     0.041 C 
ATOM     10  O   UNL     1      -8.595 -58.638   2.601  1.00  0.00    -0.550 OA
ATOM     11  O   UNL     1     -10.614 -59.703   2.800  1.00  0.00    -0.550 OA
ENDBRANCH   8   9
ENDBRANCH   7   8
ENDBRANCH   6   7
ENDBRANCH   5   6
ENDBRANCH   4   5
ENDBRANCH   3   4
ENDBRANCH   2   3
ENDBRANCH   1   2
BRANCH   1  12
ATOM     12  C   UNL     1      -8.780 -64.002  -0.332  1.00  0.00     0.000 C 
BRANCH  12  13
ATOM     13  C   UNL     1      -9.340 -64.329   1.064  1.00  0.00    -0.000 C 
BRANCH  13  14
ATOM     14  C   UNL     1      -8.706 -65.590   1.673  1.00  0.00    -0.000 C 
BRANCH  14  15
ATOM     15  C   UNL     1      -7.959 -65.300   2.986  1.00  0.00    -0.000 C 
BRANCH  15  16
ATOM     16  C   UNL     1      -6.469 -65.687   2.924  1.00  0.00    -0.000 C 
BRANCH  16  17
ATOM     17  C   UNL     1      -5.509 -64.519   2.632  1.00  0.00    -0.000 C 
BRANCH  17  18
ATOM     18  C   UNL     1      -4.429 -64.875   1.601  1.00  0.00    -0.000 C 
BRANCH  18  19
ATOM     19  C   UNL     1      -3.813 -66.247   1.901  1.00  0.00    -0.003 C 
ATOM     20  C   UNL     1      -2.727 -66.141   2.969  1.00  0.00     0.004 C 
ENDBRANCH  18  19
ENDBRANCH  17  18
ENDBRANCH  16  17
ENDBRANCH  15  16
ENDBRANCH  14  15
ENDBRANCH  13  14
ENDBRANCH  12  13
ENDBRANCH   1  12
TORSDOF 16
ENDMDL
MODEL 9
REMARK VINA RESULT:    -3.103      7.096      9.482
REMARK INTER + INTRA:          -8.810
REMARK INTER:                  -6.407
REMARK INTRA:                  -2.403
REMARK UNBOUND:                -2.805
REMARK SMILES CCCCCCCCCCCCCCCCCC(=O)[O-]
REMARK SMILES IDX 10 1 11 2 12 3 13 4 14 5 15 6 16 7 17 8 18 9 19 10 20 11
REMARK SMILES IDX 9 12 8 13 7 14 6 15 5 16 4 17 3 18 2 19 1 20
REMARK H PARENT
REMARK Flexibility Score: inf
ROOT
ATOM      1  C   UNL     1      -6.279 -65.290   1.991  1.00  0.00     0.000 C 
ENDROOT
BRANCH   1   2
ATOM      2  C   UNL     1      -5.048 -64.898   2.828  1.00  0.00     0.000 C 
BRANCH   2   3
ATOM      3  C   UNL     1      -4.726 -63.397   2.746  1.00  0.00     0.000 C 
BRANCH   3   4
ATOM      4  C   UNL     1      -5.388 -62.716   1.537  1.00  0.00     0.000 C 
BRANCH   4   5
ATOM      5  C   UNL     1      -6.297 -61.543   1.945  1.00  0.00     0.000 C 
BRANCH   5   6
ATOM      6  C   UNL     1      -6.912 -61.731   3.341  1.00  0.00     0.000 C 
BRANCH   6   7
ATOM      7  C   UNL     1      -8.270 -61.029   3.492  1.00  0.00     0.006 C 
BRANCH   7   8
ATOM      8  C   UNL     1      -8.298 -59.718   2.701  1.00  0.00     0.053 C 
BRANCH   8   9
ATOM      9  C   UNL     1      -9.653 -59.494   2.106  1.00  0.00     0.041 C 
ATOM     10  O   UNL     1     -10.689 -59.716   2.787  1.00  0.00    -0.550 OA
ATOM     11  O   UNL     1      -9.773 -59.086   0.784  1.00  0.00    -0.550 OA
ENDBRANCH   8   9
ENDBRANCH   7   8
ENDBRANCH   6   7
ENDBRANCH   5   6
ENDBRANCH   4   5
ENDBRANCH   3   4
ENDBRANCH   2   3
ENDBRANCH   1   2
BRANCH   1  12
ATOM     12  C   UNL     1      -7.576 -65.412   2.818  1.00  0.00     0.000 C 
BRANCH  12  13
ATOM     13  C   UNL     1      -8.835 -65.291   1.942  1.00  0.00    -0.000 C 
BRANCH  13  14
ATOM     14  C   UNL     1      -8.930 -63.931   1.230  1.00  0.00    -0.000 C 
BRANCH  14  15
ATOM     15  C   UNL     1      -9.253 -64.070  -0.267  1.00  0.00    -0.000 C 
BRANCH  15  16
ATOM     16  C   UNL     1      -8.181 -64.861  -1.039  1.00  0.00    -0.000 C 
BRANCH  16  17
ATOM     17  C   UNL     1      -7.064 -64.001  -1.660  1.00  0.00    -0.000 C 
BRANCH  17  18
ATOM     18  C   UNL     1      -5.676 -64.648  -1.546  1.00  0.00    -0.000 C 
BRANCH  18  19
ATOM     19  C   UNL     1      -4.928 -64.582  -2.883  1.00  0.00    -0.003 C 
ATOM     20  C   UNL     1      -4.434 -65.962  -3.307  1.00  0.00     0.004 C 
ENDBRANCH  18  19
ENDBRANCH  17  18
ENDBRANCH  16  17
ENDBRANCH  15  16
ENDBRANCH  14  15
ENDBRANCH  13  14
ENDBRANCH  12  13
ENDBRANCH   1  12
TORSDOF 16
ENDMDL
