MODEL 1
REMARK VINA RESULT:    -3.066      0.000      0.000
REMARK INTER + INTRA:          -6.663
REMARK INTER:                  -5.216
REMARK INTRA:                  -1.447
REMARK UNBOUND:                -1.447
REMARK SMILES CCCCCCCCCCCCCC(=O)[O-]
REMARK SMILES IDX 8 1 9 2 10 3 11 4 12 5 13 6 14 7 15 8 16 9 7 10 6 11 5 12
REMARK SMILES IDX 4 13 3 14 2 15 1 16
REMARK H PARENT
REMARK Flexibility Score: inf
ROOT
ATOM      1  C   UNL     1     112.100  55.885 231.221  1.00  0.00     0.000 C 
ENDROOT
BRANCH   1   2
ATOM      2  C   UNL     1     112.691  56.640 230.020  1.00  0.00     0.000 C 
BRANCH   2   3
ATOM      3  C   UNL     1     113.896  55.913 229.400  1.00  0.00     0.000 C 
BRANCH   3   4
ATOM      4  C   UNL     1     113.692  54.391 229.320  1.00  0.00     0.000 C 
BRANCH   4   5
ATOM      5  C   UNL     1     114.061  53.817 227.944  1.00  0.00     0.006 C 
BRANCH   5   6
ATOM      6  C   UNL     1     112.818  53.669 227.061  1.00  0.00     0.053 C 
BRANCH   6   7
ATOM      7  C   UNL     1     112.864  54.643 225.926  1.00  0.00     0.041 C 
ATOM      8  O   UNL     1     113.823  55.451 225.823  1.00  0.00    -0.550 OA
ATOM      9  O   UNL     1     111.874  54.621 224.951  1.00  0.00    -0.550 OA
ENDBRANCH   6   7
ENDBRANCH   5   6
ENDBRANCH   4   5
ENDBRANCH   3   4
ENDBRANCH   2   3
ENDBRANCH   1   2
BRANCH   1  10
ATOM     10  C   UNL     1     112.084  56.734 232.504  1.00  0.00     0.000 C 
BRANCH  10  11
ATOM     11  C   UNL     1     113.475  56.807 233.170  1.00  0.00    -0.000 C 
BRANCH  11  12
ATOM     12  C   UNL     1     114.296  55.514 233.028  1.00  0.00    -0.000 C 
BRANCH  12  13
ATOM     13  C   UNL     1     114.048  54.521 234.176  1.00  0.00    -0.000 C 
BRANCH  13  14
ATOM     14  C   UNL     1     113.809  53.088 233.674  1.00  0.00    -0.000 C 
BRANCH  14  15
ATOM     15  C   UNL     1     112.356  52.848 233.235  1.00  0.00    -0.003 C 
ATOM     16  C   UNL     1     111.379  53.240 234.339  1.00  0.00     0.004 C 
ENDBRANCH  14  15
ENDBRANCH  13  14
ENDBRANCH  12  13
ENDBRANCH  11  12
ENDBRANCH  10  11
ENDBRANCH   1  10
TORSDOF 12
ENDMDL
MODEL 2
REMARK VINA RESULT:    -3.033     14.280     16.916
REMARK INTER + INTRA:          -6.608
REMARK INTER:                  -5.932
REMARK INTRA:                  -0.675
REMARK UNBOUND:                -1.447
REMARK SMILES CCCCCCCCCCCCCC(=O)[O-]
REMARK SMILES IDX 8 1 9 2 10 3 11 4 12 5 13 6 14 7 15 8 16 9 7 10 6 11 5 12
REMARK SMILES IDX 4 13 3 14 2 15 1 16
REMARK H PARENT
REMARK Flexibility Score: inf
ROOT
ATOM      1  C   UNL     1     110.303  61.635 216.099  1.00  0.00     0.000 C 
ENDROOT
BRANCH   1   2
ATOM      2  C   UNL     1     110.598  62.765 215.100  1.00  0.00     0.000 C 
BRANCH   2   3
ATOM      3  C   UNL     1     111.514  63.851 215.690  1.00  0.00     0.000 C 
BRANCH   3   4
ATOM      4  C   UNL     1     111.694  63.712 217.210  1.00  0.00     0.000 C 
BRANCH   4   5
ATOM      5  C   UNL     1     112.706  64.717 217.779  1.00  0.00     0.006 C 
BRANCH   5   6
ATOM      6  C   UNL     1     112.220  66.156 217.581  1.00  0.00     0.053 C 
BRANCH   6   7
ATOM      7  C   UNL     1     113.318  67.008 217.027  1.00  0.00     0.041 C 
ATOM      8  O   UNL     1     113.516  68.163 217.484  1.00  0.00    -0.550 OA
ATOM      9  O   UNL     1     114.155  66.505 216.039  1.00  0.00    -0.550 OA
ENDBRANCH   6   7
ENDBRANCH   5   6
ENDBRANCH   4   5
ENDBRANCH   3   4
ENDBRANCH   2   3
ENDBRANCH   1   2
BRANCH   1  10
ATOM     10  C   UNL     1     109.223  60.664 215.592  1.00  0.00     0.000 C 
BRANCH  10  11
ATOM     11  C   UNL     1     107.951  61.404 215.123  1.00  0.00    -0.000 C 
BRANCH  11  12
ATOM     12  C   UNL     1     106.793  61.343 216.134  1.00  0.00    -0.000 C 
BRANCH  12  13
ATOM     13  C   UNL     1     106.191  59.935 216.268  1.00  0.00    -0.000 C 
BRANCH  13  14
ATOM     14  C   UNL     1     106.521  59.280 217.619  1.00  0.00    -0.000 C 
BRANCH  14  15
ATOM     15  C   UNL     1     105.538  59.685 218.729  1.00  0.00    -0.003 C 
ATOM     16  C   UNL     1     105.857  58.961 220.034  1.00  0.00     0.004 C 
ENDBRANCH  14  15
ENDBRANCH  13  14
ENDBRANCH  12  13
ENDBRANCH  11  12
ENDBRANCH  10  11
ENDBRANCH   1  10
TORSDOF 12
ENDMDL
MODEL 3
REMARK VINA RESULT:    -2.981     17.947     19.578
REMARK INTER + INTRA:          -6.520
REMARK INTER:                  -4.511
REMARK INTRA:                  -2.009
REMARK UNBOUND:                -1.447
REMARK SMILES CCCCCCCCCCCCCC(=O)[O-]
REMARK SMILES IDX 8 1 9 2 10 3 11 4 12 5 13 6 14 7 15 8 16 9 7 10 6 11 5 12
REMARK SMILES IDX 4 13 3 14 2 15 1 16
REMARK H PARENT
REMARK Flexibility Score: inf
ROOT
ATOM      1  C   UNL     1      96.721  66.776 223.887  1.00  0.00     0.000 C 
ENDROOT
BRANCH   1   2
ATOM      2  C   UNL     1      96.904  67.934 224.880  1.00  0.00     0.000 C 
BRANCH   2   3
ATOM      3  C   UNL     1      98.357  68.434 224.944  1.00  0.00     0.000 C 
BRANCH   3   4
ATOM      4  C   UNL     1      99.123  67.869 226.151  1.00  0.00     0.000 C 
BRANCH   4   5
ATOM      5  C   UNL     1     100.570  67.486 225.805  1.00  0.00     0.006 C 
BRANCH   5   6
ATOM      6  C   UNL     1     100.770  65.970 225.891  1.00  0.00     0.053 C 
BRANCH   6   7
ATOM      7  C   UNL     1     101.221  65.426 224.572  1.00  0.00     0.041 C 
ATOM      8  O   UNL     1     101.894  66.143 223.787  1.00  0.00    -0.550 OA
ATOM      9  O   UNL     1     100.940  64.108 224.231  1.00  0.00    -0.550 OA
ENDBRANCH   6   7
ENDBRANCH   5   6
ENDBRANCH   4   5
ENDBRANCH   3   4
ENDBRANCH   2   3
ENDBRANCH   1   2
BRANCH   1  10
ATOM     10  C   UNL     1      96.267  65.476 224.572  1.00  0.00     0.000 C 
BRANCH  10  11
ATOM     11  C   UNL     1      97.462  64.629 225.063  1.00  0.00    -0.000 C 
BRANCH  11  12
ATOM     12  C   UNL     1      97.426  64.325 226.570  1.00  0.00    -0.000 C 
BRANCH  12  13
ATOM     13  C   UNL     1      96.341  65.123 227.314  1.00  0.00    -0.000 C 
BRANCH  13  14
ATOM     14  C   UNL     1      96.931  66.119 228.325  1.00  0.00    -0.000 C 
BRANCH  14  15
ATOM     15  C   UNL     1      96.110  67.414 228.429  1.00  0.00    -0.003 C 
ATOM     16  C   UNL     1      96.924  68.528 229.081  1.00  0.00     0.004 C 
ENDBRANCH  14  15
ENDBRANCH  13  14
ENDBRANCH  12  13
ENDBRANCH  11  12
ENDBRANCH  10  11
ENDBRANCH   1  10
TORSDOF 12
ENDMDL
MODEL 4
REMARK VINA RESULT:    -2.977     18.550     20.261
REMARK INTER + INTRA:          -6.513
REMARK INTER:                  -4.355
REMARK INTRA:                  -2.158
REMARK UNBOUND:                -1.447
REMARK SMILES CCCCCCCCCCCCCC(=O)[O-]
REMARK SMILES IDX 8 1 9 2 10 3 11 4 12 5 13 6 14 7 15 8 16 9 7 10 6 11 5 12
REMARK SMILES IDX 4 13 3 14 2 15 1 16
REMARK H PARENT
REMARK Flexibility Score: inf
ROOT
ATOM      1  C   UNL     1      95.242  65.554 225.073  1.00  0.00     0.000 C 
ENDROOT
BRANCH   1   2
ATOM      2  C   UNL     1      95.963  65.041 226.330  1.00  0.00     0.000 C 
BRANCH   2   3
ATOM      3  C   UNL     1      97.441  64.706 226.068  1.00  0.00     0.000 C 
BRANCH   3   4
ATOM      4  C   UNL     1      98.356  65.121 227.231  1.00  0.00     0.000 C 
BRANCH   4   5
ATOM      5  C   UNL     1      99.792  65.423 226.774  1.00  0.00     0.006 C 
BRANCH   5   6
ATOM      6  C   UNL     1      99.797  66.112 225.406  1.00  0.00     0.053 C 
BRANCH   6   7
ATOM      7  C   UNL     1     100.941  65.619 224.577  1.00  0.00     0.041 C 
ATOM      8  O   UNL     1     100.994  64.413 224.223  1.00  0.00    -0.550 OA
ATOM      9  O   UNL     1     101.922  66.506 224.151  1.00  0.00    -0.550 OA
ENDBRANCH   6   7
ENDBRANCH   5   6
ENDBRANCH   4   5
ENDBRANCH   3   4
ENDBRANCH   2   3
ENDBRANCH   1   2
BRANCH   1  10
ATOM     10  C   UNL     1      96.192  65.720 223.874  1.00  0.00     0.000 C 
BRANCH  10  11
ATOM     11  C   UNL     1      96.305  67.193 223.422  1.00  0.00    -0.000 C 
BRANCH  11  12
ATOM     12  C   UNL     1      95.859  68.203 224.492  1.00  0.00    -0.000 C 
BRANCH  12  13
ATOM     13  C   UNL     1      97.038  68.961 225.125  1.00  0.00    -0.000 C 
BRANCH  13  14
ATOM     14  C   UNL     1      97.232  68.615 226.611  1.00  0.00    -0.000 C 
BRANCH  14  15
ATOM     15  C   UNL     1      95.904  68.549 227.381  1.00  0.00    -0.003 C 
ATOM     16  C   UNL     1      96.086  67.853 228.727  1.00  0.00     0.004 C 
ENDBRANCH  14  15
ENDBRANCH  13  14
ENDBRANCH  12  13
ENDBRANCH  11  12
ENDBRANCH  10  11
ENDBRANCH   1  10
TORSDOF 12
ENDMDL
MODEL 5
REMARK VINA RESULT:    -2.950     16.370     18.079
REMARK INTER + INTRA:          -6.467
REMARK INTER:                  -4.863
REMARK INTRA:                  -1.604
REMARK UNBOUND:                -1.447
REMARK SMILES CCCCCCCCCCCCCC(=O)[O-]
REMARK SMILES IDX 8 1 9 2 10 3 11 4 12 5 13 6 14 7 15 8 16 9 7 10 6 11 5 12
REMARK SMILES IDX 4 13 3 14 2 15 1 16
REMARK H PARENT
REMARK Flexibility Score: inf
ROOT
ATOM      1  C   UNL     1      99.520  65.934 225.426  1.00  0.00     0.000 C 
ENDROOT
BRANCH   1   2
ATOM      2  C   UNL     1      98.763  64.598 225.481  1.00  0.00     0.000 C 
BRANCH   2   3
ATOM      3  C   UNL     1      97.291  64.735 225.055  1.00  0.00     0.000 C 
BRANCH   3   4
ATOM      4  C   UNL     1      96.349  64.957 226.249  1.00  0.00     0.000 C 
BRANCH   4   5
ATOM      5  C   UNL     1      96.950  64.468 227.576  1.00  0.00     0.006 C 
BRANCH   5   6
ATOM      6  C   UNL     1      97.150  65.635 228.548  1.00  0.00     0.053 C 
BRANCH   6   7
ATOM      7  C   UNL     1      96.607  65.289 229.899  1.00  0.00     0.041 C 
ATOM      8  O   UNL     1      95.497  65.748 230.272  1.00  0.00    -0.550 OA
ATOM      9  O   UNL     1      97.305  64.417 230.726  1.00  0.00    -0.550 OA
ENDBRANCH   6   7
ENDBRANCH   5   6
ENDBRANCH   4   5
ENDBRANCH   3   4
ENDBRANCH   2   3
ENDBRANCH   1   2
BRANCH   1  10
ATOM     10  C   UNL     1     101.043  65.746 225.313  1.00  0.00     0.000 C 
BRANCH  10  11
ATOM     11  C   UNL     1     101.415  64.439 224.578  1.00  0.00    -0.000 C 
BRANCH  11  12
ATOM     12  C   UNL     1     102.424  63.566 225.343  1.00  0.00    -0.000 C 
BRANCH  12  13
ATOM     13  C   UNL     1     101.899  62.147 225.616  1.00  0.00    -0.000 C 
BRANCH  13  14
ATOM     14  C   UNL     1     101.096  62.057 226.923  1.00  0.00    -0.000 C 
BRANCH  14  15
ATOM     15  C   UNL     1     101.632  62.997 228.014  1.00  0.00    -0.003 C 
ATOM     16  C   UNL     1     100.498  63.783 228.666  1.00  0.00     0.004 C 
ENDBRANCH  14  15
ENDBRANCH  13  14
ENDBRANCH  12  13
ENDBRANCH  11  12
ENDBRANCH  10  11
ENDBRANCH   1  10
TORSDOF 12
ENDMDL
MODEL 6
REMARK VINA RESULT:    -2.929     16.919     18.667
REMARK INTER + INTRA:          -6.431
REMARK INTER:                  -4.235
REMARK INTRA:                  -2.196
REMARK UNBOUND:                -1.447
REMARK SMILES CCCCCCCCCCCCCC(=O)[O-]
REMARK SMILES IDX 8 1 9 2 10 3 11 4 12 5 13 6 14 7 15 8 16 9 7 10 6 11 5 12
REMARK SMILES IDX 4 13 3 14 2 15 1 16
REMARK H PARENT
REMARK Flexibility Score: inf
ROOT
ATOM      1  C   UNL     1      97.802  65.799 228.975  1.00  0.00     0.000 C 
ENDROOT
BRANCH   1   2
ATOM      2  C   UNL     1      98.864  66.872 228.694  1.00  0.00     0.000 C 
BRANCH   2   3
ATOM      3  C   UNL     1     100.234  66.269 228.341  1.00  0.00     0.000 C 
BRANCH   3   4
ATOM      4  C   UNL     1     100.207  64.733 228.280  1.00  0.00     0.000 C 
BRANCH   4   5
ATOM      5  C   UNL     1     100.687  64.187 226.927  1.00  0.00     0.006 C 
BRANCH   5   6
ATOM      6  C   UNL     1     101.683  65.147 226.271  1.00  0.00     0.053 C 
BRANCH   6   7
ATOM      7  C   UNL     1     101.439  65.228 224.797  1.00  0.00     0.041 C 
ATOM      8  O   UNL     1     100.826  64.303 224.204  1.00  0.00    -0.550 OA
ATOM      9  O   UNL     1     101.843  66.352 224.087  1.00  0.00    -0.550 OA
ENDBRANCH   6   7
ENDBRANCH   5   6
ENDBRANCH   4   5
ENDBRANCH   3   4
ENDBRANCH   2   3
ENDBRANCH   1   2
BRANCH   1  10
ATOM     10  C   UNL     1      96.406  66.201 228.467  1.00  0.00     0.000 C 
BRANCH  10  11
ATOM     11  C   UNL     1      95.952  65.337 227.270  1.00  0.00    -0.000 C 
BRANCH  11  12
ATOM     12  C   UNL     1      97.007  64.317 226.809  1.00  0.00    -0.000 C 
BRANCH  12  13
ATOM     13  C   UNL     1      97.424  64.513 225.342  1.00  0.00    -0.000 C 
BRANCH  13  14
ATOM     14  C   UNL     1      97.128  65.932 224.829  1.00  0.00    -0.000 C 
BRANCH  14  15
ATOM     15  C   UNL     1      98.292  66.905 225.075  1.00  0.00    -0.003 C 
ATOM     16  C   UNL     1      97.776  68.282 225.486  1.00  0.00     0.004 C 
ENDBRANCH  14  15
ENDBRANCH  13  14
ENDBRANCH  12  13
ENDBRANCH  11  12
ENDBRANCH  10  11
ENDBRANCH   1  10
TORSDOF 12
ENDMDL
MODEL 7
REMARK VINA RESULT:    -2.909     16.274     18.084
REMARK INTER + INTRA:          -6.396
REMARK INTER:                  -4.274
REMARK INTRA:                  -2.122
REMARK UNBOUND:                -1.447
REMARK SMILES CCCCCCCCCCCCCC(=O)[O-]
REMARK SMILES IDX 8 1 9 2 10 3 11 4 12 5 13 6 14 7 15 8 16 9 7 10 6 11 5 12
REMARK SMILES IDX 4 13 3 14 2 15 1 16
REMARK H PARENT
REMARK Flexibility Score: inf
ROOT
ATOM      1  C   UNL     1     100.802  62.302 227.124  1.00  0.00     0.000 C 
ENDROOT
BRANCH   1   2
ATOM      2  C   UNL     1     100.736  63.513 228.067  1.00  0.00     0.000 C 
BRANCH   2   3
ATOM      3  C   UNL     1      99.297  64.000 228.304  1.00  0.00     0.000 C 
BRANCH   3   4
ATOM      4  C   UNL     1      98.274  63.283 227.408  1.00  0.00     0.000 C 
BRANCH   4   5
ATOM      5  C   UNL     1      97.613  64.227 226.392  1.00  0.00     0.006 C 
BRANCH   5   6
ATOM      6  C   UNL     1      97.394  65.616 226.998  1.00  0.00     0.053 C 
BRANCH   6   7
ATOM      7  C   UNL     1      95.934  65.869 227.211  1.00  0.00     0.041 C 
ATOM      8  O   UNL     1      95.542  66.980 227.652  1.00  0.00    -0.550 OA
ATOM      9  O   UNL     1      95.003  64.895 226.873  1.00  0.00    -0.550 OA
ENDBRANCH   6   7
ENDBRANCH   5   6
ENDBRANCH   4   5
ENDBRANCH   3   4
ENDBRANCH   2   3
ENDBRANCH   1   2
BRANCH   1  10
ATOM     10  C   UNL     1     102.008  62.359 226.171  1.00  0.00     0.000 C 
BRANCH  10  11
ATOM     11  C   UNL     1     102.306  63.797 225.695  1.00  0.00    -0.000 C 
BRANCH  11  12
ATOM     12  C   UNL     1     101.351  64.293 224.595  1.00  0.00    -0.000 C 
BRANCH  12  13
ATOM     13  C   UNL     1     100.701  65.645 224.934  1.00  0.00    -0.000 C 
BRANCH  13  14
ATOM     14  C   UNL     1     101.546  66.476 225.913  1.00  0.00    -0.000 C 
BRANCH  14  15
ATOM     15  C   UNL     1     100.688  67.258 226.920  1.00  0.00    -0.003 C 
ATOM     16  C   UNL     1     101.294  67.196 228.320  1.00  0.00     0.004 C 
ENDBRANCH  14  15
ENDBRANCH  13  14
ENDBRANCH  12  13
ENDBRANCH  11  12
ENDBRANCH  10  11
ENDBRANCH   1  10
TORSDOF 12
ENDMDL
MODEL 8
REMARK VINA RESULT:    -2.875     18.319     19.970
REMARK INTER + INTRA:          -6.339
REMARK INTER:                  -4.551
REMARK INTRA:                  -1.788
REMARK UNBOUND:                -1.447
REMARK SMILES CCCCCCCCCCCCCC(=O)[O-]
REMARK SMILES IDX 8 1 9 2 10 3 11 4 12 5 13 6 14 7 15 8 16 9 7 10 6 11 5 12
REMARK SMILES IDX 4 13 3 14 2 15 1 16
REMARK H PARENT
REMARK Flexibility Score: inf
ROOT
ATOM      1  C   UNL     1      97.348  68.259 228.851  1.00  0.00     0.000 C 
ENDROOT
BRANCH   1   2
ATOM      2  C   UNL     1      98.157  68.701 227.623  1.00  0.00     0.000 C 
BRANCH   2   3
ATOM      3  C   UNL     1      97.399  68.476 226.303  1.00  0.00     0.000 C 
BRANCH   3   4
ATOM      4  C   UNL     1      98.340  68.356 225.093  1.00  0.00     0.000 C 
BRANCH   4   5
ATOM      5  C   UNL     1      99.683  67.703 225.452  1.00  0.00     0.006 C 
BRANCH   5   6
ATOM      6  C   UNL     1      99.610  66.181 225.302  1.00  0.00     0.053 C 
BRANCH   6   7
ATOM      7  C   UNL     1     100.949  65.626 224.930  1.00  0.00     0.041 C 
ATOM      8  O   UNL     1     101.033  64.636 224.159  1.00  0.00    -0.550 OA
ATOM      9  O   UNL     1     102.107  66.237 225.396  1.00  0.00    -0.550 OA
ENDBRANCH   6   7
ENDBRANCH   5   6
ENDBRANCH   4   5
ENDBRANCH   3   4
ENDBRANCH   2   3
ENDBRANCH   1   2
BRANCH   1  10
ATOM     10  C   UNL     1      96.413  67.075 228.549  1.00  0.00     0.000 C 
BRANCH  10  11
ATOM     11  C   UNL     1      97.179  65.737 228.462  1.00  0.00    -0.000 C 
BRANCH  11  12
ATOM     12  C   UNL     1      96.755  64.860 227.272  1.00  0.00    -0.000 C 
BRANCH  12  13
ATOM     13  C   UNL     1      95.274  65.035 226.898  1.00  0.00    -0.000 C 
BRANCH  13  14
ATOM     14  C   UNL     1      95.087  65.666 225.509  1.00  0.00    -0.000 C 
BRANCH  14  15
ATOM     15  C   UNL     1      96.228  65.315 224.541  1.00  0.00    -0.003 C 
ATOM     16  C   UNL     1      95.962  65.887 223.151  1.00  0.00     0.004 C 
ENDBRANCH  14  15
ENDBRANCH  13  14
ENDBRANCH  12  13
ENDBRANCH  11  12
ENDBRANCH  10  11
ENDBRANCH   1  10
TORSDOF 12
ENDMDL
MODEL 9
REMARK VINA RESULT:    -2.875     16.170     18.126
REMARK INTER + INTRA:          -6.339
REMARK INTER:                  -4.359
REMARK INTRA:                  -1.980
REMARK UNBOUND:                -1.447
REMARK SMILES CCCCCCCCCCCCCC(=O)[O-]
REMARK SMILES IDX 8 1 9 2 10 3 11 4 12 5 13 6 14 7 15 8 16 9 7 10 6 11 5 12
REMARK SMILES IDX 4 13 3 14 2 15 1 16
REMARK H PARENT
REMARK Flexibility Score: inf
ROOT
ATOM      1  C   UNL     1      96.365  53.808 222.779  1.00  0.00     0.000 C 
ENDROOT
BRANCH   1   2
ATOM      2  C   UNL     1      97.018  54.461 221.552  1.00  0.00     0.000 C 
BRANCH   2   3
ATOM      3  C   UNL     1      96.045  55.366 220.776  1.00  0.00     0.000 C 
BRANCH   3   4
ATOM      4  C   UNL     1      96.646  56.745 220.458  1.00  0.00     0.000 C 
BRANCH   4   5
ATOM      5  C   UNL     1      98.135  56.670 220.089  1.00  0.00     0.006 C 
BRANCH   5   6
ATOM      6  C   UNL     1      98.887  57.905 220.593  1.00  0.00     0.053 C 
BRANCH   6   7
ATOM      7  C   UNL     1      99.299  58.772 219.445  1.00  0.00     0.041 C 
ATOM      8  O   UNL     1      99.323  58.307 218.276  1.00  0.00    -0.550 OA
ATOM      9  O   UNL     1      99.606  60.110 219.660  1.00  0.00    -0.550 OA
ENDBRANCH   6   7
ENDBRANCH   5   6
ENDBRANCH   4   5
ENDBRANCH   3   4
ENDBRANCH   2   3
ENDBRANCH   1   2
BRANCH   1  10
ATOM     10  C   UNL     1      95.192  54.635 223.335  1.00  0.00     0.000 C 
BRANCH  10  11
ATOM     11  C   UNL     1      95.257  54.776 224.871  1.00  0.00    -0.000 C 
BRANCH  11  12
ATOM     12  C   UNL     1      95.925  56.079 225.343  1.00  0.00    -0.000 C 
BRANCH  12  13
ATOM     13  C   UNL     1      95.919  57.176 224.266  1.00  0.00    -0.000 C 
BRANCH  13  14
ATOM     14  C   UNL     1      97.334  57.667 223.917  1.00  0.00    -0.000 C 
BRANCH  14  15
ATOM     15  C   UNL     1      98.416  56.621 224.224  1.00  0.00    -0.003 C 
ATOM     16  C   UNL     1      99.807  57.251 224.210  1.00  0.00     0.004 C 
ENDBRANCH  14  15
ENDBRANCH  13  14
ENDBRANCH  12  13
ENDBRANCH  11  12
ENDBRANCH  10  11
ENDBRANCH   1  10
TORSDOF 12
ENDMDL
