MODEL 1
REMARK VINA RESULT:   149.328      0.000      0.000
REMARK INTER + INTRA:         153.693
REMARK INTER:                 153.693
REMARK INTRA:                   0.000
REMARK UNBOUND:                 0.000
REMARK SMILES CC1(C)CC[C@@]2(C)CC[C@]3(C)C(=CC[C@H]4[C@@]5(C)CC[C@@H](O)C(C)(C)[C@H]5CC[C@]43C)[C@@H]2C1
REMARK SMILES IDX 1 1 2 2 4 3 5 4 6 5 8 6 9 7 10 8 12 9 13 10 14 11 15 12
REMARK SMILES IDX 28 13 27 14 26 15 25 16 16 17 18 18 19 19 20 20 22 21 23 22
REMARK SMILES IDX 24 23 17 24 29 25 30 26 31 27 11 28 7 29 3 30 21 31
REMARK H PARENT 21 32
REMARK Flexibility Score: inf
ROOT
ATOM      1  C   UNL     1     -37.099  29.079 -17.828  1.00  0.00     0.011 C 
ATOM      2  C   UNL     1     -36.489  29.383 -19.219  1.00  0.00    -0.035 C 
ATOM      3  C   UNL     1     -36.051  28.041 -19.901  1.00  0.00     0.007 C 
ATOM      4  C   UNL     1     -37.204  27.240 -20.560  1.00  0.00     0.008 C 
ATOM      5  C   UNL     1     -38.004  28.134 -21.553  1.00  0.00    -0.026 C 
ATOM      6  C   UNL     1     -39.212  27.387 -22.146  1.00  0.00     0.008 C 
ATOM      7  C   UNL     1     -40.129  28.290 -23.031  1.00  0.00     0.012 C 
ATOM      8  C   UNL     1     -40.238  29.848 -22.696  1.00  0.00    -0.006 C 
ATOM      9  C   UNL     1     -39.850  29.997 -21.223  1.00  0.00    -0.064 C 
ATOM     10  C   UNL     1     -40.744  30.393 -20.296  1.00  0.00    -0.027 C 
ATOM     11  C   UNL     1     -42.191  30.647 -20.560  1.00  0.00     0.032 C 
ATOM     12  C   UNL     1     -42.725  30.013 -21.885  1.00  0.00     0.006 C 
ATOM     13  C   UNL     1     -41.730  30.408 -23.041  1.00  0.00    -0.020 C 
ATOM     14  C   UNL     1     -41.808  31.971 -23.163  1.00  0.00     0.008 C 
ATOM     15  C   UNL     1     -43.193  32.631 -22.914  1.00  0.00     0.005 C 
ATOM     16  C   UNL     1     -44.447  31.708 -22.997  1.00  0.00     0.003 C 
ATOM     17  C   UNL     1     -44.273  30.349 -22.180  1.00  0.00    -0.025 C 
ATOM     18  C   UNL     1     -45.122  30.366 -20.854  1.00  0.00     0.010 C 
ATOM     19  C   UNL     1     -45.292  31.751 -20.224  1.00  0.00     0.033 C 
ATOM     20  C   UNL     1     -45.979  32.780 -21.150  1.00  0.00     0.120 C 
ATOM     21  C   UNL     1     -45.795  32.499 -22.689  1.00  0.00    -0.006 C 
ATOM     22  C   UNL     1     -47.023  31.696 -23.214  1.00  0.00     0.014 C 
ATOM     23  C   UNL     1     -45.846  33.838 -23.487  1.00  0.00     0.014 C 
ATOM     24  C   UNL     1     -44.869  29.164 -23.017  1.00  0.00     0.012 C 
ATOM     25  C   UNL     1     -42.128  29.833 -24.441  1.00  0.00     0.012 C 
ATOM     26  C   UNL     1     -38.593  29.292 -20.681  1.00  0.00     0.022 C 
ATOM     27  C   UNL     1     -37.503  30.199 -20.094  1.00  0.00     0.015 C 
ATOM     28  C   UNL     1     -39.182  30.651 -23.534  1.00  0.00     0.017 C 
ATOM     29  C   UNL     1     -37.021  28.493 -22.718  1.00  0.00     0.012 C 
ATOM     30  C   UNL     1     -35.234  30.254 -18.996  1.00  0.00     0.011 C 
ENDROOT
BRANCH  20  31
ATOM     31  O   UNL     1     -45.505  34.062 -20.810  1.00  0.00    -0.393 OA
ATOM     32  H   UNL     1     -46.298  34.628 -20.621  1.00  0.00     0.210 HD
ENDBRANCH  20  31
TORSDOF 1
ENDMDL
MODEL 2
REMARK VINA RESULT:   150.655     10.345     14.356
REMARK INTER + INTRA:         155.059
REMARK INTER:                 155.059
REMARK INTRA:                   0.000
REMARK UNBOUND:                 0.000
REMARK SMILES CC1(C)CC[C@@]2(C)CC[C@]3(C)C(=CC[C@H]4[C@@]5(C)CC[C@@H](O)C(C)(C)[C@H]5CC[C@]43C)[C@@H]2C1
REMARK SMILES IDX 1 1 2 2 4 3 5 4 6 5 8 6 9 7 10 8 12 9 13 10 14 11 15 12
REMARK SMILES IDX 28 13 27 14 26 15 25 16 16 17 18 18 19 19 20 20 22 21 23 22
REMARK SMILES IDX 24 23 17 24 29 25 30 26 31 27 11 28 7 29 3 30 21 31
REMARK H PARENT 21 32
REMARK Flexibility Score: inf
ROOT
ATOM      1  C   UNL     1     -29.490  34.855 -16.403  1.00  0.00     0.011 C 
ATOM      2  C   UNL     1     -30.997  34.540 -16.229  1.00  0.00    -0.035 C 
ATOM      3  C   UNL     1     -31.728  34.711 -17.605  1.00  0.00     0.007 C 
ATOM      4  C   UNL     1     -31.571  33.514 -18.578  1.00  0.00     0.008 C 
ATOM      5  C   UNL     1     -31.986  32.181 -17.889  1.00  0.00    -0.026 C 
ATOM      6  C   UNL     1     -31.746  30.967 -18.805  1.00  0.00     0.008 C 
ATOM      7  C   UNL     1     -32.007  29.596 -18.103  1.00  0.00     0.012 C 
ATOM      8  C   UNL     1     -31.760  29.472 -16.530  1.00  0.00    -0.006 C 
ATOM      9  C   UNL     1     -30.777  30.586 -16.163  1.00  0.00    -0.064 C 
ATOM     10  C   UNL     1     -29.531  30.311 -15.728  1.00  0.00    -0.027 C 
ATOM     11  C   UNL     1     -28.944  28.942 -15.632  1.00  0.00     0.032 C 
ATOM     12  C   UNL     1     -29.694  27.860 -16.474  1.00  0.00     0.006 C 
ATOM     13  C   UNL     1     -31.230  27.978 -16.147  1.00  0.00    -0.020 C 
ATOM     14  C   UNL     1     -31.378  27.625 -14.624  1.00  0.00     0.008 C 
ATOM     15  C   UNL     1     -30.426  26.534 -14.057  1.00  0.00     0.005 C 
ATOM     16  C   UNL     1     -29.731  25.591 -15.086  1.00  0.00     0.003 C 
ATOM     17  C   UNL     1     -29.080  26.379 -16.310  1.00  0.00    -0.025 C 
ATOM     18  C   UNL     1     -27.510  26.416 -16.195  1.00  0.00     0.010 C 
ATOM     19  C   UNL     1     -26.976  26.430 -14.760  1.00  0.00     0.033 C 
ATOM     20  C   UNL     1     -27.407  25.207 -13.920  1.00  0.00     0.120 C 
ATOM     21  C   UNL     1     -28.760  24.544 -14.378  1.00  0.00    -0.006 C 
ATOM     22  C   UNL     1     -28.450  23.360 -15.343  1.00  0.00     0.014 C 
ATOM     23  C   UNL     1     -29.465  23.870 -13.162  1.00  0.00     0.014 C 
ATOM     24  C   UNL     1     -29.362  25.594 -17.638  1.00  0.00     0.012 C 
ATOM     25  C   UNL     1     -32.123  26.957 -16.927  1.00  0.00     0.012 C 
ATOM     26  C   UNL     1     -31.003  32.017 -16.683  1.00  0.00     0.022 C 
ATOM     27  C   UNL     1     -31.190  33.109 -15.619  1.00  0.00     0.015 C 
ATOM     28  C   UNL     1     -33.093  29.759 -15.754  1.00  0.00     0.017 C 
ATOM     29  C   UNL     1     -33.521  32.289 -17.600  1.00  0.00     0.012 C 
ATOM     30  C   UNL     1     -31.575  35.570 -15.233  1.00  0.00     0.011 C 
ENDROOT
BRANCH  20  31
ATOM     31  O   UNL     1     -27.470  25.602 -12.570  1.00  0.00    -0.393 OA
ATOM     32  H   UNL     1     -28.414  25.844 -12.377  1.00  0.00     0.210 HD
ENDBRANCH  20  31
TORSDOF 1
ENDMDL
