MODEL 1
REMARK VINA RESULT:     7.650      0.000      0.000
REMARK INTER + INTRA:          11.852
REMARK INTER:                  11.228
REMARK INTRA:                   0.624
REMARK UNBOUND:                 0.624
REMARK SMILES O=c1c(O[C@H]2O[C@@H](CO)[C@@H](O)[C@@H](O)[C@@H]2O)c(-c2ccc(O)c(O)c2)oc2cc(O)cc(O)c12
REMARK SMILES IDX 4 1 3 2 16 3 25 4 2 5 26 6 1 7 33 8 27 9 31 10 28 11 30 12
REMARK SMILES IDX 17 13 18 14 19 15 20 16 24 17 22 18 21 19 23 21 32 23 29 25
REMARK SMILES IDX 5 27 14 28 6 29 12 30 7 31 10 32 15 33 13 35 8 37 9 38 11 40
REMARK H PARENT 21 20 23 22 32 24 29 26 15 34 13 36 9 39 11 41
REMARK Flexibility Score: inf
ROOT
ATOM      1  O   UNL     1     -13.453  14.551  11.873  1.00  0.00    -0.454 OA
ENDROOT
BRANCH   1   2
ATOM      2  C   UNL     1     -14.087  14.765  10.625  1.00  0.00     0.214 A 
ATOM      3  C   UNL     1     -15.422  15.217  10.434  1.00  0.00     0.180 A 
ATOM      4  O   UNL     1     -15.880  15.428   9.207  1.00  0.00    -0.452 OA
ATOM      5  C   UNL     1     -13.305  14.533   9.480  1.00  0.00     0.239 A 
ATOM      6  C   UNL     1     -15.168  15.224   8.109  1.00  0.00     0.146 A 
ATOM      7  O   UNL     1     -12.106  14.173   9.640  1.00  0.00    -0.285 OA
ATOM      8  C   UNL     1     -13.846  14.725   8.188  1.00  0.00     0.111 A 
ATOM      9  C   UNL     1     -15.745  15.512   6.871  1.00  0.00     0.094 A 
ATOM     10  C   UNL     1     -13.134  14.480   6.974  1.00  0.00     0.134 A 
ATOM     11  C   UNL     1     -15.020  15.322   5.693  1.00  0.00     0.123 A 
ATOM     12  C   UNL     1     -13.719  14.820   5.749  1.00  0.00     0.093 A 
BRANCH   3  13
ATOM     13  C   UNL     1     -16.361  15.506  11.524  1.00  0.00     0.025 A 
ATOM     14  C   UNL     1     -16.393  14.688  12.662  1.00  0.00     0.016 A 
ATOM     15  C   UNL     1     -17.304  14.949  13.688  1.00  0.00     0.051 A 
ATOM     16  C   UNL     1     -18.232  15.993  13.559  1.00  0.00     0.157 A 
ATOM     17  C   UNL     1     -17.331  16.507  11.366  1.00  0.00     0.062 A 
ATOM     18  C   UNL     1     -18.249  16.767  12.387  1.00  0.00     0.158 A 
BRANCH  16  19
ATOM     19  O   UNL     1     -19.123  16.270  14.593  1.00  0.00    -0.504 OA
ATOM     20  H   UNL     1     -18.930  16.985  15.287  1.00  0.00     0.293 HD
ENDBRANCH  16  19
BRANCH  18  21
ATOM     21  O   UNL     1     -19.202  17.771  12.202  1.00  0.00    -0.504 OA
ATOM     22  H   UNL     1     -19.574  17.999  11.285  1.00  0.00     0.293 HD
ENDBRANCH  18  21
ENDBRANCH   3  13
BRANCH  10  23
ATOM     23  O   UNL     1     -11.875  13.876   6.927  1.00  0.00    -0.507 OA
ATOM     24  H   UNL     1     -11.073  14.230   7.427  1.00  0.00     0.293 HD
ENDBRANCH  10  23
BRANCH  11  25
ATOM     25  O   UNL     1     -15.588  15.620   4.456  1.00  0.00    -0.508 OA
ATOM     26  H   UNL     1     -15.868  14.887   3.813  1.00  0.00     0.293 HD
ENDBRANCH  11  25
ENDBRANCH   1   2
BRANCH   1  27
ATOM     27  C   UNL     1     -13.776  15.118  13.140  1.00  0.00     0.339 C 
ATOM     28  C   UNL     1     -12.645  16.067  13.565  1.00  0.00     0.214 C 
ATOM     29  O   UNL     1     -13.938  14.073  14.089  1.00  0.00    -0.332 OA
ATOM     30  C   UNL     1     -13.017  16.807  14.883  1.00  0.00     0.180 C 
ATOM     31  C   UNL     1     -13.992  14.496  15.455  1.00  0.00     0.179 C 
ATOM     32  C   UNL     1     -14.116  16.039  15.655  1.00  0.00     0.177 C 
BRANCH  28  33
ATOM     33  O   UNL     1     -12.325  16.955  12.518  1.00  0.00    -0.384 OA
ATOM     34  H   UNL     1     -13.160  17.301  12.110  1.00  0.00     0.211 HD
ENDBRANCH  28  33
BRANCH  30  35
ATOM     35  O   UNL     1     -11.878  16.962  15.697  1.00  0.00    -0.387 OA
ATOM     36  H   UNL     1     -11.579  17.905  15.610  1.00  0.00     0.211 HD
ENDBRANCH  30  35
BRANCH  31  37
ATOM     37  C   UNL     1     -12.796  13.875  16.200  1.00  0.00     0.191 C 
BRANCH  37  38
ATOM     38  O   UNL     1     -12.952  13.989  17.591  1.00  0.00    -0.394 OA
ATOM     39  H   UNL     1     -12.041  14.014  17.984  1.00  0.00     0.210 HD
ENDBRANCH  37  38
ENDBRANCH  31  37
BRANCH  32  40
ATOM     40  O   UNL     1     -14.105  16.392  17.016  1.00  0.00    -0.387 OA
ATOM     41  H   UNL     1     -14.500  15.628  17.510  1.00  0.00     0.211 HD
ENDBRANCH  32  40
ENDBRANCH   1  27
TORSDOF 12
ENDMDL
MODEL 2
REMARK VINA RESULT:     7.681      1.444      2.348
REMARK INTER + INTRA:          11.898
REMARK INTER:                  12.150
REMARK INTRA:                  -0.252
REMARK UNBOUND:                 0.624
REMARK SMILES O=c1c(O[C@H]2O[C@@H](CO)[C@@H](O)[C@@H](O)[C@@H]2O)c(-c2ccc(O)c(O)c2)oc2cc(O)cc(O)c12
REMARK SMILES IDX 4 1 3 2 16 3 25 4 2 5 26 6 1 7 33 8 27 9 31 10 28 11 30 12
REMARK SMILES IDX 17 13 18 14 19 15 20 16 24 17 22 18 21 19 23 21 32 23 29 25
REMARK SMILES IDX 5 27 14 28 6 29 12 30 7 31 10 32 15 33 13 35 8 37 9 38 11 40
REMARK H PARENT 21 20 23 22 32 24 29 26 15 34 13 36 9 39 11 41
REMARK Flexibility Score: inf
ROOT
ATOM      1  O   UNL     1     -14.861  16.199  12.586  1.00  0.00    -0.454 OA
ENDROOT
BRANCH   1   2
ATOM      2  C   UNL     1     -15.087  15.853  11.232  1.00  0.00     0.214 A 
ATOM      3  C   UNL     1     -16.298  16.051  10.511  1.00  0.00     0.180 A 
ATOM      4  O   UNL     1     -16.363  15.730   9.226  1.00  0.00    -0.452 OA
ATOM      5  C   UNL     1     -14.000  15.292  10.541  1.00  0.00     0.239 A 
ATOM      6  C   UNL     1     -15.356  15.204   8.546  1.00  0.00     0.146 A 
ATOM      7  O   UNL     1     -12.909  15.151  11.160  1.00  0.00    -0.285 OA
ATOM      8  C   UNL     1     -14.125  14.919   9.183  1.00  0.00     0.111 A 
ATOM      9  C   UNL     1     -15.531  14.936   7.187  1.00  0.00     0.094 A 
ATOM     10  C   UNL     1     -13.084  14.311   8.417  1.00  0.00     0.134 A 
ATOM     11  C   UNL     1     -14.487  14.394   6.435  1.00  0.00     0.123 A 
ATOM     12  C   UNL     1     -13.269  14.096   7.047  1.00  0.00     0.093 A 
BRANCH   3  13
ATOM     13  C   UNL     1     -17.518  16.628  11.089  1.00  0.00     0.025 A 
ATOM     14  C   UNL     1     -17.819  16.432  12.444  1.00  0.00     0.016 A 
ATOM     15  C   UNL     1     -18.992  16.960  12.985  1.00  0.00     0.051 A 
ATOM     16  C   UNL     1     -19.906  17.638  12.165  1.00  0.00     0.157 A 
ATOM     17  C   UNL     1     -18.461  17.247  10.254  1.00  0.00     0.062 A 
ATOM     18  C   UNL     1     -19.641  17.771  10.791  1.00  0.00     0.158 A 
BRANCH  16  19
ATOM     19  O   UNL     1     -21.064  18.187  12.710  1.00  0.00    -0.504 OA
ATOM     20  H   UNL     1     -21.051  19.068  13.213  1.00  0.00     0.293 HD
ENDBRANCH  16  19
BRANCH  18  21
ATOM     21  O   UNL     1     -20.560  18.383   9.937  1.00  0.00    -0.504 OA
ATOM     22  H   UNL     1     -21.115  19.183  10.226  1.00  0.00     0.293 HD
ENDBRANCH  18  21
ENDBRANCH   3  13
BRANCH  10  23
ATOM     23  O   UNL     1     -11.876  13.875   8.967  1.00  0.00    -0.507 OA
ATOM     24  H   UNL     1     -11.243  13.251   8.489  1.00  0.00     0.293 HD
ENDBRANCH  10  23
BRANCH  11  25
ATOM     25  O   UNL     1     -14.653  14.137   5.075  1.00  0.00    -0.508 OA
ATOM     26  H   UNL     1     -15.007  13.246   4.745  1.00  0.00     0.293 HD
ENDBRANCH  11  25
ENDBRANCH   1   2
BRANCH   1  27
ATOM     27  C   UNL     1     -14.016  15.555  13.536  1.00  0.00     0.339 C 
ATOM     28  C   UNL     1     -14.887  14.759  14.520  1.00  0.00     0.214 C 
ATOM     29  O   UNL     1     -13.254  16.538  14.222  1.00  0.00    -0.332 OA
ATOM     30  C   UNL     1     -13.997  13.935  15.497  1.00  0.00     0.180 C 
ATOM     31  C   UNL     1     -12.567  16.071  15.387  1.00  0.00     0.179 C 
ATOM     32  C   UNL     1     -12.567  14.520  15.566  1.00  0.00     0.177 C 
BRANCH  28  33
ATOM     33  O   UNL     1     -15.813  13.956  13.824  1.00  0.00    -0.384 OA
ATOM     34  H   UNL     1     -16.328  13.408  14.471  1.00  0.00     0.211 HD
ENDBRANCH  28  33
BRANCH  30  35
ATOM     35  O   UNL     1     -14.571  13.915  16.783  1.00  0.00    -0.387 OA
ATOM     36  H   UNL     1     -15.205  14.677  16.837  1.00  0.00     0.211 HD
ENDBRANCH  30  35
BRANCH  31  37
ATOM     37  C   UNL     1     -13.119  16.828  16.609  1.00  0.00     0.191 C 
BRANCH  37  38
ATOM     38  O   UNL     1     -12.237  16.744  17.699  1.00  0.00    -0.394 OA
ATOM     39  H   UNL     1     -11.319  16.698  17.326  1.00  0.00     0.210 HD
ENDBRANCH  37  38
ENDBRANCH  31  37
BRANCH  32  40
ATOM     40  O   UNL     1     -11.930  14.131  16.757  1.00  0.00    -0.387 OA
ATOM     41  H   UNL     1     -12.368  13.290  17.051  1.00  0.00     0.211 HD
ENDBRANCH  32  40
ENDBRANCH   1  27
TORSDOF 12
ENDMDL
MODEL 3
REMARK VINA RESULT:     9.430     10.899     13.711
REMARK INTER + INTRA:          14.465
REMARK INTER:                  12.535
REMARK INTRA:                   1.930
REMARK UNBOUND:                 0.624
REMARK SMILES O=c1c(O[C@H]2O[C@@H](CO)[C@@H](O)[C@@H](O)[C@@H]2O)c(-c2ccc(O)c(O)c2)oc2cc(O)cc(O)c12
REMARK SMILES IDX 4 1 3 2 16 3 25 4 2 5 26 6 1 7 33 8 27 9 31 10 28 11 30 12
REMARK SMILES IDX 17 13 18 14 19 15 20 16 24 17 22 18 21 19 23 21 32 23 29 25
REMARK SMILES IDX 5 27 14 28 6 29 12 30 7 31 10 32 15 33 13 35 8 37 9 38 11 40
REMARK H PARENT 21 20 23 22 32 24 29 26 15 34 13 36 9 39 11 41
REMARK Flexibility Score: inf
ROOT
ATOM      1  O   UNL     1     -23.272  16.757  19.294  1.00  0.00    -0.454 OA
ENDROOT
BRANCH   1   2
ATOM      2  C   UNL     1     -24.619  16.595  18.887  1.00  0.00     0.214 A 
ATOM      3  C   UNL     1     -25.250  17.269  17.806  1.00  0.00     0.180 A 
ATOM      4  O   UNL     1     -26.509  16.988  17.494  1.00  0.00    -0.452 OA
ATOM      5  C   UNL     1     -25.380  15.658  19.607  1.00  0.00     0.239 A 
ATOM      6  C   UNL     1     -27.251  16.108  18.149  1.00  0.00     0.146 A 
ATOM      7  O   UNL     1     -24.817  15.024  20.541  1.00  0.00    -0.285 OA
ATOM      8  C   UNL     1     -26.734  15.420  19.273  1.00  0.00     0.111 A 
ATOM      9  C   UNL     1     -28.554  15.870  17.709  1.00  0.00     0.094 A 
ATOM     10  C   UNL     1     -27.587  14.515  19.972  1.00  0.00     0.134 A 
ATOM     11  C   UNL     1     -29.361  14.939  18.366  1.00  0.00     0.123 A 
ATOM     12  C   UNL     1     -28.873  14.260  19.483  1.00  0.00     0.093 A 
BRANCH   3  13
ATOM     13  C   UNL     1     -24.591  18.270  16.958  1.00  0.00     0.025 A 
ATOM     14  C   UNL     1     -24.941  18.389  15.606  1.00  0.00     0.016 A 
ATOM     15  C   UNL     1     -24.294  19.324  14.794  1.00  0.00     0.051 A 
ATOM     16  C   UNL     1     -23.252  20.107  15.311  1.00  0.00     0.157 A 
ATOM     17  C   UNL     1     -23.505  19.004  17.458  1.00  0.00     0.062 A 
ATOM     18  C   UNL     1     -22.851  19.936  16.647  1.00  0.00     0.158 A 
BRANCH  16  19
ATOM     19  O   UNL     1     -22.625  21.057  14.509  1.00  0.00    -0.504 OA
ATOM     20  H   UNL     1     -22.870  21.174  13.531  1.00  0.00     0.293 HD
ENDBRANCH  16  19
BRANCH  18  21
ATOM     21  O   UNL     1     -21.775  20.654  17.172  1.00  0.00    -0.504 OA
ATOM     22  H   UNL     1     -21.046  21.042  16.582  1.00  0.00     0.293 HD
ENDBRANCH  18  21
ENDBRANCH   3  13
BRANCH  10  23
ATOM     23  O   UNL     1     -27.226  13.876  21.161  1.00  0.00    -0.507 OA
ATOM     24  H   UNL     1     -26.758  12.982  21.189  1.00  0.00     0.293 HD
ENDBRANCH  10  23
BRANCH  11  25
ATOM     25  O   UNL     1     -30.659  14.689  17.924  1.00  0.00    -0.508 OA
ATOM     26  H   UNL     1     -30.931  13.778  17.572  1.00  0.00     0.293 HD
ENDBRANCH  11  25
ENDBRANCH   1   2
BRANCH   1  27
ATOM     27  C   UNL     1     -22.763  17.506  20.394  1.00  0.00     0.339 C 
ATOM     28  C   UNL     1     -23.871  18.427  20.926  1.00  0.00     0.214 C 
ATOM     29  O   UNL     1     -21.643  18.265  19.961  1.00  0.00    -0.332 OA
ATOM     30  C   UNL     1     -23.396  19.170  22.210  1.00  0.00     0.180 C 
ATOM     31  C   UNL     1     -21.197  19.269  20.877  1.00  0.00     0.179 C 
ATOM     32  C   UNL     1     -21.851  19.195  22.293  1.00  0.00     0.177 C 
BRANCH  28  33
ATOM     33  O   UNL     1     -25.062  17.702  21.130  1.00  0.00    -0.384 OA
ATOM     34  H   UNL     1     -25.687  17.875  20.380  1.00  0.00     0.211 HD
ENDBRANCH  28  33
BRANCH  30  35
ATOM     35  O   UNL     1     -23.900  20.485  22.231  1.00  0.00    -0.387 OA
ATOM     36  H   UNL     1     -24.758  20.481  21.731  1.00  0.00     0.211 HD
ENDBRANCH  30  35
BRANCH  31  37
ATOM     37  C   UNL     1     -21.354  20.644  20.201  1.00  0.00     0.191 C 
BRANCH  37  38
ATOM     38  O   UNL     1     -22.680  20.859  19.793  1.00  0.00    -0.394 OA
ATOM     39  H   UNL     1     -23.008  21.659  20.282  1.00  0.00     0.210 HD
ENDBRANCH  37  38
ENDBRANCH  31  37
BRANCH  32  40
ATOM     40  O   UNL     1     -21.417  20.242  23.125  1.00  0.00    -0.387 OA
ATOM     41  H   UNL     1     -22.170  20.447  23.738  1.00  0.00     0.211 HD
ENDBRANCH  32  40
ENDBRANCH   1  27
TORSDOF 12
ENDMDL
MODEL 4
REMARK VINA RESULT:    10.200     10.741     13.503
REMARK INTER + INTRA:          15.595
REMARK INTER:                  15.088
REMARK INTRA:                   0.506
REMARK UNBOUND:                 0.624
REMARK SMILES O=c1c(O[C@H]2O[C@@H](CO)[C@@H](O)[C@@H](O)[C@@H]2O)c(-c2ccc(O)c(O)c2)oc2cc(O)cc(O)c12
REMARK SMILES IDX 4 1 3 2 16 3 25 4 2 5 26 6 1 7 33 8 27 9 31 10 28 11 30 12
REMARK SMILES IDX 17 13 18 14 19 15 20 16 24 17 22 18 21 19 23 21 32 23 29 25
REMARK SMILES IDX 5 27 14 28 6 29 12 30 7 31 10 32 15 33 13 35 8 37 9 38 11 40
REMARK H PARENT 21 20 23 22 32 24 29 26 15 34 13 36 9 39 11 41
REMARK Flexibility Score: inf
ROOT
ATOM      1  O   UNL     1     -23.231  16.886  19.420  1.00  0.00    -0.454 OA
ENDROOT
BRANCH   1   2
ATOM      2  C   UNL     1     -24.559  16.661  18.982  1.00  0.00     0.214 A 
ATOM      3  C   UNL     1     -25.188  17.288  17.871  1.00  0.00     0.180 A 
ATOM      4  O   UNL     1     -26.425  16.948  17.532  1.00  0.00    -0.452 OA
ATOM      5  C   UNL     1     -25.300  15.707  19.701  1.00  0.00     0.239 A 
ATOM      6  C   UNL     1     -27.148  16.051  18.186  1.00  0.00     0.146 A 
ATOM      7  O   UNL     1     -24.736  15.115  20.661  1.00  0.00    -0.285 OA
ATOM      8  C   UNL     1     -26.633  15.407  19.336  1.00  0.00     0.111 A 
ATOM      9  C   UNL     1     -28.428  15.751  17.717  1.00  0.00     0.094 A 
ATOM     10  C   UNL     1     -27.467  14.481  20.032  1.00  0.00     0.134 A 
ATOM     11  C   UNL     1     -29.214  14.800  18.372  1.00  0.00     0.123 A 
ATOM     12  C   UNL     1     -28.729  14.163  19.515  1.00  0.00     0.093 A 
BRANCH   3  13
ATOM     13  C   UNL     1     -24.548  18.298  17.020  1.00  0.00     0.025 A 
ATOM     14  C   UNL     1     -24.942  18.446  15.683  1.00  0.00     0.016 A 
ATOM     15  C   UNL     1     -24.314  19.391  14.868  1.00  0.00     0.051 A 
ATOM     16  C   UNL     1     -23.247  20.154  15.364  1.00  0.00     0.157 A 
ATOM     17  C   UNL     1     -23.439  19.013  17.497  1.00  0.00     0.062 A 
ATOM     18  C   UNL     1     -22.803  19.954  16.682  1.00  0.00     0.158 A 
BRANCH  16  19
ATOM     19  O   UNL     1     -22.638  21.114  14.559  1.00  0.00    -0.504 OA
ATOM     20  H   UNL     1     -22.493  22.065  14.881  1.00  0.00     0.293 HD
ENDBRANCH  16  19
BRANCH  18  21
ATOM     21  O   UNL     1     -21.703  20.652  17.184  1.00  0.00    -0.504 OA
ATOM     22  H   UNL     1     -20.863  20.179  17.501  1.00  0.00     0.293 HD
ENDBRANCH  18  21
ENDBRANCH   3  13
BRANCH  10  23
ATOM     23  O   UNL     1     -27.112  13.880  21.242  1.00  0.00    -0.507 OA
ATOM     24  H   UNL     1     -27.439  14.208  22.139  1.00  0.00     0.293 HD
ENDBRANCH  10  23
BRANCH  11  25
ATOM     25  O   UNL     1     -30.488  14.488  17.901  1.00  0.00    -0.508 OA
ATOM     26  H   UNL     1     -30.921  13.594  18.102  1.00  0.00     0.293 HD
ENDBRANCH  11  25
ENDBRANCH   1   2
BRANCH   1  27
ATOM     27  C   UNL     1     -22.628  18.110  19.828  1.00  0.00     0.339 C 
ATOM     28  C   UNL     1     -21.414  17.798  20.716  1.00  0.00     0.214 C 
ATOM     29  O   UNL     1     -23.583  18.886  20.538  1.00  0.00    -0.332 OA
ATOM     30  C   UNL     1     -20.648  19.104  21.078  1.00  0.00     0.180 C 
ATOM     31  C   UNL     1     -23.050  20.012  21.241  1.00  0.00     0.179 C 
ATOM     32  C   UNL     1     -21.561  20.342  20.910  1.00  0.00     0.177 C 
BRANCH  28  33
ATOM     33  O   UNL     1     -20.586  16.838  20.101  1.00  0.00    -0.384 OA
ATOM     34  H   UNL     1     -20.718  16.867  19.118  1.00  0.00     0.211 HD
ENDBRANCH  28  33
BRANCH  30  35
ATOM     35  O   UNL     1     -20.164  19.040  22.398  1.00  0.00    -0.387 OA
ATOM     36  H   UNL     1     -19.992  18.084  22.604  1.00  0.00     0.211 HD
ENDBRANCH  30  35
BRANCH  31  37
ATOM     37  C   UNL     1     -23.313  19.810  22.745  1.00  0.00     0.191 C 
BRANCH  37  38
ATOM     38  O   UNL     1     -24.188  18.734  22.966  1.00  0.00    -0.394 OA
ATOM     39  H   UNL     1     -23.664  17.902  22.833  1.00  0.00     0.210 HD
ENDBRANCH  37  38
ENDBRANCH  31  37
BRANCH  32  40
ATOM     40  O   UNL     1     -21.081  21.419  21.676  1.00  0.00    -0.387 OA
ATOM     41  H   UNL     1     -20.196  21.664  21.298  1.00  0.00     0.211 HD
ENDBRANCH  32  40
ENDBRANCH   1  27
TORSDOF 12
ENDMDL
MODEL 5
REMARK VINA RESULT:    10.525      3.180      6.016
REMARK INTER + INTRA:          16.071
REMARK INTER:                  17.456
REMARK INTRA:                  -1.385
REMARK UNBOUND:                 0.624
REMARK SMILES O=c1c(O[C@H]2O[C@@H](CO)[C@@H](O)[C@@H](O)[C@@H]2O)c(-c2ccc(O)c(O)c2)oc2cc(O)cc(O)c12
REMARK SMILES IDX 4 1 3 2 16 3 25 4 2 5 26 6 1 7 33 8 27 9 31 10 28 11 30 12
REMARK SMILES IDX 17 13 18 14 19 15 20 16 24 17 22 18 21 19 23 21 32 23 29 25
REMARK SMILES IDX 5 27 14 28 6 29 12 30 7 31 10 32 15 33 13 35 8 37 9 38 11 40
REMARK H PARENT 21 20 23 22 32 24 29 26 15 34 13 36 9 39 11 41
REMARK Flexibility Score: inf
ROOT
ATOM      1  O   UNL     1     -14.834  14.582   7.108  1.00  0.00    -0.454 OA
ENDROOT
BRANCH   1   2
ATOM      2  C   UNL     1     -16.246  14.549   7.205  1.00  0.00     0.214 A 
ATOM      3  C   UNL     1     -17.003  14.678   8.403  1.00  0.00     0.180 A 
ATOM      4  O   UNL     1     -18.328  14.683   8.351  1.00  0.00    -0.452 OA
ATOM      5  C   UNL     1     -16.951  14.405   5.998  1.00  0.00     0.239 A 
ATOM      6  C   UNL     1     -19.022  14.554   7.230  1.00  0.00     0.146 A 
ATOM      7  O   UNL     1     -16.290  14.333   4.926  1.00  0.00    -0.285 OA
ATOM      8  C   UNL     1     -18.365  14.368   5.990  1.00  0.00     0.111 A 
ATOM      9  C   UNL     1     -20.416  14.606   7.294  1.00  0.00     0.094 A 
ATOM     10  C   UNL     1     -19.158  14.189   4.817  1.00  0.00     0.134 A 
ATOM     11  C   UNL     1     -21.180  14.488   6.132  1.00  0.00     0.123 A 
ATOM     12  C   UNL     1     -20.551  14.292   4.901  1.00  0.00     0.093 A 
BRANCH   3  13
ATOM     13  C   UNL     1     -16.415  14.839   9.738  1.00  0.00     0.025 A 
ATOM     14  C   UNL     1     -15.523  13.879  10.237  1.00  0.00     0.016 A 
ATOM     15  C   UNL     1     -14.985  14.020  11.517  1.00  0.00     0.051 A 
ATOM     16  C   UNL     1     -15.379  15.090  12.335  1.00  0.00     0.157 A 
ATOM     17  C   UNL     1     -16.860  15.870  10.579  1.00  0.00     0.062 A 
ATOM     18  C   UNL     1     -16.330  16.011  11.864  1.00  0.00     0.158 A 
BRANCH  16  19
ATOM     19  O   UNL     1     -14.823  15.245  13.602  1.00  0.00    -0.504 OA
ATOM     20  H   UNL     1     -14.231  14.531  14.015  1.00  0.00     0.293 HD
ENDBRANCH  16  19
BRANCH  18  21
ATOM     21  O   UNL     1     -16.790  17.049  12.677  1.00  0.00    -0.504 OA
ATOM     22  H   UNL     1     -16.729  18.022  12.396  1.00  0.00     0.293 HD
ENDBRANCH  18  21
ENDBRANCH   3  13
BRANCH  10  23
ATOM     23  O   UNL     1     -18.623  13.877   3.564  1.00  0.00    -0.507 OA
ATOM     24  H   UNL     1     -18.820  14.411   2.730  1.00  0.00     0.293 HD
ENDBRANCH  10  23
BRANCH  11  25
ATOM     25  O   UNL     1     -22.571  14.552   6.189  1.00  0.00    -0.508 OA
ATOM     26  H   UNL     1     -23.109  15.013   5.464  1.00  0.00     0.293 HD
ENDBRANCH  11  25
ENDBRANCH   1   2
BRANCH   1  27
ATOM     27  C   UNL     1     -13.979  15.716   6.999  1.00  0.00     0.339 C 
ATOM     28  C   UNL     1     -13.103  15.803   8.259  1.00  0.00     0.214 C 
ATOM     29  O   UNL     1     -14.772  16.886   6.858  1.00  0.00    -0.332 OA
ATOM     30  C   UNL     1     -12.063  16.954   8.124  1.00  0.00     0.180 C 
ATOM     31  C   UNL     1     -14.068  18.121   7.013  1.00  0.00     0.179 C 
ATOM     32  C   UNL     1     -12.514  17.983   7.062  1.00  0.00     0.177 C 
BRANCH  28  33
ATOM     33  O   UNL     1     -12.500  14.559   8.529  1.00  0.00    -0.384 OA
ATOM     34  H   UNL     1     -11.665  14.700   9.047  1.00  0.00     0.211 HD
ENDBRANCH  28  33
BRANCH  30  35
ATOM     35  O   UNL     1     -11.876  17.594   9.365  1.00  0.00    -0.387 OA
ATOM     36  H   UNL     1     -12.775  17.744   9.758  1.00  0.00     0.211 HD
ENDBRANCH  30  35
BRANCH  31  37
ATOM     37  C   UNL     1     -14.656  18.863   8.228  1.00  0.00     0.191 C 
BRANCH  37  38
ATOM     38  O   UNL     1     -15.851  18.263   8.658  1.00  0.00    -0.394 OA
ATOM     39  H   UNL     1     -16.179  18.791   9.432  1.00  0.00     0.210 HD
ENDBRANCH  37  38
ENDBRANCH  31  37
BRANCH  32  40
ATOM     40  O   UNL     1     -11.886  19.223   7.275  1.00  0.00    -0.387 OA
ATOM     41  H   UNL     1     -11.810  19.659   6.386  1.00  0.00     0.211 HD
ENDBRANCH  32  40
ENDBRANCH   1  27
TORSDOF 12
ENDMDL
