MODEL 1
REMARK VINA RESULT:    -4.355      0.000      0.000
REMARK INTER + INTRA:          -9.666
REMARK INTER:                  -7.920
REMARK INTRA:                  -1.747
REMARK UNBOUND:                -1.747
REMARK SMILES CCCCCCCCCCCCCCCC(=O)[O-]
REMARK SMILES IDX 9 1 10 2 11 3 12 4 13 5 14 6 15 7 16 8 17 9 18 10 8 11 7 12
REMARK SMILES IDX 6 13 5 14 4 15 3 16 2 17 1 18
REMARK H PARENT
REMARK Flexibility Score: inf
ROOT
ATOM      1  C   UNL     1      16.302  63.559  31.308  1.00  0.00     0.000 C 
ENDROOT
BRANCH   1   2
ATOM      2  C   UNL     1      15.427  64.761  31.694  1.00  0.00     0.000 C 
BRANCH   2   3
ATOM      3  C   UNL     1      15.299  64.938  33.217  1.00  0.00     0.000 C 
BRANCH   3   4
ATOM      4  C   UNL     1      14.806  66.341  33.609  1.00  0.00     0.000 C 
BRANCH   4   5
ATOM      5  C   UNL     1      15.028  67.376  32.495  1.00  0.00     0.000 C 
BRANCH   5   6
ATOM      6  C   UNL     1      15.576  68.713  33.025  1.00  0.00     0.006 C 
BRANCH   6   7
ATOM      7  C   UNL     1      16.385  68.535  34.317  1.00  0.00     0.053 C 
BRANCH   7   8
ATOM      8  C   UNL     1      17.291  69.703  34.568  1.00  0.00     0.041 C 
ATOM      9  O   UNL     1      17.077  70.805  33.998  1.00  0.00    -0.550 OA
ATOM     10  O   UNL     1      18.391  69.561  35.404  1.00  0.00    -0.550 OA
ENDBRANCH   7   8
ENDBRANCH   6   7
ENDBRANCH   5   6
ENDBRANCH   4   5
ENDBRANCH   3   4
ENDBRANCH   2   3
ENDBRANCH   1   2
BRANCH   1  11
ATOM     11  C   UNL     1      16.215  62.454  32.371  1.00  0.00     0.000 C 
BRANCH  11  12
ATOM     12  C   UNL     1      15.488  61.195  31.867  1.00  0.00    -0.000 C 
BRANCH  12  13
ATOM     13  C   UNL     1      14.359  60.681  32.784  1.00  0.00    -0.000 C 
BRANCH  13  14
ATOM     14  C   UNL     1      13.715  61.740  33.705  1.00  0.00    -0.000 C 
BRANCH  14  15
ATOM     15  C   UNL     1      12.203  61.559  33.941  1.00  0.00    -0.000 C 
BRANCH  15  16
ATOM     16  C   UNL     1      11.322  62.218  32.856  1.00  0.00    -0.000 C 
BRANCH  16  17
ATOM     17  C   UNL     1      12.035  63.343  32.088  1.00  0.00    -0.003 C 
ATOM     18  C   UNL     1      12.215  63.025  30.604  1.00  0.00     0.004 C 
ENDBRANCH  16  17
ENDBRANCH  15  16
ENDBRANCH  14  15
ENDBRANCH  13  14
ENDBRANCH  12  13
ENDBRANCH  11  12
ENDBRANCH   1  11
TORSDOF 14
ENDMDL
MODEL 2
REMARK VINA RESULT:    -4.309      2.881      4.234
REMARK INTER + INTRA:          -9.582
REMARK INTER:                  -8.663
REMARK INTRA:                  -0.919
REMARK UNBOUND:                -1.747
REMARK SMILES CCCCCCCCCCCCCCCC(=O)[O-]
REMARK SMILES IDX 9 1 10 2 11 3 12 4 13 5 14 6 15 7 16 8 17 9 18 10 8 11 7 12
REMARK SMILES IDX 6 13 5 14 4 15 3 16 2 17 1 18
REMARK H PARENT
REMARK Flexibility Score: inf
ROOT
ATOM      1  C   UNL     1      11.545  62.734  32.275  1.00  0.00     0.000 C 
ENDROOT
BRANCH   1   2
ATOM      2  C   UNL     1      12.614  63.792  31.960  1.00  0.00     0.000 C 
BRANCH   2   3
ATOM      3  C   UNL     1      13.980  63.173  31.618  1.00  0.00     0.000 C 
BRANCH   3   4
ATOM      4  C   UNL     1      15.147  64.145  31.865  1.00  0.00     0.000 C 
BRANCH   4   5
ATOM      5  C   UNL     1      14.798  65.236  32.890  1.00  0.00     0.000 C 
BRANCH   5   6
ATOM      6  C   UNL     1      14.845  66.652  32.291  1.00  0.00     0.006 C 
BRANCH   6   7
ATOM      7  C   UNL     1      15.365  67.689  33.296  1.00  0.00     0.053 C 
BRANCH   7   8
ATOM      8  C   UNL     1      15.593  69.021  32.648  1.00  0.00     0.041 C 
ATOM      9  O   UNL     1      16.436  69.824  33.130  1.00  0.00    -0.550 OA
ATOM     10  O   UNL     1      14.850  69.388  31.534  1.00  0.00    -0.550 OA
ENDBRANCH   7   8
ENDBRANCH   6   7
ENDBRANCH   5   6
ENDBRANCH   4   5
ENDBRANCH   3   4
ENDBRANCH   2   3
ENDBRANCH   1   2
BRANCH   1  11
ATOM     11  C   UNL     1      11.886  61.980  33.568  1.00  0.00     0.000 C 
BRANCH  11  12
ATOM     12  C   UNL     1      11.981  60.458  33.366  1.00  0.00    -0.000 C 
BRANCH  12  13
ATOM     13  C   UNL     1      11.347  59.931  32.063  1.00  0.00    -0.000 C 
BRANCH  13  14
ATOM     14  C   UNL     1       9.949  59.294  32.213  1.00  0.00    -0.000 C 
BRANCH  14  15
ATOM     15  C   UNL     1       8.847  59.942  31.353  1.00  0.00    -0.000 C 
BRANCH  15  16
ATOM     16  C   UNL     1       7.422  59.450  31.698  1.00  0.00    -0.000 C 
BRANCH  16  17
ATOM     17  C   UNL     1       7.365  58.573  32.959  1.00  0.00    -0.003 C 
ATOM     18  C   UNL     1       6.042  58.704  33.713  1.00  0.00     0.004 C 
ENDBRANCH  16  17
ENDBRANCH  15  16
ENDBRANCH  14  15
ENDBRANCH  13  14
ENDBRANCH  12  13
ENDBRANCH  11  12
ENDBRANCH   1  11
TORSDOF 14
ENDMDL
MODEL 3
REMARK VINA RESULT:    -4.284      1.209      2.687
REMARK INTER + INTRA:          -9.537
REMARK INTER:                  -7.526
REMARK INTRA:                  -2.011
REMARK UNBOUND:                -1.747
REMARK SMILES CCCCCCCCCCCCCCCC(=O)[O-]
REMARK SMILES IDX 9 1 10 2 11 3 12 4 13 5 14 6 15 7 16 8 17 9 18 10 8 11 7 12
REMARK SMILES IDX 6 13 5 14 4 15 3 16 2 17 1 18
REMARK H PARENT
REMARK Flexibility Score: inf
ROOT
ATOM      1  C   UNL     1      15.025  61.731  31.095  1.00  0.00     0.000 C 
ENDROOT
BRANCH   1   2
ATOM      2  C   UNL     1      15.456  63.188  31.318  1.00  0.00     0.000 C 
BRANCH   2   3
ATOM      3  C   UNL     1      16.291  63.371  32.597  1.00  0.00     0.000 C 
BRANCH   3   4
ATOM      4  C   UNL     1      16.359  64.839  33.054  1.00  0.00     0.000 C 
BRANCH   4   5
ATOM      5  C   UNL     1      14.980  65.518  33.057  1.00  0.00     0.000 C 
BRANCH   5   6
ATOM      6  C   UNL     1      14.906  66.707  34.032  1.00  0.00     0.006 C 
BRANCH   6   7
ATOM      7  C   UNL     1      15.666  67.933  33.509  1.00  0.00     0.053 C 
BRANCH   7   8
ATOM      8  C   UNL     1      16.639  68.454  34.523  1.00  0.00     0.041 C 
ATOM      9  O   UNL     1      17.168  67.671  35.355  1.00  0.00    -0.550 OA
ATOM     10  O   UNL     1      16.934  69.811  34.569  1.00  0.00    -0.550 OA
ENDBRANCH   7   8
ENDBRANCH   6   7
ENDBRANCH   5   6
ENDBRANCH   4   5
ENDBRANCH   3   4
ENDBRANCH   2   3
ENDBRANCH   1   2
BRANCH   1  11
ATOM     11  C   UNL     1      13.768  61.661  30.216  1.00  0.00     0.000 C 
BRANCH  11  12
ATOM     12  C   UNL     1      12.866  62.899  30.361  1.00  0.00    -0.000 C 
BRANCH  12  13
ATOM     13  C   UNL     1      11.557  62.667  31.143  1.00  0.00    -0.000 C 
BRANCH  13  14
ATOM     14  C   UNL     1      11.483  63.337  32.531  1.00  0.00    -0.000 C 
BRANCH  14  15
ATOM     15  C   UNL     1      12.471  62.779  33.573  1.00  0.00    -0.000 C 
BRANCH  15  16
ATOM     16  C   UNL     1      12.161  61.329  34.009  1.00  0.00    -0.000 C 
BRANCH  16  17
ATOM     17  C   UNL     1      13.356  60.374  33.856  1.00  0.00    -0.003 C 
ATOM     18  C   UNL     1      13.036  59.160  32.984  1.00  0.00     0.004 C 
ENDBRANCH  16  17
ENDBRANCH  15  16
ENDBRANCH  14  15
ENDBRANCH  13  14
ENDBRANCH  12  13
ENDBRANCH  11  12
ENDBRANCH   1  11
TORSDOF 14
ENDMDL
MODEL 4
REMARK VINA RESULT:    -4.284      5.266      8.193
REMARK INTER + INTRA:          -9.537
REMARK INTER:                  -8.172
REMARK INTRA:                  -1.364
REMARK UNBOUND:                -1.747
REMARK SMILES CCCCCCCCCCCCCCCC(=O)[O-]
REMARK SMILES IDX 9 1 10 2 11 3 12 4 13 5 14 6 15 7 16 8 17 9 18 10 8 11 7 12
REMARK SMILES IDX 6 13 5 14 4 15 3 16 2 17 1 18
REMARK H PARENT
REMARK Flexibility Score: inf
ROOT
ATOM      1  C   UNL     1      13.451  62.630  30.467  1.00  0.00     0.000 C 
ENDROOT
BRANCH   1   2
ATOM      2  C   UNL     1      12.386  63.517  31.128  1.00  0.00     0.000 C 
BRANCH   2   3
ATOM      3  C   UNL     1      12.242  63.250  32.636  1.00  0.00     0.000 C 
BRANCH   3   4
ATOM      4  C   UNL     1      11.159  62.203  32.950  1.00  0.00     0.000 C 
BRANCH   4   5
ATOM      5  C   UNL     1      11.730  60.780  33.059  1.00  0.00     0.000 C 
BRANCH   5   6
ATOM      6  C   UNL     1      10.880  59.739  32.311  1.00  0.00     0.006 C 
BRANCH   6   7
ATOM      7  C   UNL     1       9.750  60.389  31.500  1.00  0.00     0.053 C 
BRANCH   7   8
ATOM      8  C   UNL     1       8.516  59.539  31.490  1.00  0.00     0.041 C 
ATOM      9  O   UNL     1       8.105  59.006  32.553  1.00  0.00    -0.550 OA
ATOM     10  O   UNL     1       7.840  59.311  30.298  1.00  0.00    -0.550 OA
ENDBRANCH   7   8
ENDBRANCH   6   7
ENDBRANCH   5   6
ENDBRANCH   4   5
ENDBRANCH   3   4
ENDBRANCH   2   3
ENDBRANCH   1   2
BRANCH   1  11
ATOM     11  C   UNL     1      14.713  62.548  31.338  1.00  0.00     0.000 C 
BRANCH  11  12
ATOM     12  C   UNL     1      15.661  63.741  31.131  1.00  0.00    -0.000 C 
BRANCH  12  13
ATOM     13  C   UNL     1      16.200  64.381  32.428  1.00  0.00    -0.000 C 
BRANCH  13  14
ATOM     14  C   UNL     1      15.194  65.252  33.208  1.00  0.00    -0.000 C 
BRANCH  14  15
ATOM     15  C   UNL     1      14.883  66.617  32.564  1.00  0.00    -0.000 C 
BRANCH  15  16
ATOM     16  C   UNL     1      15.627  67.799  33.225  1.00  0.00    -0.000 C 
BRANCH  16  17
ATOM     17  C   UNL     1      15.285  69.163  32.604  1.00  0.00    -0.003 C 
ATOM     18  C   UNL     1      14.652  69.041  31.219  1.00  0.00     0.004 C 
ENDBRANCH  16  17
ENDBRANCH  15  16
ENDBRANCH  14  15
ENDBRANCH  13  14
ENDBRANCH  12  13
ENDBRANCH  11  12
ENDBRANCH   1  11
TORSDOF 14
ENDMDL
MODEL 5
REMARK VINA RESULT:    -4.267      2.256      4.048
REMARK INTER + INTRA:          -9.507
REMARK INTER:                  -8.355
REMARK INTRA:                  -1.151
REMARK UNBOUND:                -1.747
REMARK SMILES CCCCCCCCCCCCCCCC(=O)[O-]
REMARK SMILES IDX 9 1 10 2 11 3 12 4 13 5 14 6 15 7 16 8 17 9 18 10 8 11 7 12
REMARK SMILES IDX 6 13 5 14 4 15 3 16 2 17 1 18
REMARK H PARENT
REMARK Flexibility Score: inf
ROOT
ATOM      1  C   UNL     1      15.210  67.465  32.615  1.00  0.00     0.000 C 
ENDROOT
BRANCH   1   2
ATOM      2  C   UNL     1      15.574  68.798  33.286  1.00  0.00     0.000 C 
BRANCH   2   3
ATOM      3  C   UNL     1      17.092  68.991  33.443  1.00  0.00     0.000 C 
BRANCH   3   4
ATOM      4  C   UNL     1      17.507  69.241  34.903  1.00  0.00     0.000 C 
BRANCH   4   5
ATOM      5  C   UNL     1      16.868  68.240  35.878  1.00  0.00     0.000 C 
BRANCH   5   6
ATOM      6  C   UNL     1      17.905  67.528  36.764  1.00  0.00     0.006 C 
BRANCH   6   7
ATOM      7  C   UNL     1      18.981  68.491  37.283  1.00  0.00     0.053 C 
BRANCH   7   8
ATOM      8  C   UNL     1      18.942  68.612  38.776  1.00  0.00     0.041 C 
ATOM      9  O   UNL     1      19.913  68.210  39.470  1.00  0.00    -0.550 OA
ATOM     10  O   UNL     1      17.818  69.137  39.401  1.00  0.00    -0.550 OA
ENDBRANCH   7   8
ENDBRANCH   6   7
ENDBRANCH   5   6
ENDBRANCH   4   5
ENDBRANCH   3   4
ENDBRANCH   2   3
ENDBRANCH   1   2
BRANCH   1  11
ATOM     11  C   UNL     1      14.997  66.365  33.664  1.00  0.00     0.000 C 
BRANCH  11  12
ATOM     12  C   UNL     1      15.596  65.012  33.242  1.00  0.00    -0.000 C 
BRANCH  12  13
ATOM     13  C   UNL     1      15.246  64.561  31.808  1.00  0.00    -0.000 C 
BRANCH  13  14
ATOM     14  C   UNL     1      14.963  63.054  31.635  1.00  0.00    -0.000 C 
BRANCH  14  15
ATOM     15  C   UNL     1      13.480  62.695  31.416  1.00  0.00    -0.000 C 
BRANCH  15  16
ATOM     16  C   UNL     1      12.497  63.728  32.011  1.00  0.00    -0.000 C 
BRANCH  16  17
ATOM     17  C   UNL     1      12.038  63.386  33.438  1.00  0.00    -0.003 C 
ATOM     18  C   UNL     1      12.247  61.914  33.791  1.00  0.00     0.004 C 
ENDBRANCH  16  17
ENDBRANCH  15  16
ENDBRANCH  14  15
ENDBRANCH  13  14
ENDBRANCH  12  13
ENDBRANCH  11  12
ENDBRANCH   1  11
TORSDOF 14
ENDMDL
MODEL 6
REMARK VINA RESULT:    -4.234      4.131      8.287
REMARK INTER + INTRA:          -9.446
REMARK INTER:                  -8.597
REMARK INTRA:                  -0.849
REMARK UNBOUND:                -1.747
REMARK SMILES CCCCCCCCCCCCCCCC(=O)[O-]
REMARK SMILES IDX 9 1 10 2 11 3 12 4 13 5 14 6 15 7 16 8 17 9 18 10 8 11 7 12
REMARK SMILES IDX 6 13 5 14 4 15 3 16 2 17 1 18
REMARK H PARENT
REMARK Flexibility Score: inf
ROOT
ATOM      1  C   UNL     1      15.692  68.940  32.711  1.00  0.00     0.000 C 
ENDROOT
BRANCH   1   2
ATOM      2  C   UNL     1      15.279  67.855  33.717  1.00  0.00     0.000 C 
BRANCH   2   3
ATOM      3  C   UNL     1      15.750  66.451  33.304  1.00  0.00     0.000 C 
BRANCH   3   4
ATOM      4  C   UNL     1      14.669  65.664  32.543  1.00  0.00     0.000 C 
BRANCH   4   5
ATOM      5  C   UNL     1      14.764  64.149  32.783  1.00  0.00     0.000 C 
BRANCH   5   6
ATOM      6  C   UNL     1      13.929  63.334  31.780  1.00  0.00     0.006 C 
BRANCH   6   7
ATOM      7  C   UNL     1      12.481  63.833  31.693  1.00  0.00     0.053 C 
BRANCH   7   8
ATOM      8  C   UNL     1      11.574  63.061  32.604  1.00  0.00     0.041 C 
ATOM      9  O   UNL     1      10.849  62.140  32.144  1.00  0.00    -0.550 OA
ATOM     10  O   UNL     1      11.507  63.384  33.953  1.00  0.00    -0.550 OA
ENDBRANCH   7   8
ENDBRANCH   6   7
ENDBRANCH   5   6
ENDBRANCH   4   5
ENDBRANCH   3   4
ENDBRANCH   2   3
ENDBRANCH   1   2
BRANCH   1  11
ATOM     11  C   UNL     1      17.096  69.474  33.027  1.00  0.00     0.000 C 
BRANCH  11  12
ATOM     12  C   UNL     1      17.198  70.093  34.432  1.00  0.00    -0.000 C 
BRANCH  12  13
ATOM     13  C   UNL     1      18.247  69.444  35.358  1.00  0.00    -0.000 C 
BRANCH  13  14
ATOM     14  C   UNL     1      17.686  68.497  36.440  1.00  0.00    -0.000 C 
BRANCH  14  15
ATOM     15  C   UNL     1      18.729  67.571  37.094  1.00  0.00    -0.000 C 
BRANCH  15  16
ATOM     16  C   UNL     1      19.594  68.272  38.167  1.00  0.00    -0.000 C 
BRANCH  16  17
ATOM     17  C   UNL     1      18.869  69.422  38.883  1.00  0.00    -0.003 C 
ATOM     18  C   UNL     1      17.914  68.933  39.972  1.00  0.00     0.004 C 
ENDBRANCH  16  17
ENDBRANCH  15  16
ENDBRANCH  14  15
ENDBRANCH  13  14
ENDBRANCH  12  13
ENDBRANCH  11  12
ENDBRANCH   1  11
TORSDOF 14
ENDMDL
MODEL 7
REMARK VINA RESULT:    -4.226      4.076      7.151
REMARK INTER + INTRA:          -9.432
REMARK INTER:                  -7.515
REMARK INTRA:                  -1.918
REMARK UNBOUND:                -1.747
REMARK SMILES CCCCCCCCCCCCCCCC(=O)[O-]
REMARK SMILES IDX 9 1 10 2 11 3 12 4 13 5 14 6 15 7 16 8 17 9 18 10 8 11 7 12
REMARK SMILES IDX 6 13 5 14 4 15 3 16 2 17 1 18
REMARK H PARENT
REMARK Flexibility Score: inf
ROOT
ATOM      1  C   UNL     1      17.495  67.990  35.430  1.00  0.00     0.000 C 
ENDROOT
BRANCH   1   2
ATOM      2  C   UNL     1      16.903  69.221  34.729  1.00  0.00     0.000 C 
BRANCH   2   3
ATOM      3  C   UNL     1      16.811  69.049  33.203  1.00  0.00     0.000 C 
BRANCH   3   4
ATOM      4  C   UNL     1      15.359  69.056  32.695  1.00  0.00     0.000 C 
BRANCH   4   5
ATOM      5  C   UNL     1      14.908  67.679  32.183  1.00  0.00     0.000 C 
BRANCH   5   6
ATOM      6  C   UNL     1      14.887  66.610  33.290  1.00  0.00     0.006 C 
BRANCH   6   7
ATOM      7  C   UNL     1      15.476  65.274  32.815  1.00  0.00     0.053 C 
BRANCH   7   8
ATOM      8  C   UNL     1      14.405  64.325  32.370  1.00  0.00     0.041 C 
ATOM      9  O   UNL     1      13.309  64.270  32.988  1.00  0.00    -0.550 OA
ATOM     10  O   UNL     1      14.633  63.476  31.294  1.00  0.00    -0.550 OA
ENDBRANCH   7   8
ENDBRANCH   6   7
ENDBRANCH   5   6
ENDBRANCH   4   5
ENDBRANCH   3   4
ENDBRANCH   2   3
ENDBRANCH   1   2
BRANCH   1  11
ATOM     11  C   UNL     1      16.584  67.518  36.572  1.00  0.00     0.000 C 
BRANCH  11  12
ATOM     12  C   UNL     1      16.727  66.016  36.871  1.00  0.00    -0.000 C 
BRANCH  12  13
ATOM     13  C   UNL     1      17.579  65.226  35.856  1.00  0.00    -0.000 C 
BRANCH  13  14
ATOM     14  C   UNL     1      18.824  64.522  36.437  1.00  0.00    -0.000 C 
BRANCH  14  15
ATOM     15  C   UNL     1      19.253  65.015  37.833  1.00  0.00    -0.000 C 
BRANCH  15  16
ATOM     16  C   UNL     1      20.167  66.261  37.797  1.00  0.00    -0.000 C 
BRANCH  16  17
ATOM     17  C   UNL     1      19.741  67.362  38.783  1.00  0.00    -0.003 C 
ATOM     18  C   UNL     1      19.694  68.747  38.140  1.00  0.00     0.004 C 
ENDBRANCH  16  17
ENDBRANCH  15  16
ENDBRANCH  14  15
ENDBRANCH  13  14
ENDBRANCH  12  13
ENDBRANCH  11  12
ENDBRANCH   1  11
TORSDOF 14
ENDMDL
MODEL 8
REMARK VINA RESULT:    -4.212      4.993      7.118
REMARK INTER + INTRA:          -9.406
REMARK INTER:                  -7.170
REMARK INTRA:                  -2.236
REMARK UNBOUND:                -1.747
REMARK SMILES CCCCCCCCCCCCCCCC(=O)[O-]
REMARK SMILES IDX 9 1 10 2 11 3 12 4 13 5 14 6 15 7 16 8 17 9 18 10 8 11 7 12
REMARK SMILES IDX 6 13 5 14 4 15 3 16 2 17 1 18
REMARK H PARENT
REMARK Flexibility Score: inf
ROOT
ATOM      1  C   UNL     1      17.863  67.640  39.365  1.00  0.00     0.000 C 
ENDROOT
BRANCH   1   2
ATOM      2  C   UNL     1      19.335  68.070  39.287  1.00  0.00     0.000 C 
BRANCH   2   3
ATOM      3  C   UNL     1      19.719  68.631  37.907  1.00  0.00     0.000 C 
BRANCH   3   4
ATOM      4  C   UNL     1      18.570  69.414  37.247  1.00  0.00     0.000 C 
BRANCH   4   5
ATOM      5  C   UNL     1      18.316  68.976  35.796  1.00  0.00     0.000 C 
BRANCH   5   6
ATOM      6  C   UNL     1      16.844  68.609  35.535  1.00  0.00     0.006 C 
BRANCH   6   7
ATOM      7  C   UNL     1      16.648  67.949  34.163  1.00  0.00     0.053 C 
BRANCH   7   8
ATOM      8  C   UNL     1      16.154  68.930  33.143  1.00  0.00     0.041 C 
ATOM      9  O   UNL     1      15.109  68.687  32.484  1.00  0.00    -0.550 OA
ATOM     10  O   UNL     1      16.869  70.095  32.897  1.00  0.00    -0.550 OA
ENDBRANCH   7   8
ENDBRANCH   6   7
ENDBRANCH   5   6
ENDBRANCH   4   5
ENDBRANCH   3   4
ENDBRANCH   2   3
ENDBRANCH   1   2
BRANCH   1  11
ATOM     11  C   UNL     1      17.731  66.114  39.253  1.00  0.00     0.000 C 
BRANCH  11  12
ATOM     12  C   UNL     1      17.129  65.662  37.911  1.00  0.00    -0.000 C 
BRANCH  12  13
ATOM     13  C   UNL     1      18.154  65.420  36.784  1.00  0.00    -0.000 C 
BRANCH  13  14
ATOM     14  C   UNL     1      19.547  64.940  37.243  1.00  0.00    -0.000 C 
BRANCH  14  15
ATOM     15  C   UNL     1      19.665  63.420  37.471  1.00  0.00    -0.000 C 
BRANCH  15  16
ATOM     16  C   UNL     1      19.703  63.018  38.963  1.00  0.00    -0.000 C 
BRANCH  16  17
ATOM     17  C   UNL     1      18.475  62.209  39.411  1.00  0.00    -0.003 C 
ATOM     18  C   UNL     1      17.514  61.906  38.262  1.00  0.00     0.004 C 
ENDBRANCH  16  17
ENDBRANCH  15  16
ENDBRANCH  14  15
ENDBRANCH  13  14
ENDBRANCH  12  13
ENDBRANCH  11  12
ENDBRANCH   1  11
TORSDOF 14
ENDMDL
MODEL 9
REMARK VINA RESULT:    -4.167      4.714      7.811
REMARK INTER + INTRA:          -9.325
REMARK INTER:                  -7.721
REMARK INTRA:                  -1.603
REMARK UNBOUND:                -1.747
REMARK SMILES CCCCCCCCCCCCCCCC(=O)[O-]
REMARK SMILES IDX 9 1 10 2 11 3 12 4 13 5 14 6 15 7 16 8 17 9 18 10 8 11 7 12
REMARK SMILES IDX 6 13 5 14 4 15 3 16 2 17 1 18
REMARK H PARENT
REMARK Flexibility Score: inf
ROOT
ATOM      1  C   UNL     1      18.182  68.915  39.176  1.00  0.00     0.000 C 
ENDROOT
BRANCH   1   2
ATOM      2  C   UNL     1      18.913  69.659  38.049  1.00  0.00     0.000 C 
BRANCH   2   3
ATOM      3  C   UNL     1      18.912  68.880  36.723  1.00  0.00     0.000 C 
BRANCH   3   4
ATOM      4  C   UNL     1      17.542  68.906  36.024  1.00  0.00     0.000 C 
BRANCH   4   5
ATOM      5  C   UNL     1      17.540  69.788  34.765  1.00  0.00     0.000 C 
BRANCH   5   6
ATOM      6  C   UNL     1      16.690  69.198  33.626  1.00  0.00     0.006 C 
BRANCH   6   7
ATOM      7  C   UNL     1      16.154  67.801  33.968  1.00  0.00     0.053 C 
BRANCH   7   8
ATOM      8  C   UNL     1      15.180  67.315  32.939  1.00  0.00     0.041 C 
ATOM      9  O   UNL     1      14.692  66.157  33.025  1.00  0.00    -0.550 OA
ATOM     10  O   UNL     1      14.839  68.128  31.866  1.00  0.00    -0.550 OA
ENDBRANCH   7   8
ENDBRANCH   6   7
ENDBRANCH   5   6
ENDBRANCH   4   5
ENDBRANCH   3   4
ENDBRANCH   2   3
ENDBRANCH   1   2
BRANCH   1  11
ATOM     11  C   UNL     1      18.939  69.054  40.505  1.00  0.00     0.000 C 
BRANCH  11  12
ATOM     12  C   UNL     1      19.800  67.822  40.835  1.00  0.00    -0.000 C 
BRANCH  12  13
ATOM     13  C   UNL     1      20.004  66.835  39.667  1.00  0.00    -0.000 C 
BRANCH  13  14
ATOM     14  C   UNL     1      19.892  65.340  40.032  1.00  0.00    -0.000 C 
BRANCH  14  15
ATOM     15  C   UNL     1      18.680  64.612  39.417  1.00  0.00    -0.000 C 
BRANCH  15  16
ATOM     16  C   UNL     1      17.468  65.536  39.158  1.00  0.00    -0.000 C 
BRANCH  16  17
ATOM     17  C   UNL     1      17.082  65.638  37.673  1.00  0.00    -0.003 C 
ATOM     18  C   UNL     1      18.224  65.245  36.736  1.00  0.00     0.004 C 
ENDBRANCH  16  17
ENDBRANCH  15  16
ENDBRANCH  14  15
ENDBRANCH  13  14
ENDBRANCH  12  13
ENDBRANCH  11  12
ENDBRANCH   1  11
TORSDOF 14
ENDMDL
