MODEL 1
REMARK VINA RESULT:    -5.224      0.000      0.000
REMARK INTER + INTRA:          -6.636
REMARK INTER:                  -6.293
REMARK INTRA:                  -0.343
REMARK UNBOUND:                -0.343
REMARK SMILES Oc1cc(O)c2cc(O)c(-c3ccc(O)c(O)c3)[o+]c2c1.[Cl-]
REMARK SMILES IDX 10 1 19 2 20 3 21 4 2 5 3 6 4 7 6 8 7 9 8 10 11 11 12 12
REMARK SMILES IDX 13 13 14 14 18 15 16 16 15 17 17 19 9 21 1 23 5 25
REMARK H PARENT 15 18 17 20 9 22 1 24 5 26
REMARK Flexibility Score: inf
ROOT
ATOM      1  C   UNL     1     -27.132 -55.561  55.321  1.00  0.00     0.402 A 
ATOM      2  O   UNL     1     -28.399 -55.843  55.617  1.00  0.00    -0.202 OA
ATOM      3  C   UNL     1     -28.881 -57.081  55.655  1.00  0.00     0.368 A 
ATOM      4  C   UNL     1     -30.226 -57.278  55.980  1.00  0.00     0.162 A 
ATOM      5  C   UNL     1     -30.758 -58.565  56.031  1.00  0.00     0.128 A 
ATOM      6  C   UNL     1     -29.942 -59.669  55.758  1.00  0.00     0.093 A 
ATOM      7  C   UNL     1     -28.591 -59.499  55.430  1.00  0.00     0.136 A 
ATOM      8  C   UNL     1     -28.046 -58.190  55.374  1.00  0.00     0.125 A 
ATOM      9  C   UNL     1     -26.708 -57.923  55.043  1.00  0.00     0.078 A 
ATOM     10  C   UNL     1     -26.244 -56.606  55.004  1.00  0.00     0.223 A 
ENDROOT
BRANCH   1  11
ATOM     11  C   UNL     1     -26.713 -54.141  55.320  1.00  0.00     0.087 A 
ATOM     12  C   UNL     1     -26.309 -53.496  56.502  1.00  0.00     0.022 A 
ATOM     13  C   UNL     1     -25.940 -52.149  56.481  1.00  0.00     0.051 A 
ATOM     14  C   UNL     1     -25.980 -51.424  55.283  1.00  0.00     0.157 A 
ATOM     15  C   UNL     1     -26.772 -53.404  54.126  1.00  0.00     0.068 A 
ATOM     16  C   UNL     1     -26.402 -52.055  54.101  1.00  0.00     0.158 A 
BRANCH  14  17
ATOM     17  O   UNL     1     -25.609 -50.079  55.265  1.00  0.00    -0.504 OA
ATOM     18  H   UNL     1     -24.917 -49.729  54.613  1.00  0.00     0.293 HD
ENDBRANCH  14  17
BRANCH  16  19
ATOM     19  O   UNL     1     -26.461 -51.359  52.894  1.00  0.00    -0.504 OA
ATOM     20  H   UNL     1     -27.013 -51.687  52.110  1.00  0.00     0.293 HD
ENDBRANCH  16  19
ENDBRANCH   1  11
BRANCH  10  21
ATOM     21  O   UNL     1     -24.929 -56.338  54.624  1.00  0.00    -0.500 OA
ATOM     22  H   UNL     1     -24.254 -57.080  54.478  1.00  0.00     0.294 HD
ENDBRANCH  10  21
BRANCH   5  23
ATOM     23  O   UNL     1     -32.102 -58.740  56.357  1.00  0.00    -0.507 OA
ATOM     24  H   UNL     1     -32.820 -58.128  55.989  1.00  0.00     0.293 HD
ENDBRANCH   5  23
BRANCH   7  25
ATOM     25  O   UNL     1     -27.841 -60.650  55.173  1.00  0.00    -0.507 OA
ATOM     26  H   UNL     1     -27.097 -60.990  55.765  1.00  0.00     0.293 HD
ENDBRANCH   7  25
TORSDOF 6
ENDMDL
MODEL 2
REMARK VINA RESULT:    -5.128      9.942     12.145
REMARK INTER + INTRA:          -6.520
REMARK INTER:                  -6.277
REMARK INTRA:                  -0.244
REMARK UNBOUND:                -0.343
REMARK SMILES Oc1cc(O)c2cc(O)c(-c3ccc(O)c(O)c3)[o+]c2c1.[Cl-]
REMARK SMILES IDX 10 1 19 2 20 3 21 4 2 5 3 6 4 7 6 8 7 9 8 10 11 11 12 12
REMARK SMILES IDX 13 13 14 14 18 15 16 16 15 17 17 19 9 21 1 23 5 25
REMARK H PARENT 15 18 17 20 9 22 1 24 5 26
REMARK Flexibility Score: inf
ROOT
ATOM      1  C   UNL     1     -20.784 -64.465  57.459  1.00  0.00     0.402 A 
ATOM      2  O   UNL     1     -19.991 -65.203  58.231  1.00  0.00    -0.202 OA
ATOM      3  C   UNL     1     -20.337 -66.396  58.703  1.00  0.00     0.368 A 
ATOM      4  C   UNL     1     -19.433 -67.099  59.504  1.00  0.00     0.162 A 
ATOM      5  C   UNL     1     -19.768 -68.355  60.011  1.00  0.00     0.128 A 
ATOM      6  C   UNL     1     -21.016 -68.916  59.715  1.00  0.00     0.093 A 
ATOM      7  C   UNL     1     -21.939 -68.232  58.914  1.00  0.00     0.136 A 
ATOM      8  C   UNL     1     -21.603 -66.953  58.400  1.00  0.00     0.125 A 
ATOM      9  C   UNL     1     -22.469 -66.190  57.600  1.00  0.00     0.078 A 
ATOM     10  C   UNL     1     -22.070 -64.935  57.132  1.00  0.00     0.223 A 
ENDROOT
BRANCH   1  11
ATOM     11  C   UNL     1     -20.280 -63.155  56.987  1.00  0.00     0.087 A 
ATOM     12  C   UNL     1     -20.036 -62.911  55.625  1.00  0.00     0.022 A 
ATOM     13  C   UNL     1     -19.538 -61.675  55.206  1.00  0.00     0.051 A 
ATOM     14  C   UNL     1     -19.265 -60.669  56.142  1.00  0.00     0.157 A 
ATOM     15  C   UNL     1     -19.985 -62.150  57.923  1.00  0.00     0.068 A 
ATOM     16  C   UNL     1     -19.487 -60.910  57.508  1.00  0.00     0.158 A 
BRANCH  14  17
ATOM     17  O   UNL     1     -18.770 -59.435  55.720  1.00  0.00    -0.504 OA
ATOM     18  H   UNL     1     -19.388 -58.662  55.503  1.00  0.00     0.293 HD
ENDBRANCH  14  17
BRANCH  16  19
ATOM     19  O   UNL     1     -19.219 -59.932  58.465  1.00  0.00    -0.504 OA
ATOM     20  H   UNL     1     -19.384 -58.948  58.290  1.00  0.00     0.293 HD
ENDBRANCH  16  19
ENDBRANCH   1  11
BRANCH  10  21
ATOM     21  O   UNL     1     -22.949 -64.156  56.381  1.00  0.00    -0.500 OA
ATOM     22  H   UNL     1     -23.778 -64.551  55.951  1.00  0.00     0.294 HD
ENDBRANCH  10  21
BRANCH   5  23
ATOM     23  O   UNL     1     -18.853 -69.040  60.808  1.00  0.00    -0.507 OA
ATOM     24  H   UNL     1     -17.912 -69.235  60.486  1.00  0.00     0.293 HD
ENDBRANCH   5  23
BRANCH   7  25
ATOM     25  O   UNL     1     -23.162 -68.860  58.662  1.00  0.00    -0.507 OA
ATOM     26  H   UNL     1     -23.940 -68.425  58.190  1.00  0.00     0.293 HD
ENDBRANCH   7  25
TORSDOF 6
ENDMDL
MODEL 3
REMARK VINA RESULT:    -5.122      8.002      9.466
REMARK INTER + INTRA:          -6.514
REMARK INTER:                  -6.183
REMARK INTRA:                  -0.331
REMARK UNBOUND:                -0.343
REMARK SMILES Oc1cc(O)c2cc(O)c(-c3ccc(O)c(O)c3)[o+]c2c1.[Cl-]
REMARK SMILES IDX 10 1 19 2 20 3 21 4 2 5 3 6 4 7 6 8 7 9 8 10 11 11 12 12
REMARK SMILES IDX 13 13 14 14 18 15 16 16 15 17 17 19 9 21 1 23 5 25
REMARK H PARENT 15 18 17 20 9 22 1 24 5 26
REMARK Flexibility Score: inf
ROOT
ATOM      1  C   UNL     1     -26.178 -64.131  56.269  1.00  0.00     0.402 A 
ATOM      2  O   UNL     1     -26.603 -65.293  56.758  1.00  0.00    -0.202 OA
ATOM      3  C   UNL     1     -27.629 -65.967  56.251  1.00  0.00     0.368 A 
ATOM      4  C   UNL     1     -27.999 -67.183  56.833  1.00  0.00     0.162 A 
ATOM      5  C   UNL     1     -29.071 -67.913  56.320  1.00  0.00     0.128 A 
ATOM      6  C   UNL     1     -29.781 -67.427  55.216  1.00  0.00     0.093 A 
ATOM      7  C   UNL     1     -29.431 -66.212  54.616  1.00  0.00     0.136 A 
ATOM      8  C   UNL     1     -28.343 -65.465  55.136  1.00  0.00     0.125 A 
ATOM      9  C   UNL     1     -27.928 -64.232  54.606  1.00  0.00     0.078 A 
ATOM     10  C   UNL     1     -26.849 -63.551  55.176  1.00  0.00     0.223 A 
ENDROOT
BRANCH   1  11
ATOM     11  C   UNL     1     -25.014 -63.482  56.915  1.00  0.00     0.087 A 
ATOM     12  C   UNL     1     -23.698 -63.864  56.609  1.00  0.00     0.022 A 
ATOM     13  C   UNL     1     -22.617 -63.254  57.249  1.00  0.00     0.051 A 
ATOM     14  C   UNL     1     -22.835 -62.261  58.213  1.00  0.00     0.157 A 
ATOM     15  C   UNL     1     -25.228 -62.501  57.898  1.00  0.00     0.068 A 
ATOM     16  C   UNL     1     -24.148 -61.886  58.541  1.00  0.00     0.158 A 
BRANCH  14  17
ATOM     17  O   UNL     1     -21.754 -61.652  58.849  1.00  0.00    -0.504 OA
ATOM     18  H   UNL     1     -21.033 -61.169  58.325  1.00  0.00     0.293 HD
ENDBRANCH  14  17
BRANCH  16  19
ATOM     19  O   UNL     1     -24.400 -60.907  59.501  1.00  0.00    -0.504 OA
ATOM     20  H   UNL     1     -25.015 -61.073  60.290  1.00  0.00     0.293 HD
ENDBRANCH  16  19
ENDBRANCH   1  11
BRANCH  10  21
ATOM     21  O   UNL     1     -26.470 -62.302  54.683  1.00  0.00    -0.500 OA
ATOM     22  H   UNL     1     -26.157 -61.559  55.297  1.00  0.00     0.294 HD
ENDBRANCH  10  21
BRANCH   5  23
ATOM     23  O   UNL     1     -29.424 -69.123  56.914  1.00  0.00    -0.507 OA
ATOM     24  H   UNL     1     -30.362 -69.498  56.837  1.00  0.00     0.293 HD
ENDBRANCH   5  23
BRANCH   7  25
ATOM     25  O   UNL     1     -30.186 -65.796  53.516  1.00  0.00    -0.507 OA
ATOM     26  H   UNL     1     -29.977 -64.985  52.953  1.00  0.00     0.293 HD
ENDBRANCH   7  25
TORSDOF 6
ENDMDL
MODEL 4
REMARK VINA RESULT:    -5.087     10.922     13.736
REMARK INTER + INTRA:          -6.471
REMARK INTER:                  -6.187
REMARK INTRA:                  -0.284
REMARK UNBOUND:                -0.343
REMARK SMILES Oc1cc(O)c2cc(O)c(-c3ccc(O)c(O)c3)[o+]c2c1.[Cl-]
REMARK SMILES IDX 10 1 19 2 20 3 21 4 2 5 3 6 4 7 6 8 7 9 8 10 11 11 12 12
REMARK SMILES IDX 13 13 14 14 18 15 16 16 15 17 17 19 9 21 1 23 5 25
REMARK H PARENT 15 18 17 20 9 22 1 24 5 26
REMARK Flexibility Score: inf
ROOT
ATOM      1  C   UNL     1     -32.759 -57.458  66.334  1.00  0.00     0.402 A 
ATOM      2  O   UNL     1     -32.625 -56.233  65.833  1.00  0.00    -0.202 OA
ATOM      3  C   UNL     1     -32.833 -55.129  66.542  1.00  0.00     0.368 A 
ATOM      4  C   UNL     1     -32.663 -53.884  65.929  1.00  0.00     0.162 A 
ATOM      5  C   UNL     1     -32.873 -52.709  66.650  1.00  0.00     0.128 A 
ATOM      6  C   UNL     1     -33.253 -52.774  67.995  1.00  0.00     0.093 A 
ATOM      7  C   UNL     1     -33.429 -54.008  68.632  1.00  0.00     0.136 A 
ATOM      8  C   UNL     1     -33.221 -55.206  67.902  1.00  0.00     0.125 A 
ATOM      9  C   UNL     1     -33.386 -56.486  68.455  1.00  0.00     0.078 A 
ATOM     10  C   UNL     1     -33.166 -57.622  67.671  1.00  0.00     0.223 A 
ENDROOT
BRANCH   1  11
ATOM     11  C   UNL     1     -32.488 -58.611  65.445  1.00  0.00     0.087 A 
ATOM     12  C   UNL     1     -33.531 -59.391  64.916  1.00  0.00     0.022 A 
ATOM     13  C   UNL     1     -33.250 -60.488  64.099  1.00  0.00     0.051 A 
ATOM     14  C   UNL     1     -31.923 -60.830  63.807  1.00  0.00     0.157 A 
ATOM     15  C   UNL     1     -31.159 -58.972  65.166  1.00  0.00     0.068 A 
ATOM     16  C   UNL     1     -30.873 -60.069  64.347  1.00  0.00     0.158 A 
BRANCH  14  17
ATOM     17  O   UNL     1     -31.645 -61.925  62.989  1.00  0.00    -0.504 OA
ATOM     18  H   UNL     1     -30.702 -62.276  62.875  1.00  0.00     0.293 HD
ENDBRANCH  14  17
BRANCH  16  19
ATOM     19  O   UNL     1     -29.541 -60.388  64.082  1.00  0.00    -0.504 OA
ATOM     20  H   UNL     1     -28.892 -59.710  63.700  1.00  0.00     0.293 HD
ENDBRANCH  16  19
ENDBRANCH   1  11
BRANCH  10  21
ATOM     21  O   UNL     1     -33.380 -58.893  68.205  1.00  0.00    -0.500 OA
ATOM     22  H   UNL     1     -33.707 -59.024  69.155  1.00  0.00     0.294 HD
ENDBRANCH  10  21
BRANCH   5  23
ATOM     23  O   UNL     1     -32.698 -51.477  66.020  1.00  0.00    -0.507 OA
ATOM     24  H   UNL     1     -33.365 -50.724  66.136  1.00  0.00     0.293 HD
ENDBRANCH   5  23
BRANCH   7  25
ATOM     25  O   UNL     1     -33.807 -53.989  69.978  1.00  0.00    -0.507 OA
ATOM     26  H   UNL     1     -33.185 -54.184  70.748  1.00  0.00     0.293 HD
ENDBRANCH   7  25
TORSDOF 6
ENDMDL
MODEL 5
REMARK VINA RESULT:    -5.066      8.401     11.785
REMARK INTER + INTRA:          -6.445
REMARK INTER:                  -6.092
REMARK INTRA:                  -0.353
REMARK UNBOUND:                -0.343
REMARK SMILES Oc1cc(O)c2cc(O)c(-c3ccc(O)c(O)c3)[o+]c2c1.[Cl-]
REMARK SMILES IDX 10 1 19 2 20 3 21 4 2 5 3 6 4 7 6 8 7 9 8 10 11 11 12 12
REMARK SMILES IDX 13 13 14 14 18 15 16 16 15 17 17 19 9 21 1 23 5 25
REMARK H PARENT 15 18 17 20 9 22 1 24 5 26
REMARK Flexibility Score: inf
ROOT
ATOM      1  C   UNL     1     -25.690 -65.588  56.093  1.00  0.00     0.402 A 
ATOM      2  O   UNL     1     -25.850 -64.513  56.860  1.00  0.00    -0.202 OA
ATOM      3  C   UNL     1     -24.837 -63.794  57.330  1.00  0.00     0.368 A 
ATOM      4  C   UNL     1     -25.106 -62.677  58.127  1.00  0.00     0.162 A 
ATOM      5  C   UNL     1     -24.062 -61.903  58.632  1.00  0.00     0.128 A 
ATOM      6  C   UNL     1     -22.736 -62.244  58.340  1.00  0.00     0.093 A 
ATOM      7  C   UNL     1     -22.440 -63.358  57.544  1.00  0.00     0.136 A 
ATOM      8  C   UNL     1     -23.499 -64.150  57.031  1.00  0.00     0.125 A 
ATOM      9  C   UNL     1     -23.297 -65.290  56.236  1.00  0.00     0.078 A 
ATOM     10  C   UNL     1     -24.391 -66.023  55.770  1.00  0.00     0.223 A 
ENDROOT
BRANCH   1  11
ATOM     11  C   UNL     1     -26.900 -66.300  55.622  1.00  0.00     0.087 A 
ATOM     12  C   UNL     1     -27.462 -66.034  54.361  1.00  0.00     0.022 A 
ATOM     13  C   UNL     1     -28.618 -66.700  53.949  1.00  0.00     0.051 A 
ATOM     14  C   UNL     1     -29.236 -67.633  54.792  1.00  0.00     0.157 A 
ATOM     15  C   UNL     1     -27.536 -67.219  56.472  1.00  0.00     0.068 A 
ATOM     16  C   UNL     1     -28.693 -67.890  56.061  1.00  0.00     0.158 A 
BRANCH  14  17
ATOM     17  O   UNL     1     -30.389 -68.299  54.376  1.00  0.00    -0.504 OA
ATOM     18  H   UNL     1     -30.999 -68.766  55.036  1.00  0.00     0.293 HD
ENDBRANCH  14  17
BRANCH  16  19
ATOM     19  O   UNL     1     -29.288 -68.807  56.928  1.00  0.00    -0.504 OA
ATOM     20  H   UNL     1     -30.287 -68.979  56.925  1.00  0.00     0.293 HD
ENDBRANCH  16  19
ENDBRANCH   1  11
BRANCH  10  21
ATOM     21  O   UNL     1     -24.188 -67.185  55.024  1.00  0.00    -0.500 OA
ATOM     22  H   UNL     1     -24.628 -68.063  55.275  1.00  0.00     0.294 HD
ENDBRANCH  10  21
BRANCH   5  23
ATOM     23  O   UNL     1     -24.351 -60.793  59.424  1.00  0.00    -0.507 OA
ATOM     24  H   UNL     1     -23.702 -60.460  60.126  1.00  0.00     0.293 HD
ENDBRANCH   5  23
BRANCH   7  25
ATOM     25  O   UNL     1     -21.092 -63.630  57.296  1.00  0.00    -0.507 OA
ATOM     26  H   UNL     1     -20.442 -62.974  56.888  1.00  0.00     0.293 HD
ENDBRANCH   7  25
TORSDOF 6
ENDMDL
MODEL 6
REMARK VINA RESULT:    -5.010      9.106     12.655
REMARK INTER + INTRA:          -6.378
REMARK INTER:                  -6.095
REMARK INTRA:                  -0.283
REMARK UNBOUND:                -0.343
REMARK SMILES Oc1cc(O)c2cc(O)c(-c3ccc(O)c(O)c3)[o+]c2c1.[Cl-]
REMARK SMILES IDX 10 1 19 2 20 3 21 4 2 5 3 6 4 7 6 8 7 9 8 10 11 11 12 12
REMARK SMILES IDX 13 13 14 14 18 15 16 16 15 17 17 19 9 21 1 23 5 25
REMARK H PARENT 15 18 17 20 9 22 1 24 5 26
REMARK Flexibility Score: inf
ROOT
ATOM      1  C   UNL     1     -23.275 -66.685  57.415  1.00  0.00     0.402 A 
ATOM      2  O   UNL     1     -23.875 -65.598  57.896  1.00  0.00    -0.202 OA
ATOM      3  C   UNL     1     -24.870 -64.978  57.271  1.00  0.00     0.368 A 
ATOM      4  C   UNL     1     -25.440 -63.845  57.858  1.00  0.00     0.162 A 
ATOM      5  C   UNL     1     -26.487 -63.175  57.226  1.00  0.00     0.128 A 
ATOM      6  C   UNL     1     -26.972 -63.640  55.998  1.00  0.00     0.093 A 
ATOM      7  C   UNL     1     -26.419 -64.773  55.390  1.00  0.00     0.136 A 
ATOM      8  C   UNL     1     -25.351 -65.455  56.028  1.00  0.00     0.125 A 
ATOM      9  C   UNL     1     -24.727 -66.591  55.487  1.00  0.00     0.078 A 
ATOM     10  C   UNL     1     -23.677 -67.208  56.172  1.00  0.00     0.223 A 
ENDROOT
BRANCH   1  11
ATOM     11  C   UNL     1     -22.184 -67.292  58.211  1.00  0.00     0.087 A 
ATOM     12  C   UNL     1     -22.350 -68.527  58.861  1.00  0.00     0.022 A 
ATOM     13  C   UNL     1     -21.315 -69.068  59.626  1.00  0.00     0.051 A 
ATOM     14  C   UNL     1     -20.102 -68.381  59.762  1.00  0.00     0.157 A 
ATOM     15  C   UNL     1     -20.974 -66.596  58.368  1.00  0.00     0.068 A 
ATOM     16  C   UNL     1     -19.933 -67.136  59.132  1.00  0.00     0.158 A 
BRANCH  14  17
ATOM     17  O   UNL     1     -19.069 -68.925  60.524  1.00  0.00    -0.504 OA
ATOM     18  H   UNL     1     -19.113 -69.874  60.876  1.00  0.00     0.293 HD
ENDBRANCH  14  17
BRANCH  16  19
ATOM     19  O   UNL     1     -18.741 -66.423  59.254  1.00  0.00    -0.504 OA
ATOM     20  H   UNL     1     -17.873 -66.868  59.528  1.00  0.00     0.293 HD
ENDBRANCH  16  19
ENDBRANCH   1  11
BRANCH  10  21
ATOM     21  O   UNL     1     -23.023 -68.305  55.610  1.00  0.00    -0.500 OA
ATOM     22  H   UNL     1     -23.492 -68.933  54.968  1.00  0.00     0.294 HD
ENDBRANCH  10  21
BRANCH   5  23
ATOM     23  O   UNL     1     -27.042 -62.047  57.827  1.00  0.00    -0.507 OA
ATOM     24  H   UNL     1     -27.649 -62.122  58.635  1.00  0.00     0.293 HD
ENDBRANCH   5  23
BRANCH   7  25
ATOM     25  O   UNL     1     -26.961 -65.175  54.166  1.00  0.00    -0.507 OA
ATOM     26  H   UNL     1     -26.429 -65.591  53.415  1.00  0.00     0.293 HD
ENDBRANCH   7  25
TORSDOF 6
ENDMDL
MODEL 7
REMARK VINA RESULT:    -4.994     10.018     11.566
REMARK INTER + INTRA:          -6.360
REMARK INTER:                  -6.020
REMARK INTRA:                  -0.340
REMARK UNBOUND:                -0.343
REMARK SMILES Oc1cc(O)c2cc(O)c(-c3ccc(O)c(O)c3)[o+]c2c1.[Cl-]
REMARK SMILES IDX 10 1 19 2 20 3 21 4 2 5 3 6 4 7 6 8 7 9 8 10 11 11 12 12
REMARK SMILES IDX 13 13 14 14 18 15 16 16 15 17 17 19 9 21 1 23 5 25
REMARK H PARENT 15 18 17 20 9 22 1 24 5 26
REMARK Flexibility Score: inf
ROOT
ATOM      1  C   UNL     1     -20.205 -64.389  57.287  1.00  0.00     0.402 A 
ATOM      2  O   UNL     1     -21.488 -64.741  57.330  1.00  0.00    -0.202 OA
ATOM      3  C   UNL     1     -21.907 -65.916  57.787  1.00  0.00     0.368 A 
ATOM      4  C   UNL     1     -23.277 -66.194  57.796  1.00  0.00     0.162 A 
ATOM      5  C   UNL     1     -23.745 -67.418  58.272  1.00  0.00     0.128 A 
ATOM      6  C   UNL     1     -22.840 -68.374  58.746  1.00  0.00     0.093 A 
ATOM      7  C   UNL     1     -21.463 -68.120  58.748  1.00  0.00     0.136 A 
ATOM      8  C   UNL     1     -20.982 -66.878  58.261  1.00  0.00     0.125 A 
ATOM      9  C   UNL     1     -19.619 -66.542  58.214  1.00  0.00     0.078 A 
ATOM     10  C   UNL     1     -19.220 -65.299  57.716  1.00  0.00     0.223 A 
ENDROOT
BRANCH   1  11
ATOM     11  C   UNL     1     -19.864 -63.046  56.765  1.00  0.00     0.087 A 
ATOM     12  C   UNL     1     -19.708 -62.813  55.388  1.00  0.00     0.022 A 
ATOM     13  C   UNL     1     -19.364 -61.543  54.921  1.00  0.00     0.051 A 
ATOM     14  C   UNL     1     -19.158 -60.490  55.822  1.00  0.00     0.157 A 
ATOM     15  C   UNL     1     -19.636 -61.992  57.665  1.00  0.00     0.068 A 
ATOM     16  C   UNL     1     -19.292 -60.718  57.201  1.00  0.00     0.158 A 
BRANCH  14  17
ATOM     17  O   UNL     1     -18.816 -59.222  55.352  1.00  0.00    -0.504 OA
ATOM     18  H   UNL     1     -19.498 -58.619  54.908  1.00  0.00     0.293 HD
ENDBRANCH  14  17
BRANCH  16  19
ATOM     19  O   UNL     1     -19.086 -59.694  58.125  1.00  0.00    -0.504 OA
ATOM     20  H   UNL     1     -19.537 -58.790  58.036  1.00  0.00     0.293 HD
ENDBRANCH  16  19
ENDBRANCH   1  11
BRANCH  10  21
ATOM     21  O   UNL     1     -17.864 -64.985  57.621  1.00  0.00    -0.500 OA
ATOM     22  H   UNL     1     -17.149 -65.703  57.642  1.00  0.00     0.294 HD
ENDBRANCH  10  21
BRANCH   5  23
ATOM     23  O   UNL     1     -25.115 -67.675  58.272  1.00  0.00    -0.507 OA
ATOM     24  H   UNL     1     -25.790 -66.948  58.067  1.00  0.00     0.293 HD
ENDBRANCH   5  23
BRANCH   7  25
ATOM     25  O   UNL     1     -20.625 -69.125  59.241  1.00  0.00    -0.507 OA
ATOM     26  H   UNL     1     -20.078 -69.746  58.662  1.00  0.00     0.293 HD
ENDBRANCH   7  25
TORSDOF 6
ENDMDL
MODEL 8
REMARK VINA RESULT:    -4.994      9.384     12.714
REMARK INTER + INTRA:          -6.359
REMARK INTER:                  -6.026
REMARK INTRA:                  -0.333
REMARK UNBOUND:                -0.343
REMARK SMILES Oc1cc(O)c2cc(O)c(-c3ccc(O)c(O)c3)[o+]c2c1.[Cl-]
REMARK SMILES IDX 10 1 19 2 20 3 21 4 2 5 3 6 4 7 6 8 7 9 8 10 11 11 12 12
REMARK SMILES IDX 13 13 14 14 18 15 16 16 15 17 17 19 9 21 1 23 5 25
REMARK H PARENT 15 18 17 20 9 22 1 24 5 26
REMARK Flexibility Score: inf
ROOT
ATOM      1  C   UNL     1     -23.731 -66.407  56.683  1.00  0.00     0.402 A 
ATOM      2  O   UNL     1     -23.723 -66.661  55.377  1.00  0.00    -0.202 OA
ATOM      3  C   UNL     1     -24.531 -66.059  54.511  1.00  0.00     0.368 A 
ATOM      4  C   UNL     1     -24.446 -66.391  53.156  1.00  0.00     0.162 A 
ATOM      5  C   UNL     1     -25.280 -65.772  52.225  1.00  0.00     0.128 A 
ATOM      6  C   UNL     1     -26.206 -64.813  52.647  1.00  0.00     0.093 A 
ATOM      7  C   UNL     1     -26.311 -64.463  53.999  1.00  0.00     0.136 A 
ATOM      8  C   UNL     1     -25.468 -65.091  54.950  1.00  0.00     0.125 A 
ATOM      9  C   UNL     1     -25.511 -64.813  56.326  1.00  0.00     0.078 A 
ATOM     10  C   UNL     1     -24.650 -65.477  57.203  1.00  0.00     0.223 A 
ENDROOT
BRANCH   1  11
ATOM     11  C   UNL     1     -22.774 -67.137  57.545  1.00  0.00     0.087 A 
ATOM     12  C   UNL     1     -23.056 -68.427  58.025  1.00  0.00     0.022 A 
ATOM     13  C   UNL     1     -22.147 -69.086  58.855  1.00  0.00     0.051 A 
ATOM     14  C   UNL     1     -20.950 -68.463  59.229  1.00  0.00     0.157 A 
ATOM     15  C   UNL     1     -21.581 -66.508  57.939  1.00  0.00     0.068 A 
ATOM     16  C   UNL     1     -20.668 -67.166  58.771  1.00  0.00     0.158 A 
BRANCH  14  17
ATOM     17  O   UNL     1     -20.044 -69.125  60.057  1.00  0.00    -0.504 OA
ATOM     18  H   UNL     1     -19.257 -69.639  59.678  1.00  0.00     0.293 HD
ENDBRANCH  14  17
BRANCH  16  19
ATOM     19  O   UNL     1     -19.488 -66.514  59.130  1.00  0.00    -0.504 OA
ATOM     20  H   UNL     1     -18.643 -67.022  59.362  1.00  0.00     0.293 HD
ENDBRANCH  16  19
ENDBRANCH   1  11
BRANCH  10  21
ATOM     21  O   UNL     1     -24.729 -65.237  58.576  1.00  0.00    -0.500 OA
ATOM     22  H   UNL     1     -24.248 -64.457  59.009  1.00  0.00     0.294 HD
ENDBRANCH  10  21
BRANCH   5  23
ATOM     23  O   UNL     1     -25.179 -66.117  50.878  1.00  0.00    -0.507 OA
ATOM     24  H   UNL     1     -24.301 -66.423  50.474  1.00  0.00     0.293 HD
ENDBRANCH   5  23
BRANCH   7  25
ATOM     25  O   UNL     1     -27.260 -63.494  54.340  1.00  0.00    -0.507 OA
ATOM     26  H   UNL     1     -27.452 -63.191  55.284  1.00  0.00     0.293 HD
ENDBRANCH   7  25
TORSDOF 6
ENDMDL
MODEL 9
REMARK VINA RESULT:    -4.710      9.579     10.701
REMARK INTER + INTRA:          -6.017
REMARK INTER:                  -5.674
REMARK INTRA:                  -0.343
REMARK UNBOUND:                -0.343
REMARK SMILES Oc1cc(O)c2cc(O)c(-c3ccc(O)c(O)c3)[o+]c2c1.[Cl-]
REMARK SMILES IDX 10 1 19 2 20 3 21 4 2 5 3 6 4 7 6 8 7 9 8 10 11 11 12 12
REMARK SMILES IDX 13 13 14 14 18 15 16 16 15 17 17 19 9 21 1 23 5 25
REMARK H PARENT 15 18 17 20 9 22 1 24 5 26
REMARK Flexibility Score: inf
ROOT
ATOM      1  C   UNL     1     -21.689 -64.376  57.613  1.00  0.00     0.402 A 
ATOM      2  O   UNL     1     -22.960 -64.325  57.221  1.00  0.00    -0.202 OA
ATOM      3  C   UNL     1     -23.729 -65.401  57.100  1.00  0.00     0.368 A 
ATOM      4  C   UNL     1     -25.055 -65.246  56.685  1.00  0.00     0.162 A 
ATOM      5  C   UNL     1     -25.887 -66.357  56.552  1.00  0.00     0.128 A 
ATOM      6  C   UNL     1     -25.393 -67.635  56.836  1.00  0.00     0.093 A 
ATOM      7  C   UNL     1     -24.070 -67.818  57.254  1.00  0.00     0.136 A 
ATOM      8  C   UNL     1     -23.219 -66.690  57.388  1.00  0.00     0.125 A 
ATOM      9  C   UNL     1     -21.876 -66.778  57.789  1.00  0.00     0.078 A 
ATOM     10  C   UNL     1     -21.098 -65.622  57.894  1.00  0.00     0.223 A 
ENDROOT
BRANCH   1  11
ATOM     11  C   UNL     1     -20.937 -63.105  57.720  1.00  0.00     0.087 A 
ATOM     12  C   UNL     1     -20.153 -62.626  56.657  1.00  0.00     0.022 A 
ATOM     13  C   UNL     1     -19.433 -61.436  56.790  1.00  0.00     0.051 A 
ATOM     14  C   UNL     1     -19.477 -60.713  57.988  1.00  0.00     0.157 A 
ATOM     15  C   UNL     1     -20.960 -62.388  58.927  1.00  0.00     0.068 A 
ATOM     16  C   UNL     1     -20.242 -61.194  59.064  1.00  0.00     0.158 A 
BRANCH  14  17
ATOM     17  O   UNL     1     -18.759 -59.524  58.117  1.00  0.00    -0.504 OA
ATOM     18  H   UNL     1     -18.588 -58.920  57.323  1.00  0.00     0.293 HD
ENDBRANCH  14  17
BRANCH  16  19
ATOM     19  O   UNL     1     -20.301 -60.503  60.274  1.00  0.00    -0.504 OA
ATOM     20  H   UNL     1     -19.731 -60.764  61.070  1.00  0.00     0.293 HD
ENDBRANCH  16  19
ENDBRANCH   1  11
BRANCH  10  21
ATOM     21  O   UNL     1     -19.750 -65.715  58.242  1.00  0.00    -0.500 OA
ATOM     22  H   UNL     1     -19.451 -65.753  59.210  1.00  0.00     0.294 HD
ENDBRANCH  10  21
BRANCH   5  23
ATOM     23  O   UNL     1     -27.205 -66.181  56.136  1.00  0.00    -0.507 OA
ATOM     24  H   UNL     1     -27.875 -66.941  56.163  1.00  0.00     0.293 HD
ENDBRANCH   5  23
BRANCH   7  25
ATOM     25  O   UNL     1     -23.654 -69.125  57.522  1.00  0.00    -0.507 OA
ATOM     26  H   UNL     1     -24.275 -69.885  57.757  1.00  0.00     0.293 HD
ENDBRANCH   7  25
TORSDOF 6
ENDMDL
