MODEL 1
REMARK VINA RESULT:    -5.086      0.000      0.000
REMARK INTER + INTRA:         -17.200
REMARK INTER:                 -13.412
REMARK INTRA:                  -3.787
REMARK UNBOUND:                -3.787
REMARK SMILES CCCCCCCCCCCCCCCCCCCCCCCCCCCCCC(=O)[O-]
REMARK SMILES IDX 16 1 17 2 18 3 19 4 20 5 21 6 22 7 23 8 24 9 25 10 26 11
REMARK SMILES IDX 27 12 28 13 29 14 30 15 31 16 32 17 15 18 14 19 13 20 12 21
REMARK SMILES IDX 11 22 10 23 9 24 8 25 7 26 6 27 5 28 4 29 3 30 2 31 1 32
REMARK H PARENT
REMARK Flexibility Score: inf
ROOT
ATOM      1  C   UNL     1       6.958  -1.841  50.976  1.00  0.00     0.000 C 
ENDROOT
BRANCH   1   2
ATOM      2  C   UNL     1       5.939  -2.988  50.857  1.00  0.00     0.000 C 
BRANCH   2   3
ATOM      3  C   UNL     1       5.050  -2.869  49.613  1.00  0.00     0.000 C 
BRANCH   3   4
ATOM      4  C   UNL     1       4.928  -4.220  48.892  1.00  0.00     0.000 C 
BRANCH   4   5
ATOM      5  C   UNL     1       6.103  -5.161  49.203  1.00  0.00     0.000 C 
BRANCH   5   6
ATOM      6  C   UNL     1       6.820  -5.644  47.933  1.00  0.00     0.000 C 
BRANCH   6   7
ATOM      7  C   UNL     1       8.352  -5.588  48.056  1.00  0.00     0.000 C 
BRANCH   7   8
ATOM      8  C   UNL     1       8.851  -4.528  49.063  1.00  0.00     0.000 C 
BRANCH   8   9
ATOM      9  C   UNL     1       9.804  -3.508  48.415  1.00  0.00     0.000 C 
BRANCH   9  10
ATOM     10  C   UNL     1       9.137  -2.128  48.225  1.00  0.00     0.000 C 
BRANCH  10  11
ATOM     11  C   UNL     1       7.959  -2.142  47.234  1.00  0.00     0.000 C 
BRANCH  11  12
ATOM     12  C   UNL     1       7.181  -0.816  47.209  1.00  0.00     0.000 C 
BRANCH  12  13
ATOM     13  C   UNL     1       5.878  -0.910  46.399  1.00  0.00     0.006 C 
BRANCH  13  14
ATOM     14  C   UNL     1       5.591  -2.334  45.908  1.00  0.00     0.053 C 
BRANCH  14  15
ATOM     15  C   UNL     1       4.812  -2.298  44.631  1.00  0.00     0.041 C 
ATOM     16  O   UNL     1       4.461  -3.371  44.072  1.00  0.00    -0.550 OA
ATOM     17  O   UNL     1       4.430  -1.080  44.083  1.00  0.00    -0.550 OA
ENDBRANCH  14  15
ENDBRANCH  13  14
ENDBRANCH  12  13
ENDBRANCH  11  12
ENDBRANCH  10  11
ENDBRANCH   9  10
ENDBRANCH   8   9
ENDBRANCH   7   8
ENDBRANCH   6   7
ENDBRANCH   5   6
ENDBRANCH   4   5
ENDBRANCH   3   4
ENDBRANCH   2   3
ENDBRANCH   1   2
BRANCH   1  18
ATOM     18  C   UNL     1       6.680  -0.884  52.154  1.00  0.00     0.000 C 
BRANCH  18  19
ATOM     19  C   UNL     1       7.698  -1.045  53.299  1.00  0.00     0.000 C 
BRANCH  19  20
ATOM     20  C   UNL     1       8.069   0.311  53.940  1.00  0.00     0.000 C 
BRANCH  20  21
ATOM     21  C   UNL     1       8.855   0.176  55.255  1.00  0.00     0.000 C 
BRANCH  21  22
ATOM     22  C   UNL     1       9.854   1.321  55.473  1.00  0.00     0.000 C 
BRANCH  22  23
ATOM     23  C   UNL     1       9.780   2.344  54.333  1.00  0.00     0.000 C 
BRANCH  23  24
ATOM     24  C   UNL     1      11.183   2.831  53.943  1.00  0.00    -0.000 C 
BRANCH  24  25
ATOM     25  C   UNL     1      11.793   3.799  54.971  1.00  0.00    -0.000 C 
BRANCH  25  26
ATOM     26  C   UNL     1      11.415   5.276  54.736  1.00  0.00    -0.000 C 
BRANCH  26  27
ATOM     27  C   UNL     1      11.189   5.596  53.247  1.00  0.00    -0.000 C 
BRANCH  27  28
ATOM     28  C   UNL     1       9.959   6.488  53.015  1.00  0.00    -0.000 C 
BRANCH  28  29
ATOM     29  C   UNL     1       9.106   6.024  51.822  1.00  0.00    -0.000 C 
BRANCH  29  30
ATOM     30  C   UNL     1       8.310   4.743  52.124  1.00  0.00    -0.000 C 
BRANCH  30  31
ATOM     31  C   UNL     1       7.258   4.919  53.239  1.00  0.00    -0.003 C 
ATOM     32  C   UNL     1       5.840   4.605  52.759  1.00  0.00     0.004 C 
ENDBRANCH  30  31
ENDBRANCH  29  30
ENDBRANCH  28  29
ENDBRANCH  27  28
ENDBRANCH  26  27
ENDBRANCH  25  26
ENDBRANCH  24  25
ENDBRANCH  23  24
ENDBRANCH  22  23
ENDBRANCH  21  22
ENDBRANCH  20  21
ENDBRANCH  19  20
ENDBRANCH  18  19
ENDBRANCH   1  18
TORSDOF 28
ENDMDL
MODEL 2
REMARK VINA RESULT:    -4.992      2.640      8.828
REMARK INTER + INTRA:         -16.952
REMARK INTER:                 -13.077
REMARK INTRA:                  -3.875
REMARK UNBOUND:                -3.787
REMARK SMILES CCCCCCCCCCCCCCCCCCCCCCCCCCCCCC(=O)[O-]
REMARK SMILES IDX 16 1 17 2 18 3 19 4 20 5 21 6 22 7 23 8 24 9 25 10 26 11
REMARK SMILES IDX 27 12 28 13 29 14 30 15 31 16 32 17 15 18 14 19 13 20 12 21
REMARK SMILES IDX 11 22 10 23 9 24 8 25 7 26 6 27 5 28 4 29 3 30 2 31 1 32
REMARK H PARENT
REMARK Flexibility Score: inf
ROOT
ATOM      1  C   UNL     1       6.805  -1.833  51.592  1.00  0.00     0.000 C 
ENDROOT
BRANCH   1   2
ATOM      2  C   UNL     1       6.769  -0.615  52.532  1.00  0.00     0.000 C 
BRANCH   2   3
ATOM      3  C   UNL     1       7.785  -0.716  53.677  1.00  0.00     0.000 C 
BRANCH   3   4
ATOM      4  C   UNL     1       8.426   0.650  53.964  1.00  0.00     0.000 C 
BRANCH   4   5
ATOM      5  C   UNL     1       9.147   0.687  55.321  1.00  0.00     0.000 C 
BRANCH   5   6
ATOM      6  C   UNL     1      10.287   1.718  55.353  1.00  0.00     0.000 C 
BRANCH   6   7
ATOM      7  C   UNL     1      10.658   2.239  53.954  1.00  0.00     0.000 C 
BRANCH   7   8
ATOM      8  C   UNL     1      10.890   3.765  53.907  1.00  0.00     0.000 C 
BRANCH   8   9
ATOM      9  C   UNL     1       9.674   4.558  54.421  1.00  0.00     0.000 C 
BRANCH   9  10
ATOM     10  C   UNL     1       8.385   4.211  53.646  1.00  0.00     0.000 C 
BRANCH  10  11
ATOM     11  C   UNL     1       8.424   4.624  52.163  1.00  0.00     0.000 C 
BRANCH  11  12
ATOM     12  C   UNL     1       9.061   6.006  51.944  1.00  0.00     0.000 C 
BRANCH  12  13
ATOM     13  C   UNL     1       9.929   6.063  50.676  1.00  0.00     0.006 C 
BRANCH  13  14
ATOM     14  C   UNL     1      10.507   4.694  50.297  1.00  0.00     0.053 C 
BRANCH  14  15
ATOM     15  C   UNL     1      10.552   4.541  48.809  1.00  0.00     0.041 C 
ATOM     16  O   UNL     1       9.493   4.324  48.162  1.00  0.00    -0.550 OA
ATOM     17  O   UNL     1      11.755   4.689  48.130  1.00  0.00    -0.550 OA
ENDBRANCH  14  15
ENDBRANCH  13  14
ENDBRANCH  12  13
ENDBRANCH  11  12
ENDBRANCH  10  11
ENDBRANCH   9  10
ENDBRANCH   8   9
ENDBRANCH   7   8
ENDBRANCH   6   7
ENDBRANCH   5   6
ENDBRANCH   4   5
ENDBRANCH   3   4
ENDBRANCH   2   3
ENDBRANCH   1   2
BRANCH   1  18
ATOM     18  C   UNL     1       5.760  -1.774  50.458  1.00  0.00     0.000 C 
BRANCH  18  19
ATOM     19  C   UNL     1       5.171  -3.157  50.124  1.00  0.00     0.000 C 
BRANCH  19  20
ATOM     20  C   UNL     1       5.668  -4.249  51.097  1.00  0.00     0.000 C 
BRANCH  20  21
ATOM     21  C   UNL     1       5.452  -5.681  50.578  1.00  0.00     0.000 C 
BRANCH  21  22
ATOM     22  C   UNL     1       6.366  -6.031  49.395  1.00  0.00     0.000 C 
BRANCH  22  23
ATOM     23  C   UNL     1       7.813  -5.604  49.668  1.00  0.00     0.000 C 
BRANCH  23  24
ATOM     24  C   UNL     1       8.403  -4.865  48.460  1.00  0.00    -0.000 C 
BRANCH  24  25
ATOM     25  C   UNL     1       9.571  -3.936  48.832  1.00  0.00    -0.000 C 
BRANCH  25  26
ATOM     26  C   UNL     1       9.210  -2.436  48.795  1.00  0.00    -0.000 C 
BRANCH  26  27
ATOM     27  C   UNL     1       8.468  -2.041  47.505  1.00  0.00    -0.000 C 
BRANCH  27  28
ATOM     28  C   UNL     1       7.480  -0.884  47.723  1.00  0.00    -0.000 C 
BRANCH  28  29
ATOM     29  C   UNL     1       6.483  -0.728  46.564  1.00  0.00    -0.000 C 
BRANCH  29  30
ATOM     30  C   UNL     1       5.250  -1.637  46.714  1.00  0.00    -0.000 C 
BRANCH  30  31
ATOM     31  C   UNL     1       5.263  -2.854  45.765  1.00  0.00    -0.003 C 
ATOM     32  C   UNL     1       5.221  -4.184  46.520  1.00  0.00     0.004 C 
ENDBRANCH  30  31
ENDBRANCH  29  30
ENDBRANCH  28  29
ENDBRANCH  27  28
ENDBRANCH  26  27
ENDBRANCH  25  26
ENDBRANCH  24  25
ENDBRANCH  23  24
ENDBRANCH  22  23
ENDBRANCH  21  22
ENDBRANCH  20  21
ENDBRANCH  19  20
ENDBRANCH  18  19
ENDBRANCH   1  18
TORSDOF 28
ENDMDL
MODEL 3
REMARK VINA RESULT:    -4.943      1.157      2.100
REMARK INTER + INTRA:         -16.822
REMARK INTER:                 -12.732
REMARK INTRA:                  -4.090
REMARK UNBOUND:                -3.787
REMARK SMILES CCCCCCCCCCCCCCCCCCCCCCCCCCCCCC(=O)[O-]
REMARK SMILES IDX 16 1 17 2 18 3 19 4 20 5 21 6 22 7 23 8 24 9 25 10 26 11
REMARK SMILES IDX 27 12 28 13 29 14 30 15 31 16 32 17 15 18 14 19 13 20 12 21
REMARK SMILES IDX 11 22 10 23 9 24 8 25 7 26 6 27 5 28 4 29 3 30 2 31 1 32
REMARK H PARENT
REMARK Flexibility Score: inf
ROOT
ATOM      1  C   UNL     1       6.988  -1.743  51.182  1.00  0.00     0.000 C 
ENDROOT
BRANCH   1   2
ATOM      2  C   UNL     1       5.941  -2.845  50.942  1.00  0.00     0.000 C 
BRANCH   2   3
ATOM      3  C   UNL     1       5.182  -2.669  49.621  1.00  0.00     0.000 C 
BRANCH   3   4
ATOM      4  C   UNL     1       4.733  -4.027  49.060  1.00  0.00     0.000 C 
BRANCH   4   5
ATOM      5  C   UNL     1       5.834  -5.096  49.156  1.00  0.00     0.000 C 
BRANCH   5   6
ATOM      6  C   UNL     1       6.496  -5.381  47.798  1.00  0.00     0.000 C 
BRANCH   6   7
ATOM      7  C   UNL     1       8.030  -5.448  47.886  1.00  0.00     0.000 C 
BRANCH   7   8
ATOM      8  C   UNL     1       8.621  -4.577  49.017  1.00  0.00     0.000 C 
BRANCH   8   9
ATOM      9  C   UNL     1       9.684  -3.591  48.501  1.00  0.00     0.000 C 
BRANCH   9  10
ATOM     10  C   UNL     1       9.135  -2.152  48.388  1.00  0.00     0.000 C 
BRANCH  10  11
ATOM     11  C   UNL     1       8.190  -1.944  47.191  1.00  0.00     0.000 C 
BRANCH  11  12
ATOM     12  C   UNL     1       7.260  -0.731  47.366  1.00  0.00     0.000 C 
BRANCH  12  13
ATOM     13  C   UNL     1       5.942  -0.879  46.588  1.00  0.00     0.006 C 
BRANCH  13  14
ATOM     14  C   UNL     1       5.805  -2.252  45.918  1.00  0.00     0.053 C 
BRANCH  14  15
ATOM     15  C   UNL     1       4.884  -2.169  44.742  1.00  0.00     0.041 C 
ATOM     16  O   UNL     1       4.599  -1.050  44.237  1.00  0.00    -0.550 OA
ATOM     17  O   UNL     1       4.378  -3.330  44.171  1.00  0.00    -0.550 OA
ENDBRANCH  14  15
ENDBRANCH  13  14
ENDBRANCH  12  13
ENDBRANCH  11  12
ENDBRANCH  10  11
ENDBRANCH   9  10
ENDBRANCH   8   9
ENDBRANCH   7   8
ENDBRANCH   6   7
ENDBRANCH   5   6
ENDBRANCH   4   5
ENDBRANCH   3   4
ENDBRANCH   2   3
ENDBRANCH   1   2
BRANCH   1  18
ATOM     18  C   UNL     1       6.655  -0.818  52.372  1.00  0.00     0.000 C 
BRANCH  18  19
ATOM     19  C   UNL     1       7.781  -0.780  53.423  1.00  0.00     0.000 C 
BRANCH  19  20
ATOM     20  C   UNL     1       8.078   0.658  53.901  1.00  0.00     0.000 C 
BRANCH  20  21
ATOM     21  C   UNL     1       8.707   0.723  55.303  1.00  0.00     0.000 C 
BRANCH  21  22
ATOM     22  C   UNL     1       9.776   1.818  55.427  1.00  0.00     0.000 C 
BRANCH  22  23
ATOM     23  C   UNL     1      10.773   1.753  54.264  1.00  0.00     0.000 C 
BRANCH  23  24
ATOM     24  C   UNL     1      10.763   3.061  53.461  1.00  0.00    -0.000 C 
BRANCH  24  25
ATOM     25  C   UNL     1      10.306   4.274  54.290  1.00  0.00    -0.000 C 
BRANCH  25  26
ATOM     26  C   UNL     1       9.183   5.096  53.624  1.00  0.00    -0.000 C 
BRANCH  26  27
ATOM     27  C   UNL     1       8.892   4.637  52.183  1.00  0.00    -0.000 C 
BRANCH  27  28
ATOM     28  C   UNL     1       9.157   5.741  51.147  1.00  0.00    -0.000 C 
BRANCH  28  29
ATOM     29  C   UNL     1       9.645   5.185  49.799  1.00  0.00    -0.000 C 
BRANCH  29  30
ATOM     30  C   UNL     1      10.999   4.463  49.909  1.00  0.00    -0.000 C 
BRANCH  30  31
ATOM     31  C   UNL     1      12.169   5.399  50.280  1.00  0.00    -0.003 C 
ATOM     32  C   UNL     1      13.129   4.763  51.287  1.00  0.00     0.004 C 
ENDBRANCH  30  31
ENDBRANCH  29  30
ENDBRANCH  28  29
ENDBRANCH  27  28
ENDBRANCH  26  27
ENDBRANCH  25  26
ENDBRANCH  24  25
ENDBRANCH  23  24
ENDBRANCH  22  23
ENDBRANCH  21  22
ENDBRANCH  20  21
ENDBRANCH  19  20
ENDBRANCH  18  19
ENDBRANCH   1  18
TORSDOF 28
ENDMDL
MODEL 4
REMARK VINA RESULT:    -4.775      1.245      3.287
REMARK INTER + INTRA:         -16.377
REMARK INTER:                 -12.550
REMARK INTRA:                  -3.827
REMARK UNBOUND:                -3.787
REMARK SMILES CCCCCCCCCCCCCCCCCCCCCCCCCCCCCC(=O)[O-]
REMARK SMILES IDX 16 1 17 2 18 3 19 4 20 5 21 6 22 7 23 8 24 9 25 10 26 11
REMARK SMILES IDX 27 12 28 13 29 14 30 15 31 16 32 17 15 18 14 19 13 20 12 21
REMARK SMILES IDX 11 22 10 23 9 24 8 25 7 26 6 27 5 28 4 29 3 30 2 31 1 32
REMARK H PARENT
REMARK Flexibility Score: inf
ROOT
ATOM      1  C   UNL     1       8.487  -0.245  54.250  1.00  0.00     0.000 C 
ENDROOT
BRANCH   1   2
ATOM      2  C   UNL     1       7.415  -0.278  53.147  1.00  0.00     0.000 C 
BRANCH   2   3
ATOM      3  C   UNL     1       7.302  -1.648  52.466  1.00  0.00     0.000 C 
BRANCH   3   4
ATOM      4  C   UNL     1       6.270  -1.614  51.329  1.00  0.00     0.000 C 
BRANCH   4   5
ATOM      5  C   UNL     1       5.844  -3.021  50.879  1.00  0.00     0.000 C 
BRANCH   5   6
ATOM      6  C   UNL     1       4.942  -2.992  49.635  1.00  0.00     0.000 C 
BRANCH   6   7
ATOM      7  C   UNL     1       5.306  -4.080  48.611  1.00  0.00     0.000 C 
BRANCH   7   8
ATOM      8  C   UNL     1       6.502  -4.956  49.042  1.00  0.00     0.000 C 
BRANCH   8   9
ATOM      9  C   UNL     1       7.343  -5.430  47.842  1.00  0.00     0.000 C 
BRANCH   9  10
ATOM     10  C   UNL     1       8.820  -4.995  47.961  1.00  0.00     0.000 C 
BRANCH  10  11
ATOM     11  C   UNL     1       9.051  -3.857  48.971  1.00  0.00     0.000 C 
BRANCH  11  12
ATOM     12  C   UNL     1       9.400  -2.520  48.297  1.00  0.00     0.000 C 
BRANCH  12  13
ATOM     13  C   UNL     1       8.167  -1.627  48.079  1.00  0.00     0.006 C 
BRANCH  13  14
ATOM     14  C   UNL     1       7.552  -1.804  46.684  1.00  0.00     0.053 C 
BRANCH  14  15
ATOM     15  C   UNL     1       6.228  -1.113  46.607  1.00  0.00     0.041 C 
ATOM     16  O   UNL     1       5.857  -0.347  47.536  1.00  0.00    -0.550 OA
ATOM     17  O   UNL     1       5.423  -1.273  45.485  1.00  0.00    -0.550 OA
ENDBRANCH  14  15
ENDBRANCH  13  14
ENDBRANCH  12  13
ENDBRANCH  11  12
ENDBRANCH  10  11
ENDBRANCH   9  10
ENDBRANCH   8   9
ENDBRANCH   7   8
ENDBRANCH   6   7
ENDBRANCH   5   6
ENDBRANCH   4   5
ENDBRANCH   3   4
ENDBRANCH   2   3
ENDBRANCH   1   2
BRANCH   1  18
ATOM     18  C   UNL     1       8.763   1.169  54.805  1.00  0.00     0.000 C 
BRANCH  18  19
ATOM     19  C   UNL     1      10.257   1.542  54.753  1.00  0.00     0.000 C 
BRANCH  19  20
ATOM     20  C   UNL     1      10.731   2.216  56.059  1.00  0.00     0.000 C 
BRANCH  20  21
ATOM     21  C   UNL     1      10.630   3.751  56.031  1.00  0.00     0.000 C 
BRANCH  21  22
ATOM     22  C   UNL     1      11.647   4.399  55.080  1.00  0.00     0.000 C 
BRANCH  22  23
ATOM     23  C   UNL     1      11.468   5.920  55.031  1.00  0.00     0.000 C 
BRANCH  23  24
ATOM     24  C   UNL     1      11.817   6.468  53.641  1.00  0.00    -0.000 C 
BRANCH  24  25
ATOM     25  C   UNL     1      11.378   5.537  52.498  1.00  0.00    -0.000 C 
BRANCH  25  26
ATOM     26  C   UNL     1      10.318   6.155  51.562  1.00  0.00    -0.000 C 
BRANCH  26  27
ATOM     27  C   UNL     1       9.073   5.262  51.413  1.00  0.00    -0.000 C 
BRANCH  27  28
ATOM     28  C   UNL     1       8.916   4.270  52.575  1.00  0.00    -0.000 C 
BRANCH  28  29
ATOM     29  C   UNL     1       7.741   4.623  53.502  1.00  0.00    -0.000 C 
BRANCH  29  30
ATOM     30  C   UNL     1       6.399   4.058  53.003  1.00  0.00    -0.000 C 
BRANCH  30  31
ATOM     31  C   UNL     1       6.065   2.665  53.578  1.00  0.00    -0.003 C 
ATOM     32  C   UNL     1       4.664   2.193  53.185  1.00  0.00     0.004 C 
ENDBRANCH  30  31
ENDBRANCH  29  30
ENDBRANCH  28  29
ENDBRANCH  27  28
ENDBRANCH  26  27
ENDBRANCH  25  26
ENDBRANCH  24  25
ENDBRANCH  23  24
ENDBRANCH  22  23
ENDBRANCH  21  22
ENDBRANCH  20  21
ENDBRANCH  19  20
ENDBRANCH  18  19
ENDBRANCH   1  18
TORSDOF 28
ENDMDL
MODEL 5
REMARK VINA RESULT:    -4.773      3.106      9.282
REMARK INTER + INTRA:         -16.373
REMARK INTER:                 -12.095
REMARK INTRA:                  -4.277
REMARK UNBOUND:                -3.787
REMARK SMILES CCCCCCCCCCCCCCCCCCCCCCCCCCCCCC(=O)[O-]
REMARK SMILES IDX 16 1 17 2 18 3 19 4 20 5 21 6 22 7 23 8 24 9 25 10 26 11
REMARK SMILES IDX 27 12 28 13 29 14 30 15 31 16 32 17 15 18 14 19 13 20 12 21
REMARK SMILES IDX 11 22 10 23 9 24 8 25 7 26 6 27 5 28 4 29 3 30 2 31 1 32
REMARK H PARENT
REMARK Flexibility Score: inf
ROOT
ATOM      1  C   UNL     1       5.828  -1.679  50.601  1.00  0.00     0.000 C 
ENDROOT
BRANCH   1   2
ATOM      2  C   UNL     1       6.686  -1.831  51.870  1.00  0.00     0.000 C 
BRANCH   2   3
ATOM      3  C   UNL     1       7.060  -0.485  52.502  1.00  0.00     0.000 C 
BRANCH   3   4
ATOM      4  C   UNL     1       7.914  -0.688  53.762  1.00  0.00     0.000 C 
BRANCH   4   5
ATOM      5  C   UNL     1       8.676   0.584  54.168  1.00  0.00     0.000 C 
BRANCH   5   6
ATOM      6  C   UNL     1       7.748   1.798  54.328  1.00  0.00     0.000 C 
BRANCH   6   7
ATOM      7  C   UNL     1       8.422   2.970  55.061  1.00  0.00     0.000 C 
BRANCH   7   8
ATOM      8  C   UNL     1       9.707   2.567  55.816  1.00  0.00     0.000 C 
BRANCH   8   9
ATOM      9  C   UNL     1      10.909   3.454  55.443  1.00  0.00     0.000 C 
BRANCH   9  10
ATOM     10  C   UNL     1      10.562   4.460  54.324  1.00  0.00     0.000 C 
BRANCH  10  11
ATOM     11  C   UNL     1      11.252   4.155  52.982  1.00  0.00     0.000 C 
BRANCH  11  12
ATOM     12  C   UNL     1      10.406   4.568  51.766  1.00  0.00     0.000 C 
BRANCH  12  13
ATOM     13  C   UNL     1       9.184   5.416  52.156  1.00  0.00     0.006 C 
BRANCH  13  14
ATOM     14  C   UNL     1       7.864   4.651  52.000  1.00  0.00     0.053 C 
BRANCH  14  15
ATOM     15  C   UNL     1       6.783   5.310  52.797  1.00  0.00     0.041 C 
ATOM     16  O   UNL     1       7.040   6.322  53.501  1.00  0.00    -0.550 OA
ATOM     17  O   UNL     1       5.478   4.838  52.723  1.00  0.00    -0.550 OA
ENDBRANCH  14  15
ENDBRANCH  13  14
ENDBRANCH  12  13
ENDBRANCH  11  12
ENDBRANCH  10  11
ENDBRANCH   9  10
ENDBRANCH   8   9
ENDBRANCH   7   8
ENDBRANCH   6   7
ENDBRANCH   5   6
ENDBRANCH   4   5
ENDBRANCH   3   4
ENDBRANCH   2   3
ENDBRANCH   1   2
BRANCH   1  18
ATOM     18  C   UNL     1       5.390  -3.022  49.982  1.00  0.00     0.000 C 
BRANCH  18  19
ATOM     19  C   UNL     1       5.784  -4.230  50.853  1.00  0.00     0.000 C 
BRANCH  19  20
ATOM     20  C   UNL     1       6.249  -5.432  50.001  1.00  0.00     0.000 C 
BRANCH  20  21
ATOM     21  C   UNL     1       7.767  -5.457  49.750  1.00  0.00     0.000 C 
BRANCH  21  22
ATOM     22  C   UNL     1       8.124  -5.521  48.258  1.00  0.00     0.000 C 
BRANCH  22  23
ATOM     23  C   UNL     1       9.162  -4.455  47.891  1.00  0.00     0.000 C 
BRANCH  23  24
ATOM     24  C   UNL     1       9.266  -3.391  48.993  1.00  0.00    -0.000 C 
BRANCH  24  25
ATOM     25  C   UNL     1       8.799  -1.999  48.534  1.00  0.00    -0.000 C 
BRANCH  25  26
ATOM     26  C   UNL     1       8.079  -2.003  47.169  1.00  0.00    -0.000 C 
BRANCH  26  27
ATOM     27  C   UNL     1       7.011  -0.899  47.064  1.00  0.00    -0.000 C 
BRANCH  27  28
ATOM     28  C   UNL     1       5.696  -1.407  46.453  1.00  0.00    -0.000 C 
BRANCH  28  29
ATOM     29  C   UNL     1       5.797  -2.855  45.945  1.00  0.00    -0.000 C 
BRANCH  29  30
ATOM     30  C   UNL     1       5.016  -3.848  46.823  1.00  0.00    -0.000 C 
BRANCH  30  31
ATOM     31  C   UNL     1       5.101  -5.307  46.328  1.00  0.00    -0.003 C 
ATOM     32  C   UNL     1       3.826  -6.099  46.626  1.00  0.00     0.004 C 
ENDBRANCH  30  31
ENDBRANCH  29  30
ENDBRANCH  28  29
ENDBRANCH  27  28
ENDBRANCH  26  27
ENDBRANCH  25  26
ENDBRANCH  24  25
ENDBRANCH  23  24
ENDBRANCH  22  23
ENDBRANCH  21  22
ENDBRANCH  20  21
ENDBRANCH  19  20
ENDBRANCH  18  19
ENDBRANCH   1  18
TORSDOF 28
ENDMDL
MODEL 6
REMARK VINA RESULT:    -4.764      6.997      9.873
REMARK INTER + INTRA:         -16.351
REMARK INTER:                 -10.597
REMARK INTRA:                  -5.754
REMARK UNBOUND:                -3.787
REMARK SMILES CCCCCCCCCCCCCCCCCCCCCCCCCCCCCC(=O)[O-]
REMARK SMILES IDX 16 1 17 2 18 3 19 4 20 5 21 6 22 7 23 8 24 9 25 10 26 11
REMARK SMILES IDX 27 12 28 13 29 14 30 15 31 16 32 17 15 18 14 19 13 20 12 21
REMARK SMILES IDX 11 22 10 23 9 24 8 25 7 26 6 27 5 28 4 29 3 30 2 31 1 32
REMARK H PARENT
REMARK Flexibility Score: inf
ROOT
ATOM      1  C   UNL     1      10.591   2.234  53.915  1.00  0.00     0.000 C 
ENDROOT
BRANCH   1   2
ATOM      2  C   UNL     1       9.915   1.171  54.799  1.00  0.00     0.000 C 
BRANCH   2   3
ATOM      3  C   UNL     1       8.476   0.865  54.367  1.00  0.00     0.000 C 
BRANCH   3   4
ATOM      4  C   UNL     1       7.543   2.043  54.687  1.00  0.00     0.000 C 
BRANCH   4   5
ATOM      5  C   UNL     1       6.478   2.263  53.601  1.00  0.00     0.000 C 
BRANCH   5   6
ATOM      6  C   UNL     1       6.378   3.734  53.166  1.00  0.00     0.000 C 
BRANCH   6   7
ATOM      7  C   UNL     1       7.538   4.592  53.698  1.00  0.00     0.000 C 
BRANCH   7   8
ATOM      8  C   UNL     1       8.568   4.975  52.612  1.00  0.00     0.000 C 
BRANCH   8   9
ATOM      9  C   UNL     1       8.435   6.444  52.173  1.00  0.00     0.000 C 
BRANCH   9  10
ATOM     10  C   UNL     1       7.667   7.294  53.209  1.00  0.00     0.000 C 
BRANCH  10  11
ATOM     11  C   UNL     1       7.668   8.801  52.896  1.00  0.00     0.000 C 
BRANCH  11  12
ATOM     12  C   UNL     1       9.026   9.304  52.378  1.00  0.00     0.000 C 
BRANCH  12  13
ATOM     13  C   UNL     1       9.611  10.429  53.247  1.00  0.00     0.006 C 
BRANCH  13  14
ATOM     14  C   UNL     1      11.103  10.664  52.978  1.00  0.00     0.053 C 
BRANCH  14  15
ATOM     15  C   UNL     1      11.809  11.031  54.245  1.00  0.00     0.041 C 
ATOM     16  O   UNL     1      12.211  12.211  54.428  1.00  0.00    -0.550 OA
ATOM     17  O   UNL     1      11.979  10.084  55.247  1.00  0.00    -0.550 OA
ENDBRANCH  14  15
ENDBRANCH  13  14
ENDBRANCH  12  13
ENDBRANCH  11  12
ENDBRANCH  10  11
ENDBRANCH   9  10
ENDBRANCH   8   9
ENDBRANCH   7   8
ENDBRANCH   6   7
ENDBRANCH   5   6
ENDBRANCH   4   5
ENDBRANCH   3   4
ENDBRANCH   2   3
ENDBRANCH   1   2
BRANCH   1  18
ATOM     18  C   UNL     1      11.666   3.062  54.652  1.00  0.00     0.000 C 
BRANCH  18  19
ATOM     19  C   UNL     1      11.067   3.972  55.740  1.00  0.00     0.000 C 
BRANCH  19  20
ATOM     20  C   UNL     1      10.971   5.442  55.278  1.00  0.00     0.000 C 
BRANCH  20  21
ATOM     21  C   UNL     1      12.144   5.887  54.388  1.00  0.00     0.000 C 
BRANCH  21  22
ATOM     22  C   UNL     1      11.779   7.051  53.457  1.00  0.00     0.000 C 
BRANCH  22  23
ATOM     23  C   UNL     1      12.053   6.695  51.991  1.00  0.00     0.000 C 
BRANCH  23  24
ATOM     24  C   UNL     1      12.352   5.197  51.839  1.00  0.00    -0.000 C 
BRANCH  24  25
ATOM     25  C   UNL     1      11.411   4.491  50.849  1.00  0.00    -0.000 C 
BRANCH  25  26
ATOM     26  C   UNL     1      12.091   4.079  49.527  1.00  0.00    -0.000 C 
BRANCH  26  27
ATOM     27  C   UNL     1      11.123   4.111  48.331  1.00  0.00    -0.000 C 
BRANCH  27  28
ATOM     28  C   UNL     1       9.776   4.764  48.680  1.00  0.00    -0.000 C 
BRANCH  28  29
ATOM     29  C   UNL     1       9.600   6.147  48.031  1.00  0.00    -0.000 C 
BRANCH  29  30
ATOM     30  C   UNL     1       9.497   7.280  49.067  1.00  0.00    -0.000 C 
BRANCH  30  31
ATOM     31  C   UNL     1      10.659   8.293  48.990  1.00  0.00    -0.003 C 
ATOM     32  C   UNL     1      11.876   7.730  48.254  1.00  0.00     0.004 C 
ENDBRANCH  30  31
ENDBRANCH  29  30
ENDBRANCH  28  29
ENDBRANCH  27  28
ENDBRANCH  26  27
ENDBRANCH  25  26
ENDBRANCH  24  25
ENDBRANCH  23  24
ENDBRANCH  22  23
ENDBRANCH  21  22
ENDBRANCH  20  21
ENDBRANCH  19  20
ENDBRANCH  18  19
ENDBRANCH   1  18
TORSDOF 28
ENDMDL
MODEL 7
REMARK VINA RESULT:    -4.709     10.475     13.368
REMARK INTER + INTRA:         -16.203
REMARK INTER:                 -11.664
REMARK INTRA:                  -4.539
REMARK UNBOUND:                -3.787
REMARK SMILES CCCCCCCCCCCCCCCCCCCCCCCCCCCCCC(=O)[O-]
REMARK SMILES IDX 16 1 17 2 18 3 19 4 20 5 21 6 22 7 23 8 24 9 25 10 26 11
REMARK SMILES IDX 27 12 28 13 29 14 30 15 31 16 32 17 15 18 14 19 13 20 12 21
REMARK SMILES IDX 11 22 10 23 9 24 8 25 7 26 6 27 5 28 4 29 3 30 2 31 1 32
REMARK H PARENT
REMARK Flexibility Score: inf
ROOT
ATOM      1  C   UNL     1       1.649  10.165  47.090  1.00  0.00     0.000 C 
ENDROOT
BRANCH   1   2
ATOM      2  C   UNL     1       0.771   8.901  47.065  1.00  0.00     0.000 C 
BRANCH   2   3
ATOM      3  C   UNL     1      -0.209   8.833  48.243  1.00  0.00     0.000 C 
BRANCH   3   4
ATOM      4  C   UNL     1      -1.637   8.543  47.754  1.00  0.00     0.000 C 
BRANCH   4   5
ATOM      5  C   UNL     1      -2.586   9.732  47.971  1.00  0.00     0.000 C 
BRANCH   5   6
ATOM      6  C   UNL     1      -2.949  10.441  46.657  1.00  0.00     0.000 C 
BRANCH   6   7
ATOM      7  C   UNL     1      -1.952  11.551  46.284  1.00  0.00     0.000 C 
BRANCH   7   8
ATOM      8  C   UNL     1      -1.191  11.279  44.968  1.00  0.00     0.000 C 
BRANCH   8   9
ATOM      9  C   UNL     1      -1.833  10.148  44.145  1.00  0.00     0.000 C 
BRANCH   9  10
ATOM     10  C   UNL     1      -0.810   9.054  43.766  1.00  0.00     0.000 C 
BRANCH  10  11
ATOM     11  C   UNL     1      -1.220   7.641  44.220  1.00  0.00     0.000 C 
BRANCH  11  12
ATOM     12  C   UNL     1      -2.700   7.330  43.945  1.00  0.00     0.000 C 
BRANCH  12  13
ATOM     13  C   UNL     1      -2.891   6.340  42.783  1.00  0.00     0.006 C 
BRANCH  13  14
ATOM     14  C   UNL     1      -1.560   5.899  42.162  1.00  0.00     0.053 C 
BRANCH  14  15
ATOM     15  C   UNL     1      -1.474   6.350  40.738  1.00  0.00     0.041 C 
ATOM     16  O   UNL     1      -1.351   7.574  40.467  1.00  0.00    -0.550 OA
ATOM     17  O   UNL     1      -1.478   5.415  39.710  1.00  0.00    -0.550 OA
ENDBRANCH  14  15
ENDBRANCH  13  14
ENDBRANCH  12  13
ENDBRANCH  11  12
ENDBRANCH  10  11
ENDBRANCH   9  10
ENDBRANCH   8   9
ENDBRANCH   7   8
ENDBRANCH   6   7
ENDBRANCH   5   6
ENDBRANCH   4   5
ENDBRANCH   3   4
ENDBRANCH   2   3
ENDBRANCH   1   2
BRANCH   1  18
ATOM     18  C   UNL     1       1.323  11.125  48.253  1.00  0.00     0.000 C 
BRANCH  18  19
ATOM     19  C   UNL     1       2.379  11.077  49.373  1.00  0.00     0.000 C 
BRANCH  19  20
ATOM     20  C   UNL     1       3.222  12.370  49.431  1.00  0.00     0.000 C 
BRANCH  20  21
ATOM     21  C   UNL     1       4.735  12.125  49.303  1.00  0.00     0.000 C 
BRANCH  21  22
ATOM     22  C   UNL     1       5.097  11.243  48.100  1.00  0.00     0.000 C 
BRANCH  22  23
ATOM     23  C   UNL     1       4.916  12.004  46.781  1.00  0.00     0.000 C 
BRANCH  23  24
ATOM     24  C   UNL     1       6.269  12.252  46.102  1.00  0.00    -0.000 C 
BRANCH  24  25
ATOM     25  C   UNL     1       7.077  13.382  46.762  1.00  0.00    -0.000 C 
BRANCH  25  26
ATOM     26  C   UNL     1       8.202  12.882  47.692  1.00  0.00    -0.000 C 
BRANCH  26  27
ATOM     27  C   UNL     1       8.838  11.571  47.195  1.00  0.00    -0.000 C 
BRANCH  27  28
ATOM     28  C   UNL     1       8.963  10.518  48.307  1.00  0.00    -0.000 C 
BRANCH  28  29
ATOM     29  C   UNL     1       8.143   9.249  48.018  1.00  0.00    -0.000 C 
BRANCH  29  30
ATOM     30  C   UNL     1       7.911   9.022  46.514  1.00  0.00    -0.000 C 
BRANCH  30  31
ATOM     31  C   UNL     1       8.815   7.928  45.909  1.00  0.00    -0.003 C 
ATOM     32  C   UNL     1      10.062   8.507  45.237  1.00  0.00     0.004 C 
ENDBRANCH  30  31
ENDBRANCH  29  30
ENDBRANCH  28  29
ENDBRANCH  27  28
ENDBRANCH  26  27
ENDBRANCH  25  26
ENDBRANCH  24  25
ENDBRANCH  23  24
ENDBRANCH  22  23
ENDBRANCH  21  22
ENDBRANCH  20  21
ENDBRANCH  19  20
ENDBRANCH  18  19
ENDBRANCH   1  18
TORSDOF 28
ENDMDL
MODEL 8
REMARK VINA RESULT:    -4.685     10.619     13.434
REMARK INTER + INTRA:         -16.142
REMARK INTER:                 -11.997
REMARK INTRA:                  -4.145
REMARK UNBOUND:                -3.787
REMARK SMILES CCCCCCCCCCCCCCCCCCCCCCCCCCCCCC(=O)[O-]
REMARK SMILES IDX 16 1 17 2 18 3 19 4 20 5 21 6 22 7 23 8 24 9 25 10 26 11
REMARK SMILES IDX 27 12 28 13 29 14 30 15 31 16 32 17 15 18 14 19 13 20 12 21
REMARK SMILES IDX 11 22 10 23 9 24 8 25 7 26 6 27 5 28 4 29 3 30 2 31 1 32
REMARK H PARENT
REMARK Flexibility Score: inf
ROOT
ATOM      1  C   UNL     1       1.700  10.034  47.137  1.00  0.00     0.000 C 
ENDROOT
BRANCH   1   2
ATOM      2  C   UNL     1       0.701   8.878  46.954  1.00  0.00     0.000 C 
BRANCH   2   3
ATOM      3  C   UNL     1      -0.338   8.804  48.079  1.00  0.00     0.000 C 
BRANCH   3   4
ATOM      4  C   UNL     1      -1.760   8.990  47.528  1.00  0.00     0.000 C 
BRANCH   4   5
ATOM      5  C   UNL     1      -2.217  10.457  47.559  1.00  0.00     0.000 C 
BRANCH   5   6
ATOM      6  C   UNL     1      -2.678  10.958  46.181  1.00  0.00     0.000 C 
BRANCH   6   7
ATOM      7  C   UNL     1      -1.521  11.086  45.176  1.00  0.00     0.000 C 
BRANCH   7   8
ATOM      8  C   UNL     1      -1.624  10.103  43.989  1.00  0.00     0.000 C 
BRANCH   8   9
ATOM      9  C   UNL     1      -2.962   9.342  43.975  1.00  0.00     0.000 C 
BRANCH   9  10
ATOM     10  C   UNL     1      -2.764   7.817  44.114  1.00  0.00     0.000 C 
BRANCH  10  11
ATOM     11  C   UNL     1      -1.287   7.388  44.175  1.00  0.00     0.000 C 
BRANCH  11  12
ATOM     12  C   UNL     1      -0.920   6.350  43.102  1.00  0.00     0.000 C 
BRANCH  12  13
ATOM     13  C   UNL     1      -1.495   6.699  41.719  1.00  0.00     0.006 C 
BRANCH  13  14
ATOM     14  C   UNL     1      -0.563   7.606  40.906  1.00  0.00     0.053 C 
BRANCH  14  15
ATOM     15  C   UNL     1      -1.307   8.802  40.403  1.00  0.00     0.041 C 
ATOM     16  O   UNL     1      -0.683   9.762  39.878  1.00  0.00    -0.550 OA
ATOM     17  O   UNL     1      -2.695   8.837  40.468  1.00  0.00    -0.550 OA
ENDBRANCH  14  15
ENDBRANCH  13  14
ENDBRANCH  12  13
ENDBRANCH  11  12
ENDBRANCH  10  11
ENDBRANCH   9  10
ENDBRANCH   8   9
ENDBRANCH   7   8
ENDBRANCH   6   7
ENDBRANCH   5   6
ENDBRANCH   4   5
ENDBRANCH   3   4
ENDBRANCH   2   3
ENDBRANCH   1   2
BRANCH   1  18
ATOM     18  C   UNL     1       1.362  10.966  48.320  1.00  0.00     0.000 C 
BRANCH  18  19
ATOM     19  C   UNL     1       2.539  11.127  49.301  1.00  0.00     0.000 C 
BRANCH  19  20
ATOM     20  C   UNL     1       3.101  12.565  49.301  1.00  0.00     0.000 C 
BRANCH  20  21
ATOM     21  C   UNL     1       4.631  12.629  49.444  1.00  0.00     0.000 C 
BRANCH  21  22
ATOM     22  C   UNL     1       5.291  11.243  49.412  1.00  0.00     0.000 C 
BRANCH  22  23
ATOM     23  C   UNL     1       6.218  11.098  48.199  1.00  0.00     0.000 C 
BRANCH  23  24
ATOM     24  C   UNL     1       7.667  11.439  48.574  1.00  0.00    -0.000 C 
BRANCH  24  25
ATOM     25  C   UNL     1       8.595  10.213  48.567  1.00  0.00    -0.000 C 
BRANCH  25  26
ATOM     26  C   UNL     1       8.024   9.003  47.798  1.00  0.00    -0.000 C 
BRANCH  26  27
ATOM     27  C   UNL     1       9.127   8.131  47.170  1.00  0.00    -0.000 C 
BRANCH  27  28
ATOM     28  C   UNL     1      10.250   8.966  46.535  1.00  0.00    -0.000 C 
BRANCH  28  29
ATOM     29  C   UNL     1       9.844   9.577  45.183  1.00  0.00    -0.000 C 
BRANCH  29  30
ATOM     30  C   UNL     1      10.250  11.056  45.053  1.00  0.00    -0.000 C 
BRANCH  30  31
ATOM     31  C   UNL     1       9.055  12.004  44.819  1.00  0.00    -0.003 C 
ATOM     32  C   UNL     1       7.719  11.260  44.777  1.00  0.00     0.004 C 
ENDBRANCH  30  31
ENDBRANCH  29  30
ENDBRANCH  28  29
ENDBRANCH  27  28
ENDBRANCH  26  27
ENDBRANCH  25  26
ENDBRANCH  24  25
ENDBRANCH  23  24
ENDBRANCH  22  23
ENDBRANCH  21  22
ENDBRANCH  20  21
ENDBRANCH  19  20
ENDBRANCH  18  19
ENDBRANCH   1  18
TORSDOF 28
ENDMDL
MODEL 9
REMARK VINA RESULT:    -4.628      7.705     12.436
REMARK INTER + INTRA:         -15.992
REMARK INTER:                  -9.808
REMARK INTRA:                  -6.184
REMARK UNBOUND:                -3.787
REMARK SMILES CCCCCCCCCCCCCCCCCCCCCCCCCCCCCC(=O)[O-]
REMARK SMILES IDX 16 1 17 2 18 3 19 4 20 5 21 6 22 7 23 8 24 9 25 10 26 11
REMARK SMILES IDX 27 12 28 13 29 14 30 15 31 16 32 17 15 18 14 19 13 20 12 21
REMARK SMILES IDX 11 22 10 23 9 24 8 25 7 26 6 27 5 28 4 29 3 30 2 31 1 32
REMARK H PARENT
REMARK Flexibility Score: inf
ROOT
ATOM      1  C   UNL     1       8.341   9.526  47.850  1.00  0.00     0.000 C 
ENDROOT
BRANCH   1   2
ATOM      2  C   UNL     1       8.188   9.563  49.381  1.00  0.00     0.000 C 
BRANCH   2   3
ATOM      3  C   UNL     1       9.319  10.333  50.074  1.00  0.00     0.000 C 
BRANCH   3   4
ATOM      4  C   UNL     1      10.101  11.189  49.066  1.00  0.00     0.000 C 
BRANCH   4   5
ATOM      5  C   UNL     1      10.148  12.672  49.465  1.00  0.00     0.000 C 
BRANCH   5   6
ATOM      6  C   UNL     1       9.705  13.602  48.325  1.00  0.00     0.000 C 
BRANCH   6   7
ATOM      7  C   UNL     1       8.283  13.296  47.826  1.00  0.00     0.000 C 
BRANCH   7   8
ATOM      8  C   UNL     1       8.126  13.427  46.295  1.00  0.00     0.000 C 
BRANCH   8   9
ATOM      9  C   UNL     1       8.952  12.376  45.531  1.00  0.00     0.000 C 
BRANCH   9  10
ATOM     10  C   UNL     1       8.077  11.525  44.585  1.00  0.00     0.000 C 
BRANCH  10  11
ATOM     11  C   UNL     1       6.568  11.792  44.731  1.00  0.00     0.000 C 
BRANCH  11  12
ATOM     12  C   UNL     1       5.830  10.666  45.474  1.00  0.00     0.000 C 
BRANCH  12  13
ATOM     13  C   UNL     1       5.157  11.152  46.768  1.00  0.00     0.006 C 
BRANCH  13  14
ATOM     14  C   UNL     1       3.677  10.758  46.846  1.00  0.00     0.053 C 
BRANCH  14  15
ATOM     15  C   UNL     1       3.111  11.119  48.183  1.00  0.00     0.041 C 
ATOM     16  O   UNL     1       3.848  11.122  49.204  1.00  0.00    -0.550 OA
ATOM     17  O   UNL     1       1.780  11.504  48.294  1.00  0.00    -0.550 OA
ENDBRANCH  14  15
ENDBRANCH  13  14
ENDBRANCH  12  13
ENDBRANCH  11  12
ENDBRANCH  10  11
ENDBRANCH   9  10
ENDBRANCH   8   9
ENDBRANCH   7   8
ENDBRANCH   6   7
ENDBRANCH   5   6
ENDBRANCH   4   5
ENDBRANCH   3   4
ENDBRANCH   2   3
ENDBRANCH   1   2
BRANCH   1  18
ATOM     18  C   UNL     1       8.440   8.100  47.270  1.00  0.00     0.000 C 
BRANCH  18  19
ATOM     19  C   UNL     1       8.514   8.091  45.732  1.00  0.00     0.000 C 
BRANCH  19  20
ATOM     20  C   UNL     1       9.947   7.828  45.221  1.00  0.00     0.000 C 
BRANCH  20  21
ATOM     21  C   UNL     1      10.749   9.112  44.950  1.00  0.00     0.000 C 
BRANCH  21  22
ATOM     22  C   UNL     1      11.746   9.441  46.071  1.00  0.00     0.000 C 
BRANCH  22  23
ATOM     23  C   UNL     1      12.186   8.172  46.810  1.00  0.00     0.000 C 
BRANCH  23  24
ATOM     24  C   UNL     1      12.082   8.360  48.330  1.00  0.00    -0.000 C 
BRANCH  24  25
ATOM     25  C   UNL     1      11.539   7.118  49.056  1.00  0.00    -0.000 C 
BRANCH  25  26
ATOM     26  C   UNL     1      11.265   5.921  48.122  1.00  0.00    -0.000 C 
BRANCH  26  27
ATOM     27  C   UNL     1      10.133   5.015  48.642  1.00  0.00    -0.000 C 
BRANCH  27  28
ATOM     28  C   UNL     1       9.358   5.651  49.807  1.00  0.00    -0.000 C 
BRANCH  28  29
ATOM     29  C   UNL     1       9.431   4.814  51.095  1.00  0.00    -0.000 C 
BRANCH  29  30
ATOM     30  C   UNL     1       9.341   5.675  52.368  1.00  0.00    -0.000 C 
BRANCH  30  31
ATOM     31  C   UNL     1       9.332   7.192  52.087  1.00  0.00    -0.003 C 
ATOM     32  C   UNL     1       8.123   7.893  52.709  1.00  0.00     0.004 C 
ENDBRANCH  30  31
ENDBRANCH  29  30
ENDBRANCH  28  29
ENDBRANCH  27  28
ENDBRANCH  26  27
ENDBRANCH  25  26
ENDBRANCH  24  25
ENDBRANCH  23  24
ENDBRANCH  22  23
ENDBRANCH  21  22
ENDBRANCH  20  21
ENDBRANCH  19  20
ENDBRANCH  18  19
ENDBRANCH   1  18
TORSDOF 28
ENDMDL
