MODEL 1
REMARK VINA RESULT:    -7.252      0.000      0.000
REMARK INTER + INTRA:          -8.859
REMARK INTER:                  -8.736
REMARK INTRA:                  -0.123
REMARK UNBOUND:                -0.123
REMARK SMILES O=c1c(O)c(-c2ccc(O)c(O)c2)oc2cc(O)cc(O)c12
REMARK SMILES IDX 5 1 3 2 2 3 1 4 22 5 20 6 19 7 17 8 16 9 15 10 14 11 6 12
REMARK SMILES IDX 7 13 8 14 9 15 13 16 11 17 10 18 12 20 4 22 21 24 18 26
REMARK H PARENT 10 19 12 21 4 23 21 25 18 27
REMARK Flexibility Score: inf
ROOT
ATOM      1  C   UNL     1     -13.341 -29.425 -10.343  1.00  0.00     0.180 A 
ATOM      2  C   UNL     1     -14.263 -30.403 -10.749  1.00  0.00     0.208 A 
ATOM      3  C   UNL     1     -15.105 -30.135 -11.840  1.00  0.00     0.238 A 
ATOM      4  O   UNL     1     -15.876 -31.044 -12.244  1.00  0.00    -0.285 OA
ATOM      5  C   UNL     1     -15.055 -28.870 -12.475  1.00  0.00     0.111 A 
ATOM      6  C   UNL     1     -15.894 -28.472 -13.560  1.00  0.00     0.134 A 
ATOM      7  C   UNL     1     -15.681 -27.234 -14.178  1.00  0.00     0.093 A 
ATOM      8  C   UNL     1     -14.707 -26.353 -13.712  1.00  0.00     0.123 A 
ATOM      9  C   UNL     1     -13.918 -26.709 -12.618  1.00  0.00     0.094 A 
ATOM     10  C   UNL     1     -14.080 -27.953 -12.004  1.00  0.00     0.146 A 
ATOM     11  O   UNL     1     -13.294 -28.260 -10.979  1.00  0.00    -0.452 OA
ENDROOT
BRANCH   1  12
ATOM     12  C   UNL     1     -12.409 -29.640  -9.212  1.00  0.00     0.025 A 
ATOM     13  C   UNL     1     -12.404 -28.733  -8.141  1.00  0.00     0.016 A 
ATOM     14  C   UNL     1     -11.519 -28.904  -7.074  1.00  0.00     0.051 A 
ATOM     15  C   UNL     1     -10.617 -29.973  -7.066  1.00  0.00     0.157 A 
ATOM     16  C   UNL     1     -11.487 -30.702  -9.213  1.00  0.00     0.062 A 
ATOM     17  C   UNL     1     -10.596 -30.874  -8.143  1.00  0.00     0.158 A 
BRANCH  15  18
ATOM     18  O   UNL     1      -9.748 -30.118  -5.985  1.00  0.00    -0.504 OA
ATOM     19  H   UNL     1     -10.080 -30.350  -5.056  1.00  0.00     0.293 HD
ENDBRANCH  15  18
BRANCH  17  20
ATOM     20  O   UNL     1      -9.690 -31.934  -8.150  1.00  0.00    -0.504 OA
ATOM     21  H   UNL     1      -9.655 -32.598  -8.914  1.00  0.00     0.293 HD
ENDBRANCH  17  20
ENDBRANCH   1  12
BRANCH   2  22
ATOM     22  O   UNL     1     -14.350 -31.617 -10.060  1.00  0.00    -0.502 OA
ATOM     23  H   UNL     1     -14.202 -31.688  -9.061  1.00  0.00     0.293 HD
ENDBRANCH   2  22
BRANCH   6  24
ATOM     24  O   UNL     1     -16.957 -29.237 -14.050  1.00  0.00    -0.507 OA
ATOM     25  H   UNL     1     -17.597 -29.769 -13.480  1.00  0.00     0.293 HD
ENDBRANCH   6  24
BRANCH   8  26
ATOM     26  O   UNL     1     -14.535 -25.122 -14.341  1.00  0.00    -0.508 OA
ATOM     27  H   UNL     1     -13.638 -24.840 -14.718  1.00  0.00     0.293 HD
ENDBRANCH   8  26
TORSDOF 6
ENDMDL
MODEL 2
REMARK VINA RESULT:    -7.053      1.567      3.059
REMARK INTER + INTRA:          -8.619
REMARK INTER:                  -8.987
REMARK INTRA:                   0.368
REMARK UNBOUND:                -0.123
REMARK SMILES O=c1c(O)c(-c2ccc(O)c(O)c2)oc2cc(O)cc(O)c12
REMARK SMILES IDX 5 1 3 2 2 3 1 4 22 5 20 6 19 7 17 8 16 9 15 10 14 11 6 12
REMARK SMILES IDX 7 13 8 14 9 15 13 16 11 17 10 18 12 20 4 22 21 24 18 26
REMARK H PARENT 10 19 12 21 4 23 21 25 18 27
REMARK Flexibility Score: inf
ROOT
ATOM      1  C   UNL     1     -12.838 -29.738  -9.685  1.00  0.00     0.180 A 
ATOM      2  C   UNL     1     -13.201 -28.418 -10.000  1.00  0.00     0.208 A 
ATOM      3  C   UNL     1     -14.136 -28.196 -11.024  1.00  0.00     0.238 A 
ATOM      4  O   UNL     1     -14.512 -27.016 -11.250  1.00  0.00    -0.285 OA
ATOM      5  C   UNL     1     -14.651 -29.291 -11.759  1.00  0.00     0.111 A 
ATOM      6  C   UNL     1     -15.568 -29.179 -12.848  1.00  0.00     0.134 A 
ATOM      7  C   UNL     1     -16.093 -30.339 -13.431  1.00  0.00     0.093 A 
ATOM      8  C   UNL     1     -15.687 -31.604 -13.010  1.00  0.00     0.123 A 
ATOM      9  C   UNL     1     -14.750 -31.724 -11.983  1.00  0.00     0.094 A 
ATOM     10  C   UNL     1     -14.237 -30.587 -11.356  1.00  0.00     0.146 A 
ATOM     11  O   UNL     1     -13.364 -30.747 -10.369  1.00  0.00    -0.452 OA
ENDROOT
BRANCH   1  12
ATOM     12  C   UNL     1     -11.872 -30.054  -8.608  1.00  0.00     0.025 A 
ATOM     13  C   UNL     1     -11.704 -29.153  -7.545  1.00  0.00     0.016 A 
ATOM     14  C   UNL     1     -10.784 -29.420  -6.529  1.00  0.00     0.051 A 
ATOM     15  C   UNL     1     -10.006 -30.582  -6.566  1.00  0.00     0.157 A 
ATOM     16  C   UNL     1     -11.074 -31.211  -8.655  1.00  0.00     0.062 A 
ATOM     17  C   UNL     1     -10.147 -31.481  -7.637  1.00  0.00     0.158 A 
BRANCH  15  18
ATOM     18  O   UNL     1      -9.097 -30.822  -5.537  1.00  0.00    -0.504 OA
ATOM     19  H   UNL     1      -8.128 -31.057  -5.719  1.00  0.00     0.293 HD
ENDBRANCH  15  18
BRANCH  17  20
ATOM     20  O   UNL     1      -9.366 -32.634  -7.688  1.00  0.00    -0.504 OA
ATOM     21  H   UNL     1      -9.419 -33.277  -8.469  1.00  0.00     0.293 HD
ENDBRANCH  17  20
ENDBRANCH   1  12
BRANCH   2  22
ATOM     22  O   UNL     1     -12.623 -27.346  -9.314  1.00  0.00    -0.502 OA
ATOM     23  H   UNL     1     -12.848 -27.132  -8.350  1.00  0.00     0.293 HD
ENDBRANCH   2  22
BRANCH   6  24
ATOM     24  O   UNL     1     -15.975 -27.963 -13.408  1.00  0.00    -0.507 OA
ATOM     25  H   UNL     1     -15.684 -27.616 -14.309  1.00  0.00     0.293 HD
ENDBRANCH   6  24
BRANCH   8  26
ATOM     26  O   UNL     1     -16.216 -32.736 -13.625  1.00  0.00    -0.508 OA
ATOM     27  H   UNL     1     -17.216 -32.900 -13.662  1.00  0.00     0.293 HD
ENDBRANCH   8  26
TORSDOF 6
ENDMDL
MODEL 3
REMARK VINA RESULT:    -6.995      1.449      7.351
REMARK INTER + INTRA:          -8.549
REMARK INTER:                  -8.643
REMARK INTRA:                   0.095
REMARK UNBOUND:                -0.123
REMARK SMILES O=c1c(O)c(-c2ccc(O)c(O)c2)oc2cc(O)cc(O)c12
REMARK SMILES IDX 5 1 3 2 2 3 1 4 22 5 20 6 19 7 17 8 16 9 15 10 14 11 6 12
REMARK SMILES IDX 7 13 8 14 9 15 13 16 11 17 10 18 12 20 4 22 21 24 18 26
REMARK H PARENT 10 19 12 21 4 23 21 25 18 27
REMARK Flexibility Score: inf
ROOT
ATOM      1  C   UNL     1     -13.222 -29.777  -9.981  1.00  0.00     0.180 A 
ATOM      2  C   UNL     1     -12.908 -28.697  -9.140  1.00  0.00     0.208 A 
ATOM      3  C   UNL     1     -11.907 -28.859  -8.169  1.00  0.00     0.238 A 
ATOM      4  O   UNL     1     -11.579 -27.865  -7.470  1.00  0.00    -0.285 OA
ATOM      5  C   UNL     1     -11.273 -30.116  -8.011  1.00  0.00     0.111 A 
ATOM      6  C   UNL     1     -10.278 -30.407  -7.030  1.00  0.00     0.134 A 
ATOM      7  C   UNL     1      -9.645 -31.656  -7.038  1.00  0.00     0.093 A 
ATOM      8  C   UNL     1     -10.014 -32.645  -7.948  1.00  0.00     0.123 A 
ATOM      9  C   UNL     1     -11.024 -32.390  -8.876  1.00  0.00     0.094 A 
ATOM     10  C   UNL     1     -11.647 -31.141  -8.919  1.00  0.00     0.146 A 
ATOM     11  O   UNL     1     -12.588 -30.934  -9.832  1.00  0.00    -0.452 OA
ENDROOT
BRANCH   1  12
ATOM     12  C   UNL     1     -14.254 -29.679 -11.038  1.00  0.00     0.025 A 
ATOM     13  C   UNL     1     -15.107 -30.769 -11.274  1.00  0.00     0.016 A 
ATOM     14  C   UNL     1     -16.074 -30.707 -12.280  1.00  0.00     0.051 A 
ATOM     15  C   UNL     1     -16.195 -29.563 -13.075  1.00  0.00     0.157 A 
ATOM     16  C   UNL     1     -14.363 -28.538 -11.853  1.00  0.00     0.062 A 
ATOM     17  C   UNL     1     -15.332 -28.474 -12.865  1.00  0.00     0.158 A 
BRANCH  15  18
ATOM     18  O   UNL     1     -17.171 -29.530 -14.070  1.00  0.00    -0.504 OA
ATOM     19  H   UNL     1     -17.931 -28.860 -14.055  1.00  0.00     0.293 HD
ENDBRANCH  15  18
BRANCH  17  20
ATOM     20  O   UNL     1     -15.438 -27.336 -13.663  1.00  0.00    -0.504 OA
ATOM     21  H   UNL     1     -16.338 -26.976 -13.959  1.00  0.00     0.293 HD
ENDBRANCH  17  20
ENDBRANCH   1  12
BRANCH   2  22
ATOM     22  O   UNL     1     -13.598 -27.487  -9.260  1.00  0.00    -0.502 OA
ATOM     23  H   UNL     1     -14.587 -27.444  -9.477  1.00  0.00     0.293 HD
ENDBRANCH   2  22
BRANCH   6  24
ATOM     24  O   UNL     1      -9.894 -29.522  -6.017  1.00  0.00    -0.507 OA
ATOM     25  H   UNL     1      -9.779 -29.769  -5.046  1.00  0.00     0.293 HD
ENDBRANCH   6  24
BRANCH   8  26
ATOM     26  O   UNL     1      -9.374 -33.882  -7.915  1.00  0.00    -0.508 OA
ATOM     27  H   UNL     1      -9.638 -34.597  -7.248  1.00  0.00     0.293 HD
ENDBRANCH   8  26
TORSDOF 6
ENDMDL
MODEL 4
REMARK VINA RESULT:    -6.718      3.471      6.078
REMARK INTER + INTRA:          -8.215
REMARK INTER:                  -7.914
REMARK INTRA:                  -0.301
REMARK UNBOUND:                -0.123
REMARK SMILES O=c1c(O)c(-c2ccc(O)c(O)c2)oc2cc(O)cc(O)c12
REMARK SMILES IDX 5 1 3 2 2 3 1 4 22 5 20 6 19 7 17 8 16 9 15 10 14 11 6 12
REMARK SMILES IDX 7 13 8 14 9 15 13 16 11 17 10 18 12 20 4 22 21 24 18 26
REMARK H PARENT 10 19 12 21 4 23 21 25 18 27
REMARK Flexibility Score: inf
ROOT
ATOM      1  C   UNL     1     -14.818 -31.603 -13.272  1.00  0.00     0.180 A 
ATOM      2  C   UNL     1     -14.957 -31.287 -11.911  1.00  0.00     0.208 A 
ATOM      3  C   UNL     1     -14.900 -29.941 -11.514  1.00  0.00     0.238 A 
ATOM      4  O   UNL     1     -15.100 -29.661 -10.304  1.00  0.00    -0.285 OA
ATOM      5  C   UNL     1     -14.646 -28.933 -12.476  1.00  0.00     0.111 A 
ATOM      6  C   UNL     1     -14.522 -27.541 -12.180  1.00  0.00     0.134 A 
ATOM      7  C   UNL     1     -14.377 -26.624 -13.228  1.00  0.00     0.093 A 
ATOM      8  C   UNL     1     -14.288 -27.050 -14.552  1.00  0.00     0.123 A 
ATOM      9  C   UNL     1     -14.353 -28.411 -14.847  1.00  0.00     0.094 A 
ATOM     10  C   UNL     1     -14.536 -29.349 -13.829  1.00  0.00     0.146 A 
ATOM     11  O   UNL     1     -14.614 -30.633 -14.156  1.00  0.00    -0.452 OA
ENDROOT
BRANCH   1  12
ATOM     12  C   UNL     1     -14.883 -32.996 -13.769  1.00  0.00     0.025 A 
ATOM     13  C   UNL     1     -13.697 -33.655 -14.132  1.00  0.00     0.016 A 
ATOM     14  C   UNL     1     -13.736 -34.962 -14.623  1.00  0.00     0.051 A 
ATOM     15  C   UNL     1     -14.958 -35.625 -14.774  1.00  0.00     0.157 A 
ATOM     16  C   UNL     1     -16.112 -33.657 -13.942  1.00  0.00     0.062 A 
ATOM     17  C   UNL     1     -16.153 -34.969 -14.437  1.00  0.00     0.158 A 
BRANCH  15  18
ATOM     18  O   UNL     1     -14.964 -36.931 -15.265  1.00  0.00    -0.504 OA
ATOM     19  H   UNL     1     -15.815 -37.479 -15.324  1.00  0.00     0.293 HD
ENDBRANCH  15  18
BRANCH  17  20
ATOM     20  O   UNL     1     -17.376 -35.619 -14.599  1.00  0.00    -0.504 OA
ATOM     21  H   UNL     1     -18.256 -35.128 -14.493  1.00  0.00     0.293 HD
ENDBRANCH  17  20
ENDBRANCH   1  12
BRANCH   2  22
ATOM     22  O   UNL     1     -15.130 -32.304 -10.966  1.00  0.00    -0.502 OA
ATOM     23  H   UNL     1     -14.412 -32.991 -10.769  1.00  0.00     0.293 HD
ENDBRANCH   2  22
BRANCH   6  24
ATOM     24  O   UNL     1     -14.509 -27.014 -10.885  1.00  0.00    -0.507 OA
ATOM     25  H   UNL     1     -15.201 -26.384 -10.511  1.00  0.00     0.293 HD
ENDBRANCH   6  24
BRANCH   8  26
ATOM     26  O   UNL     1     -14.126 -26.109 -15.567  1.00  0.00    -0.508 OA
ATOM     27  H   UNL     1     -14.558 -26.231 -16.476  1.00  0.00     0.293 HD
ENDBRANCH   8  26
TORSDOF 6
ENDMDL
MODEL 5
REMARK VINA RESULT:    -6.587      1.468      7.378
REMARK INTER + INTRA:          -8.058
REMARK INTER:                  -8.425
REMARK INTRA:                   0.367
REMARK UNBOUND:                -0.123
REMARK SMILES O=c1c(O)c(-c2ccc(O)c(O)c2)oc2cc(O)cc(O)c12
REMARK SMILES IDX 5 1 3 2 2 3 1 4 22 5 20 6 19 7 17 8 16 9 15 10 14 11 6 12
REMARK SMILES IDX 7 13 8 14 9 15 13 16 11 17 10 18 12 20 4 22 21 24 18 26
REMARK H PARENT 10 19 12 21 4 23 21 25 18 27
REMARK Flexibility Score: inf
ROOT
ATOM      1  C   UNL     1     -12.660 -29.604  -9.691  1.00  0.00     0.180 A 
ATOM      2  C   UNL     1     -12.203 -28.661  -8.756  1.00  0.00     0.208 A 
ATOM      3  C   UNL     1     -11.284 -29.065  -7.775  1.00  0.00     0.238 A 
ATOM      4  O   UNL     1     -10.822 -28.198  -6.989  1.00  0.00    -0.285 OA
ATOM      5  C   UNL     1     -10.877 -30.420  -7.705  1.00  0.00     0.111 A 
ATOM      6  C   UNL     1      -9.985 -30.951  -6.724  1.00  0.00     0.134 A 
ATOM      7  C   UNL     1      -9.571 -32.285  -6.818  1.00  0.00     0.093 A 
ATOM      8  C   UNL     1     -10.063 -33.124  -7.815  1.00  0.00     0.123 A 
ATOM      9  C   UNL     1     -10.977 -32.630  -8.746  1.00  0.00     0.094 A 
ATOM     10  C   UNL     1     -11.381 -31.294  -8.703  1.00  0.00     0.146 A 
ATOM     11  O   UNL     1     -12.236 -30.860  -9.621  1.00  0.00    -0.452 OA
ENDROOT
BRANCH   1  12
ATOM     12  C   UNL     1     -13.617 -29.251 -10.764  1.00  0.00     0.025 A 
ATOM     13  C   UNL     1     -13.690 -27.923 -11.215  1.00  0.00     0.016 A 
ATOM     14  C   UNL     1     -14.600 -27.563 -12.211  1.00  0.00     0.051 A 
ATOM     15  C   UNL     1     -15.461 -28.517 -12.762  1.00  0.00     0.157 A 
ATOM     16  C   UNL     1     -14.499 -30.205 -11.304  1.00  0.00     0.062 A 
ATOM     17  C   UNL     1     -15.416 -29.844 -12.303  1.00  0.00     0.158 A 
BRANCH  15  18
ATOM     18  O   UNL     1     -16.357 -28.127 -13.757  1.00  0.00    -0.504 OA
ATOM     19  H   UNL     1     -16.498 -27.154 -14.002  1.00  0.00     0.293 HD
ENDBRANCH  15  18
BRANCH  17  20
ATOM     20  O   UNL     1     -16.281 -30.798 -12.837  1.00  0.00    -0.504 OA
ATOM     21  H   UNL     1     -16.991 -31.247 -12.271  1.00  0.00     0.293 HD
ENDBRANCH  17  20
ENDBRANCH   1  12
BRANCH   2  22
ATOM     22  O   UNL     1     -12.676 -27.345  -8.795  1.00  0.00    -0.502 OA
ATOM     23  H   UNL     1     -13.211 -26.937  -8.038  1.00  0.00     0.293 HD
ENDBRANCH   2  22
BRANCH   6  24
ATOM     24  O   UNL     1      -9.500 -30.224  -5.632  1.00  0.00    -0.507 OA
ATOM     25  H   UNL     1      -9.783 -29.287  -5.389  1.00  0.00     0.293 HD
ENDBRANCH   6  24
BRANCH   8  26
ATOM     26  O   UNL     1      -9.642 -34.451  -7.867  1.00  0.00    -0.508 OA
ATOM     27  H   UNL     1      -8.996 -34.774  -8.578  1.00  0.00     0.293 HD
ENDBRANCH   8  26
TORSDOF 6
ENDMDL
MODEL 6
REMARK VINA RESULT:    -6.564      1.675      3.217
REMARK INTER + INTRA:          -8.030
REMARK INTER:                  -8.340
REMARK INTRA:                   0.310
REMARK UNBOUND:                -0.123
REMARK SMILES O=c1c(O)c(-c2ccc(O)c(O)c2)oc2cc(O)cc(O)c12
REMARK SMILES IDX 5 1 3 2 2 3 1 4 22 5 20 6 19 7 17 8 16 9 15 10 14 11 6 12
REMARK SMILES IDX 7 13 8 14 9 15 13 16 11 17 10 18 12 20 4 22 21 24 18 26
REMARK H PARENT 10 19 12 21 4 23 21 25 18 27
REMARK Flexibility Score: inf
ROOT
ATOM      1  C   UNL     1     -12.968 -29.838  -9.890  1.00  0.00     0.180 A 
ATOM      2  C   UNL     1     -13.568 -28.636 -10.301  1.00  0.00     0.208 A 
ATOM      3  C   UNL     1     -14.522 -28.669 -11.331  1.00  0.00     0.238 A 
ATOM      4  O   UNL     1     -15.109 -27.600 -11.642  1.00  0.00    -0.285 OA
ATOM      5  C   UNL     1     -14.822 -29.893 -11.976  1.00  0.00     0.111 A 
ATOM      6  C   UNL     1     -15.739 -30.036 -13.062  1.00  0.00     0.134 A 
ATOM      7  C   UNL     1     -16.036 -31.314 -13.550  1.00  0.00     0.093 A 
ATOM      8  C   UNL     1     -15.405 -32.446 -13.038  1.00  0.00     0.123 A 
ATOM      9  C   UNL     1     -14.467 -32.313 -12.014  1.00  0.00     0.094 A 
ATOM     10  C   UNL     1     -14.177 -31.056 -11.479  1.00  0.00     0.146 A 
ATOM     11  O   UNL     1     -13.294 -30.976 -10.491  1.00  0.00    -0.452 OA
ENDROOT
BRANCH   1  12
ATOM     12  C   UNL     1     -11.966 -29.887  -8.802  1.00  0.00     0.025 A 
ATOM     13  C   UNL     1     -12.026 -28.942  -7.764  1.00  0.00     0.016 A 
ATOM     14  C   UNL     1     -11.079 -28.957  -6.739  1.00  0.00     0.051 A 
ATOM     15  C   UNL     1     -10.048 -29.902  -6.739  1.00  0.00     0.157 A 
ATOM     16  C   UNL     1     -10.916 -30.823  -8.812  1.00  0.00     0.062 A 
ATOM     17  C   UNL     1      -9.962 -30.837  -7.784  1.00  0.00     0.158 A 
BRANCH  15  18
ATOM     18  O   UNL     1      -9.119 -29.892  -5.700  1.00  0.00    -0.504 OA
ATOM     19  H   UNL     1      -8.199 -29.479  -5.805  1.00  0.00     0.293 HD
ENDBRANCH  15  18
BRANCH  17  20
ATOM     20  O   UNL     1      -8.929 -31.774  -7.799  1.00  0.00    -0.504 OA
ATOM     21  H   UNL     1      -8.230 -31.781  -8.532  1.00  0.00     0.293 HD
ENDBRANCH  17  20
ENDBRANCH   1  12
BRANCH   2  22
ATOM     22  O   UNL     1     -13.202 -27.426  -9.704  1.00  0.00    -0.502 OA
ATOM     23  H   UNL     1     -13.860 -26.849  -9.195  1.00  0.00     0.293 HD
ENDBRANCH   2  22
BRANCH   6  24
ATOM     24  O   UNL     1     -16.361 -28.963 -13.708  1.00  0.00    -0.507 OA
ATOM     25  H   UNL     1     -17.330 -28.706 -13.599  1.00  0.00     0.293 HD
ENDBRANCH   6  24
BRANCH   8  26
ATOM     26  O   UNL     1     -15.713 -33.700 -13.560  1.00  0.00    -0.508 OA
ATOM     27  H   UNL     1     -16.669 -33.975 -13.751  1.00  0.00     0.293 HD
ENDBRANCH   8  26
TORSDOF 6
ENDMDL
MODEL 7
REMARK VINA RESULT:    -6.524      1.790      3.376
REMARK INTER + INTRA:          -7.982
REMARK INTER:                  -8.438
REMARK INTRA:                   0.456
REMARK UNBOUND:                -0.123
REMARK SMILES O=c1c(O)c(-c2ccc(O)c(O)c2)oc2cc(O)cc(O)c12
REMARK SMILES IDX 5 1 3 2 2 3 1 4 22 5 20 6 19 7 17 8 16 9 15 10 14 11 6 12
REMARK SMILES IDX 7 13 8 14 9 15 13 16 11 17 10 18 12 20 4 22 21 24 18 26
REMARK H PARENT 10 19 12 21 4 23 21 25 18 27
REMARK Flexibility Score: inf
ROOT
ATOM      1  C   UNL     1     -12.885 -30.156  -9.953  1.00  0.00     0.180 A 
ATOM      2  C   UNL     1     -13.343 -28.842 -10.146  1.00  0.00     0.208 A 
ATOM      3  C   UNL     1     -14.339 -28.602 -11.106  1.00  0.00     0.238 A 
ATOM      4  O   UNL     1     -14.797 -27.435 -11.220  1.00  0.00    -0.285 OA
ATOM      5  C   UNL     1     -14.823 -29.668 -11.903  1.00  0.00     0.111 A 
ATOM      6  C   UNL     1     -15.798 -29.531 -12.937  1.00  0.00     0.134 A 
ATOM      7  C   UNL     1     -16.279 -30.675 -13.587  1.00  0.00     0.093 A 
ATOM      8  C   UNL     1     -15.777 -31.939 -13.287  1.00  0.00     0.123 A 
ATOM      9  C   UNL     1     -14.784 -32.078 -12.316  1.00  0.00     0.094 A 
ATOM     10  C   UNL     1     -14.311 -30.962 -11.623  1.00  0.00     0.146 A 
ATOM     11  O   UNL     1     -13.382 -31.141 -10.692  1.00  0.00    -0.452 OA
ENDROOT
BRANCH   1  12
ATOM     12  C   UNL     1     -11.850 -30.491  -8.950  1.00  0.00     0.025 A 
ATOM     13  C   UNL     1     -11.364 -31.806  -8.871  1.00  0.00     0.016 A 
ATOM     14  C   UNL     1     -10.403 -32.150  -7.919  1.00  0.00     0.051 A 
ATOM     15  C   UNL     1      -9.922 -31.192  -7.020  1.00  0.00     0.157 A 
ATOM     16  C   UNL     1     -11.381 -29.535  -8.031  1.00  0.00     0.062 A 
ATOM     17  C   UNL     1     -10.417 -29.879  -7.072  1.00  0.00     0.158 A 
BRANCH  15  18
ATOM     18  O   UNL     1      -8.961 -31.566  -6.082  1.00  0.00    -0.504 OA
ATOM     19  H   UNL     1      -8.203 -32.198  -6.311  1.00  0.00     0.293 HD
ENDBRANCH  15  18
BRANCH  17  20
ATOM     20  O   UNL     1      -9.953 -28.922  -6.171  1.00  0.00    -0.504 OA
ATOM     21  H   UNL     1      -9.725 -27.980  -6.467  1.00  0.00     0.293 HD
ENDBRANCH  17  20
ENDBRANCH   1  12
BRANCH   2  22
ATOM     22  O   UNL     1     -12.798 -27.791  -9.402  1.00  0.00    -0.502 OA
ATOM     23  H   UNL     1     -13.153 -27.527  -8.491  1.00  0.00     0.293 HD
ENDBRANCH   2  22
BRANCH   6  24
ATOM     24  O   UNL     1     -16.305 -28.305 -13.379  1.00  0.00    -0.507 OA
ATOM     25  H   UNL     1     -17.279 -28.043 -13.365  1.00  0.00     0.293 HD
ENDBRANCH   6  24
BRANCH   8  26
ATOM     26  O   UNL     1     -16.267 -33.052 -13.966  1.00  0.00    -0.508 OA
ATOM     27  H   UNL     1     -17.111 -33.003 -14.524  1.00  0.00     0.293 HD
ENDBRANCH   8  26
TORSDOF 6
ENDMDL
MODEL 8
REMARK VINA RESULT:    -6.012      3.003      6.221
REMARK INTER + INTRA:          -7.365
REMARK INTER:                  -7.357
REMARK INTRA:                  -0.008
REMARK UNBOUND:                -0.123
REMARK SMILES O=c1c(O)c(-c2ccc(O)c(O)c2)oc2cc(O)cc(O)c12
REMARK SMILES IDX 5 1 3 2 2 3 1 4 22 5 20 6 19 7 17 8 16 9 15 10 14 11 6 12
REMARK SMILES IDX 7 13 8 14 9 15 13 16 11 17 10 18 12 20 4 22 21 24 18 26
REMARK H PARENT 10 19 12 21 4 23 21 25 18 27
REMARK Flexibility Score: inf
ROOT
ATOM      1  C   UNL     1     -14.686 -31.134 -12.166  1.00  0.00     0.180 A 
ATOM      2  C   UNL     1     -15.360 -29.987 -12.616  1.00  0.00     0.208 A 
ATOM      3  C   UNL     1     -15.214 -28.787 -11.902  1.00  0.00     0.238 A 
ATOM      4  O   UNL     1     -15.760 -27.747 -12.354  1.00  0.00    -0.285 OA
ATOM      5  C   UNL     1     -14.444 -28.762 -10.714  1.00  0.00     0.111 A 
ATOM      6  C   UNL     1     -14.266 -27.612  -9.885  1.00  0.00     0.134 A 
ATOM      7  C   UNL     1     -13.395 -27.680  -8.791  1.00  0.00     0.093 A 
ATOM      8  C   UNL     1     -12.747 -28.867  -8.458  1.00  0.00     0.123 A 
ATOM      9  C   UNL     1     -12.956 -30.011  -9.228  1.00  0.00     0.094 A 
ATOM     10  C   UNL     1     -13.789 -29.966 -10.348  1.00  0.00     0.146 A 
ATOM     11  O   UNL     1     -13.944 -31.072 -11.066  1.00  0.00    -0.452 OA
ENDROOT
BRANCH   1  12
ATOM     12  C   UNL     1     -14.777 -32.431 -12.873  1.00  0.00     0.025 A 
ATOM     13  C   UNL     1     -14.508 -32.487 -14.250  1.00  0.00     0.016 A 
ATOM     14  C   UNL     1     -14.608 -33.696 -14.942  1.00  0.00     0.051 A 
ATOM     15  C   UNL     1     -14.993 -34.863 -14.276  1.00  0.00     0.157 A 
ATOM     16  C   UNL     1     -15.185 -33.602 -12.209  1.00  0.00     0.062 A 
ATOM     17  C   UNL     1     -15.288 -34.817 -12.903  1.00  0.00     0.158 A 
BRANCH  15  18
ATOM     18  O   UNL     1     -15.082 -36.055 -14.994  1.00  0.00    -0.504 OA
ATOM     19  H   UNL     1     -14.259 -36.577 -15.273  1.00  0.00     0.293 HD
ENDBRANCH  15  18
BRANCH  17  20
ATOM     20  O   UNL     1     -15.686 -35.974 -12.235  1.00  0.00    -0.504 OA
ATOM     21  H   UNL     1     -16.624 -36.344 -12.326  1.00  0.00     0.293 HD
ENDBRANCH  17  20
ENDBRANCH   1  12
BRANCH   2  22
ATOM     22  O   UNL     1     -16.177 -30.050 -13.749  1.00  0.00    -0.502 OA
ATOM     23  H   UNL     1     -17.178 -30.199 -13.690  1.00  0.00     0.293 HD
ENDBRANCH   2  22
BRANCH   6  24
ATOM     24  O   UNL     1     -14.934 -26.398 -10.075  1.00  0.00    -0.507 OA
ATOM     25  H   UNL     1     -15.784 -26.126  -9.606  1.00  0.00     0.293 HD
ENDBRANCH   6  24
BRANCH   8  26
ATOM     26  O   UNL     1     -11.901 -28.901  -7.351  1.00  0.00    -0.508 OA
ATOM     27  H   UNL     1     -11.454 -29.760  -7.051  1.00  0.00     0.293 HD
ENDBRANCH   8  26
TORSDOF 6
ENDMDL
MODEL 9
REMARK VINA RESULT:    -5.799      2.253      6.505
REMARK INTER + INTRA:          -7.108
REMARK INTER:                  -6.887
REMARK INTRA:                  -0.221
REMARK UNBOUND:                -0.123
REMARK SMILES O=c1c(O)c(-c2ccc(O)c(O)c2)oc2cc(O)cc(O)c12
REMARK SMILES IDX 5 1 3 2 2 3 1 4 22 5 20 6 19 7 17 8 16 9 15 10 14 11 6 12
REMARK SMILES IDX 7 13 8 14 9 15 13 16 11 17 10 18 12 20 4 22 21 24 18 26
REMARK H PARENT 10 19 12 21 4 23 21 25 18 27
REMARK Flexibility Score: inf
ROOT
ATOM      1  C   UNL     1     -13.965 -30.072 -10.799  1.00  0.00     0.180 A 
ATOM      2  C   UNL     1     -14.448 -28.753 -10.773  1.00  0.00     0.208 A 
ATOM      3  C   UNL     1     -13.855 -27.828  -9.900  1.00  0.00     0.238 A 
ATOM      4  O   UNL     1     -14.243 -26.631  -9.936  1.00  0.00    -0.285 OA
ATOM      5  C   UNL     1     -12.825 -28.246  -9.022  1.00  0.00     0.111 A 
ATOM      6  C   UNL     1     -12.184 -27.405  -8.062  1.00  0.00     0.134 A 
ATOM      7  C   UNL     1     -11.104 -27.901  -7.322  1.00  0.00     0.093 A 
ATOM      8  C   UNL     1     -10.684 -29.222  -7.458  1.00  0.00     0.123 A 
ATOM      9  C   UNL     1     -11.339 -30.069  -8.352  1.00  0.00     0.094 A 
ATOM     10  C   UNL     1     -12.394 -29.594  -9.134  1.00  0.00     0.146 A 
ATOM     11  O   UNL     1     -12.976 -30.427  -9.988  1.00  0.00    -0.452 OA
ENDROOT
BRANCH   1  12
ATOM     12  C   UNL     1     -14.528 -31.100 -11.703  1.00  0.00     0.025 A 
ATOM     13  C   UNL     1     -15.200 -32.206 -11.158  1.00  0.00     0.016 A 
ATOM     14  C   UNL     1     -15.721 -33.199 -11.990  1.00  0.00     0.051 A 
ATOM     15  C   UNL     1     -15.566 -33.112 -13.378  1.00  0.00     0.157 A 
ATOM     16  C   UNL     1     -14.355 -31.026 -13.097  1.00  0.00     0.062 A 
ATOM     17  C   UNL     1     -14.875 -32.024 -13.935  1.00  0.00     0.158 A 
BRANCH  15  18
ATOM     18  O   UNL     1     -16.099 -34.118 -14.183  1.00  0.00    -0.504 OA
ATOM     19  H   UNL     1     -15.511 -34.768 -14.691  1.00  0.00     0.293 HD
ENDBRANCH  15  18
BRANCH  17  20
ATOM     20  O   UNL     1     -14.705 -31.938 -15.316  1.00  0.00    -0.504 OA
ATOM     21  H   UNL     1     -15.050 -31.146 -15.845  1.00  0.00     0.293 HD
ENDBRANCH  17  20
ENDBRANCH   1  12
BRANCH   2  22
ATOM     22  O   UNL     1     -15.517 -28.379 -11.593  1.00  0.00    -0.502 OA
ATOM     23  H   UNL     1     -15.692 -28.814 -12.492  1.00  0.00     0.293 HD
ENDBRANCH   2  22
BRANCH   6  24
ATOM     24  O   UNL     1     -12.580 -26.093  -7.782  1.00  0.00    -0.507 OA
ATOM     25  H   UNL     1     -13.335 -25.837  -7.165  1.00  0.00     0.293 HD
ENDBRANCH   6  24
BRANCH   8  26
ATOM     26  O   UNL     1      -9.617 -29.687  -6.692  1.00  0.00    -0.508 OA
ATOM     27  H   UNL     1      -8.681 -29.756  -7.073  1.00  0.00     0.293 HD
ENDBRANCH   8  26
TORSDOF 6
ENDMDL
