MODEL 1
REMARK VINA RESULT:    -4.214      0.000      0.000
REMARK INTER + INTRA:          -5.241
REMARK INTER:                  -4.953
REMARK INTRA:                  -0.288
REMARK UNBOUND:                -0.288
REMARK SMILES O=c1c(O)c(-c2ccc(O)cc2)oc2cc(O)cc(O)c12
REMARK SMILES IDX 5 1 3 2 2 3 1 4 21 5 19 6 18 7 16 8 15 9 14 10 13 11 6 12
REMARK SMILES IDX 7 13 8 14 9 15 12 16 11 17 10 18 4 20 20 22 17 24
REMARK H PARENT 10 19 4 21 20 23 17 25
REMARK Flexibility Score: inf
ROOT
ATOM      1  C   UNL     1       1.008  32.074   5.908  1.00  0.00     0.180 A 
ATOM      2  C   UNL     1       0.230  31.262   6.751  1.00  0.00     0.208 A 
ATOM      3  C   UNL     1       0.841  30.635   7.847  1.00  0.00     0.238 A 
ATOM      4  O   UNL     1       0.152  29.866   8.567  1.00  0.00    -0.285 OA
ATOM      5  C   UNL     1       2.220  30.840   8.097  1.00  0.00     0.111 A 
ATOM      6  C   UNL     1       2.934  30.287   9.202  1.00  0.00     0.134 A 
ATOM      7  C   UNL     1       4.323  30.449   9.278  1.00  0.00     0.093 A 
ATOM      8  C   UNL     1       5.014  31.199   8.326  1.00  0.00     0.123 A 
ATOM      9  C   UNL     1       4.316  31.794   7.273  1.00  0.00     0.094 A 
ATOM     10  C   UNL     1       2.935  31.620   7.152  1.00  0.00     0.146 A 
ATOM     11  O   UNL     1       2.311  32.193   6.130  1.00  0.00    -0.452 OA
ENDROOT
BRANCH   1  12
ATOM     12  C   UNL     1       0.429  32.788   4.746  1.00  0.00     0.021 A 
ATOM     13  C   UNL     1      -0.006  34.121   4.848  1.00  0.00     0.016 A 
ATOM     14  C   UNL     1      -0.527  34.782   3.731  1.00  0.00     0.047 A 
ATOM     15  C   UNL     1      -0.606  34.124   2.497  1.00  0.00     0.115 A 
ATOM     16  C   UNL     1       0.365  32.142   3.499  1.00  0.00     0.016 A 
ATOM     17  C   UNL     1      -0.157  32.805   2.385  1.00  0.00     0.047 A 
BRANCH  15  18
ATOM     18  O   UNL     1      -1.125  34.772   1.378  1.00  0.00    -0.508 OA
ATOM     19  H   UNL     1      -2.082  34.630   1.081  1.00  0.00     0.293 HD
ENDBRANCH  15  18
ENDBRANCH   1  12
BRANCH   2  20
ATOM     20  O   UNL     1      -1.125  31.056   6.474  1.00  0.00    -0.502 OA
ATOM     21  H   UNL     1      -1.833  31.041   7.197  1.00  0.00     0.293 HD
ENDBRANCH   2  20
BRANCH   6  22
ATOM     22  O   UNL     1       2.328  29.599  10.257  1.00  0.00    -0.507 OA
ATOM     23  H   UNL     1       1.482  29.891  10.724  1.00  0.00     0.293 HD
ENDBRANCH   6  22
BRANCH   8  24
ATOM     24  O   UNL     1       6.393  31.352   8.441  1.00  0.00    -0.508 OA
ATOM     25  H   UNL     1       6.876  32.136   8.017  1.00  0.00     0.293 HD
ENDBRANCH   8  24
TORSDOF 5
ENDMDL
MODEL 2
REMARK VINA RESULT:    -3.744      2.873      6.629
REMARK INTER + INTRA:          -4.689
REMARK INTER:                  -4.646
REMARK INTRA:                  -0.043
REMARK UNBOUND:                -0.288
REMARK SMILES O=c1c(O)c(-c2ccc(O)cc2)oc2cc(O)cc(O)c12
REMARK SMILES IDX 5 1 3 2 2 3 1 4 21 5 19 6 18 7 16 8 15 9 14 10 13 11 6 12
REMARK SMILES IDX 7 13 8 14 9 15 12 16 11 17 10 18 4 20 20 22 17 24
REMARK H PARENT 10 19 4 21 20 23 17 25
REMARK Flexibility Score: inf
ROOT
ATOM      1  C   UNL     1       1.901  33.060   8.051  1.00  0.00     0.180 A 
ATOM      2  C   UNL     1       1.994  31.698   7.718  1.00  0.00     0.208 A 
ATOM      3  C   UNL     1       1.477  31.261   6.488  1.00  0.00     0.238 A 
ATOM      4  O   UNL     1       1.515  30.032   6.218  1.00  0.00    -0.285 OA
ATOM      5  C   UNL     1       0.888  32.194   5.600  1.00  0.00     0.111 A 
ATOM      6  C   UNL     1       0.369  31.869   4.312  1.00  0.00     0.134 A 
ATOM      7  C   UNL     1      -0.309  32.847   3.573  1.00  0.00     0.093 A 
ATOM      8  C   UNL     1      -0.429  34.153   4.047  1.00  0.00     0.123 A 
ATOM      9  C   UNL     1       0.128  34.497   5.280  1.00  0.00     0.094 A 
ATOM     10  C   UNL     1       0.778  33.533   6.055  1.00  0.00     0.146 A 
ATOM     11  O   UNL     1       1.284  33.898   7.227  1.00  0.00    -0.452 OA
ENDROOT
BRANCH   1  12
ATOM     12  C   UNL     1       2.445  33.600   9.319  1.00  0.00     0.021 A 
ATOM     13  C   UNL     1       2.025  33.104  10.567  1.00  0.00     0.016 A 
ATOM     14  C   UNL     1       2.572  33.612  11.749  1.00  0.00     0.047 A 
ATOM     15  C   UNL     1       3.553  34.610  11.699  1.00  0.00     0.115 A 
ATOM     16  C   UNL     1       3.445  34.587   9.278  1.00  0.00     0.016 A 
ATOM     17  C   UNL     1       3.988  35.093  10.462  1.00  0.00     0.047 A 
BRANCH  15  18
ATOM     18  O   UNL     1       4.103  35.125  12.872  1.00  0.00    -0.508 OA
ATOM     19  H   UNL     1       3.526  35.348  13.673  1.00  0.00     0.293 HD
ENDBRANCH  15  18
ENDBRANCH   1  12
BRANCH   2  20
ATOM     20  O   UNL     1       2.560  30.791   8.618  1.00  0.00    -0.502 OA
ATOM     21  H   UNL     1       2.479  29.788   8.503  1.00  0.00     0.293 HD
ENDBRANCH   2  20
BRANCH   6  22
ATOM     22  O   UNL     1       0.514  30.618   3.704  1.00  0.00    -0.507 OA
ATOM     23  H   UNL     1       0.770  29.770   4.188  1.00  0.00     0.293 HD
ENDBRANCH   6  22
BRANCH   8  24
ATOM     24  O   UNL     1      -1.096  35.104   3.279  1.00  0.00    -0.508 OA
ATOM     25  H   UNL     1      -1.640  34.841   2.465  1.00  0.00     0.293 HD
ENDBRANCH   8  24
TORSDOF 5
ENDMDL
MODEL 3
REMARK VINA RESULT:    -3.620      2.288      2.583
REMARK INTER + INTRA:          -4.543
REMARK INTER:                  -5.041
REMARK INTRA:                   0.498
REMARK UNBOUND:                -0.288
REMARK SMILES O=c1c(O)c(-c2ccc(O)cc2)oc2cc(O)cc(O)c12
REMARK SMILES IDX 5 1 3 2 2 3 1 4 21 5 19 6 18 7 16 8 15 9 14 10 13 11 6 12
REMARK SMILES IDX 7 13 8 14 9 15 12 16 11 17 10 18 4 20 20 22 17 24
REMARK H PARENT 10 19 4 21 20 23 17 25
REMARK Flexibility Score: inf
ROOT
ATOM      1  C   UNL     1       1.092  32.527   6.623  1.00  0.00     0.180 A 
ATOM      2  C   UNL     1       1.620  31.245   6.856  1.00  0.00     0.208 A 
ATOM      3  C   UNL     1       2.157  30.948   8.118  1.00  0.00     0.238 A 
ATOM      4  O   UNL     1       2.677  29.817   8.304  1.00  0.00    -0.285 OA
ATOM      5  C   UNL     1       2.145  31.931   9.137  1.00  0.00     0.111 A 
ATOM      6  C   UNL     1       2.626  31.727  10.465  1.00  0.00     0.134 A 
ATOM      7  C   UNL     1       2.685  32.809  11.353  1.00  0.00     0.093 A 
ATOM      8  C   UNL     1       2.221  34.071  10.982  1.00  0.00     0.123 A 
ATOM      9  C   UNL     1       1.694  34.267   9.705  1.00  0.00     0.094 A 
ATOM     10  C   UNL     1       1.655  33.215   8.786  1.00  0.00     0.146 A 
ATOM     11  O   UNL     1       1.156  33.447   7.578  1.00  0.00    -0.452 OA
ENDROOT
BRANCH   1  12
ATOM     12  C   UNL     1       0.487  32.906   5.325  1.00  0.00     0.021 A 
ATOM     13  C   UNL     1      -0.323  34.049   5.201  1.00  0.00     0.016 A 
ATOM     14  C   UNL     1      -0.863  34.401   3.960  1.00  0.00     0.047 A 
ATOM     15  C   UNL     1      -0.590  33.623   2.827  1.00  0.00     0.115 A 
ATOM     16  C   UNL     1       0.773  32.144   4.180  1.00  0.00     0.016 A 
ATOM     17  C   UNL     1       0.230  32.497   2.941  1.00  0.00     0.047 A 
BRANCH  15  18
ATOM     18  O   UNL     1      -1.125  33.963   1.586  1.00  0.00    -0.508 OA
ATOM     19  H   UNL     1      -1.554  33.269   0.987  1.00  0.00     0.293 HD
ENDBRANCH  15  18
ENDBRANCH   1  12
BRANCH   2  20
ATOM     20  O   UNL     1       1.641  30.296   5.829  1.00  0.00    -0.502 OA
ATOM     21  H   UNL     1       1.464  29.313   5.992  1.00  0.00     0.293 HD
ENDBRANCH   2  20
BRANCH   6  22
ATOM     22  O   UNL     1       3.028  30.486  10.968  1.00  0.00    -0.507 OA
ATOM     23  H   UNL     1       3.931  30.065  10.805  1.00  0.00     0.293 HD
ENDBRANCH   6  22
BRANCH   8  24
ATOM     24  O   UNL     1       2.280  35.120  11.896  1.00  0.00    -0.508 OA
ATOM     25  H   UNL     1       2.841  35.946  11.718  1.00  0.00     0.293 HD
ENDBRANCH   8  24
TORSDOF 5
ENDMDL
MODEL 4
REMARK VINA RESULT:    -3.595      1.778      1.796
REMARK INTER + INTRA:          -4.513
REMARK INTER:                  -4.636
REMARK INTRA:                   0.123
REMARK UNBOUND:                -0.288
REMARK SMILES O=c1c(O)c(-c2ccc(O)cc2)oc2cc(O)cc(O)c12
REMARK SMILES IDX 5 1 3 2 2 3 1 4 21 5 19 6 18 7 16 8 15 9 14 10 13 11 6 12
REMARK SMILES IDX 7 13 8 14 9 15 12 16 11 17 10 18 4 20 20 22 17 24
REMARK H PARENT 10 19 4 21 20 23 17 25
REMARK Flexibility Score: inf
ROOT
ATOM      1  C   UNL     1       0.813  33.146   6.298  1.00  0.00     0.180 A 
ATOM      2  C   UNL     1       0.206  33.590   7.486  1.00  0.00     0.208 A 
ATOM      3  C   UNL     1       0.776  33.234   8.717  1.00  0.00     0.238 A 
ATOM      4  O   UNL     1       0.198  33.588   9.778  1.00  0.00    -0.285 OA
ATOM      5  C   UNL     1       1.957  32.453   8.747  1.00  0.00     0.111 A 
ATOM      6  C   UNL     1       2.644  32.067   9.937  1.00  0.00     0.134 A 
ATOM      7  C   UNL     1       3.729  31.185   9.854  1.00  0.00     0.093 A 
ATOM      8  C   UNL     1       4.191  30.726   8.621  1.00  0.00     0.123 A 
ATOM      9  C   UNL     1       3.563  31.144   7.446  1.00  0.00     0.094 A 
ATOM     10  C   UNL     1       2.456  31.995   7.500  1.00  0.00     0.146 A 
ATOM     11  O   UNL     1       1.881  32.361   6.361  1.00  0.00    -0.452 OA
ENDROOT
BRANCH   1  12
ATOM     12  C   UNL     1       0.283  33.502   4.962  1.00  0.00     0.021 A 
ATOM     13  C   UNL     1      -0.181  34.799   4.679  1.00  0.00     0.016 A 
ATOM     14  C   UNL     1      -0.654  35.118   3.402  1.00  0.00     0.047 A 
ATOM     15  C   UNL     1      -0.654  34.150   2.390  1.00  0.00     0.115 A 
ATOM     16  C   UNL     1       0.299  32.543   3.934  1.00  0.00     0.016 A 
ATOM     17  C   UNL     1      -0.175  32.865   2.659  1.00  0.00     0.047 A 
BRANCH  15  18
ATOM     18  O   UNL     1      -1.125  34.456   1.114  1.00  0.00    -0.508 OA
ATOM     19  H   UNL     1      -1.478  35.377   0.888  1.00  0.00     0.293 HD
ENDBRANCH  15  18
ENDBRANCH   1  12
BRANCH   2  20
ATOM     20  O   UNL     1      -0.972  34.342   7.435  1.00  0.00    -0.502 OA
ATOM     21  H   UNL     1      -1.379  34.772   8.256  1.00  0.00     0.293 HD
ENDBRANCH   2  20
BRANCH   6  22
ATOM     22  O   UNL     1       2.322  32.540  11.213  1.00  0.00    -0.507 OA
ATOM     23  H   UNL     1       2.889  33.180  11.748  1.00  0.00     0.293 HD
ENDBRANCH   6  22
BRANCH   8  24
ATOM     24  O   UNL     1       5.282  29.862   8.574  1.00  0.00    -0.508 OA
ATOM     25  H   UNL     1       5.188  28.908   8.244  1.00  0.00     0.293 HD
ENDBRANCH   8  24
TORSDOF 5
ENDMDL
MODEL 5
REMARK VINA RESULT:    -3.331     17.951     19.962
REMARK INTER + INTRA:          -4.202
REMARK INTER:                  -4.025
REMARK INTRA:                  -0.177
REMARK UNBOUND:                -0.288
REMARK SMILES O=c1c(O)c(-c2ccc(O)cc2)oc2cc(O)cc(O)c12
REMARK SMILES IDX 5 1 3 2 2 3 1 4 21 5 19 6 18 7 16 8 15 9 14 10 13 11 6 12
REMARK SMILES IDX 7 13 8 14 9 15 12 16 11 17 10 18 4 20 20 22 17 24
REMARK H PARENT 10 19 4 21 20 23 17 25
REMARK Flexibility Score: inf
ROOT
ATOM      1  C   UNL     1      18.104  22.072   2.852  1.00  0.00     0.180 A 
ATOM      2  C   UNL     1      18.536  22.301   4.170  1.00  0.00     0.208 A 
ATOM      3  C   UNL     1      18.685  23.622   4.618  1.00  0.00     0.238 A 
ATOM      4  O   UNL     1      19.123  23.821   5.781  1.00  0.00    -0.285 OA
ATOM      5  C   UNL     1      18.385  24.699   3.749  1.00  0.00     0.111 A 
ATOM      6  C   UNL     1      18.463  26.077   4.110  1.00  0.00     0.134 A 
ATOM      7  C   UNL     1      18.269  27.060   3.131  1.00  0.00     0.093 A 
ATOM      8  C   UNL     1      17.939  26.716   1.820  1.00  0.00     0.123 A 
ATOM      9  C   UNL     1      17.803  25.371   1.470  1.00  0.00     0.094 A 
ATOM     10  C   UNL     1      18.024  24.368   2.417  1.00  0.00     0.146 A 
ATOM     11  O   UNL     1      17.895  23.101   2.041  1.00  0.00    -0.452 OA
ENDROOT
BRANCH   1  12
ATOM     12  C   UNL     1      17.900  20.706   2.316  1.00  0.00     0.021 A 
ATOM     13  C   UNL     1      18.985  19.845   2.071  1.00  0.00     0.016 A 
ATOM     14  C   UNL     1      18.765  18.552   1.588  1.00  0.00     0.047 A 
ATOM     15  C   UNL     1      17.460  18.098   1.358  1.00  0.00     0.115 A 
ATOM     16  C   UNL     1      16.593  20.235   2.102  1.00  0.00     0.016 A 
ATOM     17  C   UNL     1      16.377  18.942   1.619  1.00  0.00     0.047 A 
BRANCH  15  18
ATOM     18  O   UNL     1      17.230  16.811   0.875  1.00  0.00    -0.508 OA
ATOM     19  H   UNL     1      17.887  16.059   1.040  1.00  0.00     0.293 HD
ENDBRANCH  15  18
ENDBRANCH   1  12
BRANCH   2  20
ATOM     20  O   UNL     1      18.847  21.223   5.005  1.00  0.00    -0.502 OA
ATOM     21  H   UNL     1      19.095  21.344   5.979  1.00  0.00     0.293 HD
ENDBRANCH   2  20
BRANCH   6  22
ATOM     22  O   UNL     1      18.696  26.532   5.411  1.00  0.00    -0.507 OA
ATOM     23  H   UNL     1      19.545  26.982   5.719  1.00  0.00     0.293 HD
ENDBRANCH   6  22
BRANCH   8  24
ATOM     24  O   UNL     1      17.739  27.719   0.876  1.00  0.00    -0.508 OA
ATOM     25  H   UNL     1      17.621  28.688   1.150  1.00  0.00     0.293 HD
ENDBRANCH   8  24
TORSDOF 5
ENDMDL
