MODEL 1
REMARK VINA RESULT:    -3.448      0.000      0.000
REMARK INTER + INTRA:          -8.416
REMARK INTER:                  -7.478
REMARK INTRA:                  -0.937
REMARK UNBOUND:                -0.937
REMARK SMILES CCCCCCCCCCCCCCCCCCCCCC(=O)[O-]
REMARK SMILES IDX 12 1 11 2 10 3 9 4 8 5 7 6 6 7 5 8 4 9 3 10 2 11 1 12 13 13
REMARK SMILES IDX 14 14 15 15 16 16 17 17 18 18 19 19 20 20 21 21 22 22 23 23
REMARK SMILES IDX 24 24
REMARK H PARENT
REMARK Flexibility Score: inf
ROOT
ATOM      1  C   UNL     1      -1.524  20.556  16.128  1.00  0.00     0.000 C 
ENDROOT
BRANCH   1   2
ATOM      2  C   UNL     1      -0.127  20.250  16.701  1.00  0.00     0.000 C 
BRANCH   2   3
ATOM      3  C   UNL     1       1.052  20.802  15.876  1.00  0.00     0.000 C 
BRANCH   3   4
ATOM      4  C   UNL     1       2.374  20.957  16.654  1.00  0.00    -0.000 C 
BRANCH   4   5
ATOM      5  C   UNL     1       3.489  19.971  16.248  1.00  0.00    -0.000 C 
BRANCH   5   6
ATOM      6  C   UNL     1       4.712  20.619  15.574  1.00  0.00    -0.000 C 
BRANCH   6   7
ATOM      7  C   UNL     1       5.797  21.032  16.584  1.00  0.00    -0.000 C 
BRANCH   7   8
ATOM      8  C   UNL     1       7.217  20.736  16.077  1.00  0.00    -0.000 C 
BRANCH   8   9
ATOM      9  C   UNL     1       7.263  20.492  14.561  1.00  0.00    -0.000 C 
BRANCH   9  10
ATOM     10  C   UNL     1       8.709  20.356  14.071  1.00  0.00    -0.000 C 
BRANCH  10  11
ATOM     11  C   UNL     1       9.331  21.732  13.804  1.00  0.00    -0.003 C 
ATOM     12  C   UNL     1      10.440  22.040  14.806  1.00  0.00     0.004 C 
ENDBRANCH  10  11
ENDBRANCH   9  10
ENDBRANCH   8   9
ENDBRANCH   7   8
ENDBRANCH   6   7
ENDBRANCH   5   6
ENDBRANCH   4   5
ENDBRANCH   3   4
ENDBRANCH   2   3
ENDBRANCH   1   2
BRANCH   1  13
ATOM     13  C   UNL     1      -2.698  20.246  17.076  1.00  0.00     0.000 C 
BRANCH  13  14
ATOM     14  C   UNL     1      -4.005  19.944  16.329  1.00  0.00     0.000 C 
BRANCH  14  15
ATOM     15  C   UNL     1      -4.288  21.015  15.265  1.00  0.00     0.000 C 
BRANCH  15  16
ATOM     16  C   UNL     1      -5.741  20.990  14.766  1.00  0.00     0.000 C 
BRANCH  16  17
ATOM     17  C   UNL     1      -6.726  20.492  15.838  1.00  0.00     0.000 C 
BRANCH  17  18
ATOM     18  C   UNL     1      -7.500  21.640  16.508  1.00  0.00     0.000 C 
BRANCH  18  19
ATOM     19  C   UNL     1      -8.907  21.215  16.962  1.00  0.00     0.000 C 
BRANCH  19  20
ATOM     20  C   UNL     1      -9.124  21.394  18.476  1.00  0.00     0.006 C 
BRANCH  20  21
ATOM     21  C   UNL     1      -8.805  22.804  19.001  1.00  0.00     0.053 C 
BRANCH  21  22
ATOM     22  C   UNL     1      -7.714  22.789  20.027  1.00  0.00     0.041 C 
ATOM     23  O   UNL     1      -6.943  21.799  20.117  1.00  0.00    -0.550 OA
ATOM     24  O   UNL     1      -7.528  23.885  20.861  1.00  0.00    -0.550 OA
ENDBRANCH  21  22
ENDBRANCH  20  21
ENDBRANCH  19  20
ENDBRANCH  18  19
ENDBRANCH  17  18
ENDBRANCH  16  17
ENDBRANCH  15  16
ENDBRANCH  14  15
ENDBRANCH  13  14
ENDBRANCH   1  13
TORSDOF 20
ENDMDL
MODEL 2
REMARK VINA RESULT:    -3.205      5.272     13.326
REMARK INTER + INTRA:          -7.890
REMARK INTER:                  -6.588
REMARK INTRA:                  -1.302
REMARK UNBOUND:                -0.937
REMARK SMILES CCCCCCCCCCCCCCCCCCCCCC(=O)[O-]
REMARK SMILES IDX 12 1 11 2 10 3 9 4 8 5 7 6 6 7 5 8 4 9 3 10 2 11 1 12 13 13
REMARK SMILES IDX 14 14 15 15 16 16 17 17 18 18 19 19 20 20 21 21 22 22 23 23
REMARK SMILES IDX 24 24
REMARK H PARENT
REMARK Flexibility Score: inf
ROOT
ATOM      1  C   UNL     1      -1.258  21.266  15.669  1.00  0.00     0.000 C 
ENDROOT
BRANCH   1   2
ATOM      2  C   UNL     1      -2.790  21.301  15.511  1.00  0.00     0.000 C 
BRANCH   2   3
ATOM      3  C   UNL     1      -3.555  20.244  16.331  1.00  0.00     0.000 C 
BRANCH   3   4
ATOM      4  C   UNL     1      -5.074  20.194  16.070  1.00  0.00    -0.000 C 
BRANCH   4   5
ATOM      5  C   UNL     1      -5.586  21.182  15.002  1.00  0.00    -0.000 C 
BRANCH   5   6
ATOM      6  C   UNL     1      -7.093  21.086  14.701  1.00  0.00    -0.000 C 
BRANCH   6   7
ATOM      7  C   UNL     1      -7.803  20.022  15.556  1.00  0.00    -0.000 C 
BRANCH   7   8
ATOM      8  C   UNL     1      -8.866  20.626  16.485  1.00  0.00    -0.000 C 
BRANCH   8   9
ATOM      9  C   UNL     1      -8.300  21.733  17.388  1.00  0.00    -0.000 C 
BRANCH   9  10
ATOM     10  C   UNL     1      -8.871  21.628  18.807  1.00  0.00    -0.000 C 
BRANCH  10  11
ATOM     11  C   UNL     1      -7.943  20.812  19.715  1.00  0.00    -0.003 C 
ATOM     12  C   UNL     1      -6.477  21.052  19.362  1.00  0.00     0.004 C 
ENDBRANCH  10  11
ENDBRANCH   9  10
ENDBRANCH   8   9
ENDBRANCH   7   8
ENDBRANCH   6   7
ENDBRANCH   5   6
ENDBRANCH   4   5
ENDBRANCH   3   4
ENDBRANCH   2   3
ENDBRANCH   1   2
BRANCH   1  13
ATOM     13  C   UNL     1      -0.738  20.320  16.767  1.00  0.00     0.000 C 
BRANCH  13  14
ATOM     14  C   UNL     1       0.714  19.876  16.535  1.00  0.00     0.000 C 
BRANCH  14  15
ATOM     15  C   UNL     1       1.604  21.076  16.182  1.00  0.00     0.000 C 
BRANCH  15  16
ATOM     16  C   UNL     1       3.014  20.970  16.785  1.00  0.00     0.000 C 
BRANCH  16  17
ATOM     17  C   UNL     1       3.933  20.037  15.978  1.00  0.00     0.000 C 
BRANCH  17  18
ATOM     18  C   UNL     1       5.420  20.398  16.129  1.00  0.00     0.000 C 
BRANCH  18  19
ATOM     19  C   UNL     1       6.068  20.799  14.793  1.00  0.00     0.000 C 
BRANCH  19  20
ATOM     20  C   UNL     1       7.473  20.197  14.607  1.00  0.00     0.006 C 
BRANCH  20  21
ATOM     21  C   UNL     1       8.219  20.698  13.359  1.00  0.00     0.053 C 
BRANCH  21  22
ATOM     22  C   UNL     1       9.274  21.705  13.700  1.00  0.00     0.041 C 
ATOM     23  O   UNL     1       9.737  21.766  14.869  1.00  0.00    -0.550 OA
ATOM     24  O   UNL     1       9.769  22.553  12.717  1.00  0.00    -0.550 OA
ENDBRANCH  21  22
ENDBRANCH  20  21
ENDBRANCH  19  20
ENDBRANCH  18  19
ENDBRANCH  17  18
ENDBRANCH  16  17
ENDBRANCH  15  16
ENDBRANCH  14  15
ENDBRANCH  13  14
ENDBRANCH   1  13
TORSDOF 20
ENDMDL
MODEL 3
REMARK VINA RESULT:    -3.120      5.695     13.900
REMARK INTER + INTRA:          -7.705
REMARK INTER:                  -6.823
REMARK INTRA:                  -0.881
REMARK UNBOUND:                -0.937
REMARK SMILES CCCCCCCCCCCCCCCCCCCCCC(=O)[O-]
REMARK SMILES IDX 12 1 11 2 10 3 9 4 8 5 7 6 6 7 5 8 4 9 3 10 2 11 1 12 13 13
REMARK SMILES IDX 14 14 15 15 16 16 17 17 18 18 19 19 20 20 21 21 22 22 23 23
REMARK SMILES IDX 24 24
REMARK H PARENT
REMARK Flexibility Score: inf
ROOT
ATOM      1  C   UNL     1       0.092  20.678  16.660  1.00  0.00     0.000 C 
ENDROOT
BRANCH   1   2
ATOM      2  C   UNL     1      -0.991  19.876  17.409  1.00  0.00     0.000 C 
BRANCH   2   3
ATOM      3  C   UNL     1      -2.417  20.451  17.306  1.00  0.00     0.000 C 
BRANCH   3   4
ATOM      4  C   UNL     1      -2.956  20.598  15.870  1.00  0.00    -0.000 C 
BRANCH   4   5
ATOM      5  C   UNL     1      -4.452  20.265  15.696  1.00  0.00    -0.000 C 
BRANCH   5   6
ATOM      6  C   UNL     1      -5.236  21.248  14.808  1.00  0.00    -0.000 C 
BRANCH   6   7
ATOM      7  C   UNL     1      -6.672  20.776  14.523  1.00  0.00    -0.000 C 
BRANCH   7   8
ATOM      8  C   UNL     1      -7.324  20.102  15.740  1.00  0.00    -0.000 C 
BRANCH   8   9
ATOM      9  C   UNL     1      -8.369  20.999  16.421  1.00  0.00    -0.000 C 
BRANCH   9  10
ATOM     10  C   UNL     1      -7.727  21.850  17.524  1.00  0.00    -0.000 C 
BRANCH  10  11
ATOM     11  C   UNL     1      -7.437  21.006  18.771  1.00  0.00    -0.003 C 
ATOM     12  C   UNL     1      -7.373  21.877  20.023  1.00  0.00     0.004 C 
ENDBRANCH  10  11
ENDBRANCH   9  10
ENDBRANCH   8   9
ENDBRANCH   7   8
ENDBRANCH   6   7
ENDBRANCH   5   6
ENDBRANCH   4   5
ENDBRANCH   3   4
ENDBRANCH   2   3
ENDBRANCH   1   2
BRANCH   1  13
ATOM     13  C   UNL     1       1.366  19.886  16.315  1.00  0.00     0.000 C 
BRANCH  13  14
ATOM     14  C   UNL     1       2.647  20.721  16.460  1.00  0.00     0.000 C 
BRANCH  14  15
ATOM     15  C   UNL     1       3.888  19.882  16.122  1.00  0.00     0.000 C 
BRANCH  15  16
ATOM     16  C   UNL     1       5.030  20.722  15.527  1.00  0.00     0.000 C 
BRANCH  16  17
ATOM     17  C   UNL     1       6.303  20.685  16.390  1.00  0.00     0.000 C 
BRANCH  17  18
ATOM     18  C   UNL     1       7.436  19.875  15.737  1.00  0.00     0.000 C 
BRANCH  18  19
ATOM     19  C   UNL     1       8.160  20.661  14.630  1.00  0.00     0.000 C 
BRANCH  19  20
ATOM     20  C   UNL     1       9.589  20.149  14.373  1.00  0.00     0.006 C 
BRANCH  20  21
ATOM     21  C   UNL     1      10.610  21.251  14.047  1.00  0.00     0.053 C 
BRANCH  21  22
ATOM     22  C   UNL     1      10.500  21.718  12.629  1.00  0.00     0.041 C 
ATOM     23  O   UNL     1      10.479  20.884  11.687  1.00  0.00    -0.550 OA
ATOM     24  O   UNL     1      10.386  23.075  12.350  1.00  0.00    -0.550 OA
ENDBRANCH  21  22
ENDBRANCH  20  21
ENDBRANCH  19  20
ENDBRANCH  18  19
ENDBRANCH  17  18
ENDBRANCH  16  17
ENDBRANCH  15  16
ENDBRANCH  14  15
ENDBRANCH  13  14
ENDBRANCH   1  13
TORSDOF 20
ENDMDL
MODEL 4
REMARK VINA RESULT:    -3.030      1.297      2.016
REMARK INTER + INTRA:          -7.510
REMARK INTER:                  -6.417
REMARK INTRA:                  -1.093
REMARK UNBOUND:                -0.937
REMARK SMILES CCCCCCCCCCCCCCCCCCCCCC(=O)[O-]
REMARK SMILES IDX 12 1 11 2 10 3 9 4 8 5 7 6 6 7 5 8 4 9 3 10 2 11 1 12 13 13
REMARK SMILES IDX 14 14 15 15 16 16 17 17 18 18 19 19 20 20 21 21 22 22 23 23
REMARK SMILES IDX 24 24
REMARK H PARENT
REMARK Flexibility Score: inf
ROOT
ATOM      1  C   UNL     1      -0.384  20.380  16.608  1.00  0.00     0.000 C 
ENDROOT
BRANCH   1   2
ATOM      2  C   UNL     1       1.044  19.878  16.322  1.00  0.00     0.000 C 
BRANCH   2   3
ATOM      3  C   UNL     1       2.155  20.931  16.500  1.00  0.00     0.000 C 
BRANCH   3   4
ATOM      4  C   UNL     1       3.589  20.403  16.299  1.00  0.00    -0.000 C 
BRANCH   4   5
ATOM      5  C   UNL     1       4.703  21.299  16.880  1.00  0.00    -0.000 C 
BRANCH   5   6
ATOM      6  C   UNL     1       6.121  20.980  16.374  1.00  0.00    -0.000 C 
BRANCH   6   7
ATOM      7  C   UNL     1       6.236  21.052  14.842  1.00  0.00    -0.000 C 
BRANCH   7   8
ATOM      8  C   UNL     1       7.593  20.550  14.328  1.00  0.00    -0.000 C 
BRANCH   8   9
ATOM      9  C   UNL     1       8.751  20.907  15.274  1.00  0.00    -0.000 C 
BRANCH   9  10
ATOM     10  C   UNL     1      10.047  21.143  14.490  1.00  0.00    -0.000 C 
BRANCH  10  11
ATOM     11  C   UNL     1       9.748  21.506  13.031  1.00  0.00    -0.003 C 
ATOM     12  C   UNL     1      10.157  22.945  12.726  1.00  0.00     0.004 C 
ENDBRANCH  10  11
ENDBRANCH   9  10
ENDBRANCH   8   9
ENDBRANCH   7   8
ENDBRANCH   6   7
ENDBRANCH   5   6
ENDBRANCH   4   5
ENDBRANCH   3   4
ENDBRANCH   2   3
ENDBRANCH   1   2
BRANCH   1  13
ATOM     13  C   UNL     1      -0.929  21.402  15.593  1.00  0.00     0.000 C 
BRANCH  13  14
ATOM     14  C   UNL     1      -2.464  21.426  15.535  1.00  0.00     0.000 C 
BRANCH  14  15
ATOM     15  C   UNL     1      -3.058  20.208  16.257  1.00  0.00     0.000 C 
BRANCH  15  16
ATOM     16  C   UNL     1      -4.558  20.022  15.976  1.00  0.00     0.000 C 
BRANCH  16  17
ATOM     17  C   UNL     1      -5.142  21.153  15.110  1.00  0.00     0.000 C 
BRANCH  17  18
ATOM     18  C   UNL     1      -6.464  20.755  14.432  1.00  0.00     0.000 C 
BRANCH  18  19
ATOM     19  C   UNL     1      -7.610  20.567  15.441  1.00  0.00     0.000 C 
BRANCH  19  20
ATOM     20  C   UNL     1      -7.573  21.599  16.583  1.00  0.00     0.006 C 
BRANCH  20  21
ATOM     21  C   UNL     1      -8.363  21.188  17.837  1.00  0.00     0.053 C 
BRANCH  21  22
ATOM     22  C   UNL     1      -7.464  20.757  18.953  1.00  0.00     0.041 C 
ATOM     23  O   UNL     1      -6.241  21.055  18.933  1.00  0.00    -0.550 OA
ATOM     24  O   UNL     1      -7.983  20.054  20.034  1.00  0.00    -0.550 OA
ENDBRANCH  21  22
ENDBRANCH  20  21
ENDBRANCH  19  20
ENDBRANCH  18  19
ENDBRANCH  17  18
ENDBRANCH  16  17
ENDBRANCH  15  16
ENDBRANCH  14  15
ENDBRANCH  13  14
ENDBRANCH   1  13
TORSDOF 20
ENDMDL
MODEL 5
REMARK VINA RESULT:    -2.711      1.553      3.778
REMARK INTER + INTRA:          -6.818
REMARK INTER:                  -5.928
REMARK INTRA:                  -0.890
REMARK UNBOUND:                -0.937
REMARK SMILES CCCCCCCCCCCCCCCCCCCCCC(=O)[O-]
REMARK SMILES IDX 12 1 11 2 10 3 9 4 8 5 7 6 6 7 5 8 4 9 3 10 2 11 1 12 13 13
REMARK SMILES IDX 14 14 15 15 16 16 17 17 18 18 19 19 20 20 21 21 22 22 23 23
REMARK SMILES IDX 24 24
REMARK H PARENT
REMARK Flexibility Score: inf
ROOT
ATOM      1  C   UNL     1       2.725  20.965  16.661  1.00  0.00     0.000 C 
ENDROOT
BRANCH   1   2
ATOM      2  C   UNL     1       4.191  20.569  16.394  1.00  0.00     0.000 C 
BRANCH   2   3
ATOM      3  C   UNL     1       4.457  19.946  15.010  1.00  0.00     0.000 C 
BRANCH   3   4
ATOM      4  C   UNL     1       5.922  20.019  14.535  1.00  0.00    -0.000 C 
BRANCH   4   5
ATOM      5  C   UNL     1       6.855  20.866  15.425  1.00  0.00    -0.000 C 
BRANCH   5   6
ATOM      6  C   UNL     1       8.258  20.271  15.642  1.00  0.00    -0.000 C 
BRANCH   6   7
ATOM      7  C   UNL     1       9.341  20.985  14.815  1.00  0.00    -0.000 C 
BRANCH   7   8
ATOM      8  C   UNL     1       9.534  20.356  13.428  1.00  0.00    -0.000 C 
BRANCH   8   9
ATOM      9  C   UNL     1       9.918  21.391  12.359  1.00  0.00    -0.000 C 
BRANCH   9  10
ATOM     10  C   UNL     1       9.804  22.817  12.910  1.00  0.00    -0.000 C 
BRANCH  10  11
ATOM     11  C   UNL     1      11.125  23.578  12.745  1.00  0.00    -0.003 C 
ATOM     12  C   UNL     1      10.908  24.913  12.038  1.00  0.00     0.004 C 
ENDBRANCH  10  11
ENDBRANCH   9  10
ENDBRANCH   8   9
ENDBRANCH   7   8
ENDBRANCH   6   7
ENDBRANCH   5   6
ENDBRANCH   4   5
ENDBRANCH   3   4
ENDBRANCH   2   3
ENDBRANCH   1   2
BRANCH   1  13
ATOM     13  C   UNL     1       1.683  19.899  16.275  1.00  0.00     0.000 C 
BRANCH  13  14
ATOM     14  C   UNL     1       0.335  20.098  16.983  1.00  0.00     0.000 C 
BRANCH  14  15
ATOM     15  C   UNL     1      -0.828  19.991  15.985  1.00  0.00     0.000 C 
BRANCH  15  16
ATOM     16  C   UNL     1      -2.205  20.072  16.664  1.00  0.00     0.000 C 
BRANCH  16  17
ATOM     17  C   UNL     1      -3.194  20.959  15.889  1.00  0.00     0.000 C 
BRANCH  17  18
ATOM     18  C   UNL     1      -4.619  20.380  15.872  1.00  0.00     0.000 C 
BRANCH  18  19
ATOM     19  C   UNL     1      -5.480  20.967  14.741  1.00  0.00     0.000 C 
BRANCH  19  20
ATOM     20  C   UNL     1      -6.990  20.824  15.007  1.00  0.00     0.006 C 
BRANCH  20  21
ATOM     21  C   UNL     1      -7.339  20.202  16.369  1.00  0.00     0.053 C 
BRANCH  21  22
ATOM     22  C   UNL     1      -7.667  21.243  17.396  1.00  0.00     0.041 C 
ATOM     23  O   UNL     1      -8.516  22.136  17.142  1.00  0.00    -0.550 OA
ATOM     24  O   UNL     1      -7.058  21.204  18.644  1.00  0.00    -0.550 OA
ENDBRANCH  21  22
ENDBRANCH  20  21
ENDBRANCH  19  20
ENDBRANCH  18  19
ENDBRANCH  17  18
ENDBRANCH  16  17
ENDBRANCH  15  16
ENDBRANCH  14  15
ENDBRANCH  13  14
ENDBRANCH   1  13
TORSDOF 20
ENDMDL
MODEL 6
REMARK VINA RESULT:    -2.655      5.877     14.305
REMARK INTER + INTRA:          -6.697
REMARK INTER:                  -5.868
REMARK INTRA:                  -0.829
REMARK UNBOUND:                -0.937
REMARK SMILES CCCCCCCCCCCCCCCCCCCCCC(=O)[O-]
REMARK SMILES IDX 12 1 11 2 10 3 9 4 8 5 7 6 6 7 5 8 4 9 3 10 2 11 1 12 13 13
REMARK SMILES IDX 14 14 15 15 16 16 17 17 18 18 19 19 20 20 21 21 22 22 23 23
REMARK SMILES IDX 24 24
REMARK H PARENT
REMARK Flexibility Score: inf
ROOT
ATOM      1  C   UNL     1       2.423  20.984  16.035  1.00  0.00     0.000 C 
ENDROOT
BRANCH   1   2
ATOM      2  C   UNL     1       1.236  20.750  16.991  1.00  0.00     0.000 C 
BRANCH   2   3
ATOM      3  C   UNL     1      -0.093  20.384  16.303  1.00  0.00     0.000 C 
BRANCH   3   4
ATOM      4  C   UNL     1      -1.355  20.637  17.152  1.00  0.00    -0.000 C 
BRANCH   4   5
ATOM      5  C   UNL     1      -2.612  21.035  16.351  1.00  0.00    -0.000 C 
BRANCH   5   6
ATOM      6  C   UNL     1      -3.574  19.875  16.038  1.00  0.00    -0.000 C 
BRANCH   6   7
ATOM      7  C   UNL     1      -5.050  20.309  16.046  1.00  0.00    -0.000 C 
BRANCH   7   8
ATOM      8  C   UNL     1      -5.406  21.214  14.856  1.00  0.00    -0.000 C 
BRANCH   8   9
ATOM      9  C   UNL     1      -6.912  21.223  14.552  1.00  0.00    -0.000 C 
BRANCH   9  10
ATOM     10  C   UNL     1      -7.612  20.028  15.210  1.00  0.00    -0.000 C 
BRANCH  10  11
ATOM     11  C   UNL     1      -8.786  20.490  16.082  1.00  0.00    -0.003 C 
ATOM     12  C   UNL     1      -8.345  21.560  17.077  1.00  0.00     0.004 C 
ENDBRANCH  10  11
ENDBRANCH   9  10
ENDBRANCH   8   9
ENDBRANCH   7   8
ENDBRANCH   6   7
ENDBRANCH   5   6
ENDBRANCH   4   5
ENDBRANCH   3   4
ENDBRANCH   2   3
ENDBRANCH   1   2
BRANCH   1  13
ATOM     13  C   UNL     1       3.813  20.760  16.658  1.00  0.00     0.000 C 
BRANCH  13  14
ATOM     14  C   UNL     1       4.845  20.244  15.644  1.00  0.00     0.000 C 
BRANCH  14  15
ATOM     15  C   UNL     1       6.226  20.093  16.298  1.00  0.00     0.000 C 
BRANCH  15  16
ATOM     16  C   UNL     1       7.197  21.219  15.908  1.00  0.00     0.000 C 
BRANCH  16  17
ATOM     17  C   UNL     1       8.606  20.696  15.579  1.00  0.00     0.000 C 
BRANCH  17  18
ATOM     18  C   UNL     1       8.782  20.368  14.087  1.00  0.00     0.000 C 
BRANCH  18  19
ATOM     19  C   UNL     1      10.254  20.410  13.643  1.00  0.00     0.000 C 
BRANCH  19  20
ATOM     20  C   UNL     1      10.494  21.376  12.468  1.00  0.00     0.006 C 
BRANCH  20  21
ATOM     21  C   UNL     1      10.048  22.824  12.735  1.00  0.00     0.053 C 
BRANCH  21  22
ATOM     22  C   UNL     1      10.516  23.763  11.666  1.00  0.00     0.041 C 
ATOM     23  O   UNL     1      10.938  23.313  10.568  1.00  0.00    -0.550 OA
ATOM     24  O   UNL     1      10.454  25.136  11.870  1.00  0.00    -0.550 OA
ENDBRANCH  21  22
ENDBRANCH  20  21
ENDBRANCH  19  20
ENDBRANCH  18  19
ENDBRANCH  17  18
ENDBRANCH  16  17
ENDBRANCH  15  16
ENDBRANCH  14  15
ENDBRANCH  13  14
ENDBRANCH   1  13
TORSDOF 20
ENDMDL
MODEL 7
REMARK VINA RESULT:    -2.419      2.135      4.961
REMARK INTER + INTRA:          -6.185
REMARK INTER:                  -5.523
REMARK INTRA:                  -0.662
REMARK UNBOUND:                -0.937
REMARK SMILES CCCCCCCCCCCCCCCCCCCCCC(=O)[O-]
REMARK SMILES IDX 12 1 11 2 10 3 9 4 8 5 7 6 6 7 5 8 4 9 3 10 2 11 1 12 13 13
REMARK SMILES IDX 14 14 15 15 16 16 17 17 18 18 19 19 20 20 21 21 22 22 23 23
REMARK SMILES IDX 24 24
REMARK H PARENT
REMARK Flexibility Score: inf
ROOT
ATOM      1  C   UNL     1       4.078  20.519  15.780  1.00  0.00     0.000 C 
ENDROOT
BRANCH   1   2
ATOM      2  C   UNL     1       5.134  21.634  15.907  1.00  0.00     0.000 C 
BRANCH   2   3
ATOM      3  C   UNL     1       6.445  21.216  16.600  1.00  0.00     0.000 C 
BRANCH   3   4
ATOM      4  C   UNL     1       7.113  19.954  16.017  1.00  0.00    -0.000 C 
BRANCH   4   5
ATOM      5  C   UNL     1       7.778  20.144  14.638  1.00  0.00    -0.000 C 
BRANCH   5   6
ATOM      6  C   UNL     1       9.283  20.464  14.683  1.00  0.00    -0.000 C 
BRANCH   6   7
ATOM      7  C   UNL     1       9.600  21.713  15.524  1.00  0.00    -0.000 C 
BRANCH   7   8
ATOM      8  C   UNL     1      10.924  22.378  15.116  1.00  0.00    -0.000 C 
BRANCH   8   9
ATOM      9  C   UNL     1      11.053  22.548  13.594  1.00  0.00    -0.000 C 
BRANCH   9  10
ATOM     10  C   UNL     1      11.125  24.031  13.211  1.00  0.00    -0.000 C 
BRANCH  10  11
ATOM     11  C   UNL     1      10.719  24.241  11.748  1.00  0.00    -0.003 C 
ATOM     12  C   UNL     1      10.841  22.945  10.950  1.00  0.00     0.004 C 
ENDBRANCH  10  11
ENDBRANCH   9  10
ENDBRANCH   8   9
ENDBRANCH   7   8
ENDBRANCH   6   7
ENDBRANCH   5   6
ENDBRANCH   4   5
ENDBRANCH   3   4
ENDBRANCH   2   3
ENDBRANCH   1   2
BRANCH   1  13
ATOM     13  C   UNL     1       2.755  20.788  16.519  1.00  0.00     0.000 C 
BRANCH  13  14
ATOM     14  C   UNL     1       1.577  19.983  15.949  1.00  0.00     0.000 C 
BRANCH  14  15
ATOM     15  C   UNL     1       0.437  19.881  16.973  1.00  0.00     0.000 C 
BRANCH  15  16
ATOM     16  C   UNL     1      -0.664  20.930  16.746  1.00  0.00     0.000 C 
BRANCH  16  17
ATOM     17  C   UNL     1      -2.051  20.437  17.194  1.00  0.00     0.000 C 
BRANCH  17  18
ATOM     18  C   UNL     1      -2.886  19.883  16.027  1.00  0.00     0.000 C 
BRANCH  18  19
ATOM     19  C   UNL     1      -4.394  20.125  16.215  1.00  0.00     0.000 C 
BRANCH  19  20
ATOM     20  C   UNL     1      -4.967  21.126  15.195  1.00  0.00     0.006 C 
BRANCH  20  21
ATOM     21  C   UNL     1      -6.298  20.692  14.558  1.00  0.00     0.053 C 
BRANCH  21  22
ATOM     22  C   UNL     1      -7.434  20.751  15.532  1.00  0.00     0.041 C 
ATOM     23  O   UNL     1      -7.340  21.452  16.573  1.00  0.00    -0.550 OA
ATOM     24  O   UNL     1      -8.610  20.058  15.271  1.00  0.00    -0.550 OA
ENDBRANCH  21  22
ENDBRANCH  20  21
ENDBRANCH  19  20
ENDBRANCH  18  19
ENDBRANCH  17  18
ENDBRANCH  16  17
ENDBRANCH  15  16
ENDBRANCH  14  15
ENDBRANCH  13  14
ENDBRANCH   1  13
TORSDOF 20
ENDMDL
MODEL 8
REMARK VINA RESULT:    -2.405      5.912     14.098
REMARK INTER + INTRA:          -6.155
REMARK INTER:                  -5.530
REMARK INTRA:                  -0.624
REMARK UNBOUND:                -0.937
REMARK SMILES CCCCCCCCCCCCCCCCCCCCCC(=O)[O-]
REMARK SMILES IDX 12 1 11 2 10 3 9 4 8 5 7 6 6 7 5 8 4 9 3 10 2 11 1 12 13 13
REMARK SMILES IDX 14 14 15 15 16 16 17 17 18 18 19 19 20 20 21 21 22 22 23 23
REMARK SMILES IDX 24 24
REMARK H PARENT
REMARK Flexibility Score: inf
ROOT
ATOM      1  C   UNL     1       4.352  21.718  17.015  1.00  0.00     0.000 C 
ENDROOT
BRANCH   1   2
ATOM      2  C   UNL     1       2.989  21.056  17.297  1.00  0.00     0.000 C 
BRANCH   2   3
ATOM      3  C   UNL     1       2.158  20.714  16.045  1.00  0.00     0.000 C 
BRANCH   3   4
ATOM      4  C   UNL     1       0.859  19.931  16.321  1.00  0.00    -0.000 C 
BRANCH   4   5
ATOM      5  C   UNL     1      -0.369  20.801  16.660  1.00  0.00    -0.000 C 
BRANCH   5   6
ATOM      6  C   UNL     1      -1.699  20.033  16.761  1.00  0.00    -0.000 C 
BRANCH   6   7
ATOM      7  C   UNL     1      -2.768  20.566  15.792  1.00  0.00    -0.000 C 
BRANCH   7   8
ATOM      8  C   UNL     1      -4.196  20.370  16.323  1.00  0.00    -0.000 C 
BRANCH   8   9
ATOM      9  C   UNL     1      -5.254  20.432  15.210  1.00  0.00    -0.000 C 
BRANCH   9  10
ATOM     10  C   UNL     1      -6.212  21.609  15.428  1.00  0.00    -0.000 C 
BRANCH  10  11
ATOM     11  C   UNL     1      -7.672  21.142  15.392  1.00  0.00    -0.003 C 
ATOM     12  C   UNL     1      -8.299  21.186  16.783  1.00  0.00     0.004 C 
ENDBRANCH  10  11
ENDBRANCH   9  10
ENDBRANCH   8   9
ENDBRANCH   7   8
ENDBRANCH   6   7
ENDBRANCH   5   6
ENDBRANCH   4   5
ENDBRANCH   3   4
ENDBRANCH   2   3
ENDBRANCH   1   2
BRANCH   1  13
ATOM     13  C   UNL     1       5.074  21.207  15.755  1.00  0.00     0.000 C 
BRANCH  13  14
ATOM     14  C   UNL     1       5.821  19.885  15.989  1.00  0.00     0.000 C 
BRANCH  14  15
ATOM     15  C   UNL     1       7.255  20.144  16.472  1.00  0.00     0.000 C 
BRANCH  15  16
ATOM     16  C   UNL     1       8.296  20.002  15.350  1.00  0.00     0.000 C 
BRANCH  16  17
ATOM     17  C   UNL     1       7.845  20.667  14.038  1.00  0.00     0.000 C 
BRANCH  17  18
ATOM     18  C   UNL     1       8.668  20.200  12.825  1.00  0.00     0.000 C 
BRANCH  18  19
ATOM     19  C   UNL     1       9.984  20.982  12.670  1.00  0.00     0.000 C 
BRANCH  19  20
ATOM     20  C   UNL     1       9.940  22.362  13.350  1.00  0.00     0.006 C 
BRANCH  20  21
ATOM     21  C   UNL     1      11.112  23.288  12.984  1.00  0.00     0.053 C 
BRANCH  21  22
ATOM     22  C   UNL     1      10.858  24.042  11.716  1.00  0.00     0.041 C 
ATOM     23  O   UNL     1      11.009  23.476  10.601  1.00  0.00    -0.550 OA
ATOM     24  O   UNL     1      10.422  25.361  11.765  1.00  0.00    -0.550 OA
ENDBRANCH  21  22
ENDBRANCH  20  21
ENDBRANCH  19  20
ENDBRANCH  18  19
ENDBRANCH  17  18
ENDBRANCH  16  17
ENDBRANCH  15  16
ENDBRANCH  14  15
ENDBRANCH  13  14
ENDBRANCH   1  13
TORSDOF 20
ENDMDL
MODEL 9
REMARK VINA RESULT:    -1.831      2.141      4.874
REMARK INTER + INTRA:          -4.910
REMARK INTER:                  -3.970
REMARK INTRA:                  -0.940
REMARK UNBOUND:                -0.937
REMARK SMILES CCCCCCCCCCCCCCCCCCCCCC(=O)[O-]
REMARK SMILES IDX 12 1 11 2 10 3 9 4 8 5 7 6 6 7 5 8 4 9 3 10 2 11 1 12 13 13
REMARK SMILES IDX 14 14 15 15 16 16 17 17 18 18 19 19 20 20 21 21 22 22 23 23
REMARK SMILES IDX 24 24
REMARK H PARENT
REMARK Flexibility Score: inf
ROOT
ATOM      1  C   UNL     1       3.495  20.329  15.383  1.00  0.00     0.000 C 
ENDROOT
BRANCH   1   2
ATOM      2  C   UNL     1       4.855  20.927  15.794  1.00  0.00     0.000 C 
BRANCH   2   3
ATOM      3  C   UNL     1       6.077  20.040  15.488  1.00  0.00     0.000 C 
BRANCH   3   4
ATOM      4  C   UNL     1       7.326  20.799  14.999  1.00  0.00    -0.000 C 
BRANCH   4   5
ATOM      5  C   UNL     1       7.979  20.229  13.723  1.00  0.00    -0.000 C 
BRANCH   5   6
ATOM      6  C   UNL     1       9.477  20.546  13.566  1.00  0.00    -0.000 C 
BRANCH   6   7
ATOM      7  C   UNL     1       9.732  21.970  13.044  1.00  0.00    -0.000 C 
BRANCH   7   8
ATOM      8  C   UNL     1      10.993  22.062  12.172  1.00  0.00    -0.000 C 
BRANCH   8   9
ATOM      9  C   UNL     1      10.690  21.885  10.676  1.00  0.00    -0.000 C 
BRANCH   9  10
ATOM     10  C   UNL     1      10.900  20.430  10.241  1.00  0.00    -0.000 C 
BRANCH  10  11
ATOM     11  C   UNL     1       9.648  19.875   9.551  1.00  0.00    -0.003 C 
ATOM     12  C   UNL     1       8.810  20.998   8.945  1.00  0.00     0.004 C 
ENDBRANCH  10  11
ENDBRANCH   9  10
ENDBRANCH   8   9
ENDBRANCH   7   8
ENDBRANCH   6   7
ENDBRANCH   5   6
ENDBRANCH   4   5
ENDBRANCH   3   4
ENDBRANCH   2   3
ENDBRANCH   1   2
BRANCH   1  13
ATOM     13  C   UNL     1       2.274  20.942  16.094  1.00  0.00     0.000 C 
BRANCH  13  14
ATOM     14  C   UNL     1       1.390  19.889  16.778  1.00  0.00     0.000 C 
BRANCH  14  15
ATOM     15  C   UNL     1      -0.048  19.949  16.242  1.00  0.00     0.000 C 
BRANCH  15  16
ATOM     16  C   UNL     1      -1.098  20.028  17.362  1.00  0.00     0.000 C 
BRANCH  16  17
ATOM     17  C   UNL     1      -2.327  20.862  16.961  1.00  0.00     0.000 C 
BRANCH  17  18
ATOM     18  C   UNL     1      -3.391  20.031  16.225  1.00  0.00     0.000 C 
BRANCH  18  19
ATOM     19  C   UNL     1      -4.283  20.890  15.312  1.00  0.00     0.000 C 
BRANCH  19  20
ATOM     20  C   UNL     1      -5.768  20.490  15.382  1.00  0.00     0.006 C 
BRANCH  20  21
ATOM     21  C   UNL     1      -6.685  21.558  15.999  1.00  0.00     0.053 C 
BRANCH  21  22
ATOM     22  C   UNL     1      -7.403  21.052  17.212  1.00  0.00     0.041 C 
ATOM     23  O   UNL     1      -6.766  20.463  18.125  1.00  0.00    -0.550 OA
ATOM     24  O   UNL     1      -8.769  21.261  17.351  1.00  0.00    -0.550 OA
ENDBRANCH  21  22
ENDBRANCH  20  21
ENDBRANCH  19  20
ENDBRANCH  18  19
ENDBRANCH  17  18
ENDBRANCH  16  17
ENDBRANCH  15  16
ENDBRANCH  14  15
ENDBRANCH  13  14
ENDBRANCH   1  13
TORSDOF 20
ENDMDL
