MODEL 1
REMARK VINA RESULT:    -6.792      0.000      0.000
REMARK INTER + INTRA:          -8.498
REMARK INTER:                  -8.182
REMARK INTRA:                  -0.316
REMARK UNBOUND:                -0.316
REMARK SMILES O=c1c(O)c(-c2ccc(O)c(O)c2)oc2cc(O)cc(O)c12
REMARK SMILES IDX 5 1 3 2 2 3 1 4 22 5 20 6 19 7 17 8 16 9 15 10 14 11 6 12
REMARK SMILES IDX 7 13 8 14 9 15 13 16 11 17 10 18 12 20 4 22 21 24 18 26
REMARK H PARENT 10 19 12 21 4 23 21 25 18 27
REMARK Flexibility Score: inf
ROOT
ATOM      1  C   UNL     1     343.109 168.375 183.249  1.00  0.00     0.180 A 
ATOM      2  C   UNL     1     341.836 168.959 183.369  1.00  0.00     0.208 A 
ATOM      3  C   UNL     1     341.733 170.356 183.464  1.00  0.00     0.238 A 
ATOM      4  O   UNL     1     340.587 170.875 183.517  1.00  0.00    -0.285 OA
ATOM      5  C   UNL     1     342.905 171.150 183.455  1.00  0.00     0.111 A 
ATOM      6  C   UNL     1     342.921 172.572 183.586  1.00  0.00     0.134 A 
ATOM      7  C   UNL     1     344.127 173.266 183.431  1.00  0.00     0.093 A 
ATOM      8  C   UNL     1     345.328 172.585 183.216  1.00  0.00     0.123 A 
ATOM      9  C   UNL     1     345.331 171.194 183.147  1.00  0.00     0.094 A 
ATOM     10  C   UNL     1     344.138 170.476 183.260  1.00  0.00     0.146 A 
ATOM     11  O   UNL     1     344.184 169.152 183.178  1.00  0.00    -0.452 OA
ENDROOT
BRANCH   1  12
ATOM     12  C   UNL     1     343.299 166.909 183.170  1.00  0.00     0.025 A 
ATOM     13  C   UNL     1     343.519 166.176 184.344  1.00  0.00     0.016 A 
ATOM     14  C   UNL     1     343.680 164.791 184.294  1.00  0.00     0.051 A 
ATOM     15  C   UNL     1     343.610 164.108 183.076  1.00  0.00     0.157 A 
ATOM     16  C   UNL     1     343.205 166.224 181.946  1.00  0.00     0.062 A 
ATOM     17  C   UNL     1     343.362 164.833 181.887  1.00  0.00     0.158 A 
BRANCH  15  18
ATOM     18  O   UNL     1     343.787 162.723 183.092  1.00  0.00    -0.504 OA
ATOM     19  H   UNL     1     343.239 162.089 183.657  1.00  0.00     0.293 HD
ENDBRANCH  15  18
BRANCH  17  20
ATOM     20  O   UNL     1     343.260 164.219 180.636  1.00  0.00    -0.504 OA
ATOM     21  H   UNL     1     343.457 164.684 179.761  1.00  0.00     0.293 HD
ENDBRANCH  17  20
ENDBRANCH   1  12
BRANCH   2  22
ATOM     22  O   UNL     1     340.691 168.157 183.354  1.00  0.00    -0.502 OA
ATOM     23  H   UNL     1     340.029 168.168 182.588  1.00  0.00     0.293 HD
ENDBRANCH   2  22
BRANCH   6  24
ATOM     24  O   UNL     1     341.794 173.340 183.892  1.00  0.00    -0.507 OA
ATOM     25  H   UNL     1     341.268 173.272 184.750  1.00  0.00     0.293 HD
ENDBRANCH   6  24
BRANCH   8  26
ATOM     26  O   UNL     1     346.526 173.282 183.079  1.00  0.00    -0.508 OA
ATOM     27  H   UNL     1     347.380 172.959 183.516  1.00  0.00     0.293 HD
ENDBRANCH   8  26
TORSDOF 6
ENDMDL
MODEL 2
REMARK VINA RESULT:    -6.563      1.582      3.121
REMARK INTER + INTRA:          -8.222
REMARK INTER:                  -8.580
REMARK INTRA:                   0.358
REMARK UNBOUND:                -0.316
REMARK SMILES O=c1c(O)c(-c2ccc(O)c(O)c2)oc2cc(O)cc(O)c12
REMARK SMILES IDX 5 1 3 2 2 3 1 4 22 5 20 6 19 7 17 8 16 9 15 10 14 11 6 12
REMARK SMILES IDX 7 13 8 14 9 15 13 16 11 17 10 18 12 20 4 22 21 24 18 26
REMARK H PARENT 10 19 12 21 4 23 21 25 18 27
REMARK Flexibility Score: inf
ROOT
ATOM      1  C   UNL     1     343.907 168.181 183.460  1.00  0.00     0.180 A 
ATOM      2  C   UNL     1     345.059 168.986 183.510  1.00  0.00     0.208 A 
ATOM      3  C   UNL     1     344.921 170.380 183.418  1.00  0.00     0.238 A 
ATOM      4  O   UNL     1     345.950 171.098 183.518  1.00  0.00    -0.285 OA
ATOM      5  C   UNL     1     343.635 170.951 183.260  1.00  0.00     0.111 A 
ATOM      6  C   UNL     1     343.381 172.349 183.115  1.00  0.00     0.134 A 
ATOM      7  C   UNL     1     342.060 172.812 183.097  1.00  0.00     0.093 A 
ATOM      8  C   UNL     1     340.983 171.923 183.152  1.00  0.00     0.123 A 
ATOM      9  C   UNL     1     341.222 170.553 183.233  1.00  0.00     0.094 A 
ATOM     10  C   UNL     1     342.529 170.063 183.290  1.00  0.00     0.146 A 
ATOM     11  O   UNL     1     342.711 168.751 183.377  1.00  0.00    -0.452 OA
ENDROOT
BRANCH   1  12
ATOM     12  C   UNL     1     343.976 166.704 183.526  1.00  0.00     0.025 A 
ATOM     13  C   UNL     1     342.821 165.973 183.838  1.00  0.00     0.016 A 
ATOM     14  C   UNL     1     342.858 164.578 183.885  1.00  0.00     0.051 A 
ATOM     15  C   UNL     1     344.041 163.886 183.609  1.00  0.00     0.157 A 
ATOM     16  C   UNL     1     345.161 166.011 183.226  1.00  0.00     0.062 A 
ATOM     17  C   UNL     1     345.207 164.612 183.269  1.00  0.00     0.158 A 
BRANCH  15  18
ATOM     18  O   UNL     1     344.014 162.492 183.681  1.00  0.00    -0.504 OA
ATOM     19  H   UNL     1     344.535 161.884 183.065  1.00  0.00     0.293 HD
ENDBRANCH  15  18
BRANCH  17  20
ATOM     20  O   UNL     1     346.420 163.991 182.962  1.00  0.00    -0.504 OA
ATOM     21  H   UNL     1     346.560 163.388 182.162  1.00  0.00     0.293 HD
ENDBRANCH  17  20
ENDBRANCH   1  12
BRANCH   2  22
ATOM     22  O   UNL     1     346.317 168.403 183.689  1.00  0.00    -0.502 OA
ATOM     23  H   UNL     1     347.090 168.897 184.117  1.00  0.00     0.293 HD
ENDBRANCH   2  22
BRANCH   6  24
ATOM     24  O   UNL     1     344.382 173.311 182.960  1.00  0.00    -0.507 OA
ATOM     25  H   UNL     1     345.113 173.274 182.265  1.00  0.00     0.293 HD
ENDBRANCH   6  24
BRANCH   8  26
ATOM     26  O   UNL     1     339.672 172.392 183.117  1.00  0.00    -0.508 OA
ATOM     27  H   UNL     1     339.061 172.200 182.333  1.00  0.00     0.293 HD
ENDBRANCH   8  26
TORSDOF 6
ENDMDL
MODEL 3
REMARK VINA RESULT:    -6.485      1.374      7.034
REMARK INTER + INTRA:          -8.128
REMARK INTER:                  -7.818
REMARK INTRA:                  -0.309
REMARK UNBOUND:                -0.316
REMARK SMILES O=c1c(O)c(-c2ccc(O)c(O)c2)oc2cc(O)cc(O)c12
REMARK SMILES IDX 5 1 3 2 2 3 1 4 22 5 20 6 19 7 17 8 16 9 15 10 14 11 6 12
REMARK SMILES IDX 7 13 8 14 9 15 13 16 11 17 10 18 12 20 4 22 21 24 18 26
REMARK H PARENT 10 19 12 21 4 23 21 25 18 27
REMARK Flexibility Score: inf
ROOT
ATOM      1  C   UNL     1     343.583 169.048 182.558  1.00  0.00     0.180 A 
ATOM      2  C   UNL     1     343.421 168.599 181.236  1.00  0.00     0.208 A 
ATOM      3  C   UNL     1     343.272 167.224 180.996  1.00  0.00     0.238 A 
ATOM      4  O   UNL     1     343.073 166.833 179.816  1.00  0.00    -0.285 OA
ATOM      5  C   UNL     1     343.306 166.313 182.079  1.00  0.00     0.111 A 
ATOM      6  C   UNL     1     343.206 164.894 181.949  1.00  0.00     0.134 A 
ATOM      7  C   UNL     1     343.119 164.100 183.099  1.00  0.00     0.093 A 
ATOM      8  C   UNL     1     343.194 164.666 184.374  1.00  0.00     0.123 A 
ATOM      9  C   UNL     1     343.352 166.044 184.510  1.00  0.00     0.094 A 
ATOM     10  C   UNL     1     343.405 166.866 183.382  1.00  0.00     0.146 A 
ATOM     11  O   UNL     1     343.545 168.175 183.557  1.00  0.00    -0.452 OA
ENDROOT
BRANCH   1  12
ATOM     12  C   UNL     1     343.770 170.480 182.886  1.00  0.00     0.025 A 
ATOM     13  C   UNL     1     345.044 171.053 182.772  1.00  0.00     0.016 A 
ATOM     14  C   UNL     1     345.238 172.406 183.057  1.00  0.00     0.051 A 
ATOM     15  C   UNL     1     344.166 173.215 183.445  1.00  0.00     0.157 A 
ATOM     16  C   UNL     1     342.686 171.294 183.254  1.00  0.00     0.062 A 
ATOM     17  C   UNL     1     342.871 172.653 183.539  1.00  0.00     0.158 A 
BRANCH  15  18
ATOM     18  O   UNL     1     344.428 174.558 183.724  1.00  0.00    -0.504 OA
ATOM     19  H   UNL     1     343.903 175.111 184.386  1.00  0.00     0.293 HD
ENDBRANCH  15  18
BRANCH  17  20
ATOM     20  O   UNL     1     341.749 173.401 183.901  1.00  0.00    -0.504 OA
ATOM     21  H   UNL     1     341.542 174.321 183.539  1.00  0.00     0.293 HD
ENDBRANCH  17  20
ENDBRANCH   1  12
BRANCH   2  22
ATOM     22  O   UNL     1     343.368 169.518 180.183  1.00  0.00    -0.502 OA
ATOM     23  H   UNL     1     343.949 169.433 179.358  1.00  0.00     0.293 HD
ENDBRANCH   2  22
BRANCH   6  24
ATOM     24  O   UNL     1     343.216 164.221 180.725  1.00  0.00    -0.507 OA
ATOM     25  H   UNL     1     342.720 164.521 179.899  1.00  0.00     0.293 HD
ENDBRANCH   6  24
BRANCH   8  26
ATOM     26  O   UNL     1     343.123 163.867 185.512  1.00  0.00    -0.508 OA
ATOM     27  H   UNL     1     342.482 163.085 185.571  1.00  0.00     0.293 HD
ENDBRANCH   8  26
TORSDOF 6
ENDMDL
MODEL 4
REMARK VINA RESULT:    -6.345      3.583      6.484
REMARK INTER + INTRA:          -7.959
REMARK INTER:                  -7.636
REMARK INTRA:                  -0.323
REMARK UNBOUND:                -0.316
REMARK SMILES O=c1c(O)c(-c2ccc(O)c(O)c2)oc2cc(O)cc(O)c12
REMARK SMILES IDX 5 1 3 2 2 3 1 4 22 5 20 6 19 7 17 8 16 9 15 10 14 11 6 12
REMARK SMILES IDX 7 13 8 14 9 15 13 16 11 17 10 18 12 20 4 22 21 24 18 26
REMARK H PARENT 10 19 12 21 4 23 21 25 18 27
REMARK Flexibility Score: inf
ROOT
ATOM      1  C   UNL     1     344.778 167.238 180.949  1.00  0.00     0.180 A 
ATOM      2  C   UNL     1     344.552 168.271 181.874  1.00  0.00     0.208 A 
ATOM      3  C   UNL     1     344.105 167.945 183.165  1.00  0.00     0.238 A 
ATOM      4  O   UNL     1     343.956 168.870 184.006  1.00  0.00    -0.285 OA
ATOM      5  C   UNL     1     343.873 166.591 183.508  1.00  0.00     0.111 A 
ATOM      6  C   UNL     1     343.381 166.148 184.773  1.00  0.00     0.134 A 
ATOM      7  C   UNL     1     343.315 164.776 185.046  1.00  0.00     0.093 A 
ATOM      8  C   UNL     1     343.660 163.830 184.077  1.00  0.00     0.123 A 
ATOM      9  C   UNL     1     344.085 164.253 182.819  1.00  0.00     0.094 A 
ATOM     10  C   UNL     1     344.196 165.615 182.529  1.00  0.00     0.146 A 
ATOM     11  O   UNL     1     344.615 165.974 181.322  1.00  0.00    -0.452 OA
ENDROOT
BRANCH   1  12
ATOM     12  C   UNL     1     345.226 167.506 179.563  1.00  0.00     0.025 A 
ATOM     13  C   UNL     1     344.273 167.757 178.566  1.00  0.00     0.016 A 
ATOM     14  C   UNL     1     344.674 168.033 177.258  1.00  0.00     0.051 A 
ATOM     15  C   UNL     1     346.031 168.079 176.921  1.00  0.00     0.157 A 
ATOM     16  C   UNL     1     346.590 167.574 179.234  1.00  0.00     0.062 A 
ATOM     17  C   UNL     1     347.002 167.852 177.925  1.00  0.00     0.158 A 
BRANCH  15  18
ATOM     18  O   UNL     1     346.366 168.351 175.594  1.00  0.00    -0.504 OA
ATOM     19  H   UNL     1     346.546 167.640 174.899  1.00  0.00     0.293 HD
ENDBRANCH  15  18
BRANCH  17  20
ATOM     20  O   UNL     1     348.375 167.900 177.670  1.00  0.00    -0.504 OA
ATOM     21  H   UNL     1     349.070 168.135 178.364  1.00  0.00     0.293 HD
ENDBRANCH  17  20
ENDBRANCH   1  12
BRANCH   2  22
ATOM     22  O   UNL     1     344.808 169.600 181.522  1.00  0.00    -0.502 OA
ATOM     23  H   UNL     1     345.045 169.876 180.577  1.00  0.00     0.293 HD
ENDBRANCH   2  22
BRANCH   6  24
ATOM     24  O   UNL     1     342.924 167.006 185.776  1.00  0.00    -0.507 OA
ATOM     25  H   UNL     1     342.051 167.512 185.746  1.00  0.00     0.293 HD
ENDBRANCH   6  24
BRANCH   8  26
ATOM     26  O   UNL     1     343.576 162.468 184.352  1.00  0.00    -0.508 OA
ATOM     27  H   UNL     1     344.390 161.932 184.628  1.00  0.00     0.293 HD
ENDBRANCH   8  26
TORSDOF 6
ENDMDL
MODEL 5
REMARK VINA RESULT:    -6.297      3.933      5.646
REMARK INTER + INTRA:          -7.902
REMARK INTER:                  -7.573
REMARK INTRA:                  -0.329
REMARK UNBOUND:                -0.316
REMARK SMILES O=c1c(O)c(-c2ccc(O)c(O)c2)oc2cc(O)cc(O)c12
REMARK SMILES IDX 5 1 3 2 2 3 1 4 22 5 20 6 19 7 17 8 16 9 15 10 14 11 6 12
REMARK SMILES IDX 7 13 8 14 9 15 13 16 11 17 10 18 12 20 4 22 21 24 18 26
REMARK H PARENT 10 19 12 21 4 23 21 25 18 27
REMARK Flexibility Score: inf
ROOT
ATOM      1  C   UNL     1     341.646 166.469 181.409  1.00  0.00     0.180 A 
ATOM      2  C   UNL     1     340.460 166.742 182.112  1.00  0.00     0.208 A 
ATOM      3  C   UNL     1     339.356 167.257 181.413  1.00  0.00     0.238 A 
ATOM      4  O   UNL     1     338.280 167.448 182.038  1.00  0.00    -0.285 OA
ATOM      5  C   UNL     1     339.458 167.508 180.023  1.00  0.00     0.111 A 
ATOM      6  C   UNL     1     338.417 168.066 179.222  1.00  0.00     0.134 A 
ATOM      7  C   UNL     1     338.582 168.148 177.834  1.00  0.00     0.093 A 
ATOM      8  C   UNL     1     339.776 167.754 177.226  1.00  0.00     0.123 A 
ATOM      9  C   UNL     1     340.820 167.264 178.006  1.00  0.00     0.094 A 
ATOM     10  C   UNL     1     340.672 167.135 179.390  1.00  0.00     0.146 A 
ATOM     11  O   UNL     1     341.688 166.654 180.095  1.00  0.00    -0.452 OA
ENDROOT
BRANCH   1  12
ATOM     12  C   UNL     1     342.858 165.949 182.082  1.00  0.00     0.025 A 
ATOM     13  C   UNL     1     343.053 164.564 182.179  1.00  0.00     0.016 A 
ATOM     14  C   UNL     1     344.198 164.053 182.791  1.00  0.00     0.051 A 
ATOM     15  C   UNL     1     345.177 164.910 183.303  1.00  0.00     0.157 A 
ATOM     16  C   UNL     1     343.849 166.814 182.575  1.00  0.00     0.062 A 
ATOM     17  C   UNL     1     345.004 166.309 183.188  1.00  0.00     0.158 A 
BRANCH  15  18
ATOM     18  O   UNL     1     346.296 164.335 183.911  1.00  0.00    -0.504 OA
ATOM     19  H   UNL     1     346.451 164.319 184.909  1.00  0.00     0.293 HD
ENDBRANCH  15  18
BRANCH  17  20
ATOM     20  O   UNL     1     345.946 167.227 183.658  1.00  0.00    -0.504 OA
ATOM     21  H   UNL     1     346.808 167.447 183.179  1.00  0.00     0.293 HD
ENDBRANCH  17  20
ENDBRANCH   1  12
BRANCH   2  22
ATOM     22  O   UNL     1     340.374 166.467 183.480  1.00  0.00    -0.502 OA
ATOM     23  H   UNL     1     340.764 165.628 183.892  1.00  0.00     0.293 HD
ENDBRANCH   2  22
BRANCH   6  24
ATOM     24  O   UNL     1     337.222 168.575 179.739  1.00  0.00    -0.507 OA
ATOM     25  H   UNL     1     337.130 169.025 180.637  1.00  0.00     0.293 HD
ENDBRANCH   6  24
BRANCH   8  26
ATOM     26  O   UNL     1     339.938 167.854 175.846  1.00  0.00    -0.508 OA
ATOM     27  H   UNL     1     340.717 168.357 175.439  1.00  0.00     0.293 HD
ENDBRANCH   8  26
TORSDOF 6
ENDMDL
MODEL 6
REMARK VINA RESULT:    -6.251      3.891      6.252
REMARK INTER + INTRA:          -7.846
REMARK INTER:                  -7.574
REMARK INTRA:                  -0.272
REMARK UNBOUND:                -0.316
REMARK SMILES O=c1c(O)c(-c2ccc(O)c(O)c2)oc2cc(O)cc(O)c12
REMARK SMILES IDX 5 1 3 2 2 3 1 4 22 5 20 6 19 7 17 8 16 9 15 10 14 11 6 12
REMARK SMILES IDX 7 13 8 14 9 15 13 16 11 17 10 18 12 20 4 22 21 24 18 26
REMARK H PARENT 10 19 12 21 4 23 21 25 18 27
REMARK Flexibility Score: inf
ROOT
ATOM      1  C   UNL     1     343.665 167.074 180.936  1.00  0.00     0.180 A 
ATOM      2  C   UNL     1     344.993 166.730 180.629  1.00  0.00     0.208 A 
ATOM      3  C   UNL     1     345.448 166.879 179.309  1.00  0.00     0.238 A 
ATOM      4  O   UNL     1     346.653 166.621 179.053  1.00  0.00    -0.285 OA
ATOM      5  C   UNL     1     344.565 167.353 178.309  1.00  0.00     0.111 A 
ATOM      6  C   UNL     1     344.907 167.505 176.932  1.00  0.00     0.134 A 
ATOM      7  C   UNL     1     343.996 168.107 176.056  1.00  0.00     0.093 A 
ATOM      8  C   UNL     1     342.729 168.503 176.494  1.00  0.00     0.123 A 
ATOM      9  C   UNL     1     342.364 168.304 177.823  1.00  0.00     0.094 A 
ATOM     10  C   UNL     1     343.266 167.740 178.729  1.00  0.00     0.146 A 
ATOM     11  O   UNL     1     342.881 167.578 179.989  1.00  0.00    -0.452 OA
ENDROOT
BRANCH   1  12
ATOM     12  C   UNL     1     343.106 166.921 182.299  1.00  0.00     0.025 A 
ATOM     13  C   UNL     1     342.296 165.816 182.592  1.00  0.00     0.016 A 
ATOM     14  C   UNL     1     341.777 165.641 183.876  1.00  0.00     0.051 A 
ATOM     15  C   UNL     1     342.065 166.556 184.894  1.00  0.00     0.157 A 
ATOM     16  C   UNL     1     343.418 167.831 183.324  1.00  0.00     0.062 A 
ATOM     17  C   UNL     1     342.903 167.662 184.616  1.00  0.00     0.158 A 
BRANCH  15  18
ATOM     18  O   UNL     1     341.508 166.329 186.153  1.00  0.00    -0.504 OA
ATOM     19  H   UNL     1     341.366 165.412 186.552  1.00  0.00     0.293 HD
ENDBRANCH  15  18
BRANCH  17  20
ATOM     20  O   UNL     1     343.252 168.606 185.584  1.00  0.00    -0.504 OA
ATOM     21  H   UNL     1     342.898 169.553 185.603  1.00  0.00     0.293 HD
ENDBRANCH  17  20
ENDBRANCH   1  12
BRANCH   2  22
ATOM     22  O   UNL     1     345.854 166.285 181.636  1.00  0.00    -0.502 OA
ATOM     23  H   UNL     1     346.828 166.557 181.679  1.00  0.00     0.293 HD
ENDBRANCH   2  22
BRANCH   6  24
ATOM     24  O   UNL     1     346.108 167.060 176.373  1.00  0.00    -0.507 OA
ATOM     25  H   UNL     1     346.791 167.655 175.928  1.00  0.00     0.293 HD
ENDBRANCH   6  24
BRANCH   8  26
ATOM     26  O   UNL     1     341.822 169.086 175.612  1.00  0.00    -0.508 OA
ATOM     27  H   UNL     1     341.846 168.888 174.619  1.00  0.00     0.293 HD
ENDBRANCH   8  26
TORSDOF 6
ENDMDL
MODEL 7
REMARK VINA RESULT:    -6.181      1.896      2.000
REMARK INTER + INTRA:          -7.761
REMARK INTER:                  -7.747
REMARK INTRA:                  -0.015
REMARK UNBOUND:                -0.316
REMARK SMILES O=c1c(O)c(-c2ccc(O)c(O)c2)oc2cc(O)cc(O)c12
REMARK SMILES IDX 5 1 3 2 2 3 1 4 22 5 20 6 19 7 17 8 16 9 15 10 14 11 6 12
REMARK SMILES IDX 7 13 8 14 9 15 13 16 11 17 10 18 12 20 4 22 21 24 18 26
REMARK H PARENT 10 19 12 21 4 23 21 25 18 27
REMARK Flexibility Score: inf
ROOT
ATOM      1  C   UNL     1     343.860 167.980 182.563  1.00  0.00     0.180 A 
ATOM      2  C   UNL     1     342.984 168.454 181.572  1.00  0.00     0.208 A 
ATOM      3  C   UNL     1     342.973 169.825 181.271  1.00  0.00     0.238 A 
ATOM      4  O   UNL     1     342.226 170.235 180.344  1.00  0.00    -0.285 OA
ATOM      5  C   UNL     1     343.826 170.708 181.976  1.00  0.00     0.111 A 
ATOM      6  C   UNL     1     343.870 172.121 181.782  1.00  0.00     0.134 A 
ATOM      7  C   UNL     1     344.845 172.879 182.442  1.00  0.00     0.093 A 
ATOM      8  C   UNL     1     345.735 172.284 183.339  1.00  0.00     0.123 A 
ATOM      9  C   UNL     1     345.661 170.914 183.581  1.00  0.00     0.094 A 
ATOM     10  C   UNL     1     344.723 170.126 182.910  1.00  0.00     0.146 A 
ATOM     11  O   UNL     1     344.693 168.823 183.161  1.00  0.00    -0.452 OA
ENDROOT
BRANCH   1  12
ATOM     12  C   UNL     1     343.910 166.552 182.953  1.00  0.00     0.025 A 
ATOM     13  C   UNL     1     342.725 165.891 183.305  1.00  0.00     0.016 A 
ATOM     14  C   UNL     1     342.747 164.540 183.655  1.00  0.00     0.051 A 
ATOM     15  C   UNL     1     343.945 163.819 183.647  1.00  0.00     0.157 A 
ATOM     16  C   UNL     1     345.112 165.826 182.922  1.00  0.00     0.062 A 
ATOM     17  C   UNL     1     345.143 164.470 183.269  1.00  0.00     0.158 A 
BRANCH  15  18
ATOM     18  O   UNL     1     343.900 162.473 184.016  1.00  0.00    -0.504 OA
ATOM     19  H   UNL     1     343.098 161.876 183.877  1.00  0.00     0.293 HD
ENDBRANCH  15  18
BRANCH  17  20
ATOM     20  O   UNL     1     346.374 163.812 183.218  1.00  0.00    -0.504 OA
ATOM     21  H   UNL     1     346.926 163.581 184.033  1.00  0.00     0.293 HD
ENDBRANCH  17  20
ENDBRANCH   1  12
BRANCH   2  22
ATOM     22  O   UNL     1     342.165 167.562 180.871  1.00  0.00    -0.502 OA
ATOM     23  H   UNL     1     341.658 167.830 180.037  1.00  0.00     0.293 HD
ENDBRANCH   2  22
BRANCH   6  24
ATOM     24  O   UNL     1     342.969 172.827 180.980  1.00  0.00    -0.507 OA
ATOM     25  H   UNL     1     342.537 172.463 180.143  1.00  0.00     0.293 HD
ENDBRANCH   6  24
BRANCH   8  26
ATOM     26  O   UNL     1     346.692 173.048 184.004  1.00  0.00    -0.508 OA
ATOM     27  H   UNL     1     347.627 173.166 183.633  1.00  0.00     0.293 HD
ENDBRANCH   8  26
TORSDOF 6
ENDMDL
MODEL 8
REMARK VINA RESULT:    -6.171      3.434      6.415
REMARK INTER + INTRA:          -7.750
REMARK INTER:                  -7.436
REMARK INTRA:                  -0.314
REMARK UNBOUND:                -0.316
REMARK SMILES O=c1c(O)c(-c2ccc(O)c(O)c2)oc2cc(O)cc(O)c12
REMARK SMILES IDX 5 1 3 2 2 3 1 4 22 5 20 6 19 7 17 8 16 9 15 10 14 11 6 12
REMARK SMILES IDX 7 13 8 14 9 15 13 16 11 17 10 18 12 20 4 22 21 24 18 26
REMARK H PARENT 10 19 12 21 4 23 21 25 18 27
REMARK Flexibility Score: inf
ROOT
ATOM      1  C   UNL     1     342.308 167.150 180.649  1.00  0.00     0.180 A 
ATOM      2  C   UNL     1     341.868 168.045 181.640  1.00  0.00     0.208 A 
ATOM      3  C   UNL     1     341.888 167.639 182.984  1.00  0.00     0.238 A 
ATOM      4  O   UNL     1     341.545 168.464 183.870  1.00  0.00    -0.285 OA
ATOM      5  C   UNL     1     342.331 166.336 183.318  1.00  0.00     0.111 A 
ATOM      6  C   UNL     1     342.356 165.804 184.643  1.00  0.00     0.134 A 
ATOM      7  C   UNL     1     342.937 164.551 184.873  1.00  0.00     0.093 A 
ATOM      8  C   UNL     1     343.435 163.783 183.817  1.00  0.00     0.123 A 
ATOM      9  C   UNL     1     343.361 164.268 182.514  1.00  0.00     0.094 A 
ATOM     10  C   UNL     1     342.821 165.531 182.257  1.00  0.00     0.146 A 
ATOM     11  O   UNL     1     342.779 165.959 181.002  1.00  0.00    -0.452 OA
ENDROOT
BRANCH   1  12
ATOM     12  C   UNL     1     342.293 167.498 179.210  1.00  0.00     0.025 A 
ATOM     13  C   UNL     1     343.488 167.866 178.577  1.00  0.00     0.016 A 
ATOM     14  C   UNL     1     343.500 168.178 177.216  1.00  0.00     0.051 A 
ATOM     15  C   UNL     1     342.326 168.116 176.459  1.00  0.00     0.157 A 
ATOM     16  C   UNL     1     341.115 167.412 178.449  1.00  0.00     0.062 A 
ATOM     17  C   UNL     1     341.118 167.721 177.082  1.00  0.00     0.158 A 
BRANCH  15  18
ATOM     18  O   UNL     1     342.403 168.448 175.105  1.00  0.00    -0.504 OA
ATOM     19  H   UNL     1     341.635 168.354 174.455  1.00  0.00     0.293 HD
ENDBRANCH  15  18
BRANCH  17  20
ATOM     20  O   UNL     1     339.910 167.617 176.388  1.00  0.00    -0.504 OA
ATOM     21  H   UNL     1     339.008 167.832 176.789  1.00  0.00     0.293 HD
ENDBRANCH  17  20
ENDBRANCH   1  12
BRANCH   2  22
ATOM     22  O   UNL     1     341.456 169.334 181.290  1.00  0.00    -0.502 OA
ATOM     23  H   UNL     1     341.126 169.567 180.361  1.00  0.00     0.293 HD
ENDBRANCH   2  22
BRANCH   6  24
ATOM     24  O   UNL     1     341.803 166.449 185.753  1.00  0.00    -0.507 OA
ATOM     25  H   UNL     1     342.204 167.254 186.209  1.00  0.00     0.293 HD
ENDBRANCH   6  24
BRANCH   8  26
ATOM     26  O   UNL     1     343.997 162.530 184.054  1.00  0.00    -0.508 OA
ATOM     27  H   UNL     1     343.457 161.680 183.956  1.00  0.00     0.293 HD
ENDBRANCH   8  26
TORSDOF 6
ENDMDL
MODEL 9
REMARK VINA RESULT:    -6.148      2.938      4.742
REMARK INTER + INTRA:          -7.722
REMARK INTER:                  -7.461
REMARK INTRA:                  -0.261
REMARK UNBOUND:                -0.316
REMARK SMILES O=c1c(O)c(-c2ccc(O)c(O)c2)oc2cc(O)cc(O)c12
REMARK SMILES IDX 5 1 3 2 2 3 1 4 22 5 20 6 19 7 17 8 16 9 15 10 14 11 6 12
REMARK SMILES IDX 7 13 8 14 9 15 13 16 11 17 10 18 12 20 4 22 21 24 18 26
REMARK H PARENT 10 19 12 21 4 23 21 25 18 27
REMARK Flexibility Score: inf
ROOT
ATOM      1  C   UNL     1     342.060 167.232 182.406  1.00  0.00     0.180 A 
ATOM      2  C   UNL     1     341.911 168.394 183.182  1.00  0.00     0.208 A 
ATOM      3  C   UNL     1     340.878 169.293 182.871  1.00  0.00     0.238 A 
ATOM      4  O   UNL     1     340.716 170.304 183.604  1.00  0.00    -0.285 OA
ATOM      5  C   UNL     1     340.018 169.027 181.778  1.00  0.00     0.111 A 
ATOM      6  C   UNL     1     338.964 169.889 181.348  1.00  0.00     0.134 A 
ATOM      7  C   UNL     1     338.094 169.463 180.337  1.00  0.00     0.093 A 
ATOM      8  C   UNL     1     338.279 168.236 179.695  1.00  0.00     0.123 A 
ATOM      9  C   UNL     1     339.341 167.415 180.068  1.00  0.00     0.094 A 
ATOM     10  C   UNL     1     340.204 167.796 181.098  1.00  0.00     0.146 A 
ATOM     11  O   UNL     1     341.197 166.979 181.428  1.00  0.00    -0.452 OA
ENDROOT
BRANCH   1  12
ATOM     12  C   UNL     1     343.140 166.250 182.657  1.00  0.00     0.025 A 
ATOM     13  C   UNL     1     344.457 166.566 182.296  1.00  0.00     0.016 A 
ATOM     14  C   UNL     1     345.493 165.663 182.543  1.00  0.00     0.051 A 
ATOM     15  C   UNL     1     345.239 164.438 183.167  1.00  0.00     0.157 A 
ATOM     16  C   UNL     1     342.883 165.030 183.304  1.00  0.00     0.062 A 
ATOM     17  C   UNL     1     343.917 164.119 183.559  1.00  0.00     0.158 A 
BRANCH  15  18
ATOM     18  O   UNL     1     346.317 163.577 183.378  1.00  0.00    -0.504 OA
ATOM     19  H   UNL     1     346.950 163.274 182.651  1.00  0.00     0.293 HD
ENDBRANCH  15  18
BRANCH  17  20
ATOM     20  O   UNL     1     343.589 162.924 184.203  1.00  0.00    -0.504 OA
ATOM     21  H   UNL     1     343.999 162.623 185.077  1.00  0.00     0.293 HD
ENDBRANCH  17  20
ENDBRANCH   1  12
BRANCH   2  22
ATOM     22  O   UNL     1     342.756 168.626 184.271  1.00  0.00    -0.502 OA
ATOM     23  H   UNL     1     343.092 169.550 184.512  1.00  0.00     0.293 HD
ENDBRANCH   2  22
BRANCH   6  24
ATOM     24  O   UNL     1     338.748 171.172 181.858  1.00  0.00    -0.507 OA
ATOM     25  H   UNL     1     339.474 171.849 182.038  1.00  0.00     0.293 HD
ENDBRANCH   6  24
BRANCH   8  26
ATOM     26  O   UNL     1     337.418 167.827 178.680  1.00  0.00    -0.508 OA
ATOM     27  H   UNL     1     336.792 167.041 178.800  1.00  0.00     0.293 HD
ENDBRANCH   8  26
TORSDOF 6
ENDMDL
