MODEL 1
REMARK VINA RESULT:    -4.433      0.000      0.000
REMARK INTER + INTRA:         -10.942
REMARK INTER:                  -8.580
REMARK INTRA:                  -2.362
REMARK UNBOUND:                -2.362
REMARK SMILES CCCCCCCCCCCCCCCCCC(=O)[O-]
REMARK SMILES IDX 10 1 11 2 12 3 13 4 14 5 15 6 16 7 17 8 18 9 19 10 20 11
REMARK SMILES IDX 9 12 8 13 7 14 6 15 5 16 4 17 3 18 2 19 1 20
REMARK H PARENT
REMARK Flexibility Score: inf
ROOT
ATOM      1  C   UNL     1     -52.642  10.480 -29.839  1.00  0.00     0.000 C 
ENDROOT
BRANCH   1   2
ATOM      2  C   UNL     1     -52.562  11.946 -30.314  1.00  0.00     0.000 C 
BRANCH   2   3
ATOM      3  C   UNL     1     -51.883  12.864 -29.283  1.00  0.00     0.000 C 
BRANCH   3   4
ATOM      4  C   UNL     1     -50.772  13.735 -29.910  1.00  0.00     0.000 C 
BRANCH   4   5
ATOM      5  C   UNL     1     -49.359  13.140 -29.760  1.00  0.00     0.000 C 
BRANCH   5   6
ATOM      6  C   UNL     1     -49.290  11.806 -28.997  1.00  0.00     0.000 C 
BRANCH   6   7
ATOM      7  C   UNL     1     -48.019  10.968 -29.247  1.00  0.00     0.006 C 
BRANCH   7   8
ATOM      8  C   UNL     1     -48.299   9.527 -29.710  1.00  0.00     0.053 C 
BRANCH   8   9
ATOM      9  C   UNL     1     -47.067   8.829 -30.201  1.00  0.00     0.041 C 
ATOM     10  O   UNL     1     -46.809   8.785 -31.433  1.00  0.00    -0.550 OA
ATOM     11  O   UNL     1     -46.180   8.261 -29.294  1.00  0.00    -0.550 OA
ENDBRANCH   8   9
ENDBRANCH   7   8
ENDBRANCH   6   7
ENDBRANCH   5   6
ENDBRANCH   4   5
ENDBRANCH   3   4
ENDBRANCH   2   3
ENDBRANCH   1   2
BRANCH   1  12
ATOM     12  C   UNL     1     -52.173   9.460 -30.894  1.00  0.00     0.000 C 
BRANCH  12  13
ATOM     13  C   UNL     1     -51.551  10.078 -32.160  1.00  0.00    -0.000 C 
BRANCH  13  14
ATOM     14  C   UNL     1     -50.284   9.368 -32.681  1.00  0.00    -0.000 C 
BRANCH  14  15
ATOM     15  C   UNL     1     -50.113   7.913 -32.209  1.00  0.00    -0.000 C 
BRANCH  15  16
ATOM     16  C   UNL     1     -49.722   6.958 -33.349  1.00  0.00    -0.000 C 
BRANCH  16  17
ATOM     17  C   UNL     1     -50.940   6.276 -33.990  1.00  0.00    -0.000 C 
BRANCH  17  18
ATOM     18  C   UNL     1     -52.013   5.892 -32.955  1.00  0.00    -0.000 C 
BRANCH  18  19
ATOM     19  C   UNL     1     -53.388   6.497 -33.281  1.00  0.00    -0.003 C 
ATOM     20  C   UNL     1     -53.333   7.500 -34.433  1.00  0.00     0.004 C 
ENDBRANCH  18  19
ENDBRANCH  17  18
ENDBRANCH  16  17
ENDBRANCH  15  16
ENDBRANCH  14  15
ENDBRANCH  13  14
ENDBRANCH  12  13
ENDBRANCH   1  12
TORSDOF 16
ENDMDL
MODEL 2
REMARK VINA RESULT:    -4.325      3.369      4.964
REMARK INTER + INTRA:         -10.732
REMARK INTER:                  -8.368
REMARK INTRA:                  -2.363
REMARK UNBOUND:                -2.362
REMARK SMILES CCCCCCCCCCCCCCCCCC(=O)[O-]
REMARK SMILES IDX 10 1 11 2 12 3 13 4 14 5 15 6 16 7 17 8 18 9 19 10 20 11
REMARK SMILES IDX 9 12 8 13 7 14 6 15 5 16 4 17 3 18 2 19 1 20
REMARK H PARENT
REMARK Flexibility Score: inf
ROOT
ATOM      1  C   UNL     1     -49.441  10.052 -31.789  1.00  0.00     0.000 C 
ENDROOT
BRANCH   1   2
ATOM      2  C   UNL     1     -49.292   9.654 -30.305  1.00  0.00     0.000 C 
BRANCH   2   3
ATOM      3  C   UNL     1     -48.357  10.599 -29.533  1.00  0.00     0.000 C 
BRANCH   3   4
ATOM      4  C   UNL     1     -49.117  11.766 -28.865  1.00  0.00     0.000 C 
BRANCH   4   5
ATOM      5  C   UNL     1     -49.255  13.011 -29.762  1.00  0.00     0.000 C 
BRANCH   5   6
ATOM      6  C   UNL     1     -50.700  13.481 -30.006  1.00  0.00     0.000 C 
BRANCH   6   7
ATOM      7  C   UNL     1     -50.951  14.157 -31.369  1.00  0.00     0.006 C 
BRANCH   7   8
ATOM      8  C   UNL     1     -50.388  15.586 -31.475  1.00  0.00     0.053 C 
BRANCH   8   9
ATOM      9  C   UNL     1     -51.339  16.622 -30.956  1.00  0.00     0.041 C 
ATOM     10  O   UNL     1     -50.935  17.787 -30.703  1.00  0.00    -0.550 OA
ATOM     11  O   UNL     1     -52.684  16.311 -30.790  1.00  0.00    -0.550 OA
ENDBRANCH   8   9
ENDBRANCH   7   8
ENDBRANCH   6   7
ENDBRANCH   5   6
ENDBRANCH   4   5
ENDBRANCH   3   4
ENDBRANCH   2   3
ENDBRANCH   1   2
BRANCH   1  12
ATOM     12  C   UNL     1     -50.905  10.206 -32.245  1.00  0.00     0.000 C 
BRANCH  12  13
ATOM     13  C   UNL     1     -51.948   9.589 -31.294  1.00  0.00    -0.000 C 
BRANCH  13  14
ATOM     14  C   UNL     1     -52.816   8.471 -31.910  1.00  0.00    -0.000 C 
BRANCH  14  15
ATOM     15  C   UNL     1     -52.825   8.429 -33.448  1.00  0.00    -0.000 C 
BRANCH  15  16
ATOM     16  C   UNL     1     -52.844   6.996 -34.006  1.00  0.00    -0.000 C 
BRANCH  16  17
ATOM     17  C   UNL     1     -51.725   6.121 -33.420  1.00  0.00    -0.000 C 
BRANCH  17  18
ATOM     18  C   UNL     1     -50.322   6.641 -33.779  1.00  0.00    -0.000 C 
BRANCH  18  19
ATOM     19  C   UNL     1     -49.369   6.644 -32.574  1.00  0.00    -0.003 C 
ATOM     20  C   UNL     1     -50.035   6.139 -31.294  1.00  0.00     0.004 C 
ENDBRANCH  18  19
ENDBRANCH  17  18
ENDBRANCH  16  17
ENDBRANCH  15  16
ENDBRANCH  14  15
ENDBRANCH  13  14
ENDBRANCH  12  13
ENDBRANCH   1  12
TORSDOF 16
ENDMDL
MODEL 3
REMARK VINA RESULT:    -4.304      3.715      5.599
REMARK INTER + INTRA:         -10.692
REMARK INTER:                  -8.758
REMARK INTRA:                  -1.934
REMARK UNBOUND:                -2.362
REMARK SMILES CCCCCCCCCCCCCCCCCC(=O)[O-]
REMARK SMILES IDX 10 1 11 2 12 3 13 4 14 5 15 6 16 7 17 8 18 9 19 10 20 11
REMARK SMILES IDX 9 12 8 13 7 14 6 15 5 16 4 17 3 18 2 19 1 20
REMARK H PARENT
REMARK Flexibility Score: inf
ROOT
ATOM      1  C   UNL     1     -48.637  10.011 -29.637  1.00  0.00     0.000 C 
ENDROOT
BRANCH   1   2
ATOM      2  C   UNL     1     -48.510  11.325 -28.835  1.00  0.00     0.000 C 
BRANCH   2   3
ATOM      3  C   UNL     1     -49.580  12.358 -29.225  1.00  0.00     0.000 C 
BRANCH   3   4
ATOM      4  C   UNL     1     -49.553  12.694 -30.733  1.00  0.00     0.000 C 
BRANCH   4   5
ATOM      5  C   UNL     1     -49.938  14.152 -31.051  1.00  0.00     0.000 C 
BRANCH   5   6
ATOM      6  C   UNL     1     -51.409  14.366 -31.447  1.00  0.00     0.000 C 
BRANCH   6   7
ATOM      7  C   UNL     1     -52.288  15.046 -30.378  1.00  0.00     0.006 C 
BRANCH   7   8
ATOM      8  C   UNL     1     -52.638  16.512 -30.694  1.00  0.00     0.053 C 
BRANCH   8   9
ATOM      9  C   UNL     1     -51.726  17.485 -30.008  1.00  0.00     0.041 C 
ATOM     10  O   UNL     1     -50.745  17.980 -30.623  1.00  0.00    -0.550 OA
ATOM     11  O   UNL     1     -51.984  17.876 -28.700  1.00  0.00    -0.550 OA
ENDBRANCH   8   9
ENDBRANCH   7   8
ENDBRANCH   6   7
ENDBRANCH   5   6
ENDBRANCH   4   5
ENDBRANCH   3   4
ENDBRANCH   2   3
ENDBRANCH   1   2
BRANCH   1  12
ATOM     12  C   UNL     1     -47.312   9.238 -29.771  1.00  0.00     0.000 C 
BRANCH  12  13
ATOM     13  C   UNL     1     -46.950   8.817 -31.208  1.00  0.00    -0.000 C 
BRANCH  13  14
ATOM     14  C   UNL     1     -47.543   7.467 -31.664  1.00  0.00    -0.000 C 
BRANCH  14  15
ATOM     15  C   UNL     1     -48.441   7.539 -32.911  1.00  0.00    -0.000 C 
BRANCH  15  16
ATOM     16  C   UNL     1     -49.864   8.029 -32.595  1.00  0.00    -0.000 C 
BRANCH  16  17
ATOM     17  C   UNL     1     -50.056   9.521 -32.906  1.00  0.00    -0.000 C 
BRANCH  17  18
ATOM     18  C   UNL     1     -51.474  10.015 -32.571  1.00  0.00    -0.000 C 
BRANCH  18  19
ATOM     19  C   UNL     1     -52.118   9.222 -31.422  1.00  0.00    -0.003 C 
ATOM     20  C   UNL     1     -52.323  10.067 -30.165  1.00  0.00     0.004 C 
ENDBRANCH  18  19
ENDBRANCH  17  18
ENDBRANCH  16  17
ENDBRANCH  15  16
ENDBRANCH  14  15
ENDBRANCH  13  14
ENDBRANCH  12  13
ENDBRANCH   1  12
TORSDOF 16
ENDMDL
MODEL 4
REMARK VINA RESULT:    -4.289     15.593     18.140
REMARK INTER + INTRA:         -10.664
REMARK INTER:                  -8.342
REMARK INTRA:                  -2.321
REMARK UNBOUND:                -2.362
REMARK SMILES CCCCCCCCCCCCCCCCCC(=O)[O-]
REMARK SMILES IDX 10 1 11 2 12 3 13 4 14 5 15 6 16 7 17 8 18 9 19 10 20 11
REMARK SMILES IDX 9 12 8 13 7 14 6 15 5 16 4 17 3 18 2 19 1 20
REMARK H PARENT
REMARK Flexibility Score: inf
ROOT
ATOM      1  C   UNL     1     -37.019  18.707 -28.073  1.00  0.00     0.000 C 
ENDROOT
BRANCH   1   2
ATOM      2  C   UNL     1     -35.758  19.560 -28.325  1.00  0.00     0.000 C 
BRANCH   2   3
ATOM      3  C   UNL     1     -34.627  18.758 -28.990  1.00  0.00     0.000 C 
BRANCH   3   4
ATOM      4  C   UNL     1     -34.247  19.316 -30.380  1.00  0.00     0.000 C 
BRANCH   4   5
ATOM      5  C   UNL     1     -34.059  20.845 -30.404  1.00  0.00     0.000 C 
BRANCH   5   6
ATOM      6  C   UNL     1     -35.074  21.613 -31.269  1.00  0.00     0.000 C 
BRANCH   6   7
ATOM      7  C   UNL     1     -35.423  23.031 -30.772  1.00  0.00     0.006 C 
BRANCH   7   8
ATOM      8  C   UNL     1     -34.669  23.453 -29.499  1.00  0.00     0.053 C 
BRANCH   8   9
ATOM      9  C   UNL     1     -35.502  23.309 -28.260  1.00  0.00     0.041 C 
ATOM     10  O   UNL     1     -34.974  23.419 -27.122  1.00  0.00    -0.550 OA
ATOM     11  O   UNL     1     -36.871  23.095 -28.363  1.00  0.00    -0.550 OA
ENDBRANCH   8   9
ENDBRANCH   7   8
ENDBRANCH   6   7
ENDBRANCH   5   6
ENDBRANCH   4   5
ENDBRANCH   3   4
ENDBRANCH   2   3
ENDBRANCH   1   2
BRANCH   1  12
ATOM     12  C   UNL     1     -37.040  17.385 -28.862  1.00  0.00     0.000 C 
BRANCH  12  13
ATOM     13  C   UNL     1     -37.622  17.488 -30.284  1.00  0.00    -0.000 C 
BRANCH  13  14
ATOM     14  C   UNL     1     -38.744  18.534 -30.459  1.00  0.00    -0.000 C 
BRANCH  14  15
ATOM     15  C   UNL     1     -38.423  19.674 -31.441  1.00  0.00    -0.000 C 
BRANCH  15  16
ATOM     16  C   UNL     1     -38.596  21.068 -30.815  1.00  0.00    -0.000 C 
BRANCH  16  17
ATOM     17  C   UNL     1     -39.447  21.038 -29.537  1.00  0.00    -0.000 C 
BRANCH  17  18
ATOM     18  C   UNL     1     -40.255  22.332 -29.336  1.00  0.00    -0.000 C 
BRANCH  18  19
ATOM     19  C   UNL     1     -41.202  22.623 -30.511  1.00  0.00    -0.003 C 
ATOM     20  C   UNL     1     -42.437  23.419 -30.090  1.00  0.00     0.004 C 
ENDBRANCH  18  19
ENDBRANCH  17  18
ENDBRANCH  16  17
ENDBRANCH  15  16
ENDBRANCH  14  15
ENDBRANCH  13  14
ENDBRANCH  12  13
ENDBRANCH   1  12
TORSDOF 16
ENDMDL
MODEL 5
REMARK VINA RESULT:    -4.249      3.119      5.160
REMARK INTER + INTRA:         -10.585
REMARK INTER:                  -8.277
REMARK INTRA:                  -2.308
REMARK UNBOUND:                -2.362
REMARK SMILES CCCCCCCCCCCCCCCCCC(=O)[O-]
REMARK SMILES IDX 10 1 11 2 12 3 13 4 14 5 15 6 16 7 17 8 18 9 19 10 20 11
REMARK SMILES IDX 9 12 8 13 7 14 6 15 5 16 4 17 3 18 2 19 1 20
REMARK H PARENT
REMARK Flexibility Score: inf
ROOT
ATOM      1  C   UNL     1     -48.015  10.015 -30.057  1.00  0.00     0.000 C 
ENDROOT
BRANCH   1   2
ATOM      2  C   UNL     1     -48.325  10.749 -28.734  1.00  0.00     0.000 C 
BRANCH   2   3
ATOM      3  C   UNL     1     -49.230  11.975 -28.938  1.00  0.00     0.000 C 
BRANCH   3   4
ATOM      4  C   UNL     1     -49.631  12.172 -30.417  1.00  0.00     0.000 C 
BRANCH   4   5
ATOM      5  C   UNL     1     -51.147  12.348 -30.630  1.00  0.00     0.000 C 
BRANCH   5   6
ATOM      6  C   UNL     1     -51.906  12.956 -29.437  1.00  0.00     0.000 C 
BRANCH   6   7
ATOM      7  C   UNL     1     -51.961  14.496 -29.406  1.00  0.00     0.006 C 
BRANCH   7   8
ATOM      8  C   UNL     1     -52.273  15.141 -30.768  1.00  0.00     0.053 C 
BRANCH   8   9
ATOM      9  C   UNL     1     -51.144  15.982 -31.283  1.00  0.00     0.041 C 
ATOM     10  O   UNL     1     -50.340  15.517 -32.133  1.00  0.00    -0.550 OA
ATOM     11  O   UNL     1     -51.003  17.296 -30.853  1.00  0.00    -0.550 OA
ENDBRANCH   8   9
ENDBRANCH   7   8
ENDBRANCH   6   7
ENDBRANCH   5   6
ENDBRANCH   4   5
ENDBRANCH   3   4
ENDBRANCH   2   3
ENDBRANCH   1   2
BRANCH   1  12
ATOM     12  C   UNL     1     -46.739   9.153 -30.003  1.00  0.00     0.000 C 
BRANCH  12  13
ATOM     13  C   UNL     1     -46.986   7.639 -29.871  1.00  0.00    -0.000 C 
BRANCH  13  14
ATOM     14  C   UNL     1     -47.349   6.917 -31.187  1.00  0.00    -0.000 C 
BRANCH  14  15
ATOM     15  C   UNL     1     -48.716   6.211 -31.185  1.00  0.00    -0.000 C 
BRANCH  15  16
ATOM     16  C   UNL     1     -49.621   6.664 -30.026  1.00  0.00    -0.000 C 
BRANCH  16  17
ATOM     17  C   UNL     1     -50.720   7.635 -30.483  1.00  0.00    -0.000 C 
BRANCH  17  18
ATOM     18  C   UNL     1     -50.822   7.729 -32.016  1.00  0.00    -0.000 C 
BRANCH  18  19
ATOM     19  C   UNL     1     -50.621   9.163 -32.531  1.00  0.00    -0.003 C 
ATOM     20  C   UNL     1     -49.267   9.360 -33.213  1.00  0.00     0.004 C 
ENDBRANCH  18  19
ENDBRANCH  17  18
ENDBRANCH  16  17
ENDBRANCH  15  16
ENDBRANCH  14  15
ENDBRANCH  13  14
ENDBRANCH  12  13
ENDBRANCH   1  12
TORSDOF 16
ENDMDL
MODEL 6
REMARK VINA RESULT:    -4.233      3.518      5.152
REMARK INTER + INTRA:         -10.554
REMARK INTER:                  -8.733
REMARK INTRA:                  -1.821
REMARK UNBOUND:                -2.362
REMARK SMILES CCCCCCCCCCCCCCCCCC(=O)[O-]
REMARK SMILES IDX 10 1 11 2 12 3 13 4 14 5 15 6 16 7 17 8 18 9 19 10 20 11
REMARK SMILES IDX 9 12 8 13 7 14 6 15 5 16 4 17 3 18 2 19 1 20
REMARK H PARENT
REMARK Flexibility Score: inf
ROOT
ATOM      1  C   UNL     1     -47.170   8.876 -30.761  1.00  0.00     0.000 C 
ENDROOT
BRANCH   1   2
ATOM      2  C   UNL     1     -48.336   9.652 -30.111  1.00  0.00     0.000 C 
BRANCH   2   3
ATOM      3  C   UNL     1     -49.115  10.505 -31.127  1.00  0.00     0.000 C 
BRANCH   3   4
ATOM      4  C   UNL     1     -50.305  11.249 -30.481  1.00  0.00     0.000 C 
BRANCH   4   5
ATOM      5  C   UNL     1     -49.893  12.496 -29.676  1.00  0.00     0.000 C 
BRANCH   5   6
ATOM      6  C   UNL     1     -50.594  13.801 -30.091  1.00  0.00     0.000 C 
BRANCH   6   7
ATOM      7  C   UNL     1     -49.857  14.635 -31.159  1.00  0.00     0.006 C 
BRANCH   7   8
ATOM      8  C   UNL     1     -50.777  15.561 -31.976  1.00  0.00     0.053 C 
BRANCH   8   9
ATOM      9  C   UNL     1     -51.503  16.555 -31.121  1.00  0.00     0.041 C 
ATOM     10  O   UNL     1     -52.724  16.398 -30.859  1.00  0.00    -0.550 OA
ATOM     11  O   UNL     1     -50.819  17.637 -30.579  1.00  0.00    -0.550 OA
ENDBRANCH   8   9
ENDBRANCH   7   8
ENDBRANCH   6   7
ENDBRANCH   5   6
ENDBRANCH   4   5
ENDBRANCH   3   4
ENDBRANCH   2   3
ENDBRANCH   1   2
BRANCH   1  12
ATOM     12  C   UNL     1     -47.163   7.373 -30.426  1.00  0.00     0.000 C 
BRANCH  12  13
ATOM     13  C   UNL     1     -47.530   6.446 -31.600  1.00  0.00    -0.000 C 
BRANCH  13  14
ATOM     14  C   UNL     1     -47.900   7.168 -32.913  1.00  0.00    -0.000 C 
BRANCH  14  15
ATOM     15  C   UNL     1     -49.391   7.106 -33.290  1.00  0.00    -0.000 C 
BRANCH  15  16
ATOM     16  C   UNL     1     -50.278   6.606 -32.138  1.00  0.00    -0.000 C 
BRANCH  16  17
ATOM     17  C   UNL     1     -51.238   7.689 -31.621  1.00  0.00    -0.000 C 
BRANCH  17  18
ATOM     18  C   UNL     1     -51.913   8.471 -32.762  1.00  0.00    -0.000 C 
BRANCH  18  19
ATOM     19  C   UNL     1     -53.254   7.852 -33.186  1.00  0.00    -0.003 C 
ATOM     20  C   UNL     1     -53.150   7.049 -34.482  1.00  0.00     0.004 C 
ENDBRANCH  18  19
ENDBRANCH  17  18
ENDBRANCH  16  17
ENDBRANCH  15  16
ENDBRANCH  14  15
ENDBRANCH  13  14
ENDBRANCH  12  13
ENDBRANCH   1  12
TORSDOF 16
ENDMDL
MODEL 7
REMARK VINA RESULT:    -4.230      1.980      5.962
REMARK INTER + INTRA:         -10.549
REMARK INTER:                  -8.347
REMARK INTRA:                  -2.202
REMARK UNBOUND:                -2.362
REMARK SMILES CCCCCCCCCCCCCCCCCC(=O)[O-]
REMARK SMILES IDX 10 1 11 2 12 3 13 4 14 5 15 6 16 7 17 8 18 9 19 10 20 11
REMARK SMILES IDX 9 12 8 13 7 14 6 15 5 16 4 17 3 18 2 19 1 20
REMARK H PARENT
REMARK Flexibility Score: inf
ROOT
ATOM      1  C   UNL     1     -53.369  12.920 -28.452  1.00  0.00     0.000 C 
ENDROOT
BRANCH   1   2
ATOM      2  C   UNL     1     -53.498  12.010 -29.692  1.00  0.00     0.000 C 
BRANCH   2   3
ATOM      3  C   UNL     1     -52.572  10.784 -29.622  1.00  0.00     0.000 C 
BRANCH   3   4
ATOM      4  C   UNL     1     -52.479  10.038 -30.971  1.00  0.00     0.000 C 
BRANCH   4   5
ATOM      5  C   UNL     1     -51.364  10.563 -31.895  1.00  0.00     0.000 C 
BRANCH   5   6
ATOM      6  C   UNL     1     -50.761   9.517 -32.849  1.00  0.00     0.000 C 
BRANCH   6   7
ATOM      7  C   UNL     1     -49.568   8.720 -32.284  1.00  0.00     0.006 C 
BRANCH   7   8
ATOM      8  C   UNL     1     -48.814   9.439 -31.152  1.00  0.00     0.053 C 
BRANCH   8   9
ATOM      9  C   UNL     1     -47.389   8.987 -31.028  1.00  0.00     0.041 C 
ATOM     10  O   UNL     1     -46.921   8.132 -31.825  1.00  0.00    -0.550 OA
ATOM     11  O   UNL     1     -46.565   9.542 -30.056  1.00  0.00    -0.550 OA
ENDBRANCH   8   9
ENDBRANCH   7   8
ENDBRANCH   6   7
ENDBRANCH   5   6
ENDBRANCH   4   5
ENDBRANCH   3   4
ENDBRANCH   2   3
ENDBRANCH   1   2
BRANCH   1  12
ATOM     12  C   UNL     1     -53.912  14.345 -28.671  1.00  0.00     0.000 C 
BRANCH  12  13
ATOM     13  C   UNL     1     -53.017  15.471 -28.120  1.00  0.00    -0.000 C 
BRANCH  13  14
ATOM     14  C   UNL     1     -52.599  16.540 -29.152  1.00  0.00    -0.000 C 
BRANCH  14  15
ATOM     15  C   UNL     1     -52.527  16.045 -30.607  1.00  0.00    -0.000 C 
BRANCH  15  16
ATOM     16  C   UNL     1     -51.233  16.472 -31.320  1.00  0.00    -0.000 C 
BRANCH  16  17
ATOM     17  C   UNL     1     -50.416  15.273 -31.825  1.00  0.00    -0.000 C 
BRANCH  17  18
ATOM     18  C   UNL     1     -50.622  14.015 -30.962  1.00  0.00    -0.000 C 
BRANCH  18  19
ATOM     19  C   UNL     1     -49.295  13.421 -30.463  1.00  0.00    -0.003 C 
ATOM     20  C   UNL     1     -49.467  12.568 -29.206  1.00  0.00     0.004 C 
ENDBRANCH  18  19
ENDBRANCH  17  18
ENDBRANCH  16  17
ENDBRANCH  15  16
ENDBRANCH  14  15
ENDBRANCH  13  14
ENDBRANCH  12  13
ENDBRANCH   1  12
TORSDOF 16
ENDMDL
MODEL 8
REMARK VINA RESULT:    -4.183      2.674      4.763
REMARK INTER + INTRA:         -10.457
REMARK INTER:                  -8.093
REMARK INTRA:                  -2.364
REMARK UNBOUND:                -2.362
REMARK SMILES CCCCCCCCCCCCCCCCCC(=O)[O-]
REMARK SMILES IDX 10 1 11 2 12 3 13 4 14 5 15 6 16 7 17 8 18 9 19 10 20 11
REMARK SMILES IDX 9 12 8 13 7 14 6 15 5 16 4 17 3 18 2 19 1 20
REMARK H PARENT
REMARK Flexibility Score: inf
ROOT
ATOM      1  C   UNL     1     -53.375   7.127 -31.725  1.00  0.00     0.000 C 
ENDROOT
BRANCH   1   2
ATOM      2  C   UNL     1     -53.534   8.580 -31.227  1.00  0.00     0.000 C 
BRANCH   2   3
ATOM      3  C   UNL     1     -52.197   9.206 -30.798  1.00  0.00     0.000 C 
BRANCH   3   4
ATOM      4  C   UNL     1     -51.527  10.003 -31.938  1.00  0.00     0.000 C 
BRANCH   4   5
ATOM      5  C   UNL     1     -50.163  10.607 -31.555  1.00  0.00     0.000 C 
BRANCH   5   6
ATOM      6  C   UNL     1     -49.970  10.881 -30.053  1.00  0.00     0.000 C 
BRANCH   6   7
ATOM      7  C   UNL     1     -49.256  12.204 -29.710  1.00  0.00     0.006 C 
BRANCH   7   8
ATOM      8  C   UNL     1     -49.614  13.371 -30.648  1.00  0.00     0.053 C 
BRANCH   8   9
ATOM      9  C   UNL     1     -51.039  13.814 -30.501  1.00  0.00     0.041 C 
ATOM     10  O   UNL     1     -51.830  13.747 -31.478  1.00  0.00    -0.550 OA
ATOM     11  O   UNL     1     -51.505  14.263 -29.271  1.00  0.00    -0.550 OA
ENDBRANCH   8   9
ENDBRANCH   7   8
ENDBRANCH   6   7
ENDBRANCH   5   6
ENDBRANCH   4   5
ENDBRANCH   3   4
ENDBRANCH   2   3
ENDBRANCH   1   2
BRANCH   1  12
ATOM     12  C   UNL     1     -53.670   6.951 -33.226  1.00  0.00     0.000 C 
BRANCH  12  13
ATOM     13  C   UNL     1     -52.441   7.073 -34.147  1.00  0.00    -0.000 C 
BRANCH  13  14
ATOM     14  C   UNL     1     -51.201   6.274 -33.693  1.00  0.00    -0.000 C 
BRANCH  14  15
ATOM     15  C   UNL     1     -50.017   7.130 -33.211  1.00  0.00    -0.000 C 
BRANCH  15  16
ATOM     16  C   UNL     1     -49.563   6.774 -31.785  1.00  0.00    -0.000 C 
BRANCH  16  17
ATOM     17  C   UNL     1     -48.034   6.696 -31.656  1.00  0.00    -0.000 C 
BRANCH  17  18
ATOM     18  C   UNL     1     -47.333   7.959 -32.187  1.00  0.00    -0.000 C 
BRANCH  18  19
ATOM     19  C   UNL     1     -46.964   8.942 -31.065  1.00  0.00    -0.003 C 
ATOM     20  C   UNL     1     -46.727   8.245 -29.725  1.00  0.00     0.004 C 
ENDBRANCH  18  19
ENDBRANCH  17  18
ENDBRANCH  16  17
ENDBRANCH  15  16
ENDBRANCH  14  15
ENDBRANCH  13  14
ENDBRANCH  12  13
ENDBRANCH   1  12
TORSDOF 16
ENDMDL
MODEL 9
REMARK VINA RESULT:    -4.175      1.330      5.645
REMARK INTER + INTRA:         -10.441
REMARK INTER:                  -7.785
REMARK INTRA:                  -2.656
REMARK UNBOUND:                -2.362
REMARK SMILES CCCCCCCCCCCCCCCCCC(=O)[O-]
REMARK SMILES IDX 10 1 11 2 12 3 13 4 14 5 15 6 16 7 17 8 18 9 19 10 20 11
REMARK SMILES IDX 9 12 8 13 7 14 6 15 5 16 4 17 3 18 2 19 1 20
REMARK H PARENT
REMARK Flexibility Score: inf
ROOT
ATOM      1  C   UNL     1     -50.051  10.207 -31.889  1.00  0.00     0.000 C 
ENDROOT
BRANCH   1   2
ATOM      2  C   UNL     1     -51.479  10.005 -32.438  1.00  0.00     0.000 C 
BRANCH   2   3
ATOM      3  C   UNL     1     -52.353   9.146 -31.508  1.00  0.00     0.000 C 
BRANCH   3   4
ATOM      4  C   UNL     1     -52.401   7.666 -31.946  1.00  0.00     0.000 C 
BRANCH   4   5
ATOM      5  C   UNL     1     -52.106   7.451 -33.443  1.00  0.00     0.000 C 
BRANCH   5   6
ATOM      6  C   UNL     1     -50.838   6.634 -33.747  1.00  0.00     0.000 C 
BRANCH   6   7
ATOM      7  C   UNL     1     -49.792   6.594 -32.614  1.00  0.00     0.006 C 
BRANCH   7   8
ATOM      8  C   UNL     1     -48.401   7.107 -33.027  1.00  0.00     0.053 C 
BRANCH   8   9
ATOM      9  C   UNL     1     -47.539   7.452 -31.849  1.00  0.00     0.041 C 
ATOM     10  O   UNL     1     -46.861   8.513 -31.846  1.00  0.00    -0.550 OA
ATOM     11  O   UNL     1     -47.516   6.620 -30.737  1.00  0.00    -0.550 OA
ENDBRANCH   8   9
ENDBRANCH   7   8
ENDBRANCH   6   7
ENDBRANCH   5   6
ENDBRANCH   4   5
ENDBRANCH   3   4
ENDBRANCH   2   3
ENDBRANCH   1   2
BRANCH   1  12
ATOM     12  C   UNL     1     -49.927   9.946 -30.376  1.00  0.00     0.000 C 
BRANCH  12  13
ATOM     13  C   UNL     1     -48.864  10.798 -29.657  1.00  0.00    -0.000 C 
BRANCH  13  14
ATOM     14  C   UNL     1     -49.372  12.143 -29.096  1.00  0.00    -0.000 C 
BRANCH  14  15
ATOM     15  C   UNL     1     -49.139  13.358 -30.010  1.00  0.00    -0.000 C 
BRANCH  15  16
ATOM     16  C   UNL     1     -50.336  13.651 -30.931  1.00  0.00    -0.000 C 
BRANCH  16  17
ATOM     17  C   UNL     1     -51.375  14.571 -30.271  1.00  0.00    -0.000 C 
BRANCH  17  18
ATOM     18  C   UNL     1     -52.814  14.050 -30.439  1.00  0.00    -0.000 C 
BRANCH  18  19
ATOM     19  C   UNL     1     -52.936  12.549 -30.130  1.00  0.00    -0.003 C 
ATOM     20  C   UNL     1     -52.984  12.258 -28.630  1.00  0.00     0.004 C 
ENDBRANCH  18  19
ENDBRANCH  17  18
ENDBRANCH  16  17
ENDBRANCH  15  16
ENDBRANCH  14  15
ENDBRANCH  13  14
ENDBRANCH  12  13
ENDBRANCH   1  12
TORSDOF 16
ENDMDL
