MODEL 1
REMARK VINA RESULT:    -5.355      0.000      0.000
REMARK INTER + INTRA:          -6.737
REMARK INTER:                  -6.607
REMARK INTRA:                  -0.131
REMARK UNBOUND:                -0.131
REMARK SMILES Oc1cc(O)c2cc(O)c(-c3cc(O)c(O)c(O)c3)[o+]c2c1
REMARK SMILES IDX 10 1 20 2 21 3 22 4 2 5 3 6 4 7 6 8 7 9 8 10 11 11 12 12
REMARK SMILES IDX 13 13 19 14 15 15 17 16 14 17 16 19 18 21 9 23 1 25 5 27
REMARK H PARENT 14 18 16 20 18 22 9 24 1 26 5 28
REMARK Flexibility Score: inf
ROOT
ATOM      1  C   UNL     1     -22.523 -21.279  -6.549  1.00  0.00     0.402 A 
ATOM      2  O   UNL     1     -22.097 -20.022  -6.647  1.00  0.00    -0.202 OA
ATOM      3  C   UNL     1     -22.730 -18.993  -6.096  1.00  0.00     0.368 A 
ATOM      4  C   UNL     1     -22.202 -17.708  -6.252  1.00  0.00     0.162 A 
ATOM      5  C   UNL     1     -22.843 -16.608  -5.682  1.00  0.00     0.128 A 
ATOM      6  C   UNL     1     -24.020 -16.791  -4.946  1.00  0.00     0.093 A 
ATOM      7  C   UNL     1     -24.568 -18.068  -4.775  1.00  0.00     0.136 A 
ATOM      8  C   UNL     1     -23.920 -19.189  -5.357  1.00  0.00     0.125 A 
ATOM      9  C   UNL     1     -24.405 -20.502  -5.248  1.00  0.00     0.078 A 
ATOM     10  C   UNL     1     -23.714 -21.557  -5.853  1.00  0.00     0.223 A 
ENDROOT
BRANCH   1  11
ATOM     11  C   UNL     1     -21.725 -22.342  -7.201  1.00  0.00     0.091 A 
ATOM     12  C   UNL     1     -22.292 -23.202  -8.154  1.00  0.00     0.068 A 
ATOM     13  C   UNL     1     -21.530 -24.214  -8.744  1.00  0.00     0.162 A 
ATOM     14  C   UNL     1     -20.390 -22.535  -6.819  1.00  0.00     0.068 A 
ATOM     15  C   UNL     1     -20.183 -24.392  -8.379  1.00  0.00     0.200 A 
ATOM     16  C   UNL     1     -19.612 -23.543  -7.400  1.00  0.00     0.162 A 
BRANCH  13  17
ATOM     17  O   UNL     1     -22.134 -25.041  -9.693  1.00  0.00    -0.504 OA
ATOM     18  H   UNL     1     -21.705 -25.241 -10.587  1.00  0.00     0.293 HD
ENDBRANCH  13  17
BRANCH  15  19
ATOM     19  O   UNL     1     -19.455 -25.411  -8.998  1.00  0.00    -0.502 OA
ATOM     20  H   UNL     1     -18.453 -25.513  -8.932  1.00  0.00     0.293 HD
ENDBRANCH  15  19
BRANCH  16  21
ATOM     21  O   UNL     1     -18.287 -23.665  -6.975  1.00  0.00    -0.504 OA
ATOM     22  H   UNL     1     -17.485 -23.484  -7.561  1.00  0.00     0.293 HD
ENDBRANCH  16  21
ENDBRANCH   1  11
BRANCH  10  23
ATOM     23  O   UNL     1     -24.221 -22.855  -5.787  1.00  0.00    -0.500 OA
ATOM     24  H   UNL     1     -24.110 -23.428  -4.959  1.00  0.00     0.294 HD
ENDBRANCH  10  23
BRANCH   5  25
ATOM     25  O   UNL     1     -22.301 -15.335  -5.848  1.00  0.00    -0.507 OA
ATOM     26  H   UNL     1     -22.807 -14.603  -6.333  1.00  0.00     0.293 HD
ENDBRANCH   5  25
BRANCH   7  27
ATOM     27  O   UNL     1     -25.744 -18.168  -4.025  1.00  0.00    -0.507 OA
ATOM     28  H   UNL     1     -25.820 -17.925  -3.048  1.00  0.00     0.293 HD
ENDBRANCH   7  27
TORSDOF 7
ENDMDL
MODEL 2
REMARK VINA RESULT:    -5.243      1.769      7.050
REMARK INTER + INTRA:          -6.599
REMARK INTER:                  -6.282
REMARK INTRA:                  -0.317
REMARK UNBOUND:                -0.131
REMARK SMILES Oc1cc(O)c2cc(O)c(-c3cc(O)c(O)c(O)c3)[o+]c2c1
REMARK SMILES IDX 10 1 20 2 21 3 22 4 2 5 3 6 4 7 6 8 7 9 8 10 11 11 12 12
REMARK SMILES IDX 13 13 19 14 15 15 17 16 14 17 16 19 18 21 9 23 1 25 5 27
REMARK H PARENT 14 18 16 20 18 22 9 24 1 26 5 28
REMARK Flexibility Score: inf
ROOT
ATOM      1  C   UNL     1     -22.717 -20.525  -6.123  1.00  0.00     0.402 A 
ATOM      2  O   UNL     1     -21.970 -20.995  -7.119  1.00  0.00    -0.202 OA
ATOM      3  C   UNL     1     -21.389 -22.189  -7.094  1.00  0.00     0.368 A 
ATOM      4  C   UNL     1     -20.625 -22.596  -8.192  1.00  0.00     0.162 A 
ATOM      5  C   UNL     1     -20.004 -23.845  -8.194  1.00  0.00     0.128 A 
ATOM      6  C   UNL     1     -20.150 -24.698  -7.094  1.00  0.00     0.093 A 
ATOM      7  C   UNL     1     -20.910 -24.314  -5.983  1.00  0.00     0.136 A 
ATOM      8  C   UNL     1     -21.540 -23.042  -5.975  1.00  0.00     0.125 A 
ATOM      9  C   UNL     1     -22.309 -22.569  -4.900  1.00  0.00     0.078 A 
ATOM     10  C   UNL     1     -22.896 -21.301  -4.962  1.00  0.00     0.223 A 
ENDROOT
BRANCH   1  11
ATOM     11  C   UNL     1     -23.321 -19.182  -6.273  1.00  0.00     0.091 A 
ATOM     12  C   UNL     1     -22.552 -18.016  -6.133  1.00  0.00     0.068 A 
ATOM     13  C   UNL     1     -23.142 -16.755  -6.256  1.00  0.00     0.162 A 
ATOM     14  C   UNL     1     -24.698 -19.065  -6.504  1.00  0.00     0.068 A 
ATOM     15  C   UNL     1     -24.521 -16.638  -6.512  1.00  0.00     0.200 A 
ATOM     16  C   UNL     1     -25.305 -17.810  -6.631  1.00  0.00     0.162 A 
BRANCH  13  17
ATOM     17  O   UNL     1     -22.337 -15.622  -6.116  1.00  0.00    -0.504 OA
ATOM     18  H   UNL     1     -21.373 -15.603  -6.423  1.00  0.00     0.293 HD
ENDBRANCH  13  17
BRANCH  15  19
ATOM     19  O   UNL     1     -25.069 -15.359  -6.636  1.00  0.00    -0.502 OA
ATOM     20  H   UNL     1     -24.581 -14.508  -6.401  1.00  0.00     0.293 HD
ENDBRANCH  15  19
BRANCH  16  21
ATOM     21  O   UNL     1     -26.681 -17.778  -6.871  1.00  0.00    -0.504 OA
ATOM     22  H   UNL     1     -27.320 -17.140  -6.420  1.00  0.00     0.293 HD
ENDBRANCH  16  21
ENDBRANCH   1  11
BRANCH  10  23
ATOM     23  O   UNL     1     -23.619 -20.811  -3.875  1.00  0.00    -0.500 OA
ATOM     24  H   UNL     1     -23.711 -19.817  -3.701  1.00  0.00     0.294 HD
ENDBRANCH  10  23
BRANCH   5  25
ATOM     25  O   UNL     1     -19.247 -24.233  -9.298  1.00  0.00    -0.507 OA
ATOM     26  H   UNL     1     -18.258 -24.440  -9.216  1.00  0.00     0.293 HD
ENDBRANCH   5  25
BRANCH   7  27
ATOM     27  O   UNL     1     -21.009 -25.223  -4.925  1.00  0.00    -0.507 OA
ATOM     28  H   UNL     1     -20.342 -25.959  -4.741  1.00  0.00     0.293 HD
ENDBRANCH   7  27
TORSDOF 7
ENDMDL
MODEL 3
REMARK VINA RESULT:    -5.239      0.117      1.808
REMARK INTER + INTRA:          -6.595
REMARK INTER:                  -6.486
REMARK INTRA:                  -0.109
REMARK UNBOUND:                -0.131
REMARK SMILES Oc1cc(O)c2cc(O)c(-c3cc(O)c(O)c(O)c3)[o+]c2c1
REMARK SMILES IDX 10 1 20 2 21 3 22 4 2 5 3 6 4 7 6 8 7 9 8 10 11 11 12 12
REMARK SMILES IDX 13 13 19 14 15 15 17 16 14 17 16 19 18 21 9 23 1 25 5 27
REMARK H PARENT 14 18 16 20 18 22 9 24 1 26 5 28
REMARK Flexibility Score: inf
ROOT
ATOM      1  C   UNL     1     -22.522 -21.271  -6.576  1.00  0.00     0.402 A 
ATOM      2  O   UNL     1     -22.116 -20.010  -6.700  1.00  0.00    -0.202 OA
ATOM      3  C   UNL     1     -22.770 -18.978  -6.181  1.00  0.00     0.368 A 
ATOM      4  C   UNL     1     -22.262 -17.688  -6.363  1.00  0.00     0.162 A 
ATOM      5  C   UNL     1     -22.927 -16.586  -5.827  1.00  0.00     0.128 A 
ATOM      6  C   UNL     1     -24.108 -16.770  -5.099  1.00  0.00     0.093 A 
ATOM      7  C   UNL     1     -24.637 -18.051  -4.902  1.00  0.00     0.136 A 
ATOM      8  C   UNL     1     -23.966 -19.175  -5.449  1.00  0.00     0.125 A 
ATOM      9  C   UNL     1     -24.430 -20.493  -5.313  1.00  0.00     0.078 A 
ATOM     10  C   UNL     1     -23.716 -21.551  -5.885  1.00  0.00     0.223 A 
ENDROOT
BRANCH   1  11
ATOM     11  C   UNL     1     -21.700 -22.336  -7.193  1.00  0.00     0.091 A 
ATOM     12  C   UNL     1     -20.336 -22.472  -6.895  1.00  0.00     0.068 A 
ATOM     13  C   UNL     1     -19.569 -23.469  -7.503  1.00  0.00     0.162 A 
ATOM     14  C   UNL     1     -22.279 -23.194  -8.138  1.00  0.00     0.068 A 
ATOM     15  C   UNL     1     -20.156 -24.347  -8.434  1.00  0.00     0.200 A 
ATOM     16  C   UNL     1     -21.526 -24.200  -8.756  1.00  0.00     0.162 A 
BRANCH  13  17
ATOM     17  O   UNL     1     -18.217 -23.571  -7.171  1.00  0.00    -0.504 OA
ATOM     18  H   UNL     1     -17.668 -24.395  -7.382  1.00  0.00     0.293 HD
ENDBRANCH  13  17
BRANCH  15  19
ATOM     19  O   UNL     1     -19.355 -25.335  -9.013  1.00  0.00    -0.502 OA
ATOM     20  H   UNL     1     -19.373 -25.578  -9.992  1.00  0.00     0.293 HD
ENDBRANCH  15  19
BRANCH  16  21
ATOM     21  O   UNL     1     -22.177 -25.022  -9.679  1.00  0.00    -0.504 OA
ATOM     22  H   UNL     1     -22.037 -24.976 -10.677  1.00  0.00     0.293 HD
ENDBRANCH  16  21
ENDBRANCH   1  11
BRANCH  10  23
ATOM     23  O   UNL     1     -24.202 -22.855  -5.792  1.00  0.00    -0.500 OA
ATOM     24  H   UNL     1     -24.882 -23.218  -6.449  1.00  0.00     0.294 HD
ENDBRANCH  10  23
BRANCH   5  25
ATOM     25  O   UNL     1     -22.404 -15.309  -6.020  1.00  0.00    -0.507 OA
ATOM     26  H   UNL     1     -23.000 -14.489  -6.038  1.00  0.00     0.293 HD
ENDBRANCH   5  25
BRANCH   7  27
ATOM     27  O   UNL     1     -25.820 -18.152  -4.161  1.00  0.00    -0.507 OA
ATOM     28  H   UNL     1     -25.897 -18.625  -3.273  1.00  0.00     0.293 HD
ENDBRANCH   7  27
TORSDOF 7
ENDMDL
MODEL 4
REMARK VINA RESULT:    -4.613      2.276      3.477
REMARK INTER + INTRA:          -5.823
REMARK INTER:                  -5.441
REMARK INTRA:                  -0.382
REMARK UNBOUND:                -0.131
REMARK SMILES Oc1cc(O)c2cc(O)c(-c3cc(O)c(O)c(O)c3)[o+]c2c1
REMARK SMILES IDX 10 1 20 2 21 3 22 4 2 5 3 6 4 7 6 8 7 9 8 10 11 11 12 12
REMARK SMILES IDX 13 13 19 14 15 15 17 16 14 17 16 19 18 21 9 23 1 25 5 27
REMARK H PARENT 14 18 16 20 18 22 9 24 1 26 5 28
REMARK Flexibility Score: inf
ROOT
ATOM      1  C   UNL     1     -23.032 -19.941  -6.176  1.00  0.00     0.402 A 
ATOM      2  O   UNL     1     -24.313 -20.014  -6.530  1.00  0.00    -0.202 OA
ATOM      3  C   UNL     1     -25.115 -18.957  -6.587  1.00  0.00     0.368 A 
ATOM      4  C   UNL     1     -26.447 -19.135  -6.974  1.00  0.00     0.162 A 
ATOM      5  C   UNL     1     -27.312 -18.043  -7.046  1.00  0.00     0.128 A 
ATOM      6  C   UNL     1     -26.844 -16.761  -6.732  1.00  0.00     0.093 A 
ATOM      7  C   UNL     1     -25.515 -16.557  -6.343  1.00  0.00     0.136 A 
ATOM      8  C   UNL     1     -24.633 -17.666  -6.265  1.00  0.00     0.125 A 
ATOM      9  C   UNL     1     -23.289 -17.557  -5.872  1.00  0.00     0.078 A 
ATOM     10  C   UNL     1     -22.481 -18.698  -5.815  1.00  0.00     0.223 A 
ENDROOT
BRANCH   1  11
ATOM     11  C   UNL     1     -22.238 -21.190  -6.159  1.00  0.00     0.091 A 
ATOM     12  C   UNL     1     -21.435 -21.561  -7.249  1.00  0.00     0.068 A 
ATOM     13  C   UNL     1     -20.709 -22.754  -7.226  1.00  0.00     0.162 A 
ATOM     14  C   UNL     1     -22.330 -22.052  -5.057  1.00  0.00     0.068 A 
ATOM     15  C   UNL     1     -20.782 -23.608  -6.109  1.00  0.00     0.200 A 
ATOM     16  C   UNL     1     -21.608 -23.251  -5.017  1.00  0.00     0.162 A 
BRANCH  13  17
ATOM     17  O   UNL     1     -19.918 -23.079  -8.329  1.00  0.00    -0.504 OA
ATOM     18  H   UNL     1     -19.867 -22.488  -9.150  1.00  0.00     0.293 HD
ENDBRANCH  13  17
BRANCH  15  19
ATOM     19  O   UNL     1     -20.034 -24.788  -6.124  1.00  0.00    -0.502 OA
ATOM     20  H   UNL     1     -19.759 -25.296  -5.296  1.00  0.00     0.293 HD
ENDBRANCH  15  19
BRANCH  16  21
ATOM     21  O   UNL     1     -21.744 -24.051  -3.880  1.00  0.00    -0.504 OA
ATOM     22  H   UNL     1     -22.570 -24.075  -3.300  1.00  0.00     0.293 HD
ENDBRANCH  16  21
ENDBRANCH   1  11
BRANCH  10  23
ATOM     23  O   UNL     1     -21.160 -18.598  -5.377  1.00  0.00    -0.500 OA
ATOM     24  H   UNL     1     -20.505 -17.955  -5.806  1.00  0.00     0.294 HD
ENDBRANCH  10  23
BRANCH   5  25
ATOM     25  O   UNL     1     -28.636 -18.239  -7.433  1.00  0.00    -0.507 OA
ATOM     26  H   UNL     1     -29.029 -19.169  -7.524  1.00  0.00     0.293 HD
ENDBRANCH   5  25
BRANCH   7  27
ATOM     27  O   UNL     1     -25.124 -15.247  -6.048  1.00  0.00    -0.507 OA
ATOM     28  H   UNL     1     -24.353 -14.768  -6.492  1.00  0.00     0.293 HD
ENDBRANCH   7  27
TORSDOF 7
ENDMDL
MODEL 5
REMARK VINA RESULT:    -4.612      5.211      8.779
REMARK INTER + INTRA:          -5.822
REMARK INTER:                  -5.560
REMARK INTRA:                  -0.262
REMARK UNBOUND:                -0.131
REMARK SMILES Oc1cc(O)c2cc(O)c(-c3cc(O)c(O)c(O)c3)[o+]c2c1
REMARK SMILES IDX 10 1 20 2 21 3 22 4 2 5 3 6 4 7 6 8 7 9 8 10 11 11 12 12
REMARK SMILES IDX 13 13 19 14 15 15 17 16 14 17 16 19 18 21 9 23 1 25 5 27
REMARK H PARENT 14 18 16 20 18 22 9 24 1 26 5 28
REMARK Flexibility Score: inf
ROOT
ATOM      1  C   UNL     1     -25.742 -15.257  -7.459  1.00  0.00     0.402 A 
ATOM      2  O   UNL     1     -24.529 -15.397  -6.929  1.00  0.00    -0.202 OA
ATOM      3  C   UNL     1     -24.227 -16.331  -6.034  1.00  0.00     0.368 A 
ATOM      4  C   UNL     1     -22.923 -16.401  -5.538  1.00  0.00     0.162 A 
ATOM      5  C   UNL     1     -22.576 -17.372  -4.599  1.00  0.00     0.128 A 
ATOM      6  C   UNL     1     -23.539 -18.286  -4.153  1.00  0.00     0.093 A 
ATOM      7  C   UNL     1     -24.853 -18.237  -4.636  1.00  0.00     0.136 A 
ATOM      8  C   UNL     1     -25.209 -17.247  -5.589  1.00  0.00     0.125 A 
ATOM      9  C   UNL     1     -26.504 -17.116  -6.116  1.00  0.00     0.078 A 
ATOM     10  C   UNL     1     -26.782 -16.111  -7.049  1.00  0.00     0.223 A 
ENDROOT
BRANCH   1  11
ATOM     11  C   UNL     1     -25.951 -14.182  -8.455  1.00  0.00     0.091 A 
ATOM     12  C   UNL     1     -26.278 -14.474  -9.788  1.00  0.00     0.068 A 
ATOM     13  C   UNL     1     -26.451 -13.448 -10.721  1.00  0.00     0.162 A 
ATOM     14  C   UNL     1     -25.764 -12.845  -8.078  1.00  0.00     0.068 A 
ATOM     15  C   UNL     1     -26.287 -12.105 -10.337  1.00  0.00     0.200 A 
ATOM     16  C   UNL     1     -25.934 -11.805  -8.999  1.00  0.00     0.162 A 
BRANCH  13  17
ATOM     17  O   UNL     1     -26.783 -13.786 -12.035  1.00  0.00    -0.504 OA
ATOM     18  H   UNL     1     -26.751 -13.114 -12.791  1.00  0.00     0.293 HD
ENDBRANCH  13  17
BRANCH  15  19
ATOM     19  O   UNL     1     -26.476 -11.110 -11.299  1.00  0.00    -0.502 OA
ATOM     20  H   UNL     1     -26.856 -10.196 -11.103  1.00  0.00     0.293 HD
ENDBRANCH  15  19
BRANCH  16  21
ATOM     21  O   UNL     1     -25.741 -10.498  -8.544  1.00  0.00    -0.504 OA
ATOM     22  H   UNL     1     -24.864 -10.146  -8.190  1.00  0.00     0.293 HD
ENDBRANCH  16  21
ENDBRANCH   1  11
BRANCH  10  23
ATOM     23  O   UNL     1     -28.079 -15.950  -7.537  1.00  0.00    -0.500 OA
ATOM     24  H   UNL     1     -28.273 -15.910  -8.530  1.00  0.00     0.294 HD
ENDBRANCH  10  23
BRANCH   5  25
ATOM     25  O   UNL     1     -21.271 -17.426  -4.116  1.00  0.00    -0.507 OA
ATOM     26  H   UNL     1     -20.676 -16.605  -4.102  1.00  0.00     0.293 HD
ENDBRANCH   5  25
BRANCH   7  27
ATOM     27  O   UNL     1     -25.755 -19.185  -4.143  1.00  0.00    -0.507 OA
ATOM     28  H   UNL     1     -26.331 -19.779  -4.722  1.00  0.00     0.293 HD
ENDBRANCH   7  27
TORSDOF 7
ENDMDL
MODEL 6
REMARK VINA RESULT:    -4.608      4.083      6.859
REMARK INTER + INTRA:          -5.816
REMARK INTER:                  -5.432
REMARK INTRA:                  -0.384
REMARK UNBOUND:                -0.131
REMARK SMILES Oc1cc(O)c2cc(O)c(-c3cc(O)c(O)c(O)c3)[o+]c2c1
REMARK SMILES IDX 10 1 20 2 21 3 22 4 2 5 3 6 4 7 6 8 7 9 8 10 11 11 12 12
REMARK SMILES IDX 13 13 19 14 15 15 17 16 14 17 16 19 18 21 9 23 1 25 5 27
REMARK H PARENT 14 18 16 20 18 22 9 24 1 26 5 28
REMARK Flexibility Score: inf
ROOT
ATOM      1  C   UNL     1     -25.185 -15.695  -6.236  1.00  0.00     0.402 A 
ATOM      2  O   UNL     1     -24.953 -15.063  -7.384  1.00  0.00    -0.202 OA
ATOM      3  C   UNL     1     -25.671 -14.028  -7.805  1.00  0.00     0.368 A 
ATOM      4  C   UNL     1     -25.347 -13.428  -9.026  1.00  0.00     0.162 A 
ATOM      5  C   UNL     1     -26.082 -12.337  -9.492  1.00  0.00     0.128 A 
ATOM      6  C   UNL     1     -27.147 -11.838  -8.733  1.00  0.00     0.093 A 
ATOM      7  C   UNL     1     -27.490 -12.421  -7.507  1.00  0.00     0.136 A 
ATOM      8  C   UNL     1     -26.747 -13.533  -7.031  1.00  0.00     0.125 A 
ATOM      9  C   UNL     1     -27.029 -14.189  -5.822  1.00  0.00     0.078 A 
ATOM     10  C   UNL     1     -26.255 -15.282  -5.420  1.00  0.00     0.223 A 
ENDROOT
BRANCH   1  11
ATOM     11  C   UNL     1     -24.309 -16.831  -5.872  1.00  0.00     0.091 A 
ATOM     12  C   UNL     1     -23.190 -16.655  -5.043  1.00  0.00     0.068 A 
ATOM     13  C   UNL     1     -22.361 -17.734  -4.727  1.00  0.00     0.162 A 
ATOM     14  C   UNL     1     -24.565 -18.100  -6.410  1.00  0.00     0.068 A 
ATOM     15  C   UNL     1     -22.631 -19.013  -5.247  1.00  0.00     0.200 A 
ATOM     16  C   UNL     1     -23.745 -19.192  -6.103  1.00  0.00     0.162 A 
BRANCH  13  17
ATOM     17  O   UNL     1     -21.263 -17.513  -3.893  1.00  0.00    -0.504 OA
ATOM     18  H   UNL     1     -21.277 -17.746  -2.908  1.00  0.00     0.293 HD
ENDBRANCH  13  17
BRANCH  15  19
ATOM     19  O   UNL     1     -21.781 -20.066  -4.900  1.00  0.00    -0.502 OA
ATOM     20  H   UNL     1     -21.568 -20.846  -5.504  1.00  0.00     0.293 HD
ENDBRANCH  15  19
BRANCH  16  21
ATOM     21  O   UNL     1     -24.071 -20.427  -6.669  1.00  0.00    -0.504 OA
ATOM     22  H   UNL     1     -23.711 -21.312  -6.345  1.00  0.00     0.293 HD
ENDBRANCH  16  21
ENDBRANCH   1  11
BRANCH  10  23
ATOM     23  O   UNL     1     -26.564 -15.963  -4.243  1.00  0.00    -0.500 OA
ATOM     24  H   UNL     1     -27.427 -15.794  -3.741  1.00  0.00     0.294 HD
ENDBRANCH  10  23
BRANCH   5  25
ATOM     25  O   UNL     1     -25.745 -11.753 -10.711  1.00  0.00    -0.507 OA
ATOM     26  H   UNL     1     -25.984 -12.190 -11.593  1.00  0.00     0.293 HD
ENDBRANCH   5  25
BRANCH   7  27
ATOM     27  O   UNL     1     -28.565 -11.864  -6.807  1.00  0.00    -0.507 OA
ATOM     28  H   UNL     1     -29.334 -11.373  -7.240  1.00  0.00     0.293 HD
ENDBRANCH   7  27
TORSDOF 7
ENDMDL
MODEL 7
REMARK VINA RESULT:    -4.504     11.069     13.533
REMARK INTER + INTRA:          -5.688
REMARK INTER:                  -5.521
REMARK INTRA:                  -0.167
REMARK UNBOUND:                -0.131
REMARK SMILES Oc1cc(O)c2cc(O)c(-c3cc(O)c(O)c(O)c3)[o+]c2c1
REMARK SMILES IDX 10 1 20 2 21 3 22 4 2 5 3 6 4 7 6 8 7 9 8 10 11 11 12 12
REMARK SMILES IDX 13 13 19 14 15 15 17 16 14 17 16 19 18 21 9 23 1 25 5 27
REMARK H PARENT 14 18 16 20 18 22 9 24 1 26 5 28
REMARK Flexibility Score: inf
ROOT
ATOM      1  C   UNL     1     -19.347 -27.798 -16.751  1.00  0.00     0.402 A 
ATOM      2  O   UNL     1     -18.955 -27.290 -15.586  1.00  0.00    -0.202 OA
ATOM      3  C   UNL     1     -17.718 -27.410 -15.116  1.00  0.00     0.368 A 
ATOM      4  C   UNL     1     -17.402 -26.839 -13.880  1.00  0.00     0.162 A 
ATOM      5  C   UNL     1     -16.110 -26.947 -13.364  1.00  0.00     0.128 A 
ATOM      6  C   UNL     1     -15.125 -27.629 -14.088  1.00  0.00     0.093 A 
ATOM      7  C   UNL     1     -15.417 -28.209 -15.328  1.00  0.00     0.136 A 
ATOM      8  C   UNL     1     -16.731 -28.104 -15.855  1.00  0.00     0.125 A 
ATOM      9  C   UNL     1     -17.117 -28.666 -17.082  1.00  0.00     0.078 A 
ATOM     10  C   UNL     1     -18.433 -28.525 -17.535  1.00  0.00     0.223 A 
ENDROOT
BRANCH   1  11
ATOM     11  C   UNL     1     -20.752 -27.588 -17.170  1.00  0.00     0.091 A 
ATOM     12  C   UNL     1     -21.067 -26.984 -18.397  1.00  0.00     0.068 A 
ATOM     13  C   UNL     1     -22.398 -26.774 -18.767  1.00  0.00     0.162 A 
ATOM     14  C   UNL     1     -21.792 -27.947 -16.301  1.00  0.00     0.068 A 
ATOM     15  C   UNL     1     -23.442 -27.157 -17.906  1.00  0.00     0.200 A 
ATOM     16  C   UNL     1     -23.131 -27.745 -16.656  1.00  0.00     0.162 A 
BRANCH  13  17
ATOM     17  O   UNL     1     -22.664 -26.177 -20.000  1.00  0.00    -0.504 OA
ATOM     18  H   UNL     1     -21.935 -25.980 -20.675  1.00  0.00     0.293 HD
ENDBRANCH  13  17
BRANCH  15  19
ATOM     19  O   UNL     1     -24.759 -26.936 -18.317  1.00  0.00    -0.502 OA
ATOM     20  H   UNL     1     -25.399 -27.667 -18.587  1.00  0.00     0.293 HD
ENDBRANCH  15  19
BRANCH  16  21
ATOM     21  O   UNL     1     -24.110 -28.139 -15.741  1.00  0.00    -0.504 OA
ATOM     22  H   UNL     1     -25.095 -27.950 -15.850  1.00  0.00     0.293 HD
ENDBRANCH  16  21
ENDBRANCH   1  11
BRANCH  10  23
ATOM     23  O   UNL     1     -18.829 -29.124 -18.731  1.00  0.00    -0.500 OA
ATOM     24  H   UNL     1     -19.779 -29.444 -18.877  1.00  0.00     0.294 HD
ENDBRANCH  10  23
BRANCH   5  25
ATOM     25  O   UNL     1     -15.814 -26.371 -12.131  1.00  0.00    -0.507 OA
ATOM     26  H   UNL     1     -16.522 -26.255 -11.415  1.00  0.00     0.293 HD
ENDBRANCH   5  25
BRANCH   7  27
ATOM     27  O   UNL     1     -14.378 -28.871 -15.990  1.00  0.00    -0.507 OA
ATOM     28  H   UNL     1     -13.444 -28.504 -16.095  1.00  0.00     0.293 HD
ENDBRANCH   7  27
TORSDOF 7
ENDMDL
MODEL 8
REMARK VINA RESULT:    -4.412     10.932     12.392
REMARK INTER + INTRA:          -5.574
REMARK INTER:                  -5.437
REMARK INTRA:                  -0.137
REMARK UNBOUND:                -0.131
REMARK SMILES Oc1cc(O)c2cc(O)c(-c3cc(O)c(O)c(O)c3)[o+]c2c1
REMARK SMILES IDX 10 1 20 2 21 3 22 4 2 5 3 6 4 7 6 8 7 9 8 10 11 11 12 12
REMARK SMILES IDX 13 13 19 14 15 15 17 16 14 17 16 19 18 21 9 23 1 25 5 27
REMARK H PARENT 14 18 16 20 18 22 9 24 1 26 5 28
REMARK Flexibility Score: inf
ROOT
ATOM      1  C   UNL     1     -19.707 -27.597 -15.437  1.00  0.00     0.402 A 
ATOM      2  O   UNL     1     -20.171 -27.264 -16.639  1.00  0.00    -0.202 OA
ATOM      3  C   UNL     1     -21.463 -27.272 -16.950  1.00  0.00     0.368 A 
ATOM      4  C   UNL     1     -21.854 -26.902 -18.241  1.00  0.00     0.162 A 
ATOM      5  C   UNL     1     -23.203 -26.898 -18.595  1.00  0.00     0.128 A 
ATOM      6  C   UNL     1     -24.172 -27.263 -17.652  1.00  0.00     0.093 A 
ATOM      7  C   UNL     1     -23.806 -27.636 -16.353  1.00  0.00     0.136 A 
ATOM      8  C   UNL     1     -22.434 -27.645 -15.991  1.00  0.00     0.125 A 
ATOM      9  C   UNL     1     -21.975 -28.017 -14.717  1.00  0.00     0.078 A 
ATOM     10  C   UNL     1     -20.605 -28.005 -14.434  1.00  0.00     0.223 A 
ENDROOT
BRANCH   1  11
ATOM     11  C   UNL     1     -18.245 -27.540 -15.211  1.00  0.00     0.091 A 
ATOM     12  C   UNL     1     -17.699 -26.813 -14.142  1.00  0.00     0.068 A 
ATOM     13  C   UNL     1     -16.315 -26.752 -13.955  1.00  0.00     0.162 A 
ATOM     14  C   UNL     1     -17.381 -28.176 -16.113  1.00  0.00     0.068 A 
ATOM     15  C   UNL     1     -15.449 -27.411 -14.847  1.00  0.00     0.200 A 
ATOM     16  C   UNL     1     -15.993 -28.126 -15.941  1.00  0.00     0.162 A 
BRANCH  13  17
ATOM     17  O   UNL     1     -15.817 -26.023 -12.873  1.00  0.00    -0.504 OA
ATOM     18  H   UNL     1     -14.894 -25.607 -12.880  1.00  0.00     0.293 HD
ENDBRANCH  13  17
BRANCH  15  19
ATOM     19  O   UNL     1     -14.073 -27.330 -14.619  1.00  0.00    -0.502 OA
ATOM     20  H   UNL     1     -13.381 -27.257 -15.349  1.00  0.00     0.293 HD
ENDBRANCH  15  19
BRANCH  16  21
ATOM     21  O   UNL     1     -15.200 -28.794 -16.876  1.00  0.00    -0.504 OA
ATOM     22  H   UNL     1     -14.199 -28.900 -16.797  1.00  0.00     0.293 HD
ENDBRANCH  16  21
ENDBRANCH   1  11
BRANCH  10  23
ATOM     23  O   UNL     1     -20.145 -28.422 -13.185  1.00  0.00    -0.500 OA
ATOM     24  H   UNL     1     -19.419 -27.918 -12.690  1.00  0.00     0.294 HD
ENDBRANCH  10  23
BRANCH   5  25
ATOM     25  O   UNL     1     -23.573 -26.528 -19.886  1.00  0.00    -0.507 OA
ATOM     26  H   UNL     1     -22.886 -26.232 -20.570  1.00  0.00     0.293 HD
ENDBRANCH   5  25
BRANCH   7  27
ATOM     27  O   UNL     1     -24.833 -27.984 -15.470  1.00  0.00    -0.507 OA
ATOM     28  H   UNL     1     -25.560 -27.354 -15.164  1.00  0.00     0.293 HD
ENDBRANCH   7  27
TORSDOF 7
ENDMDL
MODEL 9
REMARK VINA RESULT:    -3.602      1.773      6.830
REMARK INTER + INTRA:          -4.575
REMARK INTER:                  -4.240
REMARK INTRA:                  -0.335
REMARK UNBOUND:                -0.131
REMARK SMILES Oc1cc(O)c2cc(O)c(-c3cc(O)c(O)c(O)c3)[o+]c2c1
REMARK SMILES IDX 10 1 20 2 21 3 22 4 2 5 3 6 4 7 6 8 7 9 8 10 11 11 12 12
REMARK SMILES IDX 13 13 19 14 15 15 17 16 14 17 16 19 18 21 9 23 1 25 5 27
REMARK H PARENT 14 18 16 20 18 22 9 24 1 26 5 28
REMARK Flexibility Score: inf
ROOT
ATOM      1  C   UNL     1     -22.797 -20.479  -6.090  1.00  0.00     0.402 A 
ATOM      2  O   UNL     1     -22.016 -20.897  -7.083  1.00  0.00    -0.202 OA
ATOM      3  C   UNL     1     -21.404 -22.076  -7.083  1.00  0.00     0.368 A 
ATOM      4  C   UNL     1     -20.605 -22.427  -8.174  1.00  0.00     0.162 A 
ATOM      5  C   UNL     1     -19.953 -23.660  -8.203  1.00  0.00     0.128 A 
ATOM      6  C   UNL     1     -20.101 -24.552  -7.134  1.00  0.00     0.093 A 
ATOM      7  C   UNL     1     -20.896 -24.224  -6.030  1.00  0.00     0.136 A 
ATOM      8  C   UNL     1     -21.559 -22.969  -5.996  1.00  0.00     0.125 A 
ATOM      9  C   UNL     1     -22.365 -22.551  -4.924  1.00  0.00     0.078 A 
ATOM     10  C   UNL     1     -22.982 -21.296  -4.960  1.00  0.00     0.223 A 
ENDROOT
BRANCH   1  11
ATOM     11  C   UNL     1     -23.432 -19.146  -6.211  1.00  0.00     0.091 A 
ATOM     12  C   UNL     1     -24.800 -19.011  -6.490  1.00  0.00     0.068 A 
ATOM     13  C   UNL     1     -25.379 -17.746  -6.623  1.00  0.00     0.162 A 
ATOM     14  C   UNL     1     -22.642 -17.993  -6.102  1.00  0.00     0.068 A 
ATOM     15  C   UNL     1     -24.591 -16.588  -6.490  1.00  0.00     0.200 A 
ATOM     16  C   UNL     1     -23.205 -16.718  -6.232  1.00  0.00     0.162 A 
BRANCH  13  17
ATOM     17  O   UNL     1     -26.746 -17.660  -6.894  1.00  0.00    -0.504 OA
ATOM     18  H   UNL     1     -27.231 -18.351  -7.452  1.00  0.00     0.293 HD
ENDBRANCH  13  17
BRANCH  15  19
ATOM     19  O   UNL     1     -25.210 -15.343  -6.622  1.00  0.00    -0.502 OA
ATOM     20  H   UNL     1     -26.202 -15.189  -6.520  1.00  0.00     0.293 HD
ENDBRANCH  15  19
BRANCH  16  21
ATOM     21  O   UNL     1     -22.355 -15.618  -6.099  1.00  0.00    -0.504 OA
ATOM     22  H   UNL     1     -22.018 -15.266  -5.215  1.00  0.00     0.293 HD
ENDBRANCH  16  21
ENDBRANCH   1  11
BRANCH  10  23
ATOM     23  O   UNL     1     -23.743 -20.861  -3.875  1.00  0.00    -0.500 OA
ATOM     24  H   UNL     1     -23.817 -21.405  -3.024  1.00  0.00     0.294 HD
ENDBRANCH  10  23
BRANCH   5  25
ATOM     25  O   UNL     1     -19.160 -23.992  -9.299  1.00  0.00    -0.507 OA
ATOM     26  H   UNL     1     -18.842 -24.941  -9.456  1.00  0.00     0.293 HD
ENDBRANCH   5  25
BRANCH   7  27
ATOM     27  O   UNL     1     -20.996 -25.169  -5.004  1.00  0.00    -0.507 OA
ATOM     28  H   UNL     1     -21.514 -25.030  -4.149  1.00  0.00     0.293 HD
ENDBRANCH   7  27
TORSDOF 7
ENDMDL
