MODEL 1
REMARK VINA RESULT:    -3.628      0.000      0.000
REMARK INTER + INTRA:         -14.561
REMARK INTER:                  -9.142
REMARK INTRA:                  -5.419
REMARK UNBOUND:                -5.419
REMARK SMILES CCCCCCCCCCCCCCCCCCCCCCCCCCCC(=O)[O-]
REMARK SMILES IDX 15 1 16 2 17 3 18 4 19 5 20 6 21 7 22 8 23 9 24 10 25 11
REMARK SMILES IDX 26 12 27 13 28 14 29 15 30 16 14 17 13 18 12 19 11 20 10 21
REMARK SMILES IDX 9 22 8 23 7 24 6 25 5 26 4 27 3 28 2 29 1 30
REMARK H PARENT
REMARK Flexibility Score: inf
ROOT
ATOM      1  C   UNL     1      12.059  32.519   8.788  1.00  0.00     0.000 C 
ENDROOT
BRANCH   1   2
ATOM      2  C   UNL     1      11.843  34.009   9.086  1.00  0.00     0.000 C 
BRANCH   2   3
ATOM      3  C   UNL     1      10.848  34.633   8.095  1.00  0.00     0.000 C 
BRANCH   3   4
ATOM      4  C   UNL     1      10.249  33.599   7.129  1.00  0.00     0.000 C 
BRANCH   4   5
ATOM      5  C   UNL     1       8.747  33.358   7.371  1.00  0.00     0.000 C 
BRANCH   5   6
ATOM      6  C   UNL     1       8.259  33.969   8.694  1.00  0.00     0.000 C 
BRANCH   6   7
ATOM      7  C   UNL     1       7.001  33.272   9.238  1.00  0.00     0.000 C 
BRANCH   7   8
ATOM      8  C   UNL     1       5.763  34.188   9.257  1.00  0.00     0.000 C 
BRANCH   8   9
ATOM      9  C   UNL     1       5.655  35.155   8.063  1.00  0.00     0.000 C 
BRANCH   9  10
ATOM     10  C   UNL     1       4.636  34.691   7.007  1.00  0.00     0.000 C 
BRANCH  10  11
ATOM     11  C   UNL     1       5.259  34.518   5.610  1.00  0.00     0.000 C 
BRANCH  11  12
ATOM     12  C   UNL     1       4.336  34.894   4.438  1.00  0.00     0.006 C 
BRANCH  12  13
ATOM     13  C   UNL     1       4.057  33.719   3.490  1.00  0.00     0.053 C 
BRANCH  13  14
ATOM     14  C   UNL     1       4.871  33.837   2.238  1.00  0.00     0.041 C 
ATOM     15  O   UNL     1       5.953  34.484   2.245  1.00  0.00    -0.550 OA
ATOM     16  O   UNL     1       4.439  33.230   1.065  1.00  0.00    -0.550 OA
ENDBRANCH  13  14
ENDBRANCH  12  13
ENDBRANCH  11  12
ENDBRANCH  10  11
ENDBRANCH   9  10
ENDBRANCH   8   9
ENDBRANCH   7   8
ENDBRANCH   6   7
ENDBRANCH   5   6
ENDBRANCH   4   5
ENDBRANCH   3   4
ENDBRANCH   2   3
ENDBRANCH   1   2
BRANCH   1  17
ATOM     17  C   UNL     1      11.882  31.672  10.057  1.00  0.00     0.000 C 
BRANCH  17  18
ATOM     18  C   UNL     1      10.732  32.176  10.954  1.00  0.00     0.000 C 
BRANCH  18  19
ATOM     19  C   UNL     1       9.469  31.295  10.905  1.00  0.00     0.000 C 
BRANCH  19  20
ATOM     20  C   UNL     1       9.593  30.026  10.041  1.00  0.00     0.000 C 
BRANCH  20  21
ATOM     21  C   UNL     1       8.781  30.045   8.729  1.00  0.00     0.000 C 
BRANCH  21  22
ATOM     22  C   UNL     1       9.015  28.843   7.796  1.00  0.00    -0.000 C 
BRANCH  22  23
ATOM     23  C   UNL     1       9.013  29.233   6.309  1.00  0.00    -0.000 C 
BRANCH  23  24
ATOM     24  C   UNL     1      10.089  30.279   5.972  1.00  0.00    -0.000 C 
BRANCH  24  25
ATOM     25  C   UNL     1       9.804  31.018   4.653  1.00  0.00    -0.000 C 
BRANCH  25  26
ATOM     26  C   UNL     1       8.850  30.239   3.734  1.00  0.00    -0.000 C 
BRANCH  26  27
ATOM     27  C   UNL     1       7.582  31.038   3.384  1.00  0.00    -0.000 C 
BRANCH  27  28
ATOM     28  C   UNL     1       6.917  31.659   4.624  1.00  0.00    -0.000 C 
BRANCH  28  29
ATOM     29  C   UNL     1       5.789  30.785   5.189  1.00  0.00    -0.003 C 
ATOM     30  C   UNL     1       5.658  30.964   6.699  1.00  0.00     0.004 C 
ENDBRANCH  28  29
ENDBRANCH  27  28
ENDBRANCH  26  27
ENDBRANCH  25  26
ENDBRANCH  24  25
ENDBRANCH  23  24
ENDBRANCH  22  23
ENDBRANCH  21  22
ENDBRANCH  20  21
ENDBRANCH  19  20
ENDBRANCH  18  19
ENDBRANCH  17  18
ENDBRANCH   1  17
TORSDOF 26
ENDMDL
MODEL 2
REMARK VINA RESULT:    -3.547      2.253      5.102
REMARK INTER + INTRA:         -14.358
REMARK INTER:                  -8.792
REMARK INTRA:                  -5.566
REMARK UNBOUND:                -5.419
REMARK SMILES CCCCCCCCCCCCCCCCCCCCCCCCCCCC(=O)[O-]
REMARK SMILES IDX 15 1 16 2 17 3 18 4 19 5 20 6 21 7 22 8 23 9 24 10 25 11
REMARK SMILES IDX 26 12 27 13 28 14 29 15 30 16 14 17 13 18 12 19 11 20 10 21
REMARK SMILES IDX 9 22 8 23 7 24 6 25 5 26 4 27 3 28 2 29 1 30
REMARK H PARENT
REMARK Flexibility Score: inf
ROOT
ATOM      1  C   UNL     1      10.224  30.208   6.231  1.00  0.00     0.000 C 
ENDROOT
BRANCH   1   2
ATOM      2  C   UNL     1       9.633  29.590   7.505  1.00  0.00     0.000 C 
BRANCH   2   3
ATOM      3  C   UNL     1       8.484  30.448   8.055  1.00  0.00     0.000 C 
BRANCH   3   4
ATOM      4  C   UNL     1       8.648  30.768   9.549  1.00  0.00     0.000 C 
BRANCH   4   5
ATOM      5  C   UNL     1      10.119  30.754  10.003  1.00  0.00     0.000 C 
BRANCH   5   6
ATOM      6  C   UNL     1      10.714  32.166  10.118  1.00  0.00     0.000 C 
BRANCH   6   7
ATOM      7  C   UNL     1      11.653  32.508   8.949  1.00  0.00     0.000 C 
BRANCH   7   8
ATOM      8  C   UNL     1      10.968  33.340   7.848  1.00  0.00     0.000 C 
BRANCH   8   9
ATOM      9  C   UNL     1       9.908  34.336   8.354  1.00  0.00     0.000 C 
BRANCH   9  10
ATOM     10  C   UNL     1       8.491  34.012   7.846  1.00  0.00     0.000 C 
BRANCH  10  11
ATOM     11  C   UNL     1       7.386  34.642   8.713  1.00  0.00     0.000 C 
BRANCH  11  12
ATOM     12  C   UNL     1       6.054  34.891   7.984  1.00  0.00     0.006 C 
BRANCH  12  13
ATOM     13  C   UNL     1       4.859  35.013   8.939  1.00  0.00     0.053 C 
BRANCH  13  14
ATOM     14  C   UNL     1       3.839  33.952   8.659  1.00  0.00     0.041 C 
ATOM     15  O   UNL     1       4.014  32.778   9.082  1.00  0.00    -0.550 OA
ATOM     16  O   UNL     1       2.693  34.260   7.935  1.00  0.00    -0.550 OA
ENDBRANCH  13  14
ENDBRANCH  12  13
ENDBRANCH  11  12
ENDBRANCH  10  11
ENDBRANCH   9  10
ENDBRANCH   8   9
ENDBRANCH   7   8
ENDBRANCH   6   7
ENDBRANCH   5   6
ENDBRANCH   4   5
ENDBRANCH   3   4
ENDBRANCH   2   3
ENDBRANCH   1   2
BRANCH   1  17
ATOM     17  C   UNL     1       9.206  31.130   5.542  1.00  0.00     0.000 C 
BRANCH  17  18
ATOM     18  C   UNL     1       9.391  31.183   4.011  1.00  0.00     0.000 C 
BRANCH  18  19
ATOM     19  C   UNL     1       8.419  30.276   3.233  1.00  0.00     0.000 C 
BRANCH  19  20
ATOM     20  C   UNL     1       8.915  28.837   3.000  1.00  0.00     0.000 C 
BRANCH  20  21
ATOM     21  C   UNL     1       7.974  27.728   3.513  1.00  0.00     0.000 C 
BRANCH  21  22
ATOM     22  C   UNL     1       6.640  28.221   4.104  1.00  0.00    -0.000 C 
BRANCH  22  23
ATOM     23  C   UNL     1       6.653  28.280   5.640  1.00  0.00    -0.000 C 
BRANCH  23  24
ATOM     24  C   UNL     1       5.578  29.224   6.203  1.00  0.00    -0.000 C 
BRANCH  24  25
ATOM     25  C   UNL     1       5.293  30.418   5.274  1.00  0.00    -0.000 C 
BRANCH  25  26
ATOM     26  C   UNL     1       5.463  31.771   5.984  1.00  0.00    -0.000 C 
BRANCH  26  27
ATOM     27  C   UNL     1       6.088  32.842   5.073  1.00  0.00    -0.000 C 
BRANCH  27  28
ATOM     28  C   UNL     1       5.673  32.680   3.602  1.00  0.00    -0.000 C 
BRANCH  28  29
ATOM     29  C   UNL     1       5.510  34.026   2.882  1.00  0.00    -0.003 C 
ATOM     30  C   UNL     1       6.309  34.055   1.581  1.00  0.00     0.004 C 
ENDBRANCH  28  29
ENDBRANCH  27  28
ENDBRANCH  26  27
ENDBRANCH  25  26
ENDBRANCH  24  25
ENDBRANCH  23  24
ENDBRANCH  22  23
ENDBRANCH  21  22
ENDBRANCH  20  21
ENDBRANCH  19  20
ENDBRANCH  18  19
ENDBRANCH  17  18
ENDBRANCH   1  17
TORSDOF 26
ENDMDL
MODEL 3
REMARK VINA RESULT:    -3.545      1.275      2.671
REMARK INTER + INTRA:         -14.351
REMARK INTER:                  -9.125
REMARK INTRA:                  -5.226
REMARK UNBOUND:                -5.419
REMARK SMILES CCCCCCCCCCCCCCCCCCCCCCCCCCCC(=O)[O-]
REMARK SMILES IDX 15 1 16 2 17 3 18 4 19 5 20 6 21 7 22 8 23 9 24 10 25 11
REMARK SMILES IDX 26 12 27 13 28 14 29 15 30 16 14 17 13 18 12 19 11 20 10 21
REMARK SMILES IDX 9 22 8 23 7 24 6 25 5 26 4 27 3 28 2 29 1 30
REMARK H PARENT
REMARK Flexibility Score: inf
ROOT
ATOM      1  C   UNL     1       9.976  34.380   8.520  1.00  0.00     0.000 C 
ENDROOT
BRANCH   1   2
ATOM      2  C   UNL     1       8.906  33.668   7.684  1.00  0.00     0.000 C 
BRANCH   2   3
ATOM      3  C   UNL     1       7.495  34.133   8.078  1.00  0.00     0.000 C 
BRANCH   3   4
ATOM      4  C   UNL     1       7.102  33.691   9.496  1.00  0.00     0.000 C 
BRANCH   4   5
ATOM      5  C   UNL     1       5.906  34.484  10.057  1.00  0.00     0.000 C 
BRANCH   5   6
ATOM      6  C   UNL     1       5.104  35.195   8.956  1.00  0.00     0.000 C 
BRANCH   6   7
ATOM      7  C   UNL     1       3.595  34.917   9.053  1.00  0.00     0.000 C 
BRANCH   7   8
ATOM      8  C   UNL     1       3.053  34.102   7.864  1.00  0.00     0.000 C 
BRANCH   8   9
ATOM      9  C   UNL     1       4.072  33.844   6.738  1.00  0.00     0.000 C 
BRANCH   9  10
ATOM     10  C   UNL     1       4.542  32.380   6.678  1.00  0.00     0.000 C 
BRANCH  10  11
ATOM     11  C   UNL     1       5.593  32.133   5.581  1.00  0.00     0.000 C 
BRANCH  11  12
ATOM     12  C   UNL     1       5.683  33.235   4.511  1.00  0.00     0.006 C 
BRANCH  12  13
ATOM     13  C   UNL     1       6.087  32.702   3.130  1.00  0.00     0.053 C 
BRANCH  13  14
ATOM     14  C   UNL     1       5.601  33.610   2.042  1.00  0.00     0.041 C 
ATOM     15  O   UNL     1       4.420  34.050   2.066  1.00  0.00    -0.550 OA
ATOM     16  O   UNL     1       6.451  33.973   1.004  1.00  0.00    -0.550 OA
ENDBRANCH  13  14
ENDBRANCH  12  13
ENDBRANCH  11  12
ENDBRANCH  10  11
ENDBRANCH   9  10
ENDBRANCH   8   9
ENDBRANCH   7   8
ENDBRANCH   6   7
ENDBRANCH   5   6
ENDBRANCH   4   5
ENDBRANCH   3   4
ENDBRANCH   2   3
ENDBRANCH   1   2
BRANCH   1  17
ATOM     17  C   UNL     1      11.341  33.690   8.373  1.00  0.00     0.000 C 
BRANCH  17  18
ATOM     18  C   UNL     1      11.320  32.221   8.847  1.00  0.00     0.000 C 
BRANCH  18  19
ATOM     19  C   UNL     1      10.955  32.051  10.334  1.00  0.00     0.000 C 
BRANCH  19  20
ATOM     20  C   UNL     1       9.607  31.355  10.598  1.00  0.00     0.000 C 
BRANCH  20  21
ATOM     21  C   UNL     1       9.323  30.121   9.718  1.00  0.00     0.000 C 
BRANCH  21  22
ATOM     22  C   UNL     1       8.028  30.191   8.888  1.00  0.00    -0.000 C 
BRANCH  22  23
ATOM     23  C   UNL     1       8.287  30.149   7.373  1.00  0.00    -0.000 C 
BRANCH  23  24
ATOM     24  C   UNL     1       9.678  29.591   7.028  1.00  0.00    -0.000 C 
BRANCH  24  25
ATOM     25  C   UNL     1      10.330  30.320   5.839  1.00  0.00    -0.000 C 
BRANCH  25  26
ATOM     26  C   UNL     1       9.381  31.328   5.172  1.00  0.00    -0.000 C 
BRANCH  26  27
ATOM     27  C   UNL     1       9.196  31.060   3.668  1.00  0.00    -0.000 C 
BRANCH  27  28
ATOM     28  C   UNL     1       8.884  29.586   3.366  1.00  0.00    -0.000 C 
BRANCH  28  29
ATOM     29  C   UNL     1       7.376  29.299   3.320  1.00  0.00    -0.003 C 
ATOM     30  C   UNL     1       6.936  28.890   1.917  1.00  0.00     0.004 C 
ENDBRANCH  28  29
ENDBRANCH  27  28
ENDBRANCH  26  27
ENDBRANCH  25  26
ENDBRANCH  24  25
ENDBRANCH  23  24
ENDBRANCH  22  23
ENDBRANCH  21  22
ENDBRANCH  20  21
ENDBRANCH  19  20
ENDBRANCH  18  19
ENDBRANCH  17  18
ENDBRANCH   1  17
TORSDOF 26
ENDMDL
MODEL 4
REMARK VINA RESULT:    -3.540      2.326      5.351
REMARK INTER + INTRA:         -14.338
REMARK INTER:                  -9.417
REMARK INTRA:                  -4.922
REMARK UNBOUND:                -5.419
REMARK SMILES CCCCCCCCCCCCCCCCCCCCCCCCCCCC(=O)[O-]
REMARK SMILES IDX 15 1 16 2 17 3 18 4 19 5 20 6 21 7 22 8 23 9 24 10 25 11
REMARK SMILES IDX 26 12 27 13 28 14 29 15 30 16 14 17 13 18 12 19 11 20 10 21
REMARK SMILES IDX 9 22 8 23 7 24 6 25 5 26 4 27 3 28 2 29 1 30
REMARK H PARENT
REMARK Flexibility Score: inf
ROOT
ATOM      1  C   UNL     1      11.226  33.761   8.559  1.00  0.00     0.000 C 
ENDROOT
BRANCH   1   2
ATOM      2  C   UNL     1      12.123  32.573   8.926  1.00  0.00     0.000 C 
BRANCH   2   3
ATOM      3  C   UNL     1      11.848  32.093  10.360  1.00  0.00     0.000 C 
BRANCH   3   4
ATOM      4  C   UNL     1      10.374  31.724  10.586  1.00  0.00     0.000 C 
BRANCH   4   5
ATOM      5  C   UNL     1      10.134  30.202  10.588  1.00  0.00     0.000 C 
BRANCH   5   6
ATOM      6  C   UNL     1       8.860  29.806   9.827  1.00  0.00     0.000 C 
BRANCH   6   7
ATOM      7  C   UNL     1       8.789  30.438   8.426  1.00  0.00     0.000 C 
BRANCH   7   8
ATOM      8  C   UNL     1       9.801  29.827   7.437  1.00  0.00     0.000 C 
BRANCH   8   9
ATOM      9  C   UNL     1       9.251  29.574   6.021  1.00  0.00     0.000 C 
BRANCH   9  10
ATOM     10  C   UNL     1       9.502  30.751   5.062  1.00  0.00     0.000 C 
BRANCH  10  11
ATOM     11  C   UNL     1       9.099  30.436   3.610  1.00  0.00     0.000 C 
BRANCH  11  12
ATOM     12  C   UNL     1       8.878  28.943   3.310  1.00  0.00     0.006 C 
BRANCH  12  13
ATOM     13  C   UNL     1       8.014  28.701   2.065  1.00  0.00     0.053 C 
BRANCH  13  14
ATOM     14  C   UNL     1       8.541  27.551   1.261  1.00  0.00     0.041 C 
ATOM     15  O   UNL     1       7.756  26.853   0.565  1.00  0.00    -0.550 OA
ATOM     16  O   UNL     1       9.898  27.253   1.278  1.00  0.00    -0.550 OA
ENDBRANCH  13  14
ENDBRANCH  12  13
ENDBRANCH  11  12
ENDBRANCH  10  11
ENDBRANCH   9  10
ENDBRANCH   8   9
ENDBRANCH   7   8
ENDBRANCH   6   7
ENDBRANCH   5   6
ENDBRANCH   4   5
ENDBRANCH   3   4
ENDBRANCH   2   3
ENDBRANCH   1   2
BRANCH   1  17
ATOM     17  C   UNL     1      10.517  33.524   7.217  1.00  0.00     0.000 C 
BRANCH  17  18
ATOM     18  C   UNL     1       8.980  33.619   7.330  1.00  0.00     0.000 C 
BRANCH  18  19
ATOM     19  C   UNL     1       8.487  34.177   8.678  1.00  0.00     0.000 C 
BRANCH  19  20
ATOM     20  C   UNL     1       7.010  33.888   9.002  1.00  0.00     0.000 C 
BRANCH  20  21
ATOM     21  C   UNL     1       6.003  34.914   8.442  1.00  0.00     0.000 C 
BRANCH  21  22
ATOM     22  C   UNL     1       4.549  34.419   8.343  1.00  0.00    -0.000 C 
BRANCH  22  23
ATOM     23  C   UNL     1       4.412  32.910   8.604  1.00  0.00    -0.000 C 
BRANCH  23  24
ATOM     24  C   UNL     1       4.209  32.104   7.310  1.00  0.00    -0.000 C 
BRANCH  24  25
ATOM     25  C   UNL     1       5.359  31.117   7.041  1.00  0.00    -0.000 C 
BRANCH  25  26
ATOM     26  C   UNL     1       5.942  31.262   5.626  1.00  0.00    -0.000 C 
BRANCH  26  27
ATOM     27  C   UNL     1       6.164  32.732   5.225  1.00  0.00    -0.000 C 
BRANCH  27  28
ATOM     28  C   UNL     1       5.393  33.118   3.953  1.00  0.00    -0.000 C 
BRANCH  28  29
ATOM     29  C   UNL     1       5.449  34.625   3.663  1.00  0.00    -0.003 C 
ATOM     30  C   UNL     1       4.832  35.428   4.805  1.00  0.00     0.004 C 
ENDBRANCH  28  29
ENDBRANCH  27  28
ENDBRANCH  26  27
ENDBRANCH  25  26
ENDBRANCH  24  25
ENDBRANCH  23  24
ENDBRANCH  22  23
ENDBRANCH  21  22
ENDBRANCH  20  21
ENDBRANCH  19  20
ENDBRANCH  18  19
ENDBRANCH  17  18
ENDBRANCH   1  17
TORSDOF 26
ENDMDL
MODEL 5
REMARK VINA RESULT:    -3.534      1.515      4.516
REMARK INTER + INTRA:         -14.324
REMARK INTER:                  -8.708
REMARK INTRA:                  -5.615
REMARK UNBOUND:                -5.419
REMARK SMILES CCCCCCCCCCCCCCCCCCCCCCCCCCCC(=O)[O-]
REMARK SMILES IDX 15 1 16 2 17 3 18 4 19 5 20 6 21 7 22 8 23 9 24 10 25 11
REMARK SMILES IDX 26 12 27 13 28 14 29 15 30 16 14 17 13 18 12 19 11 20 10 21
REMARK SMILES IDX 9 22 8 23 7 24 6 25 5 26 4 27 3 28 2 29 1 30
REMARK H PARENT
REMARK Flexibility Score: inf
ROOT
ATOM      1  C   UNL     1       7.147  32.331   7.567  1.00  0.00     0.000 C 
ENDROOT
BRANCH   1   2
ATOM      2  C   UNL     1       6.734  33.466   6.621  1.00  0.00     0.000 C 
BRANCH   2   3
ATOM      3  C   UNL     1       6.274  34.703   7.408  1.00  0.00     0.000 C 
BRANCH   3   4
ATOM      4  C   UNL     1       6.730  34.674   8.875  1.00  0.00     0.000 C 
BRANCH   4   5
ATOM      5  C   UNL     1       5.551  34.665   9.865  1.00  0.00     0.000 C 
BRANCH   5   6
ATOM      6  C   UNL     1       4.300  35.353   9.297  1.00  0.00     0.000 C 
BRANCH   6   7
ATOM      7  C   UNL     1       3.063  34.439   9.318  1.00  0.00     0.000 C 
BRANCH   7   8
ATOM      8  C   UNL     1       2.539  34.100   7.909  1.00  0.00     0.000 C 
BRANCH   8   9
ATOM      9  C   UNL     1       3.133  32.822   7.288  1.00  0.00     0.000 C 
BRANCH   9  10
ATOM     10  C   UNL     1       3.133  32.849   5.749  1.00  0.00     0.000 C 
BRANCH  10  11
ATOM     11  C   UNL     1       2.976  34.270   5.176  1.00  0.00     0.000 C 
BRANCH  11  12
ATOM     12  C   UNL     1       4.181  34.778   4.366  1.00  0.00     0.006 C 
BRANCH  12  13
ATOM     13  C   UNL     1       4.229  34.213   2.940  1.00  0.00     0.053 C 
BRANCH  13  14
ATOM     14  C   UNL     1       5.608  33.737   2.598  1.00  0.00     0.041 C 
ATOM     15  O   UNL     1       6.283  34.332   1.716  1.00  0.00    -0.550 OA
ATOM     16  O   UNL     1       6.149  32.638   3.256  1.00  0.00    -0.550 OA
ENDBRANCH  13  14
ENDBRANCH  12  13
ENDBRANCH  11  12
ENDBRANCH  10  11
ENDBRANCH   9  10
ENDBRANCH   8   9
ENDBRANCH   7   8
ENDBRANCH   6   7
ENDBRANCH   5   6
ENDBRANCH   4   5
ENDBRANCH   3   4
ENDBRANCH   2   3
ENDBRANCH   1   2
BRANCH   1  17
ATOM     17  C   UNL     1       6.196  31.132   7.439  1.00  0.00     0.000 C 
BRANCH  17  18
ATOM     18  C   UNL     1       6.903  29.864   6.916  1.00  0.00     0.000 C 
BRANCH  18  19
ATOM     19  C   UNL     1       7.315  29.946   5.434  1.00  0.00     0.000 C 
BRANCH  19  20
ATOM     20  C   UNL     1       8.784  29.588   5.145  1.00  0.00     0.000 C 
BRANCH  20  21
ATOM     21  C   UNL     1       9.807  30.153   6.153  1.00  0.00     0.000 C 
BRANCH  21  22
ATOM     22  C   UNL     1      10.288  31.586   5.865  1.00  0.00    -0.000 C 
BRANCH  22  23
ATOM     23  C   UNL     1      10.958  32.247   7.081  1.00  0.00    -0.000 C 
BRANCH  23  24
ATOM     24  C   UNL     1      10.499  33.700   7.289  1.00  0.00    -0.000 C 
BRANCH  24  25
ATOM     25  C   UNL     1      10.414  34.086   8.777  1.00  0.00    -0.000 C 
BRANCH  25  26
ATOM     26  C   UNL     1      10.547  32.872   9.710  1.00  0.00    -0.000 C 
BRANCH  26  27
ATOM     27  C   UNL     1       9.298  32.657  10.584  1.00  0.00    -0.000 C 
BRANCH  27  28
ATOM     28  C   UNL     1       8.748  31.226  10.481  1.00  0.00    -0.000 C 
BRANCH  28  29
ATOM     29  C   UNL     1       9.772  30.240   9.901  1.00  0.00    -0.003 C 
ATOM     30  C   UNL     1       9.138  28.874   9.647  1.00  0.00     0.004 C 
ENDBRANCH  28  29
ENDBRANCH  27  28
ENDBRANCH  26  27
ENDBRANCH  25  26
ENDBRANCH  24  25
ENDBRANCH  23  24
ENDBRANCH  22  23
ENDBRANCH  21  22
ENDBRANCH  20  21
ENDBRANCH  19  20
ENDBRANCH  18  19
ENDBRANCH  17  18
ENDBRANCH   1  17
TORSDOF 26
ENDMDL
MODEL 6
REMARK VINA RESULT:    -3.522      2.836      5.884
REMARK INTER + INTRA:         -14.293
REMARK INTER:                  -9.106
REMARK INTRA:                  -5.187
REMARK UNBOUND:                -5.419
REMARK SMILES CCCCCCCCCCCCCCCCCCCCCCCCCCCC(=O)[O-]
REMARK SMILES IDX 15 1 16 2 17 3 18 4 19 5 20 6 21 7 22 8 23 9 24 10 25 11
REMARK SMILES IDX 26 12 27 13 28 14 29 15 30 16 14 17 13 18 12 19 11 20 10 21
REMARK SMILES IDX 9 22 8 23 7 24 6 25 5 26 4 27 3 28 2 29 1 30
REMARK H PARENT
REMARK Flexibility Score: inf
ROOT
ATOM      1  C   UNL     1       8.614  31.604  10.022  1.00  0.00     0.000 C 
ENDROOT
BRANCH   1   2
ATOM      2  C   UNL     1       9.995  30.964   9.836  1.00  0.00     0.000 C 
BRANCH   2   3
ATOM      3  C   UNL     1      11.112  32.012   9.961  1.00  0.00     0.000 C 
BRANCH   3   4
ATOM      4  C   UNL     1      11.743  32.368   8.606  1.00  0.00     0.000 C 
BRANCH   4   5
ATOM      5  C   UNL     1      10.965  33.464   7.855  1.00  0.00     0.000 C 
BRANCH   5   6
ATOM      6  C   UNL     1      10.537  33.021   6.447  1.00  0.00     0.000 C 
BRANCH   6   7
ATOM      7  C   UNL     1      10.601  31.496   6.262  1.00  0.00     0.000 C 
BRANCH   7   8
ATOM      8  C   UNL     1       9.551  30.963   5.269  1.00  0.00     0.000 C 
BRANCH   8   9
ATOM      9  C   UNL     1       8.812  29.692   5.727  1.00  0.00     0.000 C 
BRANCH   9  10
ATOM     10  C   UNL     1       8.485  28.738   4.563  1.00  0.00     0.000 C 
BRANCH  10  11
ATOM     11  C   UNL     1       8.783  29.354   3.184  1.00  0.00     0.000 C 
BRANCH  11  12
ATOM     12  C   UNL     1       8.526  28.419   1.989  1.00  0.00     0.006 C 
BRANCH  12  13
ATOM     13  C   UNL     1       9.810  28.032   1.241  1.00  0.00     0.053 C 
BRANCH  13  14
ATOM     14  C   UNL     1       9.684  26.669   0.632  1.00  0.00     0.041 C 
ATOM     15  O   UNL     1       8.588  26.297   0.132  1.00  0.00    -0.550 OA
ATOM     16  O   UNL     1      10.777  25.810   0.613  1.00  0.00    -0.550 OA
ENDBRANCH  13  14
ENDBRANCH  12  13
ENDBRANCH  11  12
ENDBRANCH  10  11
ENDBRANCH   9  10
ENDBRANCH   8   9
ENDBRANCH   7   8
ENDBRANCH   6   7
ENDBRANCH   5   6
ENDBRANCH   4   5
ENDBRANCH   3   4
ENDBRANCH   2   3
ENDBRANCH   1   2
BRANCH   1  17
ATOM     17  C   UNL     1       7.604  31.042   9.010  1.00  0.00     0.000 C 
BRANCH  17  18
ATOM     18  C   UNL     1       6.955  32.142   8.143  1.00  0.00     0.000 C 
BRANCH  18  19
ATOM     19  C   UNL     1       7.497  33.556   8.420  1.00  0.00     0.000 C 
BRANCH  19  20
ATOM     20  C   UNL     1       6.423  34.646   8.587  1.00  0.00     0.000 C 
BRANCH  20  21
ATOM     21  C   UNL     1       5.057  34.147   9.103  1.00  0.00     0.000 C 
BRANCH  21  22
ATOM     22  C   UNL     1       3.848  34.523   8.227  1.00  0.00    -0.000 C 
BRANCH  22  23
ATOM     23  C   UNL     1       3.440  33.400   7.259  1.00  0.00    -0.000 C 
BRANCH  23  24
ATOM     24  C   UNL     1       3.336  33.886   5.804  1.00  0.00    -0.000 C 
BRANCH  24  25
ATOM     25  C   UNL     1       4.385  34.961   5.462  1.00  0.00    -0.000 C 
BRANCH  25  26
ATOM     26  C   UNL     1       5.399  34.482   4.411  1.00  0.00    -0.000 C 
BRANCH  26  27
ATOM     27  C   UNL     1       6.179  33.236   4.867  1.00  0.00    -0.000 C 
BRANCH  27  28
ATOM     28  C   UNL     1       6.342  32.200   3.743  1.00  0.00    -0.000 C 
BRANCH  28  29
ATOM     29  C   UNL     1       5.333  31.048   3.851  1.00  0.00    -0.003 C 
ATOM     30  C   UNL     1       5.216  30.552   5.289  1.00  0.00     0.004 C 
ENDBRANCH  28  29
ENDBRANCH  27  28
ENDBRANCH  26  27
ENDBRANCH  25  26
ENDBRANCH  24  25
ENDBRANCH  23  24
ENDBRANCH  22  23
ENDBRANCH  21  22
ENDBRANCH  20  21
ENDBRANCH  19  20
ENDBRANCH  18  19
ENDBRANCH  17  18
ENDBRANCH   1  17
TORSDOF 26
ENDMDL
MODEL 7
REMARK VINA RESULT:    -3.514      2.652      4.743
REMARK INTER + INTRA:         -14.273
REMARK INTER:                  -8.609
REMARK INTRA:                  -5.663
REMARK UNBOUND:                -5.419
REMARK SMILES CCCCCCCCCCCCCCCCCCCCCCCCCCCC(=O)[O-]
REMARK SMILES IDX 15 1 16 2 17 3 18 4 19 5 20 6 21 7 22 8 23 9 24 10 25 11
REMARK SMILES IDX 26 12 27 13 28 14 29 15 30 16 14 17 13 18 12 19 11 20 10 21
REMARK SMILES IDX 9 22 8 23 7 24 6 25 5 26 4 27 3 28 2 29 1 30
REMARK H PARENT
REMARK Flexibility Score: inf
ROOT
ATOM      1  C   UNL     1       9.711  33.727   8.571  1.00  0.00     0.000 C 
ENDROOT
BRANCH   1   2
ATOM      2  C   UNL     1      10.021  32.748   9.711  1.00  0.00     0.000 C 
BRANCH   2   3
ATOM      3  C   UNL     1       8.800  31.873  10.036  1.00  0.00     0.000 C 
BRANCH   3   4
ATOM      4  C   UNL     1       7.877  32.513  11.084  1.00  0.00     0.000 C 
BRANCH   4   5
ATOM      5  C   UNL     1       6.423  32.651  10.593  1.00  0.00     0.000 C 
BRANCH   5   6
ATOM      6  C   UNL     1       6.097  34.074  10.113  1.00  0.00     0.000 C 
BRANCH   6   7
ATOM      7  C   UNL     1       4.773  34.145   9.334  1.00  0.00     0.000 C 
BRANCH   7   8
ATOM      8  C   UNL     1       4.974  34.214   7.808  1.00  0.00     0.000 C 
BRANCH   8   9
ATOM      9  C   UNL     1       6.442  34.310   7.352  1.00  0.00     0.000 C 
BRANCH   9  10
ATOM     10  C   UNL     1       6.814  33.245   6.305  1.00  0.00     0.000 C 
BRANCH  10  11
ATOM     11  C   UNL     1       6.058  31.919   6.507  1.00  0.00     0.000 C 
BRANCH  11  12
ATOM     12  C   UNL     1       6.811  30.863   7.334  1.00  0.00     0.006 C 
BRANCH  12  13
ATOM     13  C   UNL     1       6.545  29.426   6.863  1.00  0.00     0.053 C 
BRANCH  13  14
ATOM     14  C   UNL     1       7.653  28.511   7.284  1.00  0.00     0.041 C 
ATOM     15  O   UNL     1       8.398  28.821   8.253  1.00  0.00    -0.550 OA
ATOM     16  O   UNL     1       7.863  27.313   6.611  1.00  0.00    -0.550 OA
ENDBRANCH  13  14
ENDBRANCH  12  13
ENDBRANCH  11  12
ENDBRANCH  10  11
ENDBRANCH   9  10
ENDBRANCH   8   9
ENDBRANCH   7   8
ENDBRANCH   6   7
ENDBRANCH   5   6
ENDBRANCH   4   5
ENDBRANCH   3   4
ENDBRANCH   2   3
ENDBRANCH   1   2
BRANCH   1  17
ATOM     17  C   UNL     1      10.456  33.334   7.287  1.00  0.00     0.000 C 
BRANCH  17  18
ATOM     18  C   UNL     1      11.145  31.957   7.396  1.00  0.00     0.000 C 
BRANCH  18  19
ATOM     19  C   UNL     1      10.602  30.907   6.409  1.00  0.00     0.000 C 
BRANCH  19  20
ATOM     20  C   UNL     1       9.882  31.483   5.176  1.00  0.00     0.000 C 
BRANCH  20  21
ATOM     21  C   UNL     1       9.093  30.456   4.338  1.00  0.00     0.000 C 
BRANCH  21  22
ATOM     22  C   UNL     1       8.169  31.057   3.263  1.00  0.00    -0.000 C 
BRANCH  22  23
ATOM     23  C   UNL     1       6.774  30.411   3.246  1.00  0.00    -0.000 C 
BRANCH  23  24
ATOM     24  C   UNL     1       5.673  31.398   2.827  1.00  0.00    -0.000 C 
BRANCH  24  25
ATOM     25  C   UNL     1       6.231  32.782   2.448  1.00  0.00    -0.000 C 
BRANCH  25  26
ATOM     26  C   UNL     1       5.187  33.901   2.599  1.00  0.00    -0.000 C 
BRANCH  26  27
ATOM     27  C   UNL     1       5.576  34.930   3.676  1.00  0.00    -0.000 C 
BRANCH  27  28
ATOM     28  C   UNL     1       4.360  35.447   4.461  1.00  0.00    -0.000 C 
BRANCH  28  29
ATOM     29  C   UNL     1       3.069  34.692   4.115  1.00  0.00    -0.003 C 
ATOM     30  C   UNL     1       2.753  33.631   5.166  1.00  0.00     0.004 C 
ENDBRANCH  28  29
ENDBRANCH  27  28
ENDBRANCH  26  27
ENDBRANCH  25  26
ENDBRANCH  24  25
ENDBRANCH  23  24
ENDBRANCH  22  23
ENDBRANCH  21  22
ENDBRANCH  20  21
ENDBRANCH  19  20
ENDBRANCH  18  19
ENDBRANCH  17  18
ENDBRANCH   1  17
TORSDOF 26
ENDMDL
MODEL 8
REMARK VINA RESULT:    -3.489      1.825      4.930
REMARK INTER + INTRA:         -14.210
REMARK INTER:                  -9.049
REMARK INTRA:                  -5.161
REMARK UNBOUND:                -5.419
REMARK SMILES CCCCCCCCCCCCCCCCCCCCCCCCCCCC(=O)[O-]
REMARK SMILES IDX 15 1 16 2 17 3 18 4 19 5 20 6 21 7 22 8 23 9 24 10 25 11
REMARK SMILES IDX 26 12 27 13 28 14 29 15 30 16 14 17 13 18 12 19 11 20 10 21
REMARK SMILES IDX 9 22 8 23 7 24 6 25 5 26 4 27 3 28 2 29 1 30
REMARK H PARENT
REMARK Flexibility Score: inf
ROOT
ATOM      1  C   UNL     1      11.672  34.014   8.876  1.00  0.00     0.000 C 
ENDROOT
BRANCH   1   2
ATOM      2  C   UNL     1      11.963  32.509   8.803  1.00  0.00     0.000 C 
BRANCH   2   3
ATOM      3  C   UNL     1      11.573  31.806  10.112  1.00  0.00     0.000 C 
BRANCH   3   4
ATOM      4  C   UNL     1      10.175  32.210  10.607  1.00  0.00     0.000 C 
BRANCH   4   5
ATOM      5  C   UNL     1       9.085  31.200  10.204  1.00  0.00     0.000 C 
BRANCH   5   6
ATOM      6  C   UNL     1       9.670  29.918   9.589  1.00  0.00     0.000 C 
BRANCH   6   7
ATOM      7  C   UNL     1       9.378  29.800   8.084  1.00  0.00     0.000 C 
BRANCH   7   8
ATOM      8  C   UNL     1       8.550  28.551   7.726  1.00  0.00     0.000 C 
BRANCH   8   9
ATOM      9  C   UNL     1       7.356  28.811   6.789  1.00  0.00     0.000 C 
BRANCH   9  10
ATOM     10  C   UNL     1       6.785  30.234   6.928  1.00  0.00     0.000 C 
BRANCH  10  11
ATOM     11  C   UNL     1       6.076  30.721   5.651  1.00  0.00     0.000 C 
BRANCH  11  12
ATOM     12  C   UNL     1       6.971  31.502   4.672  1.00  0.00     0.006 C 
BRANCH  12  13
ATOM     13  C   UNL     1       7.378  30.678   3.442  1.00  0.00     0.053 C 
BRANCH  13  14
ATOM     14  C   UNL     1       8.770  30.144   3.592  1.00  0.00     0.041 C 
ATOM     15  O   UNL     1       9.182  29.228   2.831  1.00  0.00    -0.550 OA
ATOM     16  O   UNL     1       9.614  30.659   4.569  1.00  0.00    -0.550 OA
ENDBRANCH  13  14
ENDBRANCH  12  13
ENDBRANCH  11  12
ENDBRANCH  10  11
ENDBRANCH   9  10
ENDBRANCH   8   9
ENDBRANCH   7   8
ENDBRANCH   6   7
ENDBRANCH   5   6
ENDBRANCH   4   5
ENDBRANCH   3   4
ENDBRANCH   2   3
ENDBRANCH   1   2
BRANCH   1  17
ATOM     17  C   UNL     1      10.742  34.452   7.735  1.00  0.00     0.000 C 
BRANCH  17  18
ATOM     18  C   UNL     1      10.013  33.264   7.071  1.00  0.00     0.000 C 
BRANCH  18  19
ATOM     19  C   UNL     1       8.480  33.312   7.215  1.00  0.00     0.000 C 
BRANCH  19  20
ATOM     20  C   UNL     1       7.962  34.172   8.381  1.00  0.00     0.000 C 
BRANCH  20  21
ATOM     21  C   UNL     1       6.553  34.768   8.181  1.00  0.00     0.000 C 
BRANCH  21  22
ATOM     22  C   UNL     1       5.433  33.739   7.947  1.00  0.00    -0.000 C 
BRANCH  22  23
ATOM     23  C   UNL     1       4.608  34.031   6.683  1.00  0.00    -0.000 C 
BRANCH  23  24
ATOM     24  C   UNL     1       5.246  35.118   5.801  1.00  0.00    -0.000 C 
BRANCH  24  25
ATOM     25  C   UNL     1       4.633  35.171   4.390  1.00  0.00    -0.000 C 
BRANCH  25  26
ATOM     26  C   UNL     1       5.460  34.389   3.358  1.00  0.00    -0.000 C 
BRANCH  26  27
ATOM     27  C   UNL     1       4.623  33.939   2.147  1.00  0.00    -0.000 C 
BRANCH  27  28
ATOM     28  C   UNL     1       4.473  32.411   2.071  1.00  0.00    -0.000 C 
BRANCH  28  29
ATOM     29  C   UNL     1       3.598  31.847   3.200  1.00  0.00    -0.003 C 
ATOM     30  C   UNL     1       2.234  32.531   3.234  1.00  0.00     0.004 C 
ENDBRANCH  28  29
ENDBRANCH  27  28
ENDBRANCH  26  27
ENDBRANCH  25  26
ENDBRANCH  24  25
ENDBRANCH  23  24
ENDBRANCH  22  23
ENDBRANCH  21  22
ENDBRANCH  20  21
ENDBRANCH  19  20
ENDBRANCH  18  19
ENDBRANCH  17  18
ENDBRANCH   1  17
TORSDOF 26
ENDMDL
MODEL 9
REMARK VINA RESULT:    -3.458     10.768     14.415
REMARK INTER + INTRA:         -14.133
REMARK INTER:                  -8.310
REMARK INTRA:                  -5.823
REMARK UNBOUND:                -5.419
REMARK SMILES CCCCCCCCCCCCCCCCCCCCCCCCCCCC(=O)[O-]
REMARK SMILES IDX 15 1 16 2 17 3 18 4 19 5 20 6 21 7 22 8 23 9 24 10 25 11
REMARK SMILES IDX 26 12 27 13 28 14 29 15 30 16 14 17 13 18 12 19 11 20 10 21
REMARK SMILES IDX 9 22 8 23 7 24 6 25 5 26 4 27 3 28 2 29 1 30
REMARK H PARENT
REMARK Flexibility Score: inf
ROOT
ATOM      1  C   UNL     1       5.142  38.190  -5.250  1.00  0.00     0.000 C 
ENDROOT
BRANCH   1   2
ATOM      2  C   UNL     1       6.233  38.779  -6.153  1.00  0.00     0.000 C 
BRANCH   2   3
ATOM      3  C   UNL     1       5.626  39.677  -7.242  1.00  0.00     0.000 C 
BRANCH   3   4
ATOM      4  C   UNL     1       4.110  39.478  -7.394  1.00  0.00     0.000 C 
BRANCH   4   5
ATOM      5  C   UNL     1       3.728  38.794  -8.720  1.00  0.00     0.000 C 
BRANCH   5   6
ATOM      6  C   UNL     1       2.352  38.113  -8.655  1.00  0.00     0.000 C 
BRANCH   6   7
ATOM      7  C   UNL     1       1.758  38.117  -7.237  1.00  0.00     0.000 C 
BRANCH   7   8
ATOM      8  C   UNL     1       0.628  37.086  -7.054  1.00  0.00     0.000 C 
BRANCH   8   9
ATOM      9  C   UNL     1       0.571  36.427  -5.663  1.00  0.00     0.000 C 
BRANCH   9  10
ATOM     10  C   UNL     1       1.488  37.116  -4.636  1.00  0.00     0.000 C 
BRANCH  10  11
ATOM     11  C   UNL     1       1.835  36.209  -3.441  1.00  0.00     0.000 C 
BRANCH  11  12
ATOM     12  C   UNL     1       0.800  36.214  -2.303  1.00  0.00     0.006 C 
BRANCH  12  13
ATOM     13  C   UNL     1       0.937  35.011  -1.360  1.00  0.00     0.053 C 
BRANCH  13  14
ATOM     14  C   UNL     1       0.955  35.452   0.072  1.00  0.00     0.041 C 
ATOM     15  O   UNL     1       1.479  34.719   0.953  1.00  0.00    -0.550 OA
ATOM     16  O   UNL     1       0.398  36.673   0.433  1.00  0.00    -0.550 OA
ENDBRANCH  13  14
ENDBRANCH  12  13
ENDBRANCH  11  12
ENDBRANCH  10  11
ENDBRANCH   9  10
ENDBRANCH   8   9
ENDBRANCH   7   8
ENDBRANCH   6   7
ENDBRANCH   5   6
ENDBRANCH   4   5
ENDBRANCH   3   4
ENDBRANCH   2   3
ENDBRANCH   1   2
BRANCH   1  17
ATOM     17  C   UNL     1       5.172  36.655  -5.279  1.00  0.00     0.000 C 
BRANCH  17  18
ATOM     18  C   UNL     1       6.005  36.097  -6.452  1.00  0.00     0.000 C 
BRANCH  18  19
ATOM     19  C   UNL     1       5.156  35.524  -7.603  1.00  0.00     0.000 C 
BRANCH  19  20
ATOM     20  C   UNL     1       3.759  35.021  -7.195  1.00  0.00     0.000 C 
BRANCH  20  21
ATOM     21  C   UNL     1       3.203  33.865  -8.051  1.00  0.00     0.000 C 
BRANCH  21  22
ATOM     22  C   UNL     1       4.182  33.287  -9.090  1.00  0.00    -0.000 C 
BRANCH  22  23
ATOM     23  C   UNL     1       4.917  32.035  -8.586  1.00  0.00    -0.000 C 
BRANCH  23  24
ATOM     24  C   UNL     1       6.444  32.147  -8.737  1.00  0.00    -0.000 C 
BRANCH  24  25
ATOM     25  C   UNL     1       7.158  32.357  -7.390  1.00  0.00    -0.000 C 
BRANCH  25  26
ATOM     26  C   UNL     1       6.304  31.910  -6.193  1.00  0.00    -0.000 C 
BRANCH  26  27
ATOM     27  C   UNL     1       6.431  32.859  -4.988  1.00  0.00    -0.000 C 
BRANCH  27  28
ATOM     28  C   UNL     1       5.084  33.110  -4.292  1.00  0.00    -0.000 C 
BRANCH  28  29
ATOM     29  C   UNL     1       3.959  32.223  -4.845  1.00  0.00    -0.003 C 
ATOM     30  C   UNL     1       2.595  32.684  -4.339  1.00  0.00     0.004 C 
ENDBRANCH  28  29
ENDBRANCH  27  28
ENDBRANCH  26  27
ENDBRANCH  25  26
ENDBRANCH  24  25
ENDBRANCH  23  24
ENDBRANCH  22  23
ENDBRANCH  21  22
ENDBRANCH  20  21
ENDBRANCH  19  20
ENDBRANCH  18  19
ENDBRANCH  17  18
ENDBRANCH   1  17
TORSDOF 26
ENDMDL
