MODEL 1
REMARK VINA RESULT:    13.509      0.000      0.000
REMARK INTER + INTRA:          16.744
REMARK INTER:                  16.273
REMARK INTRA:                   0.471
REMARK UNBOUND:                 0.471
REMARK SMILES O=c1c(O)c(-c2ccc(O)c(O)c2)oc2cc(O)cc(O)c12
REMARK SMILES IDX 5 1 3 2 2 3 1 4 22 5 20 6 19 7 17 8 16 9 15 10 14 11 6 12
REMARK SMILES IDX 7 13 8 14 9 15 13 16 11 17 10 18 12 20 4 22 21 24 18 26
REMARK H PARENT 10 19 12 21 4 23 21 25 18 27
REMARK Flexibility Score: inf
ROOT
ATOM      1  C   UNL     1      13.280   7.499 127.347  1.00  0.00     0.180 A 
ATOM      2  C   UNL     1      13.614   8.625 126.576  1.00  0.00     0.208 A 
ATOM      3  C   UNL     1      13.313   8.625 125.204  1.00  0.00     0.238 A 
ATOM      4  O   UNL     1      13.566   9.657 124.530  1.00  0.00    -0.285 OA
ATOM      5  C   UNL     1      12.696   7.493 124.619  1.00  0.00     0.111 A 
ATOM      6  C   UNL     1      12.382   7.369 123.231  1.00  0.00     0.134 A 
ATOM      7  C   UNL     1      11.654   6.259 122.786  1.00  0.00     0.093 A 
ATOM      8  C   UNL     1      11.286   5.239 123.662  1.00  0.00     0.123 A 
ATOM      9  C   UNL     1      11.641   5.323 125.010  1.00  0.00     0.094 A 
ATOM     10  C   UNL     1      12.335   6.435 125.491  1.00  0.00     0.146 A 
ATOM     11  O   UNL     1      12.643   6.481 126.782  1.00  0.00    -0.452 OA
ENDROOT
BRANCH   1  12
ATOM     12  C   UNL     1      13.588   7.415 128.794  1.00  0.00     0.025 A 
ATOM     13  C   UNL     1      14.211   8.475 129.471  1.00  0.00     0.016 A 
ATOM     14  C   UNL     1      14.513   8.364 130.829  1.00  0.00     0.051 A 
ATOM     15  C   UNL     1      14.214   7.192 131.534  1.00  0.00     0.157 A 
ATOM     16  C   UNL     1      13.307   6.231 129.493  1.00  0.00     0.062 A 
ATOM     17  C   UNL     1      13.606   6.110 130.856  1.00  0.00     0.158 A 
BRANCH  15  18
ATOM     18  O   UNL     1      14.538   7.146 132.891  1.00  0.00    -0.504 OA
ATOM     19  H   UNL     1      14.234   6.418 133.521  1.00  0.00     0.293 HD
ENDBRANCH  15  18
BRANCH  17  20
ATOM     20  O   UNL     1      13.287   4.906 131.489  1.00  0.00    -0.504 OA
ATOM     21  H   UNL     1      12.884   4.110 131.016  1.00  0.00     0.293 HD
ENDBRANCH  17  20
ENDBRANCH   1  12
BRANCH   2  22
ATOM     22  O   UNL     1      14.204   9.740 127.178  1.00  0.00    -0.502 OA
ATOM     23  H   UNL     1      14.942   9.659 127.867  1.00  0.00     0.293 HD
ENDBRANCH   2  22
BRANCH   6  24
ATOM     24  O   UNL     1      12.783   8.285 122.255  1.00  0.00    -0.507 OA
ATOM     25  H   UNL     1      12.510   8.246 121.284  1.00  0.00     0.293 HD
ENDBRANCH   6  24
BRANCH   8  26
ATOM     26  O   UNL     1      10.576   4.141 123.182  1.00  0.00    -0.508 OA
ATOM     27  H   UNL     1       9.611   3.977 123.444  1.00  0.00     0.293 HD
ENDBRANCH   8  26
TORSDOF 6
ENDMDL
MODEL 2
REMARK VINA RESULT:    14.409      8.331     13.803
REMARK INTER + INTRA:          17.828
REMARK INTER:                  17.357
REMARK INTRA:                   0.471
REMARK UNBOUND:                 0.471
REMARK SMILES O=c1c(O)c(-c2ccc(O)c(O)c2)oc2cc(O)cc(O)c12
REMARK SMILES IDX 5 1 3 2 2 3 1 4 22 5 20 6 19 7 17 8 16 9 15 10 14 11 6 12
REMARK SMILES IDX 7 13 8 14 9 15 13 16 11 17 10 18 12 20 4 22 21 24 18 26
REMARK H PARENT 10 19 12 21 4 23 21 25 18 27
REMARK Flexibility Score: inf
ROOT
ATOM      1  C   UNL     1      19.714   7.682 136.381  1.00  0.00     0.180 A 
ATOM      2  C   UNL     1      18.949   8.240 137.420  1.00  0.00     0.208 A 
ATOM      3  C   UNL     1      19.307   7.970 138.751  1.00  0.00     0.238 A 
ATOM      4  O   UNL     1      18.651   8.516 139.675  1.00  0.00    -0.285 OA
ATOM      5  C   UNL     1      20.416   7.133 139.025  1.00  0.00     0.111 A 
ATOM      6  C   UNL     1      20.844   6.760 140.335  1.00  0.00     0.134 A 
ATOM      7  C   UNL     1      22.032   6.035 140.492  1.00  0.00     0.093 A 
ATOM      8  C   UNL     1      22.770   5.613 139.387  1.00  0.00     0.123 A 
ATOM      9  C   UNL     1      22.327   5.921 138.100  1.00  0.00     0.094 A 
ATOM     10  C   UNL     1      21.166   6.675 137.912  1.00  0.00     0.146 A 
ATOM     11  O   UNL     1      20.786   6.956 136.671  1.00  0.00    -0.452 OA
ENDROOT
BRANCH   1  12
ATOM     12  C   UNL     1      19.383   7.901 134.953  1.00  0.00     0.025 A 
ATOM     13  C   UNL     1      18.285   8.689 134.570  1.00  0.00     0.016 A 
ATOM     14  C   UNL     1      17.980   8.861 133.219  1.00  0.00     0.051 A 
ATOM     15  C   UNL     1      18.749   8.243 132.227  1.00  0.00     0.157 A 
ATOM     16  C   UNL     1      20.142   7.262 133.962  1.00  0.00     0.062 A 
ATOM     17  C   UNL     1      19.843   7.430 132.604  1.00  0.00     0.158 A 
BRANCH  15  18
ATOM     18  O   UNL     1      18.392   8.459 130.895  1.00  0.00    -0.504 OA
ATOM     19  H   UNL     1      19.053   8.649 130.157  1.00  0.00     0.293 HD
ENDBRANCH  15  18
BRANCH  17  20
ATOM     20  O   UNL     1      20.651   6.773 131.672  1.00  0.00    -0.504 OA
ATOM     21  H   UNL     1      21.266   6.006 131.901  1.00  0.00     0.293 HD
ENDBRANCH  17  20
ENDBRANCH   1  12
BRANCH   2  22
ATOM     22  O   UNL     1      17.871   9.080 137.126  1.00  0.00    -0.502 OA
ATOM     23  H   UNL     1      17.979  10.079 137.001  1.00  0.00     0.293 HD
ENDBRANCH   2  22
BRANCH   6  24
ATOM     24  O   UNL     1      20.132   7.051 141.501  1.00  0.00    -0.507 OA
ATOM     25  H   UNL     1      19.926   7.982 141.832  1.00  0.00     0.293 HD
ENDBRANCH   6  24
BRANCH   8  26
ATOM     26  O   UNL     1      23.938   4.879 139.580  1.00  0.00    -0.508 OA
ATOM     27  H   UNL     1      23.992   3.895 139.344  1.00  0.00     0.293 HD
ENDBRANCH   8  26
TORSDOF 6
ENDMDL
MODEL 3
REMARK VINA RESULT:    15.163      1.537      7.414
REMARK INTER + INTRA:          18.736
REMARK INTER:                  18.193
REMARK INTRA:                   0.543
REMARK UNBOUND:                 0.471
REMARK SMILES O=c1c(O)c(-c2ccc(O)c(O)c2)oc2cc(O)cc(O)c12
REMARK SMILES IDX 5 1 3 2 2 3 1 4 22 5 20 6 19 7 17 8 16 9 15 10 14 11 6 12
REMARK SMILES IDX 7 13 8 14 9 15 13 16 11 17 10 18 12 20 4 22 21 24 18 26
REMARK H PARENT 10 19 12 21 4 23 21 25 18 27
REMARK Flexibility Score: inf
ROOT
ATOM      1  C   UNL     1      13.595   7.550 128.276  1.00  0.00     0.180 A 
ATOM      2  C   UNL     1      13.156   6.526 129.134  1.00  0.00     0.208 A 
ATOM      3  C   UNL     1      13.553   6.548 130.481  1.00  0.00     0.238 A 
ATOM      4  O   UNL     1      13.113   5.660 131.255  1.00  0.00    -0.285 OA
ATOM      5  C   UNL     1      14.398   7.584 130.949  1.00  0.00     0.111 A 
ATOM      6  C   UNL     1      14.895   7.682 132.284  1.00  0.00     0.134 A 
ATOM      7  C   UNL     1      15.616   8.819 132.669  1.00  0.00     0.093 A 
ATOM      8  C   UNL     1      15.914   9.828 131.754  1.00  0.00     0.123 A 
ATOM      9  C   UNL     1      15.484   9.713 130.431  1.00  0.00     0.094 A 
ATOM     10  C   UNL     1      14.731   8.608 130.026  1.00  0.00     0.146 A 
ATOM     11  O   UNL     1      14.332   8.542 128.761  1.00  0.00    -0.452 OA
ENDROOT
BRANCH   1  12
ATOM     12  C   UNL     1      13.238   7.582 126.839  1.00  0.00     0.025 A 
ATOM     13  C   UNL     1      13.570   8.678 126.028  1.00  0.00     0.016 A 
ATOM     14  C   UNL     1      13.203   8.696 124.681  1.00  0.00     0.051 A 
ATOM     15  C   UNL     1      12.486   7.632 124.122  1.00  0.00     0.157 A 
ATOM     16  C   UNL     1      12.501   6.524 126.286  1.00  0.00     0.062 A 
ATOM     17  C   UNL     1      12.127   6.532 124.936  1.00  0.00     0.158 A 
BRANCH  15  18
ATOM     18  O   UNL     1      12.153   7.710 122.769  1.00  0.00    -0.504 OA
ATOM     19  H   UNL     1      11.380   8.250 122.407  1.00  0.00     0.293 HD
ENDBRANCH  15  18
BRANCH  17  20
ATOM     20  O   UNL     1      11.405   5.439 124.452  1.00  0.00    -0.504 OA
ATOM     21  H   UNL     1      10.475   5.505 124.065  1.00  0.00     0.293 HD
ENDBRANCH  17  20
ENDBRANCH   1  12
BRANCH   2  22
ATOM     22  O   UNL     1      12.305   5.526 128.656  1.00  0.00    -0.502 OA
ATOM     23  H   UNL     1      12.108   5.405 127.670  1.00  0.00     0.293 HD
ENDBRANCH   2  22
BRANCH   6  24
ATOM     24  O   UNL     1      14.733   6.688 133.252  1.00  0.00    -0.507 OA
ATOM     25  H   UNL     1      15.457   6.049 133.546  1.00  0.00     0.293 HD
ENDBRANCH   6  24
BRANCH   8  26
ATOM     26  O   UNL     1      16.647  10.938 132.168  1.00  0.00    -0.508 OA
ATOM     27  H   UNL     1      17.570  10.843 132.574  1.00  0.00     0.293 HD
ENDBRANCH   8  26
TORSDOF 6
ENDMDL
MODEL 4
REMARK VINA RESULT:    15.383      1.282      6.837
REMARK INTER + INTRA:          19.001
REMARK INTER:                  18.686
REMARK INTRA:                   0.315
REMARK UNBOUND:                 0.471
REMARK SMILES O=c1c(O)c(-c2ccc(O)c(O)c2)oc2cc(O)cc(O)c12
REMARK SMILES IDX 5 1 3 2 2 3 1 4 22 5 20 6 19 7 17 8 16 9 15 10 14 11 6 12
REMARK SMILES IDX 7 13 8 14 9 15 13 16 11 17 10 18 12 20 4 22 21 24 18 26
REMARK H PARENT 10 19 12 21 4 23 21 25 18 27
REMARK Flexibility Score: inf
ROOT
ATOM      1  C   UNL     1      13.339   7.389 127.575  1.00  0.00     0.180 A 
ATOM      2  C   UNL     1      13.759   8.604 128.143  1.00  0.00     0.208 A 
ATOM      3  C   UNL     1      14.094   8.640 129.506  1.00  0.00     0.238 A 
ATOM      4  O   UNL     1      14.520   9.718 129.996  1.00  0.00    -0.285 OA
ATOM      5  C   UNL     1      13.988   7.464 130.287  1.00  0.00     0.111 A 
ATOM      6  C   UNL     1      14.263   7.394 131.687  1.00  0.00     0.134 A 
ATOM      7  C   UNL     1      14.252   6.151 132.331  1.00  0.00     0.093 A 
ATOM      8  C   UNL     1      13.914   4.986 131.644  1.00  0.00     0.123 A 
ATOM      9  C   UNL     1      13.585   5.052 130.289  1.00  0.00     0.094 A 
ATOM     10  C   UNL     1      13.623   6.272 129.610  1.00  0.00     0.146 A 
ATOM     11  O   UNL     1      13.314   6.290 128.319  1.00  0.00    -0.452 OA
ENDROOT
BRANCH   1  12
ATOM     12  C   UNL     1      12.947   7.278 126.151  1.00  0.00     0.025 A 
ATOM     13  C   UNL     1      12.005   6.328 125.724  1.00  0.00     0.016 A 
ATOM     14  C   UNL     1      11.668   6.226 124.374  1.00  0.00     0.051 A 
ATOM     15  C   UNL     1      12.271   7.056 123.422  1.00  0.00     0.157 A 
ATOM     16  C   UNL     1      13.569   8.097 125.196  1.00  0.00     0.062 A 
ATOM     17  C   UNL     1      13.237   8.003 123.839  1.00  0.00     0.158 A 
BRANCH  15  18
ATOM     18  O   UNL     1      11.888   6.907 122.088  1.00  0.00    -0.504 OA
ATOM     19  H   UNL     1      10.991   6.548 121.795  1.00  0.00     0.293 HD
ENDBRANCH  15  18
BRANCH  17  20
ATOM     20  O   UNL     1      13.888   8.859 122.948  1.00  0.00    -0.504 OA
ATOM     21  H   UNL     1      14.093   9.828 123.144  1.00  0.00     0.293 HD
ENDBRANCH  17  20
ENDBRANCH   1  12
BRANCH   2  22
ATOM     22  O   UNL     1      13.876   9.748 127.348  1.00  0.00    -0.502 OA
ATOM     23  H   UNL     1      14.223   9.717 126.397  1.00  0.00     0.293 HD
ENDBRANCH   2  22
BRANCH   6  24
ATOM     24  O   UNL     1      14.522   8.510 132.488  1.00  0.00    -0.507 OA
ATOM     25  H   UNL     1      13.833   9.197 132.757  1.00  0.00     0.293 HD
ENDBRANCH   6  24
BRANCH   8  26
ATOM     26  O   UNL     1      13.898   3.768 132.320  1.00  0.00    -0.508 OA
ATOM     27  H   UNL     1      14.713   3.425 132.814  1.00  0.00     0.293 HD
ENDBRANCH   8  26
TORSDOF 6
ENDMDL
MODEL 5
REMARK VINA RESULT:    16.480      7.148     10.473
REMARK INTER + INTRA:          20.323
REMARK INTER:                  19.809
REMARK INTRA:                   0.514
REMARK UNBOUND:                 0.471
REMARK SMILES O=c1c(O)c(-c2ccc(O)c(O)c2)oc2cc(O)cc(O)c12
REMARK SMILES IDX 5 1 3 2 2 3 1 4 22 5 20 6 19 7 17 8 16 9 15 10 14 11 6 12
REMARK SMILES IDX 7 13 8 14 9 15 13 16 11 17 10 18 12 20 4 22 21 24 18 26
REMARK H PARENT 10 19 12 21 4 23 21 25 18 27
REMARK Flexibility Score: inf
ROOT
ATOM      1  C   UNL     1      19.351   7.881 135.453  1.00  0.00     0.180 A 
ATOM      2  C   UNL     1      20.166   7.501 134.373  1.00  0.00     0.208 A 
ATOM      3  C   UNL     1      19.706   7.717 133.063  1.00  0.00     0.238 A 
ATOM      4  O   UNL     1      20.463   7.424 132.102  1.00  0.00    -0.285 OA
ATOM      5  C   UNL     1      18.432   8.296 132.851  1.00  0.00     0.111 A 
ATOM      6  C   UNL     1      17.849   8.524 131.568  1.00  0.00     0.134 A 
ATOM      7  C   UNL     1      16.639   9.223 131.473  1.00  0.00     0.093 A 
ATOM      8  C   UNL     1      15.959   9.643 132.615  1.00  0.00     0.123 A 
ATOM      9  C   UNL     1      16.491   9.373 133.877  1.00  0.00     0.094 A 
ATOM     10  C   UNL     1      17.714   8.710 134.003  1.00  0.00     0.146 A 
ATOM     11  O   UNL     1      18.190   8.482 135.221  1.00  0.00    -0.452 OA
ENDROOT
BRANCH   1  12
ATOM     12  C   UNL     1      19.756   7.663 136.861  1.00  0.00     0.025 A 
ATOM     13  C   UNL     1      19.056   8.258 137.923  1.00  0.00     0.016 A 
ATOM     14  C   UNL     1      19.471   8.057 139.241  1.00  0.00     0.051 A 
ATOM     15  C   UNL     1      20.595   7.274 139.525  1.00  0.00     0.157 A 
ATOM     16  C   UNL     1      20.897   6.896 137.142  1.00  0.00     0.062 A 
ATOM     17  C   UNL     1      21.320   6.688 138.460  1.00  0.00     0.158 A 
BRANCH  15  18
ATOM     18  O   UNL     1      20.955   7.109 140.863  1.00  0.00    -0.504 OA
ATOM     19  H   UNL     1      21.278   6.239 141.259  1.00  0.00     0.293 HD
ENDBRANCH  15  18
BRANCH  17  20
ATOM     20  O   UNL     1      22.457   5.902 138.664  1.00  0.00    -0.504 OA
ATOM     21  H   UNL     1      22.822   5.252 137.983  1.00  0.00     0.293 HD
ENDBRANCH  17  20
ENDBRANCH   1  12
BRANCH   2  22
ATOM     22  O   UNL     1      21.429   6.950 134.605  1.00  0.00    -0.502 OA
ATOM     23  H   UNL     1      22.046   6.668 133.853  1.00  0.00     0.293 HD
ENDBRANCH   2  22
BRANCH   6  24
ATOM     24  O   UNL     1      18.399   8.065 130.368  1.00  0.00    -0.507 OA
ATOM     25  H   UNL     1      18.483   7.092 130.109  1.00  0.00     0.293 HD
ENDBRANCH   6  24
BRANCH   8  26
ATOM     26  O   UNL     1      14.750  10.322 132.485  1.00  0.00    -0.508 OA
ATOM     27  H   UNL     1      13.866   9.877 132.698  1.00  0.00     0.293 HD
ENDBRANCH   8  26
TORSDOF 6
ENDMDL
