MODEL 1
REMARK VINA RESULT:    -4.131      0.000      0.000
REMARK INTER + INTRA:          -4.875
REMARK INTER:                  -4.735
REMARK INTRA:                  -0.140
REMARK UNBOUND:                -0.140
REMARK SMILES O=C([O-])C=Cc1ccc(O)cc1
REMARK SMILES IDX 6 1 7 2 12 3 8 4 11 5 9 6 5 7 4 8 2 9 1 10 3 11 10 12
REMARK H PARENT 10 13
REMARK Flexibility Score: inf
ROOT
ATOM      1  C   UNL     1       9.970 -32.252  14.229  1.00  0.00    -0.025 A 
ATOM      2  C   UNL     1       9.025 -32.471  13.212  1.00  0.00     0.012 A 
ATOM      3  C   UNL     1       9.519 -32.118  15.559  1.00  0.00     0.012 A 
ATOM      4  C   UNL     1       7.665 -32.581  13.516  1.00  0.00     0.047 A 
ATOM      5  C   UNL     1       8.157 -32.228  15.858  1.00  0.00     0.047 A 
ATOM      6  C   UNL     1       7.228 -32.462  14.842  1.00  0.00     0.115 A 
ENDROOT
BRANCH   1   7
ATOM      7  C   UNL     1      11.401 -32.132  13.855  1.00  0.00     0.010 C 
ATOM      8  C   UNL     1      12.229 -31.206  14.360  1.00  0.00     0.025 C 
BRANCH   8   9
ATOM      9  C   UNL     1      13.647 -31.124  13.974  1.00  0.00     0.064 C 
ATOM     10  O   UNL     1      14.299 -30.055  14.109  1.00  0.00    -0.545 OA
ATOM     11  O   UNL     1      14.278 -32.246  13.453  1.00  0.00    -0.545 OA
ENDBRANCH   8   9
ENDBRANCH   1   7
BRANCH   6  12
ATOM     12  O   UNL     1       5.875 -32.570  15.156  1.00  0.00    -0.508 OA
ATOM     13  H   UNL     1       5.568 -32.863  16.076  1.00  0.00     0.293 HD
ENDBRANCH   6  12
TORSDOF 3
ENDMDL
MODEL 2
REMARK VINA RESULT:    -4.124      0.109      1.683
REMARK INTER + INTRA:          -4.866
REMARK INTER:                  -4.722
REMARK INTRA:                  -0.144
REMARK UNBOUND:                -0.140
REMARK SMILES O=C([O-])C=Cc1ccc(O)cc1
REMARK SMILES IDX 6 1 7 2 12 3 8 4 11 5 9 6 5 7 4 8 2 9 1 10 3 11 10 12
REMARK H PARENT 10 13
REMARK Flexibility Score: inf
ROOT
ATOM      1  C   UNL     1       9.945 -32.259  14.102  1.00  0.00    -0.025 A 
ATOM      2  C   UNL     1       9.541 -32.210  15.447  1.00  0.00     0.012 A 
ATOM      3  C   UNL     1       8.965 -32.451  13.105  1.00  0.00     0.012 A 
ATOM      4  C   UNL     1       8.191 -32.323  15.791  1.00  0.00     0.047 A 
ATOM      5  C   UNL     1       7.615 -32.564  13.453  1.00  0.00     0.047 A 
ATOM      6  C   UNL     1       7.223 -32.498  14.793  1.00  0.00     0.115 A 
ENDROOT
BRANCH   1   7
ATOM      7  C   UNL     1      11.391 -32.145  13.789  1.00  0.00     0.010 C 
ATOM      8  C   UNL     1      12.198 -31.215  14.322  1.00  0.00     0.025 C 
BRANCH   8   9
ATOM      9  C   UNL     1      13.631 -31.139  13.998  1.00  0.00     0.064 C 
ATOM     10  O   UNL     1      14.270 -32.158  13.622  1.00  0.00    -0.545 OA
ATOM     11  O   UNL     1      14.292 -29.923  14.106  1.00  0.00    -0.545 OA
ENDBRANCH   8   9
ENDBRANCH   1   7
BRANCH   6  12
ATOM     12  O   UNL     1       5.875 -32.612  15.123  1.00  0.00    -0.508 OA
ATOM     13  H   UNL     1       5.476 -32.102  15.902  1.00  0.00     0.293 HD
ENDBRANCH   6  12
TORSDOF 3
ENDMDL
MODEL 3
REMARK VINA RESULT:    -3.506      1.787      2.608
REMARK INTER + INTRA:          -4.158
REMARK INTER:                  -4.007
REMARK INTRA:                  -0.151
REMARK UNBOUND:                -0.140
REMARK SMILES O=C([O-])C=Cc1ccc(O)cc1
REMARK SMILES IDX 6 1 7 2 12 3 8 4 11 5 9 6 5 7 4 8 2 9 1 10 3 11 10 12
REMARK H PARENT 10 13
REMARK Flexibility Score: inf
ROOT
ATOM      1  C   UNL     1      10.694 -31.383  15.610  1.00  0.00    -0.025 A 
ATOM      2  C   UNL     1      10.902 -30.716  16.831  1.00  0.00     0.012 A 
ATOM      3  C   UNL     1       9.494 -32.102  15.424  1.00  0.00     0.012 A 
ATOM      4  C   UNL     1       9.927 -30.744  17.832  1.00  0.00     0.047 A 
ATOM      5  C   UNL     1       8.522 -32.127  16.430  1.00  0.00     0.047 A 
ATOM      6  C   UNL     1       8.732 -31.448  17.633  1.00  0.00     0.115 A 
ENDROOT
BRANCH   1   7
ATOM      7  C   UNL     1      11.763 -31.333  14.583  1.00  0.00     0.010 C 
ATOM      8  C   UNL     1      12.996 -30.857  14.813  1.00  0.00     0.025 C 
BRANCH   8   9
ATOM      9  C   UNL     1      14.036 -30.834  13.771  1.00  0.00     0.064 C 
ATOM     10  O   UNL     1      14.611 -29.761  13.447  1.00  0.00    -0.545 OA
ATOM     11  O   UNL     1      14.391 -32.017  13.136  1.00  0.00    -0.545 OA
ENDBRANCH   8   9
ENDBRANCH   1   7
BRANCH   6  12
ATOM     12  O   UNL     1       7.754 -31.482  18.624  1.00  0.00    -0.508 OA
ATOM     13  H   UNL     1       6.845 -31.897  18.455  1.00  0.00     0.293 HD
ENDBRANCH   6  12
TORSDOF 3
ENDMDL
MODEL 4
REMARK VINA RESULT:    -3.201      3.647      4.357
REMARK INTER + INTRA:          -3.808
REMARK INTER:                  -3.668
REMARK INTRA:                  -0.140
REMARK UNBOUND:                -0.140
REMARK SMILES O=C([O-])C=Cc1ccc(O)cc1
REMARK SMILES IDX 6 1 7 2 12 3 8 4 11 5 9 6 5 7 4 8 2 9 1 10 3 11 10 12
REMARK H PARENT 10 13
REMARK Flexibility Score: inf
ROOT
ATOM      1  C   UNL     1       7.733 -33.225  15.220  1.00  0.00    -0.025 A 
ATOM      2  C   UNL     1       7.074 -32.880  14.027  1.00  0.00     0.012 A 
ATOM      3  C   UNL     1       7.740 -34.576  15.626  1.00  0.00     0.012 A 
ATOM      4  C   UNL     1       6.459 -33.862  13.244  1.00  0.00     0.047 A 
ATOM      5  C   UNL     1       7.124 -35.554  14.840  1.00  0.00     0.047 A 
ATOM      6  C   UNL     1       6.485 -35.203  13.647  1.00  0.00     0.115 A 
ENDROOT
BRANCH   1   7
ATOM      7  C   UNL     1       8.360 -32.146  16.022  1.00  0.00     0.010 C 
ATOM      8  C   UNL     1       8.678 -32.269  17.319  1.00  0.00     0.025 C 
BRANCH   8   9
ATOM      9  C   UNL     1       9.311 -31.180  18.080  1.00  0.00     0.064 C 
ATOM     10  O   UNL     1       8.891 -30.852  19.222  1.00  0.00    -0.545 OA
ATOM     11  O   UNL     1      10.392 -30.503  17.531  1.00  0.00    -0.545 OA
ENDBRANCH   8   9
ENDBRANCH   1   7
BRANCH   6  12
ATOM     12  O   UNL     1       5.876 -36.189  12.875  1.00  0.00    -0.508 OA
ATOM     13  H   UNL     1       5.024 -36.646  13.177  1.00  0.00     0.293 HD
ENDBRANCH   6  12
TORSDOF 3
ENDMDL
MODEL 5
REMARK VINA RESULT:    -3.134      2.677      6.050
REMARK INTER + INTRA:          -3.731
REMARK INTER:                  -3.593
REMARK INTRA:                  -0.139
REMARK UNBOUND:                -0.140
REMARK SMILES O=C([O-])C=Cc1ccc(O)cc1
REMARK SMILES IDX 6 1 7 2 12 3 8 4 11 5 9 6 5 7 4 8 2 9 1 10 3 11 10 12
REMARK H PARENT 10 13
REMARK Flexibility Score: inf
ROOT
ATOM      1  C   UNL     1       9.208 -33.940  14.160  1.00  0.00    -0.025 A 
ATOM      2  C   UNL     1      10.221 -33.894  13.186  1.00  0.00     0.012 A 
ATOM      3  C   UNL     1       9.115 -32.888  15.095  1.00  0.00     0.012 A 
ATOM      4  C   UNL     1      11.105 -32.813  13.129  1.00  0.00     0.047 A 
ATOM      5  C   UNL     1      10.002 -31.808  15.034  1.00  0.00     0.047 A 
ATOM      6  C   UNL     1      10.996 -31.765  14.053  1.00  0.00     0.115 A 
ENDROOT
BRANCH   1   7
ATOM      7  C   UNL     1       8.301 -35.115  14.186  1.00  0.00     0.010 C 
ATOM      8  C   UNL     1       7.154 -35.156  14.880  1.00  0.00     0.025 C 
BRANCH   8   9
ATOM      9  C   UNL     1       6.273 -36.335  14.873  1.00  0.00     0.064 C 
ATOM     10  O   UNL     1       5.875 -36.845  13.792  1.00  0.00    -0.545 OA
ATOM     11  O   UNL     1       5.875 -36.896  16.078  1.00  0.00    -0.545 OA
ENDBRANCH   8   9
ENDBRANCH   1   7
BRANCH   6  12
ATOM     12  O   UNL     1      11.871 -30.682  14.005  1.00  0.00    -0.508 OA
ATOM     13  H   UNL     1      11.806 -29.921  14.670  1.00  0.00     0.293 HD
ENDBRANCH   6  12
TORSDOF 3
ENDMDL
MODEL 6
REMARK VINA RESULT:    -3.131      3.388      6.003
REMARK INTER + INTRA:          -3.728
REMARK INTER:                  -3.584
REMARK INTRA:                  -0.144
REMARK UNBOUND:                -0.140
REMARK SMILES O=C([O-])C=Cc1ccc(O)cc1
REMARK SMILES IDX 6 1 7 2 12 3 8 4 11 5 9 6 5 7 4 8 2 9 1 10 3 11 10 12
REMARK H PARENT 10 13
REMARK Flexibility Score: inf
ROOT
ATOM      1  C   UNL     1       8.436 -33.289  16.616  1.00  0.00    -0.025 A 
ATOM      2  C   UNL     1       9.114 -32.560  15.624  1.00  0.00     0.012 A 
ATOM      3  C   UNL     1       8.445 -32.805  17.941  1.00  0.00     0.012 A 
ATOM      4  C   UNL     1       9.764 -31.363  15.939  1.00  0.00     0.047 A 
ATOM      5  C   UNL     1       9.097 -31.607  18.252  1.00  0.00     0.047 A 
ATOM      6  C   UNL     1       9.755 -30.882  17.254  1.00  0.00     0.115 A 
ENDROOT
BRANCH   1   7
ATOM      7  C   UNL     1       7.771 -34.559  16.234  1.00  0.00     0.010 C 
ATOM      8  C   UNL     1       7.006 -34.701  15.141  1.00  0.00     0.025 C 
BRANCH   8   9
ATOM      9  C   UNL     1       6.371 -35.980  14.787  1.00  0.00     0.064 C 
ATOM     10  O   UNL     1       6.004 -36.221  13.606  1.00  0.00    -0.545 OA
ATOM     11  O   UNL     1       6.175 -36.940  15.771  1.00  0.00    -0.545 OA
ENDBRANCH   8   9
ENDBRANCH   1   7
BRANCH   6  12
ATOM     12  O   UNL     1      10.398 -29.690  17.580  1.00  0.00    -0.508 OA
ATOM     13  H   UNL     1      11.120 -29.299  16.986  1.00  0.00     0.293 HD
ENDBRANCH   6  12
TORSDOF 3
ENDMDL
MODEL 7
REMARK VINA RESULT:    -2.954      1.248      5.788
REMARK INTER + INTRA:          -3.526
REMARK INTER:                  -3.387
REMARK INTRA:                  -0.139
REMARK UNBOUND:                -0.140
REMARK SMILES O=C([O-])C=Cc1ccc(O)cc1
REMARK SMILES IDX 6 1 7 2 12 3 8 4 11 5 9 6 5 7 4 8 2 9 1 10 3 11 10 12
REMARK H PARENT 10 13
REMARK Flexibility Score: inf
ROOT
ATOM      1  C   UNL     1      10.364 -32.741  13.744  1.00  0.00    -0.025 A 
ATOM      2  C   UNL     1      11.403 -33.449  13.116  1.00  0.00     0.012 A 
ATOM      3  C   UNL     1      10.680 -31.573  14.470  1.00  0.00     0.012 A 
ATOM      4  C   UNL     1      12.722 -32.991  13.188  1.00  0.00     0.047 A 
ATOM      5  C   UNL     1      12.001 -31.119  14.540  1.00  0.00     0.047 A 
ATOM      6  C   UNL     1      13.024 -31.823  13.898  1.00  0.00     0.115 A 
ENDROOT
BRANCH   1   7
ATOM      7  C   UNL     1       8.983 -33.273  13.649  1.00  0.00     0.010 C 
ATOM      8  C   UNL     1       7.902 -32.630  14.114  1.00  0.00     0.025 C 
BRANCH   8   9
ATOM      9  C   UNL     1       6.544 -33.183  13.991  1.00  0.00     0.064 C 
ATOM     10  O   UNL     1       5.960 -33.237  12.875  1.00  0.00    -0.545 OA
ATOM     11  O   UNL     1       5.894 -33.657  15.123  1.00  0.00    -0.545 OA
ENDBRANCH   8   9
ENDBRANCH   1   7
BRANCH   6  12
ATOM     12  O   UNL     1      14.334 -31.357  13.977  1.00  0.00    -0.508 OA
ATOM     13  H   UNL     1      14.942 -31.350  13.167  1.00  0.00     0.293 HD
ENDBRANCH   6  12
TORSDOF 3
ENDMDL
MODEL 8
REMARK VINA RESULT:    -2.939      2.166      5.689
REMARK INTER + INTRA:          -3.508
REMARK INTER:                  -3.371
REMARK INTRA:                  -0.138
REMARK UNBOUND:                -0.140
REMARK SMILES O=C([O-])C=Cc1ccc(O)cc1
REMARK SMILES IDX 6 1 7 2 12 3 8 4 11 5 9 6 5 7 4 8 2 9 1 10 3 11 10 12
REMARK H PARENT 10 13
REMARK Flexibility Score: inf
ROOT
ATOM      1  C   UNL     1      11.337 -32.832  13.550  1.00  0.00    -0.025 A 
ATOM      2  C   UNL     1      12.660 -33.083  13.148  1.00  0.00     0.012 A 
ATOM      3  C   UNL     1      11.073 -31.701  14.350  1.00  0.00     0.012 A 
ATOM      4  C   UNL     1      13.692 -32.213  13.512  1.00  0.00     0.047 A 
ATOM      5  C   UNL     1      12.109 -30.833  14.712  1.00  0.00     0.047 A 
ATOM      6  C   UNL     1      13.418 -31.084  14.294  1.00  0.00     0.115 A 
ENDROOT
BRANCH   1   7
ATOM      7  C   UNL     1      10.278 -33.790  13.147  1.00  0.00     0.010 C 
ATOM      8  C   UNL     1       9.313 -34.225  13.971  1.00  0.00     0.025 C 
BRANCH   8   9
ATOM      9  C   UNL     1       8.271 -35.167  13.533  1.00  0.00     0.064 C 
ATOM     10  O   UNL     1       7.078 -34.794  13.376  1.00  0.00    -0.545 OA
ATOM     11  O   UNL     1       8.609 -36.491  13.285  1.00  0.00    -0.545 OA
ENDBRANCH   8   9
ENDBRANCH   1   7
BRANCH   6  12
ATOM     12  O   UNL     1      14.439 -30.210  14.662  1.00  0.00    -0.508 OA
ATOM     13  H   UNL     1      15.156 -29.928  14.006  1.00  0.00     0.293 HD
ENDBRANCH   6  12
TORSDOF 3
ENDMDL
