MODEL 1
REMARK VINA RESULT:    -5.685      0.000      0.000
REMARK INTER + INTRA:          -6.815
REMARK INTER:                  -6.682
REMARK INTRA:                  -0.133
REMARK UNBOUND:                -0.133
REMARK SMILES O=C([O-])C=Cc1ccc(O)c(O)c1
REMARK SMILES IDX 6 1 13 2 7 3 11 4 8 5 9 6 5 7 4 8 2 9 1 10 3 11 12 12 10 14
REMARK H PARENT 12 13 10 15
REMARK Flexibility Score: inf
ROOT
ATOM      1  C   UNL     1      10.820  10.161  12.966  1.00  0.00    -0.022 A 
ATOM      2  C   UNL     1      10.465   9.795  14.275  1.00  0.00     0.058 A 
ATOM      3  C   UNL     1      11.698  11.246  12.777  1.00  0.00     0.012 A 
ATOM      4  C   UNL     1      10.953  10.512  15.378  1.00  0.00     0.157 A 
ATOM      5  C   UNL     1      12.186  11.960  13.876  1.00  0.00     0.051 A 
ATOM      6  C   UNL     1      11.816  11.601  15.175  1.00  0.00     0.157 A 
ENDROOT
BRANCH   1   7
ATOM      7  C   UNL     1      10.282   9.363  11.835  1.00  0.00     0.010 C 
ATOM      8  C   UNL     1       9.135   8.674  11.889  1.00  0.00     0.025 C 
BRANCH   8   9
ATOM      9  C   UNL     1       8.646   7.888  10.746  1.00  0.00     0.064 C 
ATOM     10  O   UNL     1       9.453   7.186  10.082  1.00  0.00    -0.545 OA
ATOM     11  O   UNL     1       7.302   7.905  10.385  1.00  0.00    -0.545 OA
ENDBRANCH   8   9
ENDBRANCH   1   7
BRANCH   4  12
ATOM     12  O   UNL     1      10.585  10.145  16.671  1.00  0.00    -0.504 OA
ATOM     13  H   UNL     1       9.612  10.076  16.947  1.00  0.00     0.293 HD
ENDBRANCH   4  12
BRANCH   6  14
ATOM     14  O   UNL     1      12.318  12.334  16.249  1.00  0.00    -0.504 OA
ATOM     15  H   UNL     1      11.821  12.408  17.130  1.00  0.00     0.293 HD
ENDBRANCH   6  14
TORSDOF 4
ENDMDL
MODEL 2
REMARK VINA RESULT:    -5.665      2.995      4.648
REMARK INTER + INTRA:          -6.792
REMARK INTER:                  -6.666
REMARK INTRA:                  -0.126
REMARK UNBOUND:                -0.133
REMARK SMILES O=C([O-])C=Cc1ccc(O)c(O)c1
REMARK SMILES IDX 6 1 13 2 7 3 11 4 8 5 9 6 5 7 4 8 2 9 1 10 3 11 12 12 10 14
REMARK H PARENT 12 13 10 15
REMARK Flexibility Score: inf
ROOT
ATOM      1  C   UNL     1      10.815   9.774  13.375  1.00  0.00    -0.022 A 
ATOM      2  C   UNL     1      10.535  10.505  14.541  1.00  0.00     0.058 A 
ATOM      3  C   UNL     1       9.759   9.117  12.714  1.00  0.00     0.012 A 
ATOM      4  C   UNL     1       9.231  10.562  15.057  1.00  0.00     0.157 A 
ATOM      5  C   UNL     1       8.460   9.175  13.227  1.00  0.00     0.051 A 
ATOM      6  C   UNL     1       8.190   9.891  14.397  1.00  0.00     0.157 A 
ENDROOT
BRANCH   1   7
ATOM      7  C   UNL     1      12.209   9.754  12.867  1.00  0.00     0.010 C 
ATOM      8  C   UNL     1      13.258   9.330  13.585  1.00  0.00     0.025 C 
BRANCH   8   9
ATOM      9  C   UNL     1      14.626   9.338  13.044  1.00  0.00     0.064 C 
ATOM     10  O   UNL     1      15.316  10.388  13.113  1.00  0.00    -0.545 OA
ATOM     11  O   UNL     1      15.171   8.202  12.455  1.00  0.00    -0.545 OA
ENDBRANCH   8   9
ENDBRANCH   1   7
BRANCH   4  12
ATOM     12  O   UNL     1       8.969  11.283  16.221  1.00  0.00    -0.504 OA
ATOM     13  H   UNL     1       8.579  12.218  16.190  1.00  0.00     0.293 HD
ENDBRANCH   4  12
BRANCH   6  14
ATOM     14  O   UNL     1       6.884   9.927  14.883  1.00  0.00    -0.504 OA
ATOM     15  H   UNL     1       6.082   9.782  14.281  1.00  0.00     0.293 HD
ENDBRANCH   6  14
TORSDOF 4
ENDMDL
MODEL 3
REMARK VINA RESULT:    -5.504      2.934      5.040
REMARK INTER + INTRA:          -6.602
REMARK INTER:                  -6.468
REMARK INTRA:                  -0.133
REMARK UNBOUND:                -0.133
REMARK SMILES O=C([O-])C=Cc1ccc(O)c(O)c1
REMARK SMILES IDX 6 1 13 2 7 3 11 4 8 5 9 6 5 7 4 8 2 9 1 10 3 11 12 12 10 14
REMARK H PARENT 12 13 10 15
REMARK Flexibility Score: inf
ROOT
ATOM      1  C   UNL     1      10.841   9.744  13.595  1.00  0.00    -0.022 A 
ATOM      2  C   UNL     1       9.891   9.257  12.683  1.00  0.00     0.058 A 
ATOM      3  C   UNL     1      10.412  10.148  14.874  1.00  0.00     0.012 A 
ATOM      4  C   UNL     1       8.532   9.196  13.027  1.00  0.00     0.157 A 
ATOM      5  C   UNL     1       9.058  10.086  15.217  1.00  0.00     0.051 A 
ATOM      6  C   UNL     1       8.115   9.615  14.299  1.00  0.00     0.157 A 
ENDROOT
BRANCH   1   7
ATOM      7  C   UNL     1      12.267   9.779  13.184  1.00  0.00     0.010 C 
ATOM      8  C   UNL     1      13.274   9.330  13.946  1.00  0.00     0.025 C 
BRANCH   8   9
ATOM      9  C   UNL     1      14.674   9.394  13.503  1.00  0.00     0.064 C 
ATOM     10  O   UNL     1      15.301   8.328  13.265  1.00  0.00    -0.545 OA
ATOM     11  O   UNL     1      15.320  10.616  13.340  1.00  0.00    -0.545 OA
ENDBRANCH   8   9
ENDBRANCH   1   7
BRANCH   4  12
ATOM     12  O   UNL     1       7.598   8.720  12.108  1.00  0.00    -0.504 OA
ATOM     13  H   UNL     1       7.710   7.821  11.654  1.00  0.00     0.293 HD
ENDBRANCH   4  12
BRANCH   6  14
ATOM     14  O   UNL     1       6.772   9.568  14.672  1.00  0.00    -0.504 OA
ATOM     15  H   UNL     1       6.160  10.370  14.577  1.00  0.00     0.293 HD
ENDBRANCH   6  14
TORSDOF 4
ENDMDL
MODEL 4
REMARK VINA RESULT:    -5.495     12.543     13.439
REMARK INTER + INTRA:          -6.591
REMARK INTER:                  -6.464
REMARK INTRA:                  -0.127
REMARK UNBOUND:                -0.133
REMARK SMILES O=C([O-])C=Cc1ccc(O)c(O)c1
REMARK SMILES IDX 6 1 13 2 7 3 11 4 8 5 9 6 5 7 4 8 2 9 1 10 3 11 12 12 10 14
REMARK H PARENT 12 13 10 15
REMARK Flexibility Score: inf
ROOT
ATOM      1  C   UNL     1      10.285   0.049  21.486  1.00  0.00    -0.022 A 
ATOM      2  C   UNL     1      11.001  -0.081  22.688  1.00  0.00     0.058 A 
ATOM      3  C   UNL     1      10.994   0.043  20.268  1.00  0.00     0.012 A 
ATOM      4  C   UNL     1      12.400  -0.189  22.682  1.00  0.00     0.157 A 
ATOM      5  C   UNL     1      12.387  -0.067  20.262  1.00  0.00     0.051 A 
ATOM      6  C   UNL     1      13.095  -0.180  21.463  1.00  0.00     0.157 A 
ENDROOT
BRANCH   1   7
ATOM      7  C   UNL     1       8.806   0.152  21.548  1.00  0.00     0.010 C 
ATOM      8  C   UNL     1       8.151   1.045  22.302  1.00  0.00     0.025 C 
BRANCH   8   9
ATOM      9  C   UNL     1       6.682   1.103  22.340  1.00  0.00     0.064 C 
ATOM     10  O   UNL     1       6.047   1.464  21.315  1.00  0.00    -0.545 OA
ATOM     11  O   UNL     1       5.980   0.764  23.493  1.00  0.00    -0.545 OA
ENDBRANCH   8   9
ENDBRANCH   1   7
BRANCH   4  12
ATOM     12  O   UNL     1      13.098  -0.308  23.882  1.00  0.00    -0.504 OA
ATOM     13  H   UNL     1      13.323   0.503  24.449  1.00  0.00     0.293 HD
ENDBRANCH   4  12
BRANCH   6  14
ATOM     14  O   UNL     1      14.485  -0.285  21.423  1.00  0.00    -0.504 OA
ATOM     15  H   UNL     1      15.085   0.531  21.387  1.00  0.00     0.293 HD
ENDBRANCH   6  14
TORSDOF 4
ENDMDL
MODEL 5
REMARK VINA RESULT:    -5.425      3.267      4.270
REMARK INTER + INTRA:          -6.509
REMARK INTER:                  -6.382
REMARK INTRA:                  -0.127
REMARK UNBOUND:                -0.133
REMARK SMILES O=C([O-])C=Cc1ccc(O)c(O)c1
REMARK SMILES IDX 6 1 13 2 7 3 11 4 8 5 9 6 5 7 4 8 2 9 1 10 3 11 12 12 10 14
REMARK H PARENT 12 13 10 15
REMARK Flexibility Score: inf
ROOT
ATOM      1  C   UNL     1      11.974  10.203  13.789  1.00  0.00    -0.022 A 
ATOM      2  C   UNL     1      10.922   9.344  14.144  1.00  0.00     0.058 A 
ATOM      3  C   UNL     1      11.953  11.533  14.254  1.00  0.00     0.012 A 
ATOM      4  C   UNL     1       9.851   9.804  14.926  1.00  0.00     0.157 A 
ATOM      5  C   UNL     1      10.888  11.991  15.035  1.00  0.00     0.051 A 
ATOM      6  C   UNL     1       9.835  11.135  15.371  1.00  0.00     0.157 A 
ENDROOT
BRANCH   1   7
ATOM      7  C   UNL     1      13.086   9.663  12.968  1.00  0.00     0.010 C 
ATOM      8  C   UNL     1      14.089   8.925  13.463  1.00  0.00     0.025 C 
BRANCH   8   9
ATOM      9  C   UNL     1      15.177   8.419  12.613  1.00  0.00     0.064 C 
ATOM     10  O   UNL     1      15.820   9.219  11.885  1.00  0.00    -0.545 OA
ATOM     11  O   UNL     1      15.508   7.068  12.599  1.00  0.00    -0.545 OA
ENDBRANCH   8   9
ENDBRANCH   1   7
BRANCH   4  12
ATOM     12  O   UNL     1       8.808   8.943  15.262  1.00  0.00    -0.504 OA
ATOM     13  H   UNL     1       8.171   9.151  16.023  1.00  0.00     0.293 HD
ENDBRANCH   4  12
BRANCH   6  14
ATOM     14  O   UNL     1       8.786  11.624  16.149  1.00  0.00    -0.504 OA
ATOM     15  H   UNL     1       8.844  12.514  16.631  1.00  0.00     0.293 HD
ENDBRANCH   6  14
TORSDOF 4
ENDMDL
MODEL 6
REMARK VINA RESULT:    -5.252      3.432      4.458
REMARK INTER + INTRA:          -6.306
REMARK INTER:                  -6.179
REMARK INTRA:                  -0.127
REMARK UNBOUND:                -0.133
REMARK SMILES O=C([O-])C=Cc1ccc(O)c(O)c1
REMARK SMILES IDX 6 1 13 2 7 3 11 4 8 5 9 6 5 7 4 8 2 9 1 10 3 11 12 12 10 14
REMARK H PARENT 12 13 10 15
REMARK Flexibility Score: inf
ROOT
ATOM      1  C   UNL     1      12.552  10.017  13.412  1.00  0.00    -0.022 A 
ATOM      2  C   UNL     1      12.906  10.974  14.377  1.00  0.00     0.058 A 
ATOM      3  C   UNL     1      11.194   9.678  13.256  1.00  0.00     0.012 A 
ATOM      4  C   UNL     1      11.929  11.567  15.192  1.00  0.00     0.157 A 
ATOM      5  C   UNL     1      10.221  10.269  14.066  1.00  0.00     0.051 A 
ATOM      6  C   UNL     1      10.581  11.210  15.036  1.00  0.00     0.157 A 
ENDROOT
BRANCH   1   7
ATOM      7  C   UNL     1      13.623   9.428  12.571  1.00  0.00     0.010 C 
ATOM      8  C   UNL     1      14.470   8.481  12.996  1.00  0.00     0.025 C 
BRANCH   8   9
ATOM      9  C   UNL     1      15.524   7.933  12.130  1.00  0.00     0.064 C 
ATOM     10  O   UNL     1      16.101   8.684  11.300  1.00  0.00    -0.545 OA
ATOM     11  O   UNL     1      15.897   6.595  12.212  1.00  0.00    -0.545 OA
ENDBRANCH   8   9
ENDBRANCH   1   7
BRANCH   4  12
ATOM     12  O   UNL     1      12.295  12.508  16.152  1.00  0.00    -0.504 OA
ATOM     13  H   UNL     1      12.871  13.310  15.919  1.00  0.00     0.293 HD
ENDBRANCH   4  12
BRANCH   6  14
ATOM     14  O   UNL     1       9.586  11.779  15.830  1.00  0.00    -0.504 OA
ATOM     15  H   UNL     1       8.635  11.896  15.499  1.00  0.00     0.293 HD
ENDBRANCH   6  14
TORSDOF 4
ENDMDL
MODEL 7
REMARK VINA RESULT:    -5.219      2.843      3.258
REMARK INTER + INTRA:          -6.267
REMARK INTER:                  -6.132
REMARK INTRA:                  -0.135
REMARK UNBOUND:                -0.133
REMARK SMILES O=C([O-])C=Cc1ccc(O)c(O)c1
REMARK SMILES IDX 6 1 13 2 7 3 11 4 8 5 9 6 5 7 4 8 2 9 1 10 3 11 12 12 10 14
REMARK H PARENT 12 13 10 15
REMARK Flexibility Score: inf
ROOT
ATOM      1  C   UNL     1      12.138   9.913  12.667  1.00  0.00    -0.022 A 
ATOM      2  C   UNL     1      12.698   9.749  13.944  1.00  0.00     0.058 A 
ATOM      3  C   UNL     1      12.989  10.195  11.581  1.00  0.00     0.012 A 
ATOM      4  C   UNL     1      14.080   9.890  14.145  1.00  0.00     0.157 A 
ATOM      5  C   UNL     1      14.366  10.334  11.780  1.00  0.00     0.051 A 
ATOM      6  C   UNL     1      14.916  10.186  13.057  1.00  0.00     0.157 A 
ENDROOT
BRANCH   1   7
ATOM      7  C   UNL     1      10.671   9.744  12.508  1.00  0.00     0.010 C 
ATOM      8  C   UNL     1       9.847   9.410  13.510  1.00  0.00     0.025 C 
BRANCH   8   9
ATOM      9  C   UNL     1       8.400   9.243  13.304  1.00  0.00     0.064 C 
ATOM     10  O   UNL     1       7.978   8.758  12.222  1.00  0.00    -0.545 OA
ATOM     11  O   UNL     1       7.488   9.613  14.287  1.00  0.00    -0.545 OA
ENDBRANCH   8   9
ENDBRANCH   1   7
BRANCH   4  12
ATOM     12  O   UNL     1      14.622   9.735  15.419  1.00  0.00    -0.504 OA
ATOM     13  H   UNL     1      15.340   9.045  15.612  1.00  0.00     0.293 HD
ENDBRANCH   4  12
BRANCH   6  14
ATOM     14  O   UNL     1      16.293  10.333  13.222  1.00  0.00    -0.504 OA
ATOM     15  H   UNL     1      16.749  11.235  13.154  1.00  0.00     0.293 HD
ENDBRANCH   6  14
TORSDOF 4
ENDMDL
MODEL 8
REMARK VINA RESULT:    -4.840     17.493     18.338
REMARK INTER + INTRA:          -5.822
REMARK INTER:                  -5.687
REMARK INTRA:                  -0.135
REMARK UNBOUND:                -0.133
REMARK SMILES O=C([O-])C=Cc1ccc(O)c(O)c1
REMARK SMILES IDX 6 1 13 2 7 3 11 4 8 5 9 6 5 7 4 8 2 9 1 10 3 11 12 12 10 14
REMARK H PARENT 12 13 10 15
REMARK Flexibility Score: inf
ROOT
ATOM      1  C   UNL     1      17.284  -6.546  15.734  1.00  0.00    -0.022 A 
ATOM      2  C   UNL     1      17.330  -5.534  16.706  1.00  0.00     0.058 A 
ATOM      3  C   UNL     1      16.041  -7.124  15.411  1.00  0.00     0.012 A 
ATOM      4  C   UNL     1      16.163  -5.119  17.365  1.00  0.00     0.157 A 
ATOM      5  C   UNL     1      14.878  -6.710  16.067  1.00  0.00     0.051 A 
ATOM      6  C   UNL     1      14.932  -5.712  17.045  1.00  0.00     0.157 A 
ENDROOT
BRANCH   1   7
ATOM      7  C   UNL     1      18.547  -6.941  15.061  1.00  0.00     0.010 C 
ATOM      8  C   UNL     1      19.739  -6.392  15.329  1.00  0.00     0.025 C 
BRANCH   8   9
ATOM      9  C   UNL     1      20.963  -6.807  14.629  1.00  0.00     0.064 C 
ATOM     10  O   UNL     1      20.906  -7.125  13.412  1.00  0.00    -0.545 OA
ATOM     11  O   UNL     1      22.187  -6.855  15.289  1.00  0.00    -0.545 OA
ENDBRANCH   8   9
ENDBRANCH   1   7
BRANCH   4  12
ATOM     12  O   UNL     1      16.224  -4.119  18.335  1.00  0.00    -0.504 OA
ATOM     13  H   UNL     1      15.645  -3.289  18.280  1.00  0.00     0.293 HD
ENDBRANCH   4  12
BRANCH   6  14
ATOM     14  O   UNL     1      13.754  -5.323  17.682  1.00  0.00    -0.504 OA
ATOM     15  H   UNL     1      13.076  -5.998  18.017  1.00  0.00     0.293 HD
ENDBRANCH   6  14
TORSDOF 4
ENDMDL
MODEL 9
REMARK VINA RESULT:    -4.664     16.908     17.966
REMARK INTER + INTRA:          -5.614
REMARK INTER:                  -5.484
REMARK INTRA:                  -0.130
REMARK UNBOUND:                -0.133
REMARK SMILES O=C([O-])C=Cc1ccc(O)c(O)c1
REMARK SMILES IDX 6 1 13 2 7 3 11 4 8 5 9 6 5 7 4 8 2 9 1 10 3 11 12 12 10 14
REMARK H PARENT 12 13 10 15
REMARK Flexibility Score: inf
ROOT
ATOM      1  C   UNL     1      17.418  -5.615  16.652  1.00  0.00    -0.022 A 
ATOM      2  C   UNL     1      16.451  -4.878  17.353  1.00  0.00     0.058 A 
ATOM      3  C   UNL     1      17.009  -6.740  15.908  1.00  0.00     0.012 A 
ATOM      4  C   UNL     1      15.102  -5.265  17.338  1.00  0.00     0.157 A 
ATOM      5  C   UNL     1      15.665  -7.125  15.892  1.00  0.00     0.051 A 
ATOM      6  C   UNL     1      14.710  -6.396  16.606  1.00  0.00     0.157 A 
ENDROOT
BRANCH   1   7
ATOM      7  C   UNL     1      18.829  -5.157  16.694  1.00  0.00     0.010 C 
ATOM      8  C   UNL     1      19.382  -4.539  17.746  1.00  0.00     0.025 C 
BRANCH   8   9
ATOM      9  C   UNL     1      20.783  -4.092  17.739  1.00  0.00     0.064 C 
ATOM     10  O   UNL     1      21.136  -3.165  16.964  1.00  0.00    -0.545 OA
ATOM     11  O   UNL     1      21.727  -4.677  18.578  1.00  0.00    -0.545 OA
ENDBRANCH   8   9
ENDBRANCH   1   7
BRANCH   4  12
ATOM     12  O   UNL     1      14.154  -4.530  18.048  1.00  0.00    -0.504 OA
ATOM     13  H   UNL     1      13.170  -4.771  18.027  1.00  0.00     0.293 HD
ENDBRANCH   4  12
BRANCH   6  14
ATOM     14  O   UNL     1      13.378  -6.808  16.570  1.00  0.00    -0.504 OA
ATOM     15  H   UNL     1      13.119  -7.787  16.534  1.00  0.00     0.293 HD
ENDBRANCH   6  14
TORSDOF 4
ENDMDL
