MODEL 1
REMARK VINA RESULT:    -2.938      0.000      0.000
REMARK INTER + INTRA:          -5.217
REMARK INTER:                  -4.055
REMARK INTRA:                  -1.162
REMARK UNBOUND:                -1.162
REMARK SMILES CC[C@H](CC[C@H](C)[C@H]1CC[C@@H]2[C@H]3CC=C4C[C@@H](O)CC[C@@]4(C)[C@H]3CC[C@]21C)C(C)C
REMARK SMILES IDX 5 1 4 2 3 3 2 4 1 5 28 6 29 7 30 8 6 9 7 10 8 11 9 12 26 13
REMARK SMILES IDX 10 14 11 15 25 16 27 17 12 18 24 19 23 20 13 21 21 22 14 23
REMARK SMILES IDX 15 24 20 25 22 26 16 27 19 28 17 29 18 30
REMARK H PARENT 18 31
REMARK Flexibility Score: inf
ROOT
ATOM      1  C   UNL     1     -28.627  -4.002  17.354  1.00  0.00     0.004 C 
ENDROOT
BRANCH   1   2
ATOM      2  C   UNL     1     -28.940  -3.386  15.976  1.00  0.00     0.004 C 
BRANCH   2   3
ATOM      3  C   UNL     1     -28.467  -4.258  14.769  1.00  0.00    -0.009 C 
BRANCH   3   4
ATOM      4  C   UNL     1     -29.704  -4.760  13.962  1.00  0.00     0.000 C 
ATOM      5  C   UNL     1     -31.011  -4.051  14.320  1.00  0.00     0.004 C 
ENDBRANCH   3   4
BRANCH   3   6
ATOM      6  C   UNL     1     -27.378  -3.508  13.892  1.00  0.00    -0.014 C 
ATOM      7  C   UNL     1     -25.971  -4.129  13.891  1.00  0.00     0.007 C 
ATOM      8  C   UNL     1     -27.248  -2.027  14.309  1.00  0.00     0.007 C 
ENDBRANCH   3   6
ENDBRANCH   2   3
ENDBRANCH   1   2
BRANCH   1   9
ATOM      9  C   UNL     1     -29.179  -3.195  18.571  1.00  0.00    -0.011 C 
ATOM     10  C   UNL     1     -30.557  -2.613  18.180  1.00  0.00     0.008 C 
BRANCH   9  11
ATOM     11  C   UNL     1     -28.188  -2.046  18.995  1.00  0.00    -0.002 C 
ATOM     12  C   UNL     1     -28.597  -0.654  18.443  1.00  0.00     0.005 C 
ATOM     13  C   UNL     1     -27.884  -1.802  20.537  1.00  0.00    -0.026 C 
ATOM     14  C   UNL     1     -28.202   0.370  19.491  1.00  0.00     0.005 C 
ATOM     15  C   UNL     1     -28.442  -0.388  20.782  1.00  0.00    -0.001 C 
ATOM     16  C   UNL     1     -28.552  -2.712  21.612  1.00  0.00     0.007 C 
ATOM     17  C   UNL     1     -26.330  -1.894  20.701  1.00  0.00     0.012 C 
ATOM     18  C   UNL     1     -27.956   0.269  22.104  1.00  0.00     0.000 C 
ATOM     19  C   UNL     1     -28.841  -2.014  22.972  1.00  0.00     0.005 C 
ATOM     20  C   UNL     1     -27.937  -0.780  23.297  1.00  0.00     0.003 C 
ATOM     21  C   UNL     1     -28.801   1.547  22.396  1.00  0.00     0.031 C 
ATOM     22  C   UNL     1     -28.239  -0.112  24.696  1.00  0.00    -0.008 C 
ATOM     23  C   UNL     1     -29.817   1.381  23.491  1.00  0.00    -0.027 C 
ATOM     24  C   UNL     1     -29.531   0.689  24.608  1.00  0.00    -0.065 C 
ATOM     25  C   UNL     1     -28.397  -1.175  25.832  1.00  0.00     0.014 C 
ATOM     26  C   UNL     1     -27.054   0.818  25.077  1.00  0.00     0.016 C 
ATOM     27  C   UNL     1     -30.554   0.596  25.724  1.00  0.00     0.063 C 
ATOM     28  C   UNL     1     -28.778  -0.561  27.195  1.00  0.00     0.033 C 
ATOM     29  C   UNL     1     -29.856   0.554  27.095  1.00  0.00     0.118 C 
BRANCH  29  30
ATOM     30  O   UNL     1     -30.832   0.390  28.096  1.00  0.00    -0.393 OA
ATOM     31  H   UNL     1     -31.048   1.295  28.438  1.00  0.00     0.210 HD
ENDBRANCH  29  30
ENDBRANCH   9  11
ENDBRANCH   1   9
TORSDOF 7
ENDMDL
MODEL 2
REMARK VINA RESULT:    -2.394      3.325     10.764
REMARK INTER + INTRA:          -4.466
REMARK INTER:                  -3.637
REMARK INTRA:                  -0.830
REMARK UNBOUND:                -1.162
REMARK SMILES CC[C@H](CC[C@H](C)[C@H]1CC[C@@H]2[C@H]3CC=C4C[C@@H](O)CC[C@@]4(C)[C@H]3CC[C@]21C)C(C)C
REMARK SMILES IDX 5 1 4 2 3 3 2 4 1 5 28 6 29 7 30 8 6 9 7 10 8 11 9 12 26 13
REMARK SMILES IDX 10 14 11 15 25 16 27 17 12 18 24 19 23 20 13 21 21 22 14 23
REMARK SMILES IDX 15 24 20 25 22 26 16 27 19 28 17 29 18 30
REMARK H PARENT 18 31
REMARK Flexibility Score: inf
ROOT
ATOM      1  C   UNL     1     -30.144   1.926  28.564  1.00  0.00     0.004 C 
ENDROOT
BRANCH   1   2
ATOM      2  C   UNL     1     -29.772   1.060  29.783  1.00  0.00     0.004 C 
BRANCH   2   3
ATOM      3  C   UNL     1     -29.972   1.777  31.157  1.00  0.00    -0.009 C 
BRANCH   3   4
ATOM      4  C   UNL     1     -31.161   1.126  31.926  1.00  0.00     0.000 C 
ATOM      5  C   UNL     1     -32.289   2.099  32.271  1.00  0.00     0.004 C 
ENDBRANCH   3   4
BRANCH   3   6
ATOM      6  C   UNL     1     -28.620   1.847  31.986  1.00  0.00    -0.014 C 
ATOM      7  C   UNL     1     -28.720   1.451  33.469  1.00  0.00     0.007 C 
ATOM      8  C   UNL     1     -27.988   3.253  31.906  1.00  0.00     0.007 C 
ENDBRANCH   3   6
ENDBRANCH   2   3
ENDBRANCH   1   2
BRANCH   1   9
ATOM      9  C   UNL     1     -30.227   1.150  27.212  1.00  0.00    -0.011 C 
ATOM     10  C   UNL     1     -31.310   0.055  27.348  1.00  0.00     0.008 C 
BRANCH   9  11
ATOM     11  C   UNL     1     -28.837   0.515  26.829  1.00  0.00    -0.002 C 
ATOM     12  C   UNL     1     -28.659  -0.931  27.365  1.00  0.00     0.005 C 
ATOM     13  C   UNL     1     -28.403   0.442  25.301  1.00  0.00    -0.026 C 
ATOM     14  C   UNL     1     -27.840  -1.686  26.334  1.00  0.00     0.005 C 
ATOM     15  C   UNL     1     -28.321  -1.072  25.034  1.00  0.00    -0.001 C 
ATOM     16  C   UNL     1     -29.345   1.016  24.199  1.00  0.00     0.007 C 
ATOM     17  C   UNL     1     -27.018   1.166  25.200  1.00  0.00     0.012 C 
ATOM     18  C   UNL     1     -27.560  -1.451  23.734  1.00  0.00     0.000 C 
ATOM     19  C   UNL     1     -29.271   0.282  22.829  1.00  0.00     0.005 C 
ATOM     20  C   UNL     1     -27.929  -0.467  22.542  1.00  0.00     0.003 C 
ATOM     21  C   UNL     1     -27.795  -2.958  23.408  1.00  0.00     0.031 C 
ATOM     22  C   UNL     1     -27.879  -1.178  21.131  1.00  0.00    -0.008 C 
ATOM     23  C   UNL     1     -28.749  -3.206  22.273  1.00  0.00    -0.027 C 
ATOM     24  C   UNL     1     -28.731  -2.440  21.168  1.00  0.00    -0.065 C 
ATOM     25  C   UNL     1     -28.417  -0.256  19.990  1.00  0.00     0.014 C 
ATOM     26  C   UNL     1     -26.404  -1.534  20.799  1.00  0.00     0.016 C 
ATOM     27  C   UNL     1     -29.660  -2.756  20.012  1.00  0.00     0.063 C 
ATOM     28  C   UNL     1     -28.461  -0.949  18.613  1.00  0.00     0.033 C 
ATOM     29  C   UNL     1     -28.990  -2.410  18.669  1.00  0.00     0.118 C 
BRANCH  29  30
ATOM     30  O   UNL     1     -29.910  -2.644  17.630  1.00  0.00    -0.393 OA
ATOM     31  H   UNL     1     -30.815  -2.603  18.033  1.00  0.00     0.210 HD
ENDBRANCH  29  30
ENDBRANCH   9  11
ENDBRANCH   1   9
TORSDOF 7
ENDMDL
MODEL 3
REMARK VINA RESULT:    -2.340      3.639      7.751
REMARK INTER + INTRA:          -4.391
REMARK INTER:                  -2.465
REMARK INTRA:                  -1.926
REMARK UNBOUND:                -1.162
REMARK SMILES CC[C@H](CC[C@H](C)[C@H]1CC[C@@H]2[C@H]3CC=C4C[C@@H](O)CC[C@@]4(C)[C@H]3CC[C@]21C)C(C)C
REMARK SMILES IDX 5 1 4 2 3 3 2 4 1 5 28 6 29 7 30 8 6 9 7 10 8 11 9 12 26 13
REMARK SMILES IDX 10 14 11 15 25 16 27 17 12 18 24 19 23 20 13 21 21 22 14 23
REMARK SMILES IDX 15 24 20 25 22 26 16 27 19 28 17 29 18 30
REMARK H PARENT 18 31
REMARK Flexibility Score: inf
ROOT
ATOM      1  C   UNL     1     -29.704   1.375  23.172  1.00  0.00     0.004 C 
ENDROOT
BRANCH   1   2
ATOM      2  C   UNL     1     -30.714   0.214  23.095  1.00  0.00     0.004 C 
BRANCH   2   3
ATOM      3  C   UNL     1     -30.357  -0.869  22.027  1.00  0.00    -0.009 C 
BRANCH   3   4
ATOM      4  C   UNL     1     -29.166  -0.375  21.151  1.00  0.00     0.000 C 
ATOM      5  C   UNL     1     -28.927  -1.212  19.893  1.00  0.00     0.004 C 
ENDBRANCH   3   4
BRANCH   3   6
ATOM      6  C   UNL     1     -30.134  -2.295  22.686  1.00  0.00    -0.014 C 
ATOM      7  C   UNL     1     -30.999  -2.610  23.917  1.00  0.00     0.007 C 
ATOM      8  C   UNL     1     -28.654  -2.506  23.072  1.00  0.00     0.007 C 
ENDBRANCH   3   6
ENDBRANCH   2   3
ENDBRANCH   1   2
BRANCH   1   9
ATOM      9  C   UNL     1     -28.708   1.296  24.370  1.00  0.00    -0.011 C 
ATOM     10  C   UNL     1     -27.290   1.048  23.805  1.00  0.00     0.008 C 
BRANCH   9  11
ATOM     11  C   UNL     1     -29.112   0.157  25.380  1.00  0.00    -0.002 C 
ATOM     12  C   UNL     1     -27.911  -0.722  25.820  1.00  0.00     0.005 C 
ATOM     13  C   UNL     1     -29.862   0.534  26.731  1.00  0.00    -0.026 C 
ATOM     14  C   UNL     1     -28.162  -1.122  27.263  1.00  0.00     0.005 C 
ATOM     15  C   UNL     1     -28.857   0.107  27.816  1.00  0.00    -0.001 C 
ATOM     16  C   UNL     1     -30.205   2.024  27.035  1.00  0.00     0.007 C 
ATOM     17  C   UNL     1     -31.187  -0.298  26.749  1.00  0.00     0.012 C 
ATOM     18  C   UNL     1     -29.464   0.009  29.244  1.00  0.00     0.000 C 
ATOM     19  C   UNL     1     -30.202   2.400  28.545  1.00  0.00     0.005 C 
ATOM     20  C   UNL     1     -30.459   1.214  29.531  1.00  0.00     0.003 C 
ATOM     21  C   UNL     1     -28.318  -0.131  30.292  1.00  0.00     0.031 C 
ATOM     22  C   UNL     1     -30.475   1.637  31.054  1.00  0.00    -0.008 C 
ATOM     23  C   UNL     1     -28.046   1.117  31.085  1.00  0.00    -0.027 C 
ATOM     24  C   UNL     1     -29.050   1.895  31.524  1.00  0.00    -0.065 C 
ATOM     25  C   UNL     1     -31.314   2.933  31.294  1.00  0.00     0.014 C 
ATOM     26  C   UNL     1     -31.118   0.494  31.887  1.00  0.00     0.016 C 
ATOM     27  C   UNL     1     -28.747   3.112  32.378  1.00  0.00     0.063 C 
ATOM     28  C   UNL     1     -31.281   3.421  32.757  1.00  0.00     0.033 C 
ATOM     29  C   UNL     1     -29.870   3.345  33.406  1.00  0.00     0.118 C 
BRANCH  29  30
ATOM     30  O   UNL     1     -29.590   4.523  34.124  1.00  0.00    -0.393 OA
ATOM     31  H   UNL     1     -30.045   5.264  33.647  1.00  0.00     0.210 HD
ENDBRANCH  29  30
ENDBRANCH   9  11
ENDBRANCH   1   9
TORSDOF 7
ENDMDL
MODEL 4
REMARK VINA RESULT:    -2.241      3.398     10.709
REMARK INTER + INTRA:          -4.255
REMARK INTER:                  -3.447
REMARK INTRA:                  -0.808
REMARK UNBOUND:                -1.162
REMARK SMILES CC[C@H](CC[C@H](C)[C@H]1CC[C@@H]2[C@H]3CC=C4C[C@@H](O)CC[C@@]4(C)[C@H]3CC[C@]21C)C(C)C
REMARK SMILES IDX 5 1 4 2 3 3 2 4 1 5 28 6 29 7 30 8 6 9 7 10 8 11 9 12 26 13
REMARK SMILES IDX 10 14 11 15 25 16 27 17 12 18 24 19 23 20 13 21 21 22 14 23
REMARK SMILES IDX 15 24 20 25 22 26 16 27 19 28 17 29 18 30
REMARK H PARENT 18 31
REMARK Flexibility Score: inf
ROOT
ATOM      1  C   UNL     1     -28.635  -0.292  29.003  1.00  0.00     0.004 C 
ENDROOT
BRANCH   1   2
ATOM      2  C   UNL     1     -28.995   1.116  29.515  1.00  0.00     0.004 C 
BRANCH   2   3
ATOM      3  C   UNL     1     -29.389   1.161  31.026  1.00  0.00    -0.009 C 
BRANCH   3   4
ATOM      4  C   UNL     1     -28.342   2.000  31.821  1.00  0.00     0.000 C 
ATOM      5  C   UNL     1     -28.181   1.575  33.281  1.00  0.00     0.004 C 
ENDBRANCH   3   4
BRANCH   3   6
ATOM      6  C   UNL     1     -30.891   1.632  31.229  1.00  0.00    -0.014 C 
ATOM      7  C   UNL     1     -31.090   3.121  31.556  1.00  0.00     0.007 C 
ATOM      8  C   UNL     1     -31.593   0.801  32.325  1.00  0.00     0.007 C 
ENDBRANCH   3   6
ENDBRANCH   2   3
ENDBRANCH   1   2
BRANCH   1   9
ATOM      9  C   UNL     1     -28.346  -0.376  27.471  1.00  0.00    -0.011 C 
ATOM     10  C   UNL     1     -27.220   0.629  27.136  1.00  0.00     0.008 C 
BRANCH   9  11
ATOM     11  C   UNL     1     -29.638  -0.068  26.625  1.00  0.00    -0.002 C 
ATOM     12  C   UNL     1     -29.806   1.440  26.296  1.00  0.00     0.005 C 
ATOM     13  C   UNL     1     -29.868  -0.817  25.241  1.00  0.00    -0.026 C 
ATOM     14  C   UNL     1     -30.444   1.524  24.921  1.00  0.00     0.005 C 
ATOM     15  C   UNL     1     -29.832   0.331  24.215  1.00  0.00    -0.001 C 
ATOM     16  C   UNL     1     -28.823  -1.862  24.744  1.00  0.00     0.007 C 
ATOM     17  C   UNL     1     -31.265  -1.516  25.343  1.00  0.00     0.012 C 
ATOM     18  C   UNL     1     -30.397  -0.047  22.817  1.00  0.00     0.000 C 
ATOM     19  C   UNL     1     -28.680  -1.958  23.198  1.00  0.00     0.005 C 
ATOM     20  C   UNL     1     -29.931  -1.501  22.379  1.00  0.00     0.003 C 
ATOM     21  C   UNL     1     -30.042   1.070  21.788  1.00  0.00     0.031 C 
ATOM     22  C   UNL     1     -29.761  -1.637  20.814  1.00  0.00    -0.008 C 
ATOM     23  C   UNL     1     -28.937   0.707  20.836  1.00  0.00    -0.027 C 
ATOM     24  C   UNL     1     -28.854  -0.525  20.304  1.00  0.00    -0.065 C 
ATOM     25  C   UNL     1     -29.130  -3.009  20.410  1.00  0.00     0.014 C 
ATOM     26  C   UNL     1     -31.160  -1.541  20.145  1.00  0.00     0.016 C 
ATOM     27  C   UNL     1     -27.768  -0.843  19.293  1.00  0.00     0.063 C 
ATOM     28  C   UNL     1     -28.872  -3.140  18.895  1.00  0.00     0.033 C 
ATOM     29  C   UNL     1     -28.276  -1.856  18.252  1.00  0.00     0.118 C 
BRANCH  29  30
ATOM     30  O   UNL     1     -27.219  -2.182  17.382  1.00  0.00    -0.393 OA
ATOM     31  H   UNL     1     -26.449  -1.613  17.640  1.00  0.00     0.210 HD
ENDBRANCH  29  30
ENDBRANCH   9  11
ENDBRANCH   1   9
TORSDOF 7
ENDMDL
MODEL 5
REMARK VINA RESULT:    -2.011      1.456      2.616
REMARK INTER + INTRA:          -3.937
REMARK INTER:                  -2.287
REMARK INTRA:                  -1.650
REMARK UNBOUND:                -1.162
REMARK SMILES CC[C@H](CC[C@H](C)[C@H]1CC[C@@H]2[C@H]3CC=C4C[C@@H](O)CC[C@@]4(C)[C@H]3CC[C@]21C)C(C)C
REMARK SMILES IDX 5 1 4 2 3 3 2 4 1 5 28 6 29 7 30 8 6 9 7 10 8 11 9 12 26 13
REMARK SMILES IDX 10 14 11 15 25 16 27 17 12 18 24 19 23 20 13 21 21 22 14 23
REMARK SMILES IDX 15 24 20 25 22 26 16 27 19 28 17 29 18 30
REMARK H PARENT 18 31
REMARK Flexibility Score: inf
ROOT
ATOM      1  C   UNL     1     -27.292  -2.693  17.090  1.00  0.00     0.004 C 
ENDROOT
BRANCH   1   2
ATOM      2  C   UNL     1     -27.974  -1.995  15.897  1.00  0.00     0.004 C 
BRANCH   2   3
ATOM      3  C   UNL     1     -27.767  -2.725  14.531  1.00  0.00    -0.009 C 
BRANCH   3   4
ATOM      4  C   UNL     1     -26.549  -3.693  14.628  1.00  0.00     0.000 C 
ATOM      5  C   UNL     1     -25.277  -3.164  13.964  1.00  0.00     0.004 C 
ENDBRANCH   3   4
BRANCH   3   6
ATOM      6  C   UNL     1     -29.105  -3.410  14.021  1.00  0.00    -0.014 C 
ATOM      7  C   UNL     1     -30.390  -3.011  14.764  1.00  0.00     0.007 C 
ATOM      8  C   UNL     1     -28.991  -4.950  14.052  1.00  0.00     0.007 C 
ENDBRANCH   3   6
ENDBRANCH   2   3
ENDBRANCH   1   2
BRANCH   1   9
ATOM      9  C   UNL     1     -28.250  -3.064  18.265  1.00  0.00    -0.011 C 
ATOM     10  C   UNL     1     -29.096  -4.284  17.833  1.00  0.00     0.008 C 
BRANCH   9  11
ATOM     11  C   UNL     1     -29.178  -1.852  18.654  1.00  0.00    -0.002 C 
ATOM     12  C   UNL     1     -30.674  -2.248  18.787  1.00  0.00     0.005 C 
ATOM     13  C   UNL     1     -28.860  -1.007  19.963  1.00  0.00    -0.026 C 
ATOM     14  C   UNL     1     -31.260  -1.390  19.894  1.00  0.00     0.005 C 
ATOM     15  C   UNL     1     -30.091  -1.264  20.851  1.00  0.00    -0.001 C 
ATOM     16  C   UNL     1     -27.623  -1.373  20.838  1.00  0.00     0.007 C 
ATOM     17  C   UNL     1     -28.724   0.484  19.505  1.00  0.00     0.012 C 
ATOM     18  C   UNL     1     -30.237  -0.274  22.039  1.00  0.00     0.000 C 
ATOM     19  C   UNL     1     -27.790  -1.086  22.358  1.00  0.00     0.005 C 
ATOM     20  C   UNL     1     -28.832   0.022  22.719  1.00  0.00     0.003 C 
ATOM     21  C   UNL     1     -31.322  -0.799  23.029  1.00  0.00     0.031 C 
ATOM     22  C   UNL     1     -28.957   0.307  24.269  1.00  0.00    -0.008 C 
ATOM     23  C   UNL     1     -30.772  -1.389  24.297  1.00  0.00    -0.027 C 
ATOM     24  C   UNL     1     -29.730  -0.825  24.932  1.00  0.00    -0.065 C 
ATOM     25  C   UNL     1     -27.559   0.417  24.960  1.00  0.00     0.014 C 
ATOM     26  C   UNL     1     -29.697   1.657  24.475  1.00  0.00     0.016 C 
ATOM     27  C   UNL     1     -29.240  -1.404  26.246  1.00  0.00     0.063 C 
ATOM     28  C   UNL     1     -27.645   0.610  26.487  1.00  0.00     0.033 C 
ATOM     29  C   UNL     1     -28.717  -0.288  27.168  1.00  0.00     0.118 C 
BRANCH  29  30
ATOM     30  O   UNL     1     -28.202  -0.872  28.340  1.00  0.00    -0.393 OA
ATOM     31  H   UNL     1     -28.248  -0.181  29.050  1.00  0.00     0.210 HD
ENDBRANCH  29  30
ENDBRANCH   9  11
ENDBRANCH   1   9
TORSDOF 7
ENDMDL
MODEL 6
REMARK VINA RESULT:    -1.973      1.432      3.162
REMARK INTER + INTRA:          -3.885
REMARK INTER:                  -2.289
REMARK INTRA:                  -1.595
REMARK UNBOUND:                -1.162
REMARK SMILES CC[C@H](CC[C@H](C)[C@H]1CC[C@@H]2[C@H]3CC=C4C[C@@H](O)CC[C@@]4(C)[C@H]3CC[C@]21C)C(C)C
REMARK SMILES IDX 5 1 4 2 3 3 2 4 1 5 28 6 29 7 30 8 6 9 7 10 8 11 9 12 26 13
REMARK SMILES IDX 10 14 11 15 25 16 27 17 12 18 24 19 23 20 13 21 21 22 14 23
REMARK SMILES IDX 15 24 20 25 22 26 16 27 19 28 17 29 18 30
REMARK H PARENT 18 31
REMARK Flexibility Score: inf
ROOT
ATOM      1  C   UNL     1     -28.427  -1.250  16.116  1.00  0.00     0.004 C 
ENDROOT
BRANCH   1   2
ATOM      2  C   UNL     1     -27.435  -1.912  15.140  1.00  0.00     0.004 C 
BRANCH   2   3
ATOM      3  C   UNL     1     -28.068  -3.029  14.250  1.00  0.00    -0.009 C 
BRANCH   3   4
ATOM      4  C   UNL     1     -27.008  -4.133  13.952  1.00  0.00     0.000 C 
ATOM      5  C   UNL     1     -25.566  -3.702  14.222  1.00  0.00     0.004 C 
ENDBRANCH   3   4
BRANCH   3   6
ATOM      6  C   UNL     1     -29.423  -3.577  14.868  1.00  0.00    -0.014 C 
ATOM      7  C   UNL     1     -29.401  -5.038  15.347  1.00  0.00     0.007 C 
ATOM      8  C   UNL     1     -30.596  -3.413  13.877  1.00  0.00     0.007 C 
ENDBRANCH   3   6
ENDBRANCH   2   3
ENDBRANCH   1   2
BRANCH   1   9
ATOM      9  C   UNL     1     -27.990  -1.280  17.614  1.00  0.00    -0.011 C 
ATOM     10  C   UNL     1     -26.594  -1.939  17.697  1.00  0.00     0.008 C 
BRANCH   9  11
ATOM     11  C   UNL     1     -29.030  -2.062  18.500  1.00  0.00    -0.002 C 
ATOM     12  C   UNL     1     -28.563  -3.498  18.863  1.00  0.00     0.005 C 
ATOM     13  C   UNL     1     -29.522  -1.431  19.875  1.00  0.00    -0.026 C 
ATOM     14  C   UNL     1     -29.089  -3.794  20.257  1.00  0.00     0.005 C 
ATOM     15  C   UNL     1     -29.005  -2.434  20.922  1.00  0.00    -0.001 C 
ATOM     16  C   UNL     1     -28.985  -0.037  20.323  1.00  0.00     0.007 C 
ATOM     17  C   UNL     1     -31.084  -1.364  19.797  1.00  0.00     0.012 C 
ATOM     18  C   UNL     1     -29.652  -2.279  22.327  1.00  0.00     0.000 C 
ATOM     19  C   UNL     1     -28.868   0.154  21.862  1.00  0.00     0.005 C 
ATOM     20  C   UNL     1     -29.811  -0.749  22.723  1.00  0.00     0.003 C 
ATOM     21  C   UNL     1     -28.855  -3.124  23.368  1.00  0.00     0.031 C 
ATOM     22  C   UNL     1     -29.685  -0.510  24.280  1.00  0.00    -0.008 C 
ATOM     23  C   UNL     1     -27.979  -2.315  24.283  1.00  0.00    -0.027 C 
ATOM     24  C   UNL     1     -28.396  -1.141  24.788  1.00  0.00    -0.065 C 
ATOM     25  C   UNL     1     -29.662   1.011  24.640  1.00  0.00     0.014 C 
ATOM     26  C   UNL     1     -30.912  -1.147  24.989  1.00  0.00     0.016 C 
ATOM     27  C   UNL     1     -27.517  -0.380  25.762  1.00  0.00     0.063 C 
ATOM     28  C   UNL     1     -29.454   1.281  26.144  1.00  0.00     0.033 C 
ATOM     29  C   UNL     1     -28.376   0.369  26.796  1.00  0.00     0.118 C 
BRANCH  29  30
ATOM     30  O   UNL     1     -27.529   1.122  27.631  1.00  0.00    -0.393 OA
ATOM     31  H   UNL     1     -27.346   1.974  27.159  1.00  0.00     0.210 HD
ENDBRANCH  29  30
ENDBRANCH   9  11
ENDBRANCH   1   9
TORSDOF 7
ENDMDL
MODEL 7
REMARK VINA RESULT:    -0.172      3.729     11.294
REMARK INTER + INTRA:          -1.399
REMARK INTER:                  -0.343
REMARK INTRA:                  -1.056
REMARK UNBOUND:                -1.162
REMARK SMILES CC[C@H](CC[C@H](C)[C@H]1CC[C@@H]2[C@H]3CC=C4C[C@@H](O)CC[C@@]4(C)[C@H]3CC[C@]21C)C(C)C
REMARK SMILES IDX 5 1 4 2 3 3 2 4 1 5 28 6 29 7 30 8 6 9 7 10 8 11 9 12 26 13
REMARK SMILES IDX 10 14 11 15 25 16 27 17 12 18 24 19 23 20 13 21 21 22 14 23
REMARK SMILES IDX 15 24 20 25 22 26 16 27 19 28 17 29 18 30
REMARK H PARENT 18 31
REMARK Flexibility Score: inf
ROOT
ATOM      1  C   UNL     1     -30.130   2.068  29.750  1.00  0.00     0.004 C 
ENDROOT
BRANCH   1   2
ATOM      2  C   UNL     1     -29.551   1.074  30.776  1.00  0.00     0.004 C 
BRANCH   2   3
ATOM      3  C   UNL     1     -29.269   1.701  32.179  1.00  0.00    -0.009 C 
BRANCH   3   4
ATOM      4  C   UNL     1     -28.152   2.783  32.059  1.00  0.00     0.000 C 
ATOM      5  C   UNL     1     -26.917   2.502  32.917  1.00  0.00     0.004 C 
ENDBRANCH   3   4
BRANCH   3   6
ATOM      6  C   UNL     1     -30.600   2.214  32.873  1.00  0.00    -0.014 C 
ATOM      7  C   UNL     1     -30.498   3.558  33.613  1.00  0.00     0.007 C 
ATOM      8  C   UNL     1     -31.157   1.164  33.859  1.00  0.00     0.007 C 
ENDBRANCH   3   6
ENDBRANCH   2   3
ENDBRANCH   1   2
BRANCH   1   9
ATOM      9  C   UNL     1     -29.750   1.770  28.266  1.00  0.00    -0.011 C 
ATOM     10  C   UNL     1     -30.580   2.706  27.357  1.00  0.00     0.008 C 
BRANCH   9  11
ATOM     11  C   UNL     1     -30.011   0.261  27.898  1.00  0.00    -0.002 C 
ATOM     12  C   UNL     1     -31.513  -0.060  27.671  1.00  0.00     0.005 C 
ATOM     13  C   UNL     1     -29.262  -0.384  26.652  1.00  0.00    -0.026 C 
ATOM     14  C   UNL     1     -31.579  -1.118  26.584  1.00  0.00     0.005 C 
ATOM     15  C   UNL     1     -30.416  -0.730  25.693  1.00  0.00    -0.001 C 
ATOM     16  C   UNL     1     -28.263   0.476  25.819  1.00  0.00     0.007 C 
ATOM     17  C   UNL     1     -28.506  -1.643  27.194  1.00  0.00     0.012 C 
ATOM     18  C   UNL     1     -30.024  -1.710  24.553  1.00  0.00     0.000 C 
ATOM     19  C   UNL     1     -28.182   0.105  24.310  1.00  0.00     0.005 C 
ATOM     20  C   UNL     1     -28.593  -1.361  23.958  1.00  0.00     0.003 C 
ATOM     21  C   UNL     1     -31.161  -1.754  23.485  1.00  0.00     0.031 C 
ATOM     22  C   UNL     1     -28.473  -1.711  22.422  1.00  0.00    -0.008 C 
ATOM     23  C   UNL     1     -30.848  -1.012  22.216  1.00  0.00    -0.027 C 
ATOM     24  C   UNL     1     -29.624  -1.064  21.663  1.00  0.00    -0.065 C 
ATOM     25  C   UNL     1     -27.131  -1.200  21.806  1.00  0.00     0.014 C 
ATOM     26  C   UNL     1     -28.516  -3.255  22.251  1.00  0.00     0.016 C 
ATOM     27  C   UNL     1     -29.357  -0.361  20.345  1.00  0.00     0.063 C 
ATOM     28  C   UNL     1     -27.019  -1.450  20.288  1.00  0.00     0.033 C 
ATOM     29  C   UNL     1     -28.331  -1.146  19.510  1.00  0.00     0.118 C 
BRANCH  29  30
ATOM     30  O   UNL     1     -28.053  -0.423  18.335  1.00  0.00    -0.393 OA
ATOM     31  H   UNL     1     -27.798  -1.086  17.643  1.00  0.00     0.210 HD
ENDBRANCH  29  30
ENDBRANCH   9  11
ENDBRANCH   1   9
TORSDOF 7
ENDMDL
MODEL 8
REMARK VINA RESULT:    -0.155      1.404      2.553
REMARK INTER + INTRA:          -1.376
REMARK INTER:                  -0.097
REMARK INTRA:                  -1.279
REMARK UNBOUND:                -1.162
REMARK SMILES CC[C@H](CC[C@H](C)[C@H]1CC[C@@H]2[C@H]3CC=C4C[C@@H](O)CC[C@@]4(C)[C@H]3CC[C@]21C)C(C)C
REMARK SMILES IDX 5 1 4 2 3 3 2 4 1 5 28 6 29 7 30 8 6 9 7 10 8 11 9 12 26 13
REMARK SMILES IDX 10 14 11 15 25 16 27 17 12 18 24 19 23 20 13 21 21 22 14 23
REMARK SMILES IDX 15 24 20 25 22 26 16 27 19 28 17 29 18 30
REMARK H PARENT 18 31
REMARK Flexibility Score: inf
ROOT
ATOM      1  C   UNL     1     -29.546  -2.500  16.915  1.00  0.00     0.004 C 
ENDROOT
BRANCH   1   2
ATOM      2  C   UNL     1     -29.387  -2.210  15.410  1.00  0.00     0.004 C 
BRANCH   2   3
ATOM      3  C   UNL     1     -28.662  -3.344  14.617  1.00  0.00    -0.009 C 
BRANCH   3   4
ATOM      4  C   UNL     1     -27.370  -3.777  15.375  1.00  0.00     0.000 C 
ATOM      5  C   UNL     1     -26.103  -3.059  14.909  1.00  0.00     0.004 C 
ENDBRANCH   3   4
BRANCH   3   6
ATOM      6  C   UNL     1     -29.645  -4.540  14.269  1.00  0.00    -0.014 C 
ATOM      7  C   UNL     1     -31.096  -4.147  13.948  1.00  0.00     0.007 C 
ATOM      8  C   UNL     1     -29.671  -5.589  15.402  1.00  0.00     0.007 C 
ENDBRANCH   3   6
ENDBRANCH   2   3
ENDBRANCH   1   2
BRANCH   1   9
ATOM      9  C   UNL     1     -28.831  -1.481  17.856  1.00  0.00    -0.011 C 
ATOM     10  C   UNL     1     -27.937  -0.566  16.989  1.00  0.00     0.008 C 
BRANCH   9  11
ATOM     11  C   UNL     1     -27.976  -2.216  18.956  1.00  0.00    -0.002 C 
ATOM     12  C   UNL     1     -26.524  -1.676  19.060  1.00  0.00     0.005 C 
ATOM     13  C   UNL     1     -28.503  -2.268  20.455  1.00  0.00    -0.026 C 
ATOM     14  C   UNL     1     -26.125  -1.764  20.523  1.00  0.00     0.005 C 
ATOM     15  C   UNL     1     -27.435  -1.472  21.227  1.00  0.00    -0.001 C 
ATOM     16  C   UNL     1     -29.868  -1.609  20.820  1.00  0.00     0.007 C 
ATOM     17  C   UNL     1     -28.557  -3.782  20.853  1.00  0.00     0.012 C 
ATOM     18  C   UNL     1     -27.483  -1.668  22.768  1.00  0.00     0.000 C 
ATOM     19  C   UNL     1     -29.952  -1.036  22.263  1.00  0.00     0.005 C 
ATOM     20  C   UNL     1     -28.980  -1.687  23.301  1.00  0.00     0.003 C 
ATOM     21  C   UNL     1     -26.577  -0.604  23.461  1.00  0.00     0.031 C 
ATOM     22  C   UNL     1     -29.111  -1.099  24.762  1.00  0.00    -0.008 C 
ATOM     23  C   UNL     1     -27.330   0.513  24.127  1.00  0.00    -0.027 C 
ATOM     24  C   UNL     1     -28.461   0.277  24.815  1.00  0.00    -0.065 C 
ATOM     25  C   UNL     1     -30.603  -0.955  25.205  1.00  0.00     0.014 C 
ATOM     26  C   UNL     1     -28.411  -2.064  25.758  1.00  0.00     0.016 C 
ATOM     27  C   UNL     1     -29.162   1.414  25.533  1.00  0.00     0.063 C 
ATOM     28  C   UNL     1     -30.768  -0.304  26.593  1.00  0.00     0.033 C 
ATOM     29  C   UNL     1     -29.826   0.910  26.827  1.00  0.00     0.118 C 
BRANCH  29  30
ATOM     30  O   UNL     1     -30.529   1.975  27.421  1.00  0.00    -0.393 OA
ATOM     31  H   UNL     1     -30.705   1.714  28.361  1.00  0.00     0.210 HD
ENDBRANCH  29  30
ENDBRANCH   9  11
ENDBRANCH   1   9
TORSDOF 7
ENDMDL
