MODEL 1
REMARK VINA RESULT:    -6.234      0.000      0.000
REMARK INTER + INTRA:          -6.416
REMARK INTER:                  -6.416
REMARK INTRA:                   0.000
REMARK UNBOUND:                 0.000
REMARK SMILES O=c1ccc2ccc(O)cc2o1
REMARK SMILES IDX 6 1 7 2 8 3 10 4 11 5 5 6 4 7 3 8 2 9 1 10 12 11 9 12
REMARK H PARENT 9 13
REMARK Flexibility Score: inf
ROOT
ATOM      1  C   UNL     1       9.489   3.986  19.581  1.00  0.00     0.016 A 
ATOM      2  C   UNL     1      10.106   3.176  18.622  1.00  0.00     0.047 A 
ATOM      3  C   UNL     1      11.392   3.480  18.159  1.00  0.00     0.119 A 
ATOM      4  C   UNL     1      12.068   4.602  18.661  1.00  0.00     0.094 A 
ATOM      5  C   UNL     1      11.460   5.417  19.622  1.00  0.00     0.142 A 
ATOM      6  C   UNL     1      10.162   5.107  20.085  1.00  0.00     0.018 A 
ATOM      7  C   UNL     1       9.581   5.941  21.046  1.00  0.00     0.019 A 
ATOM      8  C   UNL     1      10.292   7.045  21.514  1.00  0.00     0.094 A 
ATOM      9  C   UNL     1      11.574   7.291  21.010  1.00  0.00     0.336 A 
ATOM     10  O   UNL     1      12.231   8.281  21.421  1.00  0.00    -0.246 OA
ATOM     11  O   UNL     1      12.104   6.480  20.096  1.00  0.00    -0.423 OA
ENDROOT
BRANCH   3  12
ATOM     12  O   UNL     1      11.988   2.662  17.203  1.00  0.00    -0.508 OA
ATOM     13  H   UNL     1      12.904   2.255  17.351  1.00  0.00     0.293 HD
ENDBRANCH   3  12
TORSDOF 1
ENDMDL
MODEL 2
REMARK VINA RESULT:    -5.983     19.728     19.882
REMARK INTER + INTRA:          -6.158
REMARK INTER:                  -6.158
REMARK INTRA:                   0.000
REMARK UNBOUND:                 0.000
REMARK SMILES O=c1ccc2ccc(O)cc2o1
REMARK SMILES IDX 6 1 7 2 8 3 10 4 11 5 5 6 4 7 3 8 2 9 1 10 12 11 9 12
REMARK H PARENT 9 13
REMARK Flexibility Score: inf
ROOT
ATOM      1  C   UNL     1      17.799  -8.697  31.892  1.00  0.00     0.016 A 
ATOM      2  C   UNL     1      16.583  -9.296  31.547  1.00  0.00     0.047 A 
ATOM      3  C   UNL     1      15.419  -9.001  32.267  1.00  0.00     0.119 A 
ATOM      4  C   UNL     1      15.470  -8.098  33.340  1.00  0.00     0.094 A 
ATOM      5  C   UNL     1      16.682  -7.492  33.690  1.00  0.00     0.142 A 
ATOM      6  C   UNL     1      17.854  -7.793  32.962  1.00  0.00     0.018 A 
ATOM      7  C   UNL     1      19.049  -7.172  33.336  1.00  0.00     0.019 A 
ATOM      8  C   UNL     1      19.051  -6.282  34.409  1.00  0.00     0.094 A 
ATOM      9  C   UNL     1      17.851  -6.032  35.086  1.00  0.00     0.336 A 
ATOM     10  O   UNL     1      17.833  -5.231  36.056  1.00  0.00    -0.246 OA
ATOM     11  O   UNL     1      16.727  -6.636  34.707  1.00  0.00    -0.423 OA
ENDROOT
BRANCH   3  12
ATOM     12  O   UNL     1      14.218  -9.609  31.909  1.00  0.00    -0.508 OA
ATOM     13  H   UNL     1      14.152 -10.611  31.776  1.00  0.00     0.293 HD
ENDBRANCH   3  12
TORSDOF 1
ENDMDL
MODEL 3
REMARK VINA RESULT:    -5.966      2.240      3.076
REMARK INTER + INTRA:          -6.141
REMARK INTER:                  -6.141
REMARK INTRA:                   0.000
REMARK UNBOUND:                 0.000
REMARK SMILES O=c1ccc2ccc(O)cc2o1
REMARK SMILES IDX 6 1 7 2 8 3 10 4 11 5 5 6 4 7 3 8 2 9 1 10 12 11 9 12
REMARK H PARENT 9 13
REMARK Flexibility Score: inf
ROOT
ATOM      1  C   UNL     1       7.572   2.585  18.834  1.00  0.00     0.016 A 
ATOM      2  C   UNL     1       7.917   1.350  18.274  1.00  0.00     0.047 A 
ATOM      3  C   UNL     1       9.147   1.186  17.625  1.00  0.00     0.119 A 
ATOM      4  C   UNL     1      10.040   2.264  17.536  1.00  0.00     0.094 A 
ATOM      5  C   UNL     1       9.704   3.502  18.095  1.00  0.00     0.142 A 
ATOM      6  C   UNL     1       8.462   3.664  18.748  1.00  0.00     0.018 A 
ATOM      7  C   UNL     1       8.155   4.914  19.296  1.00  0.00     0.019 A 
ATOM      8  C   UNL     1       9.074   5.956  19.182  1.00  0.00     0.094 A 
ATOM      9  C   UNL     1      10.286   5.723  18.521  1.00  0.00     0.336 A 
ATOM     10  O   UNL     1      11.128   6.650  18.409  1.00  0.00    -0.246 OA
ATOM     11  O   UNL     1      10.553   4.523  18.009  1.00  0.00    -0.423 OA
ENDROOT
BRANCH   3  12
ATOM     12  O   UNL     1       9.471  -0.050  17.073  1.00  0.00    -0.508 OA
ATOM     13  H   UNL     1       8.831  -0.540  16.459  1.00  0.00     0.293 HD
ENDBRANCH   3  12
TORSDOF 1
ENDMDL
MODEL 4
REMARK VINA RESULT:    -5.951     18.722     19.063
REMARK INTER + INTRA:          -6.125
REMARK INTER:                  -6.125
REMARK INTRA:                   0.000
REMARK UNBOUND:                 0.000
REMARK SMILES O=c1ccc2ccc(O)cc2o1
REMARK SMILES IDX 6 1 7 2 8 3 10 4 11 5 5 6 4 7 3 8 2 9 1 10 12 11 9 12
REMARK H PARENT 9 13
REMARK Flexibility Score: inf
ROOT
ATOM      1  C   UNL     1      18.321  -3.355  35.247  1.00  0.00     0.016 A 
ATOM      2  C   UNL     1      19.588  -2.894  34.874  1.00  0.00     0.047 A 
ATOM      3  C   UNL     1      20.249  -3.453  33.774  1.00  0.00     0.119 A 
ATOM      4  C   UNL     1      19.638  -4.480  33.039  1.00  0.00     0.094 A 
ATOM      5  C   UNL     1      18.370  -4.946  33.403  1.00  0.00     0.142 A 
ATOM      6  C   UNL     1      17.707  -4.380  34.515  1.00  0.00     0.018 A 
ATOM      7  C   UNL     1      16.441  -4.867  34.855  1.00  0.00     0.019 A 
ATOM      8  C   UNL     1      15.874  -5.889  34.095  1.00  0.00     0.094 A 
ATOM      9  C   UNL     1      16.589  -6.402  33.006  1.00  0.00     0.336 A 
ATOM     10  O   UNL     1      16.094  -7.324  32.308  1.00  0.00    -0.246 OA
ATOM     11  O   UNL     1      17.792  -5.920  32.704  1.00  0.00    -0.423 OA
ENDROOT
BRANCH   3  12
ATOM     12  O   UNL     1      21.511  -2.982  33.419  1.00  0.00    -0.508 OA
ATOM     13  H   UNL     1      21.653  -2.026  33.117  1.00  0.00     0.293 HD
ENDBRANCH   3  12
TORSDOF 1
ENDMDL
MODEL 5
REMARK VINA RESULT:    -5.858     18.680     18.751
REMARK INTER + INTRA:          -6.029
REMARK INTER:                  -6.029
REMARK INTRA:                   0.000
REMARK UNBOUND:                 0.000
REMARK SMILES O=c1ccc2ccc(O)cc2o1
REMARK SMILES IDX 6 1 7 2 8 3 10 4 11 5 5 6 4 7 3 8 2 9 1 10 12 11 9 12
REMARK H PARENT 9 13
REMARK Flexibility Score: inf
ROOT
ATOM      1  C   UNL     1      16.222  -4.885  34.887  1.00  0.00     0.016 A 
ATOM      2  C   UNL     1      15.594  -5.860  34.105  1.00  0.00     0.047 A 
ATOM      3  C   UNL     1      16.246  -6.401  32.990  1.00  0.00     0.119 A 
ATOM      4  C   UNL     1      17.536  -5.965  32.654  1.00  0.00     0.094 A 
ATOM      5  C   UNL     1      18.173  -4.991  33.432  1.00  0.00     0.142 A 
ATOM      6  C   UNL     1      17.511  -4.447  34.555  1.00  0.00     0.018 A 
ATOM      7  C   UNL     1      18.173  -3.475  35.312  1.00  0.00     0.019 A 
ATOM      8  C   UNL     1      19.455  -3.073  34.940  1.00  0.00     0.094 A 
ATOM      9  C   UNL     1      20.049  -3.656  33.814  1.00  0.00     0.336 A 
ATOM     10  O   UNL     1      21.205  -3.307  33.463  1.00  0.00    -0.246 OA
ATOM     11  O   UNL     1      19.397  -4.580  33.112  1.00  0.00    -0.423 OA
ENDROOT
BRANCH   3  12
ATOM     12  O   UNL     1      15.603  -7.370  32.223  1.00  0.00    -0.508 OA
ATOM     13  H   UNL     1      15.330  -7.191  31.264  1.00  0.00     0.293 HD
ENDBRANCH   3  12
TORSDOF 1
ENDMDL
MODEL 6
REMARK VINA RESULT:    -5.827      1.595      4.771
REMARK INTER + INTRA:          -5.997
REMARK INTER:                  -5.997
REMARK INTRA:                   0.000
REMARK UNBOUND:                 0.000
REMARK SMILES O=c1ccc2ccc(O)cc2o1
REMARK SMILES IDX 6 1 7 2 8 3 10 4 11 5 5 6 4 7 3 8 2 9 1 10 12 11 9 12
REMARK H PARENT 9 13
REMARK Flexibility Score: inf
ROOT
ATOM      1  C   UNL     1      11.936   7.008  20.002  1.00  0.00     0.016 A 
ATOM      2  C   UNL     1      11.302   7.807  20.959  1.00  0.00     0.047 A 
ATOM      3  C   UNL     1      10.133   7.362  21.589  1.00  0.00     0.119 A 
ATOM      4  C   UNL     1       9.595   6.109  21.262  1.00  0.00     0.094 A 
ATOM      5  C   UNL     1      10.224   5.303  20.307  1.00  0.00     0.142 A 
ATOM      6  C   UNL     1      11.402   5.755  19.673  1.00  0.00     0.018 A 
ATOM      7  C   UNL     1      12.008   4.926  18.722  1.00  0.00     0.019 A 
ATOM      8  C   UNL     1      11.436   3.689  18.429  1.00  0.00     0.094 A 
ATOM      9  C   UNL     1      10.267   3.306  19.097  1.00  0.00     0.336 A 
ATOM     10  O   UNL     1       9.737   2.194  18.847  1.00  0.00    -0.246 OA
ATOM     11  O   UNL     1       9.712   4.114  19.998  1.00  0.00    -0.423 OA
ENDROOT
BRANCH   3  12
ATOM     12  O   UNL     1       9.515   8.173  22.539  1.00  0.00    -0.508 OA
ATOM     13  H   UNL     1       9.629   9.180  22.530  1.00  0.00     0.293 HD
ENDBRANCH   3  12
TORSDOF 1
ENDMDL
MODEL 7
REMARK VINA RESULT:    -5.812      1.507      2.253
REMARK INTER + INTRA:          -5.981
REMARK INTER:                  -5.981
REMARK INTRA:                   0.000
REMARK UNBOUND:                 0.000
REMARK SMILES O=c1ccc2ccc(O)cc2o1
REMARK SMILES IDX 6 1 7 2 8 3 10 4 11 5 5 6 4 7 3 8 2 9 1 10 12 11 9 12
REMARK H PARENT 9 13
REMARK Flexibility Score: inf
ROOT
ATOM      1  C   UNL     1      12.129   5.042  18.831  1.00  0.00     0.016 A 
ATOM      2  C   UNL     1      11.638   3.754  18.586  1.00  0.00     0.047 A 
ATOM      3  C   UNL     1      10.514   3.282  19.274  1.00  0.00     0.119 A 
ATOM      4  C   UNL     1       9.874   4.103  20.214  1.00  0.00     0.094 A 
ATOM      5  C   UNL     1      10.356   5.393  20.464  1.00  0.00     0.142 A 
ATOM      6  C   UNL     1      11.491   5.865  19.768  1.00  0.00     0.018 A 
ATOM      7  C   UNL     1      11.949   7.158  20.041  1.00  0.00     0.019 A 
ATOM      8  C   UNL     1      11.280   7.937  20.984  1.00  0.00     0.094 A 
ATOM      9  C   UNL     1      10.162   7.403  21.635  1.00  0.00     0.336 A 
ATOM     10  O   UNL     1       9.545   8.091  22.488  1.00  0.00    -0.246 OA
ATOM     11  O   UNL     1       9.746   6.170  21.356  1.00  0.00    -0.423 OA
ENDROOT
BRANCH   3  12
ATOM     12  O   UNL     1      10.042   1.998  19.017  1.00  0.00    -0.508 OA
ATOM     13  H   UNL     1       9.709   1.397  19.762  1.00  0.00     0.293 HD
ENDBRANCH   3  12
TORSDOF 1
ENDMDL
MODEL 8
REMARK VINA RESULT:    -5.747      2.363      5.197
REMARK INTER + INTRA:          -5.915
REMARK INTER:                  -5.915
REMARK INTRA:                   0.000
REMARK UNBOUND:                 0.000
REMARK SMILES O=c1ccc2ccc(O)cc2o1
REMARK SMILES IDX 6 1 7 2 8 3 10 4 11 5 5 6 4 7 3 8 2 9 1 10 12 11 9 12
REMARK H PARENT 9 13
REMARK Flexibility Score: inf
ROOT
ATOM      1  C   UNL     1      13.333   8.192  20.005  1.00  0.00     0.016 A 
ATOM      2  C   UNL     1      13.334   9.037  21.120  1.00  0.00     0.047 A 
ATOM      3  C   UNL     1      12.178   9.189  21.894  1.00  0.00     0.119 A 
ATOM      4  C   UNL     1      11.011   8.490  21.553  1.00  0.00     0.094 A 
ATOM      5  C   UNL     1      11.001   7.641  20.441  1.00  0.00     0.142 A 
ATOM      6  C   UNL     1      12.169   7.491  19.661  1.00  0.00     0.018 A 
ATOM      7  C   UNL     1      12.128   6.636  18.555  1.00  0.00     0.019 A 
ATOM      8  C   UNL     1      10.944   5.962  18.255  1.00  0.00     0.094 A 
ATOM      9  C   UNL     1       9.825   6.159  19.072  1.00  0.00     0.336 A 
ATOM     10  O   UNL     1       8.749   5.560  18.818  1.00  0.00    -0.246 OA
ATOM     11  O   UNL     1       9.892   6.978  20.120  1.00  0.00    -0.423 OA
ENDROOT
BRANCH   3  12
ATOM     12  O   UNL     1      12.199  10.036  22.999  1.00  0.00    -0.508 OA
ATOM     13  H   UNL     1      12.096   9.680  23.942  1.00  0.00     0.293 HD
ENDBRANCH   3  12
TORSDOF 1
ENDMDL
MODEL 9
REMARK VINA RESULT:    -5.688     18.805     18.891
REMARK INTER + INTRA:          -5.854
REMARK INTER:                  -5.854
REMARK INTRA:                   0.000
REMARK UNBOUND:                 0.000
REMARK SMILES O=c1ccc2ccc(O)cc2o1
REMARK SMILES IDX 6 1 7 2 8 3 10 4 11 5 5 6 4 7 3 8 2 9 1 10 12 11 9 12
REMARK H PARENT 9 13
REMARK Flexibility Score: inf
ROOT
ATOM      1  C   UNL     1      18.359  -7.072  33.015  1.00  0.00     0.016 A 
ATOM      2  C   UNL     1      17.104  -7.689  33.043  1.00  0.00     0.047 A 
ATOM      3  C   UNL     1      15.975  -6.979  33.471  1.00  0.00     0.119 A 
ATOM      4  C   UNL     1      16.102  -5.641  33.873  1.00  0.00     0.094 A 
ATOM      5  C   UNL     1      17.353  -5.015  33.846  1.00  0.00     0.142 A 
ATOM      6  C   UNL     1      18.489  -5.735  33.415  1.00  0.00     0.018 A 
ATOM      7  C   UNL     1      19.726  -5.082  33.400  1.00  0.00     0.019 A 
ATOM      8  C   UNL     1      19.802  -3.751  33.809  1.00  0.00     0.094 A 
ATOM      9  C   UNL     1      18.634  -3.101  34.225  1.00  0.00     0.336 A 
ATOM     10  O   UNL     1      18.683  -1.900  34.597  1.00  0.00    -0.246 OA
ATOM     11  O   UNL     1      17.470  -3.745  34.228  1.00  0.00    -0.423 OA
ENDROOT
BRANCH   3  12
ATOM     12  O   UNL     1      14.735  -7.611  33.493  1.00  0.00    -0.508 OA
ATOM     13  H   UNL     1      14.004  -7.321  34.131  1.00  0.00     0.293 HD
ENDBRANCH   3  12
TORSDOF 1
ENDMDL
