MODEL 1
REMARK VINA RESULT:    -3.554      0.000      0.000
REMARK INTER + INTRA:          -9.622
REMARK INTER:                  -6.878
REMARK INTRA:                  -2.744
REMARK UNBOUND:                -2.744
REMARK SMILES CCCCCCCCCCCCCCCCCC(=O)[O-]
REMARK SMILES IDX 10 1 11 2 12 3 13 4 14 5 15 6 16 7 17 8 18 9 19 10 20 11
REMARK SMILES IDX 9 12 8 13 7 14 6 15 5 16 4 17 3 18 2 19 1 20
REMARK H PARENT
REMARK Flexibility Score: inf
ROOT
ATOM      1  C   UNL     1      -4.328  30.099  46.574  1.00  0.00     0.000 C 
ENDROOT
BRANCH   1   2
ATOM      2  C   UNL     1      -5.673  29.643  47.164  1.00  0.00     0.000 C 
BRANCH   2   3
ATOM      3  C   UNL     1      -6.636  30.818  47.412  1.00  0.00     0.000 C 
BRANCH   3   4
ATOM      4  C   UNL     1      -8.054  30.538  46.893  1.00  0.00     0.000 C 
BRANCH   4   5
ATOM      5  C   UNL     1      -8.201  30.808  45.385  1.00  0.00     0.000 C 
BRANCH   5   6
ATOM      6  C   UNL     1      -8.787  29.610  44.623  1.00  0.00     0.000 C 
BRANCH   6   7
ATOM      7  C   UNL     1      -7.733  28.539  44.303  1.00  0.00     0.006 C 
BRANCH   7   8
ATOM      8  C   UNL     1      -7.898  27.319  45.214  1.00  0.00     0.053 C 
BRANCH   8   9
ATOM      9  C   UNL     1      -6.586  26.625  45.403  1.00  0.00     0.041 C 
ATOM     10  O   UNL     1      -6.301  26.103  46.513  1.00  0.00    -0.550 OA
ATOM     11  O   UNL     1      -5.699  26.512  44.340  1.00  0.00    -0.550 OA
ENDBRANCH   8   9
ENDBRANCH   7   8
ENDBRANCH   6   7
ENDBRANCH   5   6
ENDBRANCH   4   5
ENDBRANCH   3   4
ENDBRANCH   2   3
ENDBRANCH   1   2
BRANCH   1  12
ATOM     12  C   UNL     1      -4.295  31.605  46.271  1.00  0.00     0.000 C 
BRANCH  12  13
ATOM     13  C   UNL     1      -4.398  31.861  44.759  1.00  0.00    -0.000 C 
BRANCH  13  14
ATOM     14  C   UNL     1      -5.359  33.011  44.416  1.00  0.00    -0.000 C 
BRANCH  14  15
ATOM     15  C   UNL     1      -5.473  34.043  45.551  1.00  0.00    -0.000 C 
BRANCH  15  16
ATOM     16  C   UNL     1      -6.927  34.280  45.991  1.00  0.00    -0.000 C 
BRANCH  16  17
ATOM     17  C   UNL     1      -7.071  34.398  47.519  1.00  0.00    -0.000 C 
BRANCH  17  18
ATOM     18  C   UNL     1      -5.721  34.614  48.223  1.00  0.00    -0.000 C 
BRANCH  18  19
ATOM     19  C   UNL     1      -5.440  33.559  49.304  1.00  0.00    -0.003 C 
ATOM     20  C   UNL     1      -6.049  33.969  50.641  1.00  0.00     0.004 C 
ENDBRANCH  18  19
ENDBRANCH  17  18
ENDBRANCH  16  17
ENDBRANCH  15  16
ENDBRANCH  14  15
ENDBRANCH  13  14
ENDBRANCH  12  13
ENDBRANCH   1  12
TORSDOF 16
ENDMDL
MODEL 2
REMARK VINA RESULT:    -3.461      2.104      3.222
REMARK INTER + INTRA:          -9.442
REMARK INTER:                  -6.817
REMARK INTRA:                  -2.625
REMARK UNBOUND:                -2.744
REMARK SMILES CCCCCCCCCCCCCCCCCC(=O)[O-]
REMARK SMILES IDX 10 1 11 2 12 3 13 4 14 5 15 6 16 7 17 8 18 9 19 10 20 11
REMARK SMILES IDX 9 12 8 13 7 14 6 15 5 16 4 17 3 18 2 19 1 20
REMARK H PARENT
REMARK Flexibility Score: inf
ROOT
ATOM      1  C   UNL     1      -5.319  30.398  46.532  1.00  0.00     0.000 C 
ENDROOT
BRANCH   1   2
ATOM      2  C   UNL     1      -4.324  29.227  46.581  1.00  0.00     0.000 C 
BRANCH   2   3
ATOM      3  C   UNL     1      -3.985  28.682  45.183  1.00  0.00     0.000 C 
BRANCH   3   4
ATOM      4  C   UNL     1      -5.094  27.782  44.617  1.00  0.00     0.000 C 
BRANCH   4   5
ATOM      5  C   UNL     1      -5.754  26.901  45.692  1.00  0.00     0.000 C 
BRANCH   5   6
ATOM      6  C   UNL     1      -7.282  27.057  45.730  1.00  0.00     0.000 C 
BRANCH   6   7
ATOM      7  C   UNL     1      -7.852  27.620  44.420  1.00  0.00     0.006 C 
BRANCH   7   8
ATOM      8  C   UNL     1      -9.320  28.022  44.590  1.00  0.00     0.053 C 
BRANCH   8   9
ATOM      9  C   UNL     1     -10.068  27.828  43.308  1.00  0.00     0.041 C 
ATOM     10  O   UNL     1      -9.760  28.500  42.288  1.00  0.00    -0.550 OA
ATOM     11  O   UNL     1     -11.074  26.874  43.226  1.00  0.00    -0.550 OA
ENDBRANCH   8   9
ENDBRANCH   7   8
ENDBRANCH   6   7
ENDBRANCH   5   6
ENDBRANCH   4   5
ENDBRANCH   3   4
ENDBRANCH   2   3
ENDBRANCH   1   2
BRANCH   1  12
ATOM     12  C   UNL     1      -6.506  30.206  47.490  1.00  0.00     0.000 C 
BRANCH  12  13
ATOM     13  C   UNL     1      -7.827  30.591  46.807  1.00  0.00    -0.000 C 
BRANCH  13  14
ATOM     14  C   UNL     1      -7.615  31.366  45.496  1.00  0.00    -0.000 C 
BRANCH  14  15
ATOM     15  C   UNL     1      -8.367  32.708  45.476  1.00  0.00    -0.000 C 
BRANCH  15  16
ATOM     16  C   UNL     1      -7.437  33.912  45.697  1.00  0.00    -0.000 C 
BRANCH  16  17
ATOM     17  C   UNL     1      -7.156  34.177  47.187  1.00  0.00    -0.000 C 
BRANCH  17  18
ATOM     18  C   UNL     1      -5.659  34.083  47.528  1.00  0.00    -0.000 C 
BRANCH  18  19
ATOM     19  C   UNL     1      -5.403  33.433  48.896  1.00  0.00    -0.003 C 
ATOM     20  C   UNL     1      -6.355  33.985  49.953  1.00  0.00     0.004 C 
ENDBRANCH  18  19
ENDBRANCH  17  18
ENDBRANCH  16  17
ENDBRANCH  15  16
ENDBRANCH  14  15
ENDBRANCH  13  14
ENDBRANCH  12  13
ENDBRANCH   1  12
TORSDOF 16
ENDMDL
MODEL 3
REMARK VINA RESULT:    -3.416      3.220      6.138
REMARK INTER + INTRA:          -9.356
REMARK INTER:                  -6.789
REMARK INTRA:                  -2.567
REMARK UNBOUND:                -2.744
REMARK SMILES CCCCCCCCCCCCCCCCCC(=O)[O-]
REMARK SMILES IDX 10 1 11 2 12 3 13 4 14 5 15 6 16 7 17 8 18 9 19 10 20 11
REMARK SMILES IDX 9 12 8 13 7 14 6 15 5 16 4 17 3 18 2 19 1 20
REMARK H PARENT
REMARK Flexibility Score: inf
ROOT
ATOM      1  C   UNL     1      -6.539  27.223  46.128  1.00  0.00     0.000 C 
ENDROOT
BRANCH   1   2
ATOM      2  C   UNL     1      -5.252  28.031  46.368  1.00  0.00     0.000 C 
BRANCH   2   3
ATOM      3  C   UNL     1      -5.532  29.421  46.967  1.00  0.00     0.000 C 
BRANCH   3   4
ATOM      4  C   UNL     1      -4.319  30.359  46.871  1.00  0.00     0.000 C 
BRANCH   4   5
ATOM      5  C   UNL     1      -4.692  31.838  47.077  1.00  0.00     0.000 C 
BRANCH   5   6
ATOM      6  C   UNL     1      -6.070  32.016  47.732  1.00  0.00     0.000 C 
BRANCH   6   7
ATOM      7  C   UNL     1      -6.493  33.489  47.830  1.00  0.00     0.006 C 
BRANCH   7   8
ATOM      8  C   UNL     1      -5.635  34.237  48.854  1.00  0.00     0.053 C 
BRANCH   8   9
ATOM      9  C   UNL     1      -6.237  34.131  50.220  1.00  0.00     0.041 C 
ATOM     10  O   UNL     1      -5.643  33.489  51.125  1.00  0.00    -0.550 OA
ATOM     11  O   UNL     1      -7.433  34.779  50.506  1.00  0.00    -0.550 OA
ENDBRANCH   8   9
ENDBRANCH   7   8
ENDBRANCH   6   7
ENDBRANCH   5   6
ENDBRANCH   4   5
ENDBRANCH   3   4
ENDBRANCH   2   3
ENDBRANCH   1   2
BRANCH   1  12
ATOM     12  C   UNL     1      -7.179  27.524  44.764  1.00  0.00     0.000 C 
BRANCH  12  13
ATOM     13  C   UNL     1      -8.706  27.638  44.889  1.00  0.00    -0.000 C 
BRANCH  13  14
ATOM     14  C   UNL     1      -9.230  29.035  44.516  1.00  0.00    -0.000 C 
BRANCH  14  15
ATOM     15  C   UNL     1      -8.555  30.154  45.328  1.00  0.00    -0.000 C 
BRANCH  15  16
ATOM     16  C   UNL     1      -8.887  31.557  44.793  1.00  0.00    -0.000 C 
BRANCH  16  17
ATOM     17  C   UNL     1      -7.768  32.135  43.910  1.00  0.00    -0.000 C 
BRANCH  17  18
ATOM     18  C   UNL     1      -6.455  31.342  44.030  1.00  0.00    -0.000 C 
BRANCH  18  19
ATOM     19  C   UNL     1      -6.109  30.570  42.748  1.00  0.00    -0.003 C 
ATOM     20  C   UNL     1      -4.895  29.670  42.960  1.00  0.00     0.004 C 
ENDBRANCH  18  19
ENDBRANCH  17  18
ENDBRANCH  16  17
ENDBRANCH  15  16
ENDBRANCH  14  15
ENDBRANCH  13  14
ENDBRANCH  12  13
ENDBRANCH   1  12
TORSDOF 16
ENDMDL
MODEL 4
REMARK VINA RESULT:    -3.382      1.286      2.480
REMARK INTER + INTRA:          -9.290
REMARK INTER:                  -6.344
REMARK INTRA:                  -2.946
REMARK UNBOUND:                -2.744
REMARK SMILES CCCCCCCCCCCCCCCCCC(=O)[O-]
REMARK SMILES IDX 10 1 11 2 12 3 13 4 14 5 15 6 16 7 17 8 18 9 19 10 20 11
REMARK SMILES IDX 9 12 8 13 7 14 6 15 5 16 4 17 3 18 2 19 1 20
REMARK H PARENT
REMARK Flexibility Score: inf
ROOT
ATOM      1  C   UNL     1      -7.864  30.614  46.966  1.00  0.00     0.000 C 
ENDROOT
BRANCH   1   2
ATOM      2  C   UNL     1      -6.487  30.050  47.359  1.00  0.00     0.000 C 
BRANCH   2   3
ATOM      3  C   UNL     1      -5.334  30.997  46.984  1.00  0.00     0.000 C 
BRANCH   3   4
ATOM      4  C   UNL     1      -4.243  30.299  46.158  1.00  0.00     0.000 C 
BRANCH   4   5
ATOM      5  C   UNL     1      -4.110  30.875  44.737  1.00  0.00     0.000 C 
BRANCH   5   6
ATOM      6  C   UNL     1      -4.936  30.095  43.702  1.00  0.00     0.000 C 
BRANCH   6   7
ATOM      7  C   UNL     1      -4.807  28.574  43.867  1.00  0.00     0.006 C 
BRANCH   7   8
ATOM      8  C   UNL     1      -6.187  27.912  43.941  1.00  0.00     0.053 C 
BRANCH   8   9
ATOM      9  C   UNL     1      -6.343  27.170  45.231  1.00  0.00     0.041 C 
ATOM     10  O   UNL     1      -7.490  26.958  45.705  1.00  0.00    -0.550 OA
ATOM     11  O   UNL     1      -5.224  26.670  45.886  1.00  0.00    -0.550 OA
ENDBRANCH   8   9
ENDBRANCH   7   8
ENDBRANCH   6   7
ENDBRANCH   5   6
ENDBRANCH   4   5
ENDBRANCH   3   4
ENDBRANCH   2   3
ENDBRANCH   1   2
BRANCH   1  12
ATOM     12  C   UNL     1      -8.039  30.739  45.445  1.00  0.00     0.000 C 
BRANCH  12  13
ATOM     13  C   UNL     1      -8.546  32.139  45.066  1.00  0.00    -0.000 C 
BRANCH  13  14
ATOM     14  C   UNL     1      -7.470  32.994  44.377  1.00  0.00    -0.000 C 
BRANCH  14  15
ATOM     15  C   UNL     1      -6.665  33.845  45.374  1.00  0.00    -0.000 C 
BRANCH  15  16
ATOM     16  C   UNL     1      -7.564  34.670  46.310  1.00  0.00    -0.000 C 
BRANCH  16  17
ATOM     17  C   UNL     1      -7.236  34.444  47.797  1.00  0.00    -0.000 C 
BRANCH  17  18
ATOM     18  C   UNL     1      -5.743  34.644  48.107  1.00  0.00    -0.000 C 
BRANCH  18  19
ATOM     19  C   UNL     1      -5.246  33.733  49.239  1.00  0.00    -0.003 C 
ATOM     20  C   UNL     1      -6.085  33.917  50.500  1.00  0.00     0.004 C 
ENDBRANCH  18  19
ENDBRANCH  17  18
ENDBRANCH  16  17
ENDBRANCH  15  16
ENDBRANCH  14  15
ENDBRANCH  13  14
ENDBRANCH  12  13
ENDBRANCH   1  12
TORSDOF 16
ENDMDL
MODEL 5
REMARK VINA RESULT:    -3.336      1.450      3.065
REMARK INTER + INTRA:          -9.200
REMARK INTER:                  -6.383
REMARK INTRA:                  -2.817
REMARK UNBOUND:                -2.744
REMARK SMILES CCCCCCCCCCCCCCCCCC(=O)[O-]
REMARK SMILES IDX 10 1 11 2 12 3 13 4 14 5 15 6 16 7 17 8 18 9 19 10 20 11
REMARK SMILES IDX 9 12 8 13 7 14 6 15 5 16 4 17 3 18 2 19 1 20
REMARK H PARENT
REMARK Flexibility Score: inf
ROOT
ATOM      1  C   UNL     1      -4.959  30.504  43.860  1.00  0.00     0.000 C 
ENDROOT
BRANCH   1   2
ATOM      2  C   UNL     1      -4.206  31.285  44.950  1.00  0.00     0.000 C 
BRANCH   2   3
ATOM      3  C   UNL     1      -4.165  30.534  46.292  1.00  0.00     0.000 C 
BRANCH   3   4
ATOM      4  C   UNL     1      -4.176  29.008  46.113  1.00  0.00     0.000 C 
BRANCH   4   5
ATOM      5  C   UNL     1      -5.381  28.336  46.794  1.00  0.00     0.000 C 
BRANCH   5   6
ATOM      6  C   UNL     1      -5.722  26.969  46.183  1.00  0.00     0.000 C 
BRANCH   6   7
ATOM      7  C   UNL     1      -7.068  26.969  45.444  1.00  0.00     0.006 C 
BRANCH   7   8
ATOM      8  C   UNL     1      -6.861  26.878  43.929  1.00  0.00     0.053 C 
BRANCH   8   9
ATOM      9  C   UNL     1      -5.586  26.160  43.617  1.00  0.00     0.041 C 
ATOM     10  O   UNL     1      -4.563  26.809  43.272  1.00  0.00    -0.550 OA
ATOM     11  O   UNL     1      -5.514  24.780  43.751  1.00  0.00    -0.550 OA
ENDBRANCH   8   9
ENDBRANCH   7   8
ENDBRANCH   6   7
ENDBRANCH   5   6
ENDBRANCH   4   5
ENDBRANCH   3   4
ENDBRANCH   2   3
ENDBRANCH   1   2
BRANCH   1  12
ATOM     12  C   UNL     1      -6.203  31.248  43.351  1.00  0.00     0.000 C 
BRANCH  12  13
ATOM     13  C   UNL     1      -7.467  30.395  43.540  1.00  0.00    -0.000 C 
BRANCH  13  14
ATOM     14  C   UNL     1      -8.448  31.004  44.555  1.00  0.00    -0.000 C 
BRANCH  14  15
ATOM     15  C   UNL     1      -8.342  30.350  45.944  1.00  0.00    -0.000 C 
BRANCH  15  16
ATOM     16  C   UNL     1      -7.645  31.254  46.973  1.00  0.00    -0.000 C 
BRANCH  16  17
ATOM     17  C   UNL     1      -7.545  32.717  46.505  1.00  0.00    -0.000 C 
BRANCH  17  18
ATOM     18  C   UNL     1      -6.405  33.480  47.199  1.00  0.00    -0.000 C 
BRANCH  18  19
ATOM     19  C   UNL     1      -5.991  32.843  48.534  1.00  0.00    -0.003 C 
ATOM     20  C   UNL     1      -5.780  33.906  49.607  1.00  0.00     0.004 C 
ENDBRANCH  18  19
ENDBRANCH  17  18
ENDBRANCH  16  17
ENDBRANCH  15  16
ENDBRANCH  14  15
ENDBRANCH  13  14
ENDBRANCH  12  13
ENDBRANCH   1  12
TORSDOF 16
ENDMDL
MODEL 6
REMARK VINA RESULT:    -3.316      3.199      6.120
REMARK INTER + INTRA:          -9.161
REMARK INTER:                  -6.574
REMARK INTRA:                  -2.588
REMARK UNBOUND:                -2.744
REMARK SMILES CCCCCCCCCCCCCCCCCC(=O)[O-]
REMARK SMILES IDX 10 1 11 2 12 3 13 4 14 5 15 6 16 7 17 8 18 9 19 10 20 11
REMARK SMILES IDX 9 12 8 13 7 14 6 15 5 16 4 17 3 18 2 19 1 20
REMARK H PARENT
REMARK Flexibility Score: inf
ROOT
ATOM      1  C   UNL     1      -5.638  27.655  46.500  1.00  0.00     0.000 C 
ENDROOT
BRANCH   1   2
ATOM      2  C   UNL     1      -6.067  29.086  46.865  1.00  0.00     0.000 C 
BRANCH   2   3
ATOM      3  C   UNL     1      -7.345  29.524  46.129  1.00  0.00     0.000 C 
BRANCH   3   4
ATOM      4  C   UNL     1      -7.845  30.903  46.585  1.00  0.00     0.000 C 
BRANCH   4   5
ATOM      5  C   UNL     1      -6.845  31.625  47.506  1.00  0.00     0.000 C 
BRANCH   5   6
ATOM      6  C   UNL     1      -6.795  33.139  47.255  1.00  0.00     0.000 C 
BRANCH   6   7
ATOM      7  C   UNL     1      -5.503  33.783  47.779  1.00  0.00     0.006 C 
BRANCH   7   8
ATOM      8  C   UNL     1      -5.816  34.930  48.745  1.00  0.00     0.053 C 
BRANCH   8   9
ATOM      9  C   UNL     1      -6.407  34.400  50.014  1.00  0.00     0.041 C 
ATOM     10  O   UNL     1      -7.529  34.813  50.410  1.00  0.00    -0.550 OA
ATOM     11  O   UNL     1      -5.741  33.416  50.734  1.00  0.00    -0.550 OA
ENDBRANCH   8   9
ENDBRANCH   7   8
ENDBRANCH   6   7
ENDBRANCH   5   6
ENDBRANCH   4   5
ENDBRANCH   3   4
ENDBRANCH   2   3
ENDBRANCH   1   2
BRANCH   1  12
ATOM     12  C   UNL     1      -6.712  26.903  45.698  1.00  0.00     0.000 C 
BRANCH  12  13
ATOM     13  C   UNL     1      -6.132  26.361  44.382  1.00  0.00    -0.000 C 
BRANCH  13  14
ATOM     14  C   UNL     1      -4.996  27.237  43.829  1.00  0.00    -0.000 C 
BRANCH  14  15
ATOM     15  C   UNL     1      -5.517  28.490  43.103  1.00  0.00    -0.000 C 
BRANCH  15  16
ATOM     16  C   UNL     1      -4.428  29.557  42.906  1.00  0.00    -0.000 C 
BRANCH  16  17
ATOM     17  C   UNL     1      -3.877  30.094  44.239  1.00  0.00    -0.000 C 
BRANCH  17  18
ATOM     18  C   UNL     1      -4.438  31.482  44.591  1.00  0.00    -0.000 C 
BRANCH  18  19
ATOM     19  C   UNL     1      -5.008  32.218  43.369  1.00  0.00    -0.003 C 
ATOM     20  C   UNL     1      -6.489  32.532  43.559  1.00  0.00     0.004 C 
ENDBRANCH  18  19
ENDBRANCH  17  18
ENDBRANCH  16  17
ENDBRANCH  15  16
ENDBRANCH  14  15
ENDBRANCH  13  14
ENDBRANCH  12  13
ENDBRANCH   1  12
TORSDOF 16
ENDMDL
MODEL 7
REMARK VINA RESULT:    -3.268      2.379      4.184
REMARK INTER + INTRA:          -9.068
REMARK INTER:                  -6.042
REMARK INTRA:                  -3.026
REMARK UNBOUND:                -2.744
REMARK SMILES CCCCCCCCCCCCCCCCCC(=O)[O-]
REMARK SMILES IDX 10 1 11 2 12 3 13 4 14 5 15 6 16 7 17 8 18 9 19 10 20 11
REMARK SMILES IDX 9 12 8 13 7 14 6 15 5 16 4 17 3 18 2 19 1 20
REMARK H PARENT
REMARK Flexibility Score: inf
ROOT
ATOM      1  C   UNL     1      -4.179  29.929  46.438  1.00  0.00     0.000 C 
ENDROOT
BRANCH   1   2
ATOM      2  C   UNL     1      -4.697  28.523  46.782  1.00  0.00     0.000 C 
BRANCH   2   3
ATOM      3  C   UNL     1      -4.691  27.579  45.567  1.00  0.00     0.000 C 
BRANCH   3   4
ATOM      4  C   UNL     1      -5.634  26.380  45.748  1.00  0.00     0.000 C 
BRANCH   4   5
ATOM      5  C   UNL     1      -7.120  26.772  45.669  1.00  0.00     0.000 C 
BRANCH   5   6
ATOM      6  C   UNL     1      -7.445  27.615  44.426  1.00  0.00     0.000 C 
BRANCH   6   7
ATOM      7  C   UNL     1      -8.501  28.696  44.704  1.00  0.00     0.006 C 
BRANCH   7   8
ATOM      8  C   UNL     1      -9.441  28.862  43.507  1.00  0.00     0.053 C 
BRANCH   8   9
ATOM      9  C   UNL     1     -10.314  27.657  43.354  1.00  0.00     0.041 C 
ATOM     10  O   UNL     1     -10.220  26.932  42.328  1.00  0.00    -0.550 OA
ATOM     11  O   UNL     1     -11.199  27.306  44.366  1.00  0.00    -0.550 OA
ENDBRANCH   8   9
ENDBRANCH   7   8
ENDBRANCH   6   7
ENDBRANCH   5   6
ENDBRANCH   4   5
ENDBRANCH   3   4
ENDBRANCH   2   3
ENDBRANCH   1   2
BRANCH   1  12
ATOM     12  C   UNL     1      -5.075  31.043  47.003  1.00  0.00     0.000 C 
BRANCH  12  13
ATOM     13  C   UNL     1      -6.450  30.487  47.407  1.00  0.00    -0.000 C 
BRANCH  13  14
ATOM     14  C   UNL     1      -7.612  31.375  46.934  1.00  0.00    -0.000 C 
BRANCH  14  15
ATOM     15  C   UNL     1      -7.223  32.861  46.853  1.00  0.00    -0.000 C 
BRANCH  15  16
ATOM     16  C   UNL     1      -7.408  33.446  45.443  1.00  0.00    -0.000 C 
BRANCH  16  17
ATOM     17  C   UNL     1      -8.274  32.550  44.540  1.00  0.00    -0.000 C 
BRANCH  17  18
ATOM     18  C   UNL     1      -7.511  32.052  43.301  1.00  0.00    -0.000 C 
BRANCH  18  19
ATOM     19  C   UNL     1      -6.012  31.849  43.569  1.00  0.00    -0.003 C 
ATOM     20  C   UNL     1      -5.535  30.504  43.028  1.00  0.00     0.004 C 
ENDBRANCH  18  19
ENDBRANCH  17  18
ENDBRANCH  16  17
ENDBRANCH  15  16
ENDBRANCH  14  15
ENDBRANCH  13  14
ENDBRANCH  12  13
ENDBRANCH   1  12
TORSDOF 16
ENDMDL
MODEL 8
REMARK VINA RESULT:    -3.243      1.329      2.741
REMARK INTER + INTRA:          -9.020
REMARK INTER:                  -6.086
REMARK INTRA:                  -2.934
REMARK UNBOUND:                -2.744
REMARK SMILES CCCCCCCCCCCCCCCCCC(=O)[O-]
REMARK SMILES IDX 10 1 11 2 12 3 13 4 14 5 15 6 16 7 17 8 18 9 19 10 20 11
REMARK SMILES IDX 9 12 8 13 7 14 6 15 5 16 4 17 3 18 2 19 1 20
REMARK H PARENT
REMARK Flexibility Score: inf
ROOT
ATOM      1  C   UNL     1      -5.846  31.859  43.127  1.00  0.00     0.000 C 
ENDROOT
BRANCH   1   2
ATOM      2  C   UNL     1      -6.791  33.015  43.494  1.00  0.00     0.000 C 
BRANCH   2   3
ATOM      3  C   UNL     1      -8.157  32.520  44.003  1.00  0.00     0.000 C 
BRANCH   3   4
ATOM      4  C   UNL     1      -8.610  31.226  43.310  1.00  0.00     0.000 C 
BRANCH   4   5
ATOM      5  C   UNL     1      -8.802  30.059  44.294  1.00  0.00     0.000 C 
BRANCH   5   6
ATOM      6  C   UNL     1      -8.227  28.736  43.764  1.00  0.00     0.000 C 
BRANCH   6   7
ATOM      7  C   UNL     1      -8.008  27.698  44.875  1.00  0.00     0.006 C 
BRANCH   7   8
ATOM      8  C   UNL     1      -6.842  26.767  44.532  1.00  0.00     0.053 C 
BRANCH   8   9
ATOM      9  C   UNL     1      -6.020  26.485  45.750  1.00  0.00     0.041 C 
ATOM     10  O   UNL     1      -6.517  25.847  46.715  1.00  0.00    -0.550 OA
ATOM     11  O   UNL     1      -4.691  26.887  45.801  1.00  0.00    -0.550 OA
ENDBRANCH   8   9
ENDBRANCH   7   8
ENDBRANCH   6   7
ENDBRANCH   5   6
ENDBRANCH   4   5
ENDBRANCH   3   4
ENDBRANCH   2   3
ENDBRANCH   1   2
BRANCH   1  12
ATOM     12  C   UNL     1      -4.792  31.589  44.213  1.00  0.00     0.000 C 
BRANCH  12  13
ATOM     13  C   UNL     1      -5.089  30.273  44.948  1.00  0.00    -0.000 C 
BRANCH  13  14
ATOM     14  C   UNL     1      -4.960  30.403  46.474  1.00  0.00    -0.000 C 
BRANCH  14  15
ATOM     15  C   UNL     1      -6.279  30.100  47.205  1.00  0.00    -0.000 C 
BRANCH  15  16
ATOM     16  C   UNL     1      -7.212  31.320  47.274  1.00  0.00    -0.000 C 
BRANCH  16  17
ATOM     17  C   UNL     1      -6.444  32.653  47.289  1.00  0.00    -0.000 C 
BRANCH  17  18
ATOM     18  C   UNL     1      -6.433  33.310  48.679  1.00  0.00    -0.000 C 
BRANCH  18  19
ATOM     19  C   UNL     1      -5.043  33.827  49.080  1.00  0.00    -0.003 C 
ATOM     20  C   UNL     1      -4.002  33.478  48.021  1.00  0.00     0.004 C 
ENDBRANCH  18  19
ENDBRANCH  17  18
ENDBRANCH  16  17
ENDBRANCH  15  16
ENDBRANCH  14  15
ENDBRANCH  13  14
ENDBRANCH  12  13
ENDBRANCH   1  12
TORSDOF 16
ENDMDL
MODEL 9
REMARK VINA RESULT:    -3.210      3.166      6.143
REMARK INTER + INTRA:          -8.957
REMARK INTER:                  -5.919
REMARK INTRA:                  -3.037
REMARK UNBOUND:                -2.744
REMARK SMILES CCCCCCCCCCCCCCCCCC(=O)[O-]
REMARK SMILES IDX 10 1 11 2 12 3 13 4 14 5 15 6 16 7 17 8 18 9 19 10 20 11
REMARK SMILES IDX 9 12 8 13 7 14 6 15 5 16 4 17 3 18 2 19 1 20
REMARK H PARENT
REMARK Flexibility Score: inf
ROOT
ATOM      1  C   UNL     1      -5.063  29.100  43.268  1.00  0.00     0.000 C 
ENDROOT
BRANCH   1   2
ATOM      2  C   UNL     1      -4.319  28.233  44.298  1.00  0.00     0.000 C 
BRANCH   2   3
ATOM      3  C   UNL     1      -5.234  27.190  44.962  1.00  0.00     0.000 C 
BRANCH   3   4
ATOM      4  C   UNL     1      -5.534  27.519  46.432  1.00  0.00     0.000 C 
BRANCH   4   5
ATOM      5  C   UNL     1      -5.013  28.906  46.850  1.00  0.00     0.000 C 
BRANCH   5   6
ATOM      6  C   UNL     1      -6.145  29.878  47.217  1.00  0.00     0.000 C 
BRANCH   6   7
ATOM      7  C   UNL     1      -5.683  31.343  47.234  1.00  0.00     0.006 C 
BRANCH   7   8
ATOM      8  C   UNL     1      -6.878  32.291  47.370  1.00  0.00     0.053 C 
BRANCH   8   9
ATOM      9  C   UNL     1      -6.505  33.492  48.181  1.00  0.00     0.041 C 
ATOM     10  O   UNL     1      -6.142  33.359  49.379  1.00  0.00    -0.550 OA
ATOM     11  O   UNL     1      -6.512  34.754  47.600  1.00  0.00    -0.550 OA
ENDBRANCH   8   9
ENDBRANCH   7   8
ENDBRANCH   6   7
ENDBRANCH   5   6
ENDBRANCH   4   5
ENDBRANCH   3   4
ENDBRANCH   2   3
ENDBRANCH   1   2
BRANCH   1  12
ATOM     12  C   UNL     1      -4.868  30.605  43.511  1.00  0.00     0.000 C 
BRANCH  12  13
ATOM     13  C   UNL     1      -6.223  31.312  43.671  1.00  0.00    -0.000 C 
BRANCH  13  14
ATOM     14  C   UNL     1      -7.371  30.561  42.978  1.00  0.00    -0.000 C 
BRANCH  14  15
ATOM     15  C   UNL     1      -8.724  30.774  43.680  1.00  0.00    -0.000 C 
BRANCH  15  16
ATOM     16  C   UNL     1      -8.838  29.988  44.997  1.00  0.00    -0.000 C 
BRANCH  16  17
ATOM     17  C   UNL     1      -8.666  28.472  44.799  1.00  0.00    -0.000 C 
BRANCH  17  18
ATOM     18  C   UNL     1      -9.891  27.823  44.133  1.00  0.00    -0.000 C 
BRANCH  18  19
ATOM     19  C   UNL     1      -9.582  27.271  42.734  1.00  0.00    -0.003 C 
ATOM     20  C   UNL     1      -8.105  26.911  42.600  1.00  0.00     0.004 C 
ENDBRANCH  18  19
ENDBRANCH  17  18
ENDBRANCH  16  17
ENDBRANCH  15  16
ENDBRANCH  14  15
ENDBRANCH  13  14
ENDBRANCH  12  13
ENDBRANCH   1  12
TORSDOF 16
ENDMDL
