MODEL 1
REMARK VINA RESULT:    -3.533      0.000      0.000
REMARK INTER + INTRA:          -6.733
REMARK INTER:                  -5.599
REMARK INTRA:                  -1.134
REMARK UNBOUND:                -1.134
REMARK SMILES CCCCCCCCCCCC(=O)[O-]
REMARK SMILES IDX 7 1 8 2 9 3 10 4 11 5 12 6 13 7 14 8 6 9 5 10 4 11 3 12 2 13
REMARK SMILES IDX 1 14
REMARK H PARENT
REMARK Flexibility Score: inf
ROOT
ATOM      1  C   UNL     1      29.771   6.885  -7.035  1.00  0.00     0.000 C 
ENDROOT
BRANCH   1   2
ATOM      2  C   UNL     1      31.291   7.052  -6.917  1.00  0.00     0.000 C 
BRANCH   2   3
ATOM      3  C   UNL     1      32.012   5.722  -7.181  1.00  0.00     0.000 C 
BRANCH   3   4
ATOM      4  C   UNL     1      33.535   5.890  -7.306  1.00  0.00     0.006 C 
BRANCH   4   5
ATOM      5  C   UNL     1      34.312   4.755  -6.626  1.00  0.00     0.053 C 
BRANCH   5   6
ATOM      6  C   UNL     1      34.695   5.147  -5.234  1.00  0.00     0.041 C 
ATOM      7  O   UNL     1      34.200   4.543  -4.247  1.00  0.00    -0.550 OA
ATOM      8  O   UNL     1      35.562   6.212  -5.025  1.00  0.00    -0.550 OA
ENDBRANCH   5   6
ENDBRANCH   4   5
ENDBRANCH   3   4
ENDBRANCH   2   3
ENDBRANCH   1   2
BRANCH   1   9
ATOM      9  C   UNL     1      29.073   8.246  -7.138  1.00  0.00     0.000 C 
BRANCH   9  10
ATOM     10  C   UNL     1      28.562   8.496  -8.565  1.00  0.00    -0.000 C 
BRANCH  10  11
ATOM     11  C   UNL     1      28.611   7.236  -9.450  1.00  0.00    -0.000 C 
BRANCH  11  12
ATOM     12  C   UNL     1      29.431   7.382 -10.744  1.00  0.00    -0.000 C 
BRANCH  12  13
ATOM     13  C   UNL     1      30.827   6.749 -10.643  1.00  0.00    -0.003 C 
ATOM     14  C   UNL     1      31.902   7.817 -10.463  1.00  0.00     0.004 C 
ENDBRANCH  12  13
ENDBRANCH  11  12
ENDBRANCH  10  11
ENDBRANCH   9  10
ENDBRANCH   1   9
TORSDOF 10
ENDMDL
MODEL 2
REMARK VINA RESULT:    -3.151      1.190      2.597
REMARK INTER + INTRA:          -6.127
REMARK INTER:                  -5.064
REMARK INTRA:                  -1.063
REMARK UNBOUND:                -1.134
REMARK SMILES CCCCCCCCCCCC(=O)[O-]
REMARK SMILES IDX 7 1 8 2 9 3 10 4 11 5 12 6 13 7 14 8 6 9 5 10 4 11 3 12 2 13
REMARK SMILES IDX 1 14
REMARK H PARENT
REMARK Flexibility Score: inf
ROOT
ATOM      1  C   UNL     1      31.968   6.178  -8.691  1.00  0.00     0.000 C 
ENDROOT
BRANCH   1   2
ATOM      2  C   UNL     1      33.324   6.879  -8.829  1.00  0.00     0.000 C 
BRANCH   2   3
ATOM      3  C   UNL     1      33.807   7.413  -7.472  1.00  0.00     0.000 C 
BRANCH   3   4
ATOM      4  C   UNL     1      35.264   7.027  -7.168  1.00  0.00     0.006 C 
BRANCH   4   5
ATOM      5  C   UNL     1      35.383   5.652  -6.499  1.00  0.00     0.053 C 
BRANCH   5   6
ATOM      6  C   UNL     1      34.995   5.738  -5.056  1.00  0.00     0.041 C 
ATOM      7  O   UNL     1      35.310   6.749  -4.375  1.00  0.00    -0.550 OA
ATOM      8  O   UNL     1      34.328   4.681  -4.451  1.00  0.00    -0.550 OA
ENDBRANCH   5   6
ENDBRANCH   4   5
ENDBRANCH   3   4
ENDBRANCH   2   3
ENDBRANCH   1   2
BRANCH   1   9
ATOM      9  C   UNL     1      31.555   6.060  -7.220  1.00  0.00     0.000 C 
BRANCH   9  10
ATOM     10  C   UNL     1      30.058   6.356  -7.043  1.00  0.00    -0.000 C 
BRANCH  10  11
ATOM     11  C   UNL     1      29.770   7.840  -6.748  1.00  0.00    -0.000 C 
BRANCH  11  12
ATOM     12  C   UNL     1      28.998   8.584  -7.852  1.00  0.00    -0.000 C 
BRANCH  12  13
ATOM     13  C   UNL     1      28.524   7.657  -8.980  1.00  0.00    -0.003 C 
ATOM     14  C   UNL     1      29.203   8.008 -10.301  1.00  0.00     0.004 C 
ENDBRANCH  12  13
ENDBRANCH  11  12
ENDBRANCH  10  11
ENDBRANCH   9  10
ENDBRANCH   1   9
TORSDOF 10
ENDMDL
MODEL 3
REMARK VINA RESULT:    -3.122      6.462      8.483
REMARK INTER + INTRA:          -6.082
REMARK INTER:                  -5.011
REMARK INTRA:                  -1.070
REMARK UNBOUND:                -1.134
REMARK SMILES CCCCCCCCCCCC(=O)[O-]
REMARK SMILES IDX 7 1 8 2 9 3 10 4 11 5 12 6 13 7 14 8 6 9 5 10 4 11 3 12 2 13
REMARK SMILES IDX 1 14
REMARK H PARENT
REMARK Flexibility Score: inf
ROOT
ATOM      1  C   UNL     1      37.097   4.643  -8.492  1.00  0.00     0.000 C 
ENDROOT
BRANCH   1   2
ATOM      2  C   UNL     1      38.146   5.267  -7.565  1.00  0.00     0.000 C 
BRANCH   2   3
ATOM      3  C   UNL     1      39.493   4.540  -7.692  1.00  0.00     0.000 C 
BRANCH   3   4
ATOM      4  C   UNL     1      39.746   3.558  -6.537  1.00  0.00     0.006 C 
BRANCH   4   5
ATOM      5  C   UNL     1      40.414   2.258  -7.003  1.00  0.00     0.053 C 
BRANCH   5   6
ATOM      6  C   UNL     1      40.902   1.471  -5.828  1.00  0.00     0.041 C 
ATOM      7  O   UNL     1      40.135   0.660  -5.246  1.00  0.00    -0.550 OA
ATOM      8  O   UNL     1      42.189   1.669  -5.344  1.00  0.00    -0.550 OA
ENDBRANCH   5   6
ENDBRANCH   4   5
ENDBRANCH   3   4
ENDBRANCH   2   3
ENDBRANCH   1   2
BRANCH   1   9
ATOM      9  C   UNL     1      35.992   3.949  -7.685  1.00  0.00     0.000 C 
BRANCH   9  10
ATOM     10  C   UNL     1      35.783   2.506  -8.168  1.00  0.00    -0.000 C 
BRANCH  10  11
ATOM     11  C   UNL     1      37.080   1.847  -8.672  1.00  0.00    -0.000 C 
BRANCH  11  12
ATOM     12  C   UNL     1      37.079   0.308  -8.649  1.00  0.00    -0.000 C 
BRANCH  12  13
ATOM     13  C   UNL     1      37.407  -0.271  -7.265  1.00  0.00    -0.003 C 
ATOM     14  C   UNL     1      36.169  -0.884  -6.618  1.00  0.00     0.004 C 
ENDBRANCH  12  13
ENDBRANCH  11  12
ENDBRANCH  10  11
ENDBRANCH   9  10
ENDBRANCH   1   9
TORSDOF 10
ENDMDL
MODEL 4
REMARK VINA RESULT:    -3.121      1.064      2.622
REMARK INTER + INTRA:          -6.079
REMARK INTER:                  -4.861
REMARK INTRA:                  -1.218
REMARK UNBOUND:                -1.134
REMARK SMILES CCCCCCCCCCCC(=O)[O-]
REMARK SMILES IDX 7 1 8 2 9 3 10 4 11 5 12 6 13 7 14 8 6 9 5 10 4 11 3 12 2 13
REMARK SMILES IDX 1 14
REMARK H PARENT
REMARK Flexibility Score: inf
ROOT
ATOM      1  C   UNL     1      32.081   7.243 -10.008  1.00  0.00     0.000 C 
ENDROOT
BRANCH   1   2
ATOM      2  C   UNL     1      32.384   6.009  -9.151  1.00  0.00     0.000 C 
BRANCH   2   3
ATOM      3  C   UNL     1      33.336   6.361  -7.998  1.00  0.00     0.000 C 
BRANCH   3   4
ATOM      4  C   UNL     1      33.061   5.536  -6.730  1.00  0.00     0.006 C 
BRANCH   4   5
ATOM      5  C   UNL     1      34.268   4.691  -6.303  1.00  0.00     0.053 C 
BRANCH   5   6
ATOM      6  C   UNL     1      35.232   5.519  -5.514  1.00  0.00     0.041 C 
ATOM      7  O   UNL     1      34.859   6.092  -4.457  1.00  0.00    -0.550 OA
ATOM      8  O   UNL     1      36.531   5.699  -5.973  1.00  0.00    -0.550 OA
ENDBRANCH   5   6
ENDBRANCH   4   5
ENDBRANCH   3   4
ENDBRANCH   2   3
ENDBRANCH   1   2
BRANCH   1   9
ATOM      9  C   UNL     1      30.737   7.095 -10.732  1.00  0.00     0.000 C 
BRANCH   9  10
ATOM     10  C   UNL     1      29.857   8.336 -10.517  1.00  0.00    -0.000 C 
BRANCH  10  11
ATOM     11  C   UNL     1      29.574   8.621  -9.031  1.00  0.00    -0.000 C 
BRANCH  11  12
ATOM     12  C   UNL     1      28.880   7.478  -8.270  1.00  0.00    -0.000 C 
BRANCH  12  13
ATOM     13  C   UNL     1      29.581   7.125  -6.950  1.00  0.00    -0.003 C 
ATOM     14  C   UNL     1      30.456   8.278  -6.467  1.00  0.00     0.004 C 
ENDBRANCH  12  13
ENDBRANCH  11  12
ENDBRANCH  10  11
ENDBRANCH   9  10
ENDBRANCH   1   9
TORSDOF 10
ENDMDL
MODEL 5
REMARK VINA RESULT:    -3.103     11.537     13.446
REMARK INTER + INTRA:          -6.051
REMARK INTER:                  -5.198
REMARK INTRA:                  -0.853
REMARK UNBOUND:                -1.134
REMARK SMILES CCCCCCCCCCCC(=O)[O-]
REMARK SMILES IDX 7 1 8 2 9 3 10 4 11 5 12 6 13 7 14 8 6 9 5 10 4 11 3 12 2 13
REMARK SMILES IDX 1 14
REMARK H PARENT
REMARK Flexibility Score: inf
ROOT
ATOM      1  C   UNL     1      28.954  -0.787   3.230  1.00  0.00     0.000 C 
ENDROOT
BRANCH   1   2
ATOM      2  C   UNL     1      30.127  -1.762   3.078  1.00  0.00     0.000 C 
BRANCH   2   3
ATOM      3  C   UNL     1      31.444  -1.006   2.847  1.00  0.00     0.000 C 
BRANCH   3   4
ATOM      4  C   UNL     1      31.262   0.520   2.866  1.00  0.00     0.006 C 
BRANCH   4   5
ATOM      5  C   UNL     1      31.641   1.177   1.533  1.00  0.00     0.053 C 
BRANCH   5   6
ATOM      6  C   UNL     1      32.013   2.611   1.745  1.00  0.00     0.041 C 
ATOM      7  O   UNL     1      31.675   3.483   0.903  1.00  0.00    -0.550 OA
ATOM      8  O   UNL     1      32.774   2.976   2.847  1.00  0.00    -0.550 OA
ENDBRANCH   5   6
ENDBRANCH   4   5
ENDBRANCH   3   4
ENDBRANCH   2   3
ENDBRANCH   1   2
BRANCH   1   9
ATOM      9  C   UNL     1      27.924  -0.984   2.111  1.00  0.00     0.000 C 
BRANCH   9  10
ATOM     10  C   UNL     1      27.750  -2.473   1.779  1.00  0.00    -0.000 C 
BRANCH  10  11
ATOM     11  C   UNL     1      26.285  -2.939   1.856  1.00  0.00    -0.000 C 
BRANCH  11  12
ATOM     12  C   UNL     1      25.394  -2.125   2.811  1.00  0.00    -0.000 C 
BRANCH  12  13
ATOM     13  C   UNL     1      25.446  -2.634   4.259  1.00  0.00    -0.003 C 
ATOM     14  C   UNL     1      25.480  -1.473   5.249  1.00  0.00     0.004 C 
ENDBRANCH  12  13
ENDBRANCH  11  12
ENDBRANCH  10  11
ENDBRANCH   9  10
ENDBRANCH   1   9
TORSDOF 10
ENDMDL
MODEL 6
REMARK VINA RESULT:    -3.064      5.324      8.015
REMARK INTER + INTRA:          -5.990
REMARK INTER:                  -4.571
REMARK INTRA:                  -1.418
REMARK UNBOUND:                -1.134
REMARK SMILES CCCCCCCCCCCC(=O)[O-]
REMARK SMILES IDX 7 1 8 2 9 3 10 4 11 5 12 6 13 7 14 8 6 9 5 10 4 11 3 12 2 13
REMARK SMILES IDX 1 14
REMARK H PARENT
REMARK Flexibility Score: inf
ROOT
ATOM      1  C   UNL     1      39.708   3.941  -6.995  1.00  0.00     0.000 C 
ENDROOT
BRANCH   1   2
ATOM      2  C   UNL     1      39.430   4.912  -8.147  1.00  0.00     0.000 C 
BRANCH   2   3
ATOM      3  C   UNL     1      38.015   5.501  -8.041  1.00  0.00     0.000 C 
BRANCH   3   4
ATOM      4  C   UNL     1      37.245   4.974  -6.818  1.00  0.00     0.006 C 
BRANCH   4   5
ATOM      5  C   UNL     1      36.294   6.020  -6.223  1.00  0.00     0.053 C 
BRANCH   5   6
ATOM      6  C   UNL     1      35.127   5.351  -5.568  1.00  0.00     0.041 C 
ATOM      7  O   UNL     1      34.898   5.534  -4.344  1.00  0.00    -0.550 OA
ATOM      8  O   UNL     1      34.321   4.487  -6.298  1.00  0.00    -0.550 OA
ENDBRANCH   5   6
ENDBRANCH   4   5
ENDBRANCH   3   4
ENDBRANCH   2   3
ENDBRANCH   1   2
BRANCH   1   9
ATOM      9  C   UNL     1      40.239   2.601  -7.518  1.00  0.00     0.000 C 
BRANCH   9  10
ATOM     10  C   UNL     1      39.280   1.454  -7.168  1.00  0.00    -0.000 C 
BRANCH  10  11
ATOM     11  C   UNL     1      38.244   1.178  -8.273  1.00  0.00    -0.000 C 
BRANCH  11  12
ATOM     12  C   UNL     1      36.776   1.368  -7.852  1.00  0.00    -0.000 C 
BRANCH  12  13
ATOM     13  C   UNL     1      35.972   2.215  -8.848  1.00  0.00    -0.003 C 
ATOM     14  C   UNL     1      36.820   2.591 -10.060  1.00  0.00     0.004 C 
ENDBRANCH  12  13
ENDBRANCH  11  12
ENDBRANCH  10  11
ENDBRANCH   9  10
ENDBRANCH   1   9
TORSDOF 10
ENDMDL
MODEL 7
REMARK VINA RESULT:    -3.039      4.972      8.345
REMARK INTER + INTRA:          -5.950
REMARK INTER:                  -4.812
REMARK INTRA:                  -1.137
REMARK UNBOUND:                -1.134
REMARK SMILES CCCCCCCCCCCC(=O)[O-]
REMARK SMILES IDX 7 1 8 2 9 3 10 4 11 5 12 6 13 7 14 8 6 9 5 10 4 11 3 12 2 13
REMARK SMILES IDX 1 14
REMARK H PARENT
REMARK Flexibility Score: inf
ROOT
ATOM      1  C   UNL     1      36.389   0.899  -8.484  1.00  0.00     0.000 C 
ENDROOT
BRANCH   1   2
ATOM      2  C   UNL     1      35.656   2.146  -7.976  1.00  0.00     0.000 C 
BRANCH   2   3
ATOM      3  C   UNL     1      36.305   3.426  -8.522  1.00  0.00     0.000 C 
BRANCH   3   4
ATOM      4  C   UNL     1      36.117   4.631  -7.586  1.00  0.00     0.006 C 
BRANCH   4   5
ATOM      5  C   UNL     1      34.838   4.533  -6.746  1.00  0.00     0.053 C 
BRANCH   5   6
ATOM      6  C   UNL     1      35.025   5.218  -5.429  1.00  0.00     0.041 C 
ATOM      7  O   UNL     1      35.888   6.125  -5.303  1.00  0.00    -0.550 OA
ATOM      8  O   UNL     1      34.280   4.819  -4.327  1.00  0.00    -0.550 OA
ENDBRANCH   5   6
ENDBRANCH   4   5
ENDBRANCH   3   4
ENDBRANCH   2   3
ENDBRANCH   1   2
BRANCH   1   9
ATOM      9  C   UNL     1      36.789  -0.018  -7.323  1.00  0.00     0.000 C 
BRANCH   9  10
ATOM     10  C   UNL     1      38.312  -0.217  -7.278  1.00  0.00    -0.000 C 
BRANCH  10  11
ATOM     11  C   UNL     1      39.071   1.053  -6.849  1.00  0.00    -0.000 C 
BRANCH  11  12
ATOM     12  C   UNL     1      40.057   1.605  -7.894  1.00  0.00    -0.000 C 
BRANCH  12  13
ATOM     13  C   UNL     1      39.957   3.127  -8.066  1.00  0.00    -0.003 C 
ATOM     14  C   UNL     1      39.750   3.819  -6.721  1.00  0.00     0.004 C 
ENDBRANCH  12  13
ENDBRANCH  11  12
ENDBRANCH  10  11
ENDBRANCH   9  10
ENDBRANCH   1   9
TORSDOF 10
ENDMDL
MODEL 8
REMARK VINA RESULT:    -3.036      5.316      7.475
REMARK INTER + INTRA:          -5.944
REMARK INTER:                  -4.766
REMARK INTRA:                  -1.179
REMARK UNBOUND:                -1.134
REMARK SMILES CCCCCCCCCCCC(=O)[O-]
REMARK SMILES IDX 7 1 8 2 9 3 10 4 11 5 12 6 13 7 14 8 6 9 5 10 4 11 3 12 2 13
REMARK SMILES IDX 1 14
REMARK H PARENT
REMARK Flexibility Score: inf
ROOT
ATOM      1  C   UNL     1      35.913   2.903  -9.294  1.00  0.00     0.000 C 
ENDROOT
BRANCH   1   2
ATOM      2  C   UNL     1      35.984   1.990  -8.065  1.00  0.00     0.000 C 
BRANCH   2   3
ATOM      3  C   UNL     1      36.808   0.729  -8.364  1.00  0.00     0.000 C 
BRANCH   3   4
ATOM      4  C   UNL     1      37.865   0.441  -7.285  1.00  0.00     0.006 C 
BRANCH   4   5
ATOM      5  C   UNL     1      39.209   1.118  -7.580  1.00  0.00     0.053 C 
BRANCH   5   6
ATOM      6  C   UNL     1      39.858   1.565  -6.309  1.00  0.00     0.041 C 
ATOM      7  O   UNL     1      40.200   2.768  -6.161  1.00  0.00    -0.550 OA
ATOM      8  O   UNL     1      40.130   0.644  -5.305  1.00  0.00    -0.550 OA
ENDBRANCH   5   6
ENDBRANCH   4   5
ENDBRANCH   3   4
ENDBRANCH   2   3
ENDBRANCH   1   2
BRANCH   1   9
ATOM      9  C   UNL     1      36.305   4.341  -8.936  1.00  0.00     0.000 C 
BRANCH   9  10
ATOM     10  C   UNL     1      37.580   4.367  -8.079  1.00  0.00    -0.000 C 
BRANCH  10  11
ATOM     11  C   UNL     1      37.422   5.199  -6.793  1.00  0.00    -0.000 C 
BRANCH  11  12
ATOM     12  C   UNL     1      36.160   6.077  -6.738  1.00  0.00    -0.000 C 
BRANCH  12  13
ATOM     13  C   UNL     1      35.262   5.759  -5.533  1.00  0.00    -0.003 C 
ATOM     14  C   UNL     1      34.175   4.755  -5.908  1.00  0.00     0.004 C 
ENDBRANCH  12  13
ENDBRANCH  11  12
ENDBRANCH  10  11
ENDBRANCH   9  10
ENDBRANCH   1   9
TORSDOF 10
ENDMDL
