MODEL 1
REMARK VINA RESULT:    -3.735      0.000      0.000
REMARK INTER + INTRA:          -9.429
REMARK INTER:                  -6.793
REMARK INTRA:                  -2.637
REMARK UNBOUND:                -2.637
REMARK SMILES CCCCCCCCCCCCCCCC(=O)[O-]
REMARK SMILES IDX 9 1 10 2 11 3 12 4 13 5 14 6 15 7 16 8 17 9 18 10 8 11 7 12
REMARK SMILES IDX 6 13 5 14 4 15 3 16 2 17 1 18
REMARK H PARENT
REMARK Flexibility Score: inf
ROOT
ATOM      1  C   UNL     1      20.830  -1.009  17.479  1.00  0.00     0.000 C 
ENDROOT
BRANCH   1   2
ATOM      2  C   UNL     1      22.209  -0.396  17.763  1.00  0.00     0.000 C 
BRANCH   2   3
ATOM      3  C   UNL     1      22.509   0.840  16.894  1.00  0.00     0.000 C 
BRANCH   3   4
ATOM      4  C   UNL     1      23.743   0.711  15.984  1.00  0.00     0.000 C 
BRANCH   4   5
ATOM      5  C   UNL     1      23.762   1.744  14.848  1.00  0.00     0.000 C 
BRANCH   5   6
ATOM      6  C   UNL     1      22.357   2.313  14.599  1.00  0.00     0.006 C 
BRANCH   6   7
ATOM      7  C   UNL     1      22.100   2.596  13.113  1.00  0.00     0.053 C 
BRANCH   7   8
ATOM      8  C   UNL     1      22.344   4.034  12.771  1.00  0.00     0.041 C 
ATOM      9  O   UNL     1      23.450   4.391  12.286  1.00  0.00    -0.550 OA
ATOM     10  O   UNL     1      21.362   4.985  13.018  1.00  0.00    -0.550 OA
ENDBRANCH   7   8
ENDBRANCH   6   7
ENDBRANCH   5   6
ENDBRANCH   4   5
ENDBRANCH   3   4
ENDBRANCH   2   3
ENDBRANCH   1   2
BRANCH   1  11
ATOM     11  C   UNL     1      20.195  -0.376  16.232  1.00  0.00     0.000 C 
BRANCH  11  12
ATOM     12  C   UNL     1      20.077  -1.363  15.061  1.00  0.00    -0.000 C 
BRANCH  12  13
ATOM     13  C   UNL     1      20.789  -0.867  13.793  1.00  0.00    -0.000 C 
BRANCH  13  14
ATOM     14  C   UNL     1      22.186  -1.493  13.669  1.00  0.00    -0.000 C 
BRANCH  14  15
ATOM     15  C   UNL     1      22.334  -2.800  14.470  1.00  0.00    -0.000 C 
BRANCH  15  16
ATOM     16  C   UNL     1      23.693  -2.984  15.170  1.00  0.00    -0.000 C 
BRANCH  16  17
ATOM     17  C   UNL     1      23.597  -3.820  16.454  1.00  0.00    -0.003 C 
ATOM     18  C   UNL     1      24.353  -3.153  17.600  1.00  0.00     0.004 C 
ENDBRANCH  16  17
ENDBRANCH  15  16
ENDBRANCH  14  15
ENDBRANCH  13  14
ENDBRANCH  12  13
ENDBRANCH  11  12
ENDBRANCH   1  11
TORSDOF 14
ENDMDL
MODEL 2
REMARK VINA RESULT:    -3.538      1.509      2.487
REMARK INTER + INTRA:          -9.070
REMARK INTER:                  -7.291
REMARK INTRA:                  -1.779
REMARK UNBOUND:                -2.637
REMARK SMILES CCCCCCCCCCCCCCCC(=O)[O-]
REMARK SMILES IDX 9 1 10 2 11 3 12 4 13 5 14 6 15 7 16 8 17 9 18 10 8 11 7 12
REMARK SMILES IDX 6 13 5 14 4 15 3 16 2 17 1 18
REMARK H PARENT
REMARK Flexibility Score: inf
ROOT
ATOM      1  C   UNL     1      21.826   1.109  13.424  1.00  0.00     0.000 C 
ENDROOT
BRANCH   1   2
ATOM      2  C   UNL     1      22.266   1.274  14.885  1.00  0.00     0.000 C 
BRANCH   2   3
ATOM      3  C   UNL     1      23.746   0.913  15.112  1.00  0.00     0.000 C 
BRANCH   3   4
ATOM      4  C   UNL     1      24.672   2.109  15.395  1.00  0.00     0.000 C 
BRANCH   4   5
ATOM      5  C   UNL     1      23.967   3.464  15.237  1.00  0.00     0.000 C 
BRANCH   5   6
ATOM      6  C   UNL     1      24.611   4.292  14.116  1.00  0.00     0.006 C 
BRANCH   6   7
ATOM      7  C   UNL     1      23.678   4.464  12.910  1.00  0.00     0.053 C 
BRANCH   7   8
ATOM      8  C   UNL     1      23.434   5.909  12.598  1.00  0.00     0.041 C 
ATOM      9  O   UNL     1      22.483   6.241  11.841  1.00  0.00    -0.550 OA
ATOM     10  O   UNL     1      24.276   6.886  13.114  1.00  0.00    -0.550 OA
ENDBRANCH   7   8
ENDBRANCH   6   7
ENDBRANCH   5   6
ENDBRANCH   4   5
ENDBRANCH   3   4
ENDBRANCH   2   3
ENDBRANCH   1   2
BRANCH   1  11
ATOM     11  C   UNL     1      21.565  -0.368  13.093  1.00  0.00     0.000 C 
BRANCH  11  12
ATOM     12  C   UNL     1      20.733  -1.079  14.173  1.00  0.00    -0.000 C 
BRANCH  12  13
ATOM     13  C   UNL     1      21.266  -2.481  14.503  1.00  0.00    -0.000 C 
BRANCH  13  14
ATOM     14  C   UNL     1      22.741  -2.616  14.099  1.00  0.00    -0.000 C 
BRANCH  14  15
ATOM     15  C   UNL     1      23.659  -2.974  15.284  1.00  0.00    -0.000 C 
BRANCH  15  16
ATOM     16  C   UNL     1      22.961  -3.696  16.451  1.00  0.00    -0.000 C 
BRANCH  16  17
ATOM     17  C   UNL     1      23.197  -3.011  17.805  1.00  0.00    -0.003 C 
ATOM     18  C   UNL     1      22.932  -1.511  17.714  1.00  0.00     0.004 C 
ENDBRANCH  16  17
ENDBRANCH  15  16
ENDBRANCH  14  15
ENDBRANCH  13  14
ENDBRANCH  12  13
ENDBRANCH  11  12
ENDBRANCH   1  11
TORSDOF 14
ENDMDL
MODEL 3
REMARK VINA RESULT:    -3.523      2.389      5.559
REMARK INTER + INTRA:          -9.044
REMARK INTER:                  -7.314
REMARK INTRA:                  -1.729
REMARK UNBOUND:                -2.637
REMARK SMILES CCCCCCCCCCCCCCCC(=O)[O-]
REMARK SMILES IDX 9 1 10 2 11 3 12 4 13 5 14 6 15 7 16 8 17 9 18 10 8 11 7 12
REMARK SMILES IDX 6 13 5 14 4 15 3 16 2 17 1 18
REMARK H PARENT
REMARK Flexibility Score: inf
ROOT
ATOM      1  C   UNL     1      22.527  -0.292  17.242  1.00  0.00     0.000 C 
ENDROOT
BRANCH   1   2
ATOM      2  C   UNL     1      23.410  -1.532  17.442  1.00  0.00     0.000 C 
BRANCH   2   3
ATOM      3  C   UNL     1      22.891  -2.769  16.685  1.00  0.00     0.000 C 
BRANCH   3   4
ATOM      4  C   UNL     1      23.638  -3.093  15.379  1.00  0.00     0.000 C 
BRANCH   4   5
ATOM      5  C   UNL     1      22.899  -2.598  14.127  1.00  0.00     0.000 C 
BRANCH   5   6
ATOM      6  C   UNL     1      21.389  -2.489  14.387  1.00  0.00     0.006 C 
BRANCH   6   7
ATOM      7  C   UNL     1      20.823  -1.127  13.964  1.00  0.00     0.053 C 
BRANCH   7   8
ATOM      8  C   UNL     1      20.449  -1.108  12.514  1.00  0.00     0.041 C 
ATOM      9  O   UNL     1      21.306  -0.806  11.642  1.00  0.00    -0.550 OA
ATOM     10  O   UNL     1      19.144  -1.391  12.127  1.00  0.00    -0.550 OA
ENDBRANCH   7   8
ENDBRANCH   6   7
ENDBRANCH   5   6
ENDBRANCH   4   5
ENDBRANCH   3   4
ENDBRANCH   2   3
ENDBRANCH   1   2
BRANCH   1  11
ATOM     11  C   UNL     1      23.372   0.922  16.829  1.00  0.00     0.000 C 
BRANCH  11  12
ATOM     12  C   UNL     1      23.801   0.872  15.354  1.00  0.00    -0.000 C 
BRANCH  12  13
ATOM     13  C   UNL     1      23.561   2.200  14.622  1.00  0.00    -0.000 C 
BRANCH  13  14
ATOM     14  C   UNL     1      22.479   2.043  13.543  1.00  0.00    -0.000 C 
BRANCH  14  15
ATOM     15  C   UNL     1      21.963   3.392  13.008  1.00  0.00    -0.000 C 
BRANCH  15  16
ATOM     16  C   UNL     1      22.693   4.631  13.559  1.00  0.00    -0.000 C 
BRANCH  16  17
ATOM     17  C   UNL     1      23.641   5.272  12.534  1.00  0.00    -0.003 C 
ATOM     18  C   UNL     1      25.090   5.198  13.007  1.00  0.00     0.004 C 
ENDBRANCH  16  17
ENDBRANCH  15  16
ENDBRANCH  14  15
ENDBRANCH  13  14
ENDBRANCH  12  13
ENDBRANCH  11  12
ENDBRANCH   1  11
TORSDOF 14
ENDMDL
MODEL 4
REMARK VINA RESULT:    -3.514      2.040      2.844
REMARK INTER + INTRA:          -9.027
REMARK INTER:                  -7.187
REMARK INTRA:                  -1.840
REMARK UNBOUND:                -2.637
REMARK SMILES CCCCCCCCCCCCCCCC(=O)[O-]
REMARK SMILES IDX 9 1 10 2 11 3 12 4 13 5 14 6 15 7 16 8 17 9 18 10 8 11 7 12
REMARK SMILES IDX 6 13 5 14 4 15 3 16 2 17 1 18
REMARK H PARENT
REMARK Flexibility Score: inf
ROOT
ATOM      1  C   UNL     1      22.493   0.995  16.074  1.00  0.00     0.000 C 
ENDROOT
BRANCH   1   2
ATOM      2  C   UNL     1      23.884   0.888  15.432  1.00  0.00     0.000 C 
BRANCH   2   3
ATOM      3  C   UNL     1      24.644   2.228  15.417  1.00  0.00     0.000 C 
BRANCH   3   4
ATOM      4  C   UNL     1      23.804   3.448  14.999  1.00  0.00     0.000 C 
BRANCH   4   5
ATOM      5  C   UNL     1      23.345   3.387  13.535  1.00  0.00     0.000 C 
BRANCH   5   6
ATOM      6  C   UNL     1      23.680   4.692  12.799  1.00  0.00     0.006 C 
BRANCH   6   7
ATOM      7  C   UNL     1      25.116   5.161  13.072  1.00  0.00     0.053 C 
BRANCH   7   8
ATOM      8  C   UNL     1      25.165   6.610  13.445  1.00  0.00     0.041 C 
ATOM      9  O   UNL     1      24.172   7.355  13.228  1.00  0.00    -0.550 OA
ATOM     10  O   UNL     1      26.320   7.148  14.000  1.00  0.00    -0.550 OA
ENDBRANCH   7   8
ENDBRANCH   6   7
ENDBRANCH   5   6
ENDBRANCH   4   5
ENDBRANCH   3   4
ENDBRANCH   2   3
ENDBRANCH   1   2
BRANCH   1  11
ATOM     11  C   UNL     1      21.441   0.266  15.225  1.00  0.00     0.000 C 
BRANCH  11  12
ATOM     12  C   UNL     1      21.961  -0.110  13.829  1.00  0.00    -0.000 C 
BRANCH  12  13
ATOM     13  C   UNL     1      21.771  -1.599  13.507  1.00  0.00    -0.000 C 
BRANCH  13  14
ATOM     14  C   UNL     1      23.025  -2.405  13.878  1.00  0.00    -0.000 C 
BRANCH  14  15
ATOM     15  C   UNL     1      22.931  -3.053  15.273  1.00  0.00    -0.000 C 
BRANCH  15  16
ATOM     16  C   UNL     1      24.099  -2.724  16.221  1.00  0.00    -0.000 C 
BRANCH  16  17
ATOM     17  C   UNL     1      23.680  -2.692  17.698  1.00  0.00    -0.003 C 
ATOM     18  C   UNL     1      22.216  -2.285  17.843  1.00  0.00     0.004 C 
ENDBRANCH  16  17
ENDBRANCH  15  16
ENDBRANCH  14  15
ENDBRANCH  13  14
ENDBRANCH  12  13
ENDBRANCH  11  12
ENDBRANCH   1  11
TORSDOF 14
ENDMDL
MODEL 5
REMARK VINA RESULT:    -3.509      3.436      6.222
REMARK INTER + INTRA:          -9.019
REMARK INTER:                  -6.574
REMARK INTRA:                  -2.445
REMARK UNBOUND:                -2.637
REMARK SMILES CCCCCCCCCCCCCCCC(=O)[O-]
REMARK SMILES IDX 9 1 10 2 11 3 12 4 13 5 14 6 15 7 16 8 17 9 18 10 8 11 7 12
REMARK SMILES IDX 6 13 5 14 4 15 3 16 2 17 1 18
REMARK H PARENT
REMARK Flexibility Score: inf
ROOT
ATOM      1  C   UNL     1      20.478  -1.042  15.792  1.00  0.00     0.000 C 
ENDROOT
BRANCH   1   2
ATOM      2  C   UNL     1      20.723  -0.587  14.346  1.00  0.00     0.000 C 
BRANCH   2   3
ATOM      3  C   UNL     1      21.712  -1.494  13.589  1.00  0.00     0.000 C 
BRANCH   3   4
ATOM      4  C   UNL     1      22.104  -2.786  14.327  1.00  0.00     0.000 C 
BRANCH   4   5
ATOM      5  C   UNL     1      23.620  -2.919  14.538  1.00  0.00     0.000 C 
BRANCH   5   6
ATOM      6  C   UNL     1      23.976  -2.839  16.030  1.00  0.00     0.006 C 
BRANCH   6   7
ATOM      7  C   UNL     1      23.497  -4.071  16.809  1.00  0.00     0.053 C 
BRANCH   7   8
ATOM      8  C   UNL     1      22.513  -3.706  17.877  1.00  0.00     0.041 C 
ATOM      9  O   UNL     1      22.914  -3.229  18.972  1.00  0.00    -0.550 OA
ATOM     10  O   UNL     1      21.155  -3.923  17.678  1.00  0.00    -0.550 OA
ENDBRANCH   7   8
ENDBRANCH   6   7
ENDBRANCH   5   6
ENDBRANCH   4   5
ENDBRANCH   3   4
ENDBRANCH   2   3
ENDBRANCH   1   2
BRANCH   1  11
ATOM     11  C   UNL     1      20.750   0.102  16.780  1.00  0.00     0.000 C 
BRANCH  11  12
ATOM     12  C   UNL     1      22.161   0.039  17.387  1.00  0.00    -0.000 C 
BRANCH  12  13
ATOM     13  C   UNL     1      23.046   1.216  16.954  1.00  0.00    -0.000 C 
BRANCH  13  14
ATOM     14  C   UNL     1      23.855   0.861  15.698  1.00  0.00    -0.000 C 
BRANCH  14  15
ATOM     15  C   UNL     1      23.740   1.923  14.588  1.00  0.00    -0.000 C 
BRANCH  15  16
ATOM     16  C   UNL     1      22.385   2.652  14.524  1.00  0.00    -0.000 C 
BRANCH  16  17
ATOM     17  C   UNL     1      21.855   2.803  13.090  1.00  0.00    -0.003 C 
ATOM     18  C   UNL     1      22.540   3.963  12.372  1.00  0.00     0.004 C 
ENDBRANCH  16  17
ENDBRANCH  15  16
ENDBRANCH  14  15
ENDBRANCH  13  14
ENDBRANCH  12  13
ENDBRANCH  11  12
ENDBRANCH   1  11
TORSDOF 14
ENDMDL
MODEL 6
REMARK VINA RESULT:    -3.467      4.152      6.566
REMARK INTER + INTRA:          -8.941
REMARK INTER:                  -6.584
REMARK INTRA:                  -2.357
REMARK UNBOUND:                -2.637
REMARK SMILES CCCCCCCCCCCCCCCC(=O)[O-]
REMARK SMILES IDX 9 1 10 2 11 3 12 4 13 5 14 6 15 7 16 8 17 9 18 10 8 11 7 12
REMARK SMILES IDX 6 13 5 14 4 15 3 16 2 17 1 18
REMARK H PARENT
REMARK Flexibility Score: inf
ROOT
ATOM      1  C   UNL     1      21.636   0.631  13.227  1.00  0.00     0.000 C 
ENDROOT
BRANCH   1   2
ATOM      2  C   UNL     1      21.173  -0.780  13.616  1.00  0.00     0.000 C 
BRANCH   2   3
ATOM      3  C   UNL     1      22.299  -1.828  13.532  1.00  0.00     0.000 C 
BRANCH   3   4
ATOM      4  C   UNL     1      22.368  -2.805  14.718  1.00  0.00     0.000 C 
BRANCH   4   5
ATOM      5  C   UNL     1      23.805  -3.103  15.169  1.00  0.00     0.000 C 
BRANCH   5   6
ATOM      6  C   UNL     1      23.847  -3.488  16.655  1.00  0.00     0.006 C 
BRANCH   6   7
ATOM      7  C   UNL     1      22.582  -4.233  17.099  1.00  0.00     0.053 C 
BRANCH   7   8
ATOM      8  C   UNL     1      22.877  -5.248  18.160  1.00  0.00     0.041 C 
ATOM      9  O   UNL     1      22.048  -5.456  19.085  1.00  0.00    -0.550 OA
ATOM     10  O   UNL     1      24.082  -5.939  18.147  1.00  0.00    -0.550 OA
ENDBRANCH   7   8
ENDBRANCH   6   7
ENDBRANCH   5   6
ENDBRANCH   4   5
ENDBRANCH   3   4
ENDBRANCH   2   3
ENDBRANCH   1   2
BRANCH   1  11
ATOM     11  C   UNL     1      22.013   1.447  14.472  1.00  0.00     0.000 C 
BRANCH  11  12
ATOM     12  C   UNL     1      23.484   1.891  14.468  1.00  0.00    -0.000 C 
BRANCH  12  13
ATOM     13  C   UNL     1      24.240   1.449  15.729  1.00  0.00    -0.000 C 
BRANCH  13  14
ATOM     14  C   UNL     1      23.515   0.288  16.425  1.00  0.00    -0.000 C 
BRANCH  14  15
ATOM     15  C   UNL     1      23.265   0.545  17.923  1.00  0.00    -0.000 C 
BRANCH  15  16
ATOM     16  C   UNL     1      21.862   0.153  18.424  1.00  0.00    -0.000 C 
BRANCH  16  17
ATOM     17  C   UNL     1      21.082  -0.698  17.412  1.00  0.00    -0.003 C 
ATOM     18  C   UNL     1      19.771  -0.020  17.022  1.00  0.00     0.004 C 
ENDBRANCH  16  17
ENDBRANCH  15  16
ENDBRANCH  14  15
ENDBRANCH  13  14
ENDBRANCH  12  13
ENDBRANCH  11  12
ENDBRANCH   1  11
TORSDOF 14
ENDMDL
MODEL 7
REMARK VINA RESULT:    -3.433      2.683      4.905
REMARK INTER + INTRA:          -8.880
REMARK INTER:                  -6.580
REMARK INTRA:                  -2.299
REMARK UNBOUND:                -2.637
REMARK SMILES CCCCCCCCCCCCCCCC(=O)[O-]
REMARK SMILES IDX 9 1 10 2 11 3 12 4 13 5 14 6 15 7 16 8 17 9 18 10 8 11 7 12
REMARK SMILES IDX 6 13 5 14 4 15 3 16 2 17 1 18
REMARK H PARENT
REMARK Flexibility Score: inf
ROOT
ATOM      1  C   UNL     1      22.631   5.157  16.621  1.00  0.00     0.000 C 
ENDROOT
BRANCH   1   2
ATOM      2  C   UNL     1      21.533   4.662  15.669  1.00  0.00     0.000 C 
BRANCH   2   3
ATOM      3  C   UNL     1      21.562   5.365  14.299  1.00  0.00     0.000 C 
BRANCH   3   4
ATOM      4  C   UNL     1      21.668   4.424  13.087  1.00  0.00     0.000 C 
BRANCH   4   5
ATOM      5  C   UNL     1      23.119   4.080  12.719  1.00  0.00     0.000 C 
BRANCH   5   6
ATOM      6  C   UNL     1      23.923   5.352  12.409  1.00  0.00     0.006 C 
BRANCH   6   7
ATOM      7  C   UNL     1      25.194   5.458  13.263  1.00  0.00     0.053 C 
BRANCH   7   8
ATOM      8  C   UNL     1      25.335   6.815  13.882  1.00  0.00     0.041 C 
ATOM      9  O   UNL     1      24.320   7.423  14.313  1.00  0.00    -0.550 OA
ATOM     10  O   UNL     1      26.583   7.422  13.953  1.00  0.00    -0.550 OA
ENDBRANCH   7   8
ENDBRANCH   6   7
ENDBRANCH   5   6
ENDBRANCH   4   5
ENDBRANCH   3   4
ENDBRANCH   2   3
ENDBRANCH   1   2
BRANCH   1  11
ATOM     11  C   UNL     1      23.937   4.379  16.402  1.00  0.00     0.000 C 
BRANCH  11  12
ATOM     12  C   UNL     1      23.764   2.864  16.592  1.00  0.00    -0.000 C 
BRANCH  12  13
ATOM     13  C   UNL     1      24.555   2.044  15.562  1.00  0.00    -0.000 C 
BRANCH  13  14
ATOM     14  C   UNL     1      23.736   0.841  15.072  1.00  0.00    -0.000 C 
BRANCH  14  15
ATOM     15  C   UNL     1      22.250   1.179  14.844  1.00  0.00    -0.000 C 
BRANCH  15  16
ATOM     16  C   UNL     1      21.681   0.722  13.488  1.00  0.00    -0.000 C 
BRANCH  16  17
ATOM     17  C   UNL     1      20.990  -0.647  13.561  1.00  0.00    -0.003 C 
ATOM     18  C   UNL     1      20.421  -0.902  14.954  1.00  0.00     0.004 C 
ENDBRANCH  16  17
ENDBRANCH  15  16
ENDBRANCH  14  15
ENDBRANCH  13  14
ENDBRANCH  12  13
ENDBRANCH  11  12
ENDBRANCH   1  11
TORSDOF 14
ENDMDL
MODEL 8
REMARK VINA RESULT:    -3.410      1.342      2.401
REMARK INTER + INTRA:          -8.837
REMARK INTER:                  -6.513
REMARK INTRA:                  -2.324
REMARK UNBOUND:                -2.637
REMARK SMILES CCCCCCCCCCCCCCCC(=O)[O-]
REMARK SMILES IDX 9 1 10 2 11 3 12 4 13 5 14 6 15 7 16 8 17 9 18 10 8 11 7 12
REMARK SMILES IDX 6 13 5 14 4 15 3 16 2 17 1 18
REMARK H PARENT
REMARK Flexibility Score: inf
ROOT
ATOM      1  C   UNL     1      20.294  -1.170  15.327  1.00  0.00     0.000 C 
ENDROOT
BRANCH   1   2
ATOM      2  C   UNL     1      20.619  -0.480  16.660  1.00  0.00     0.000 C 
BRANCH   2   3
ATOM      3  C   UNL     1      21.511   0.764  16.492  1.00  0.00     0.000 C 
BRANCH   3   4
ATOM      4  C   UNL     1      23.015   0.520  16.709  1.00  0.00     0.000 C 
BRANCH   4   5
ATOM      5  C   UNL     1      23.839   0.669  15.422  1.00  0.00     0.000 C 
BRANCH   5   6
ATOM      6  C   UNL     1      23.099   1.536  14.393  1.00  0.00     0.006 C 
BRANCH   6   7
ATOM      7  C   UNL     1      23.727   2.928  14.247  1.00  0.00     0.053 C 
BRANCH   7   8
ATOM      8  C   UNL     1      23.105   3.705  13.127  1.00  0.00     0.041 C 
ATOM      9  O   UNL     1      23.698   4.706  12.644  1.00  0.00    -0.550 OA
ATOM     10  O   UNL     1      21.855   3.344  12.639  1.00  0.00    -0.550 OA
ENDBRANCH   7   8
ENDBRANCH   6   7
ENDBRANCH   5   6
ENDBRANCH   4   5
ENDBRANCH   3   4
ENDBRANCH   2   3
ENDBRANCH   1   2
BRANCH   1  11
ATOM     11  C   UNL     1      21.025  -2.516  15.214  1.00  0.00     0.000 C 
BRANCH  11  12
ATOM     12  C   UNL     1      22.188  -2.476  14.210  1.00  0.00    -0.000 C 
BRANCH  12  13
ATOM     13  C   UNL     1      23.515  -2.951  14.822  1.00  0.00    -0.000 C 
BRANCH  13  14
ATOM     14  C   UNL     1      23.284  -3.603  16.193  1.00  0.00    -0.000 C 
BRANCH  14  15
ATOM     15  C   UNL     1      24.271  -3.109  17.268  1.00  0.00    -0.000 C 
BRANCH  15  16
ATOM     16  C   UNL     1      23.617  -2.452  18.498  1.00  0.00    -0.000 C 
BRANCH  16  17
ATOM     17  C   UNL     1      22.200  -2.977  18.773  1.00  0.00    -0.003 C 
ATOM     18  C   UNL     1      21.878  -2.927  20.264  1.00  0.00     0.004 C 
ENDBRANCH  16  17
ENDBRANCH  15  16
ENDBRANCH  14  15
ENDBRANCH  13  14
ENDBRANCH  12  13
ENDBRANCH  11  12
ENDBRANCH   1  11
TORSDOF 14
ENDMDL
MODEL 9
REMARK VINA RESULT:    -3.349      1.192      2.720
REMARK INTER + INTRA:          -8.727
REMARK INTER:                  -6.508
REMARK INTRA:                  -2.219
REMARK UNBOUND:                -2.637
REMARK SMILES CCCCCCCCCCCCCCCC(=O)[O-]
REMARK SMILES IDX 9 1 10 2 11 3 12 4 13 5 14 6 15 7 16 8 17 9 18 10 8 11 7 12
REMARK SMILES IDX 6 13 5 14 4 15 3 16 2 17 1 18
REMARK H PARENT
REMARK Flexibility Score: inf
ROOT
ATOM      1  C   UNL     1      21.561   0.184  16.968  1.00  0.00     0.000 C 
ENDROOT
BRANCH   1   2
ATOM      2  C   UNL     1      23.025   0.428  17.359  1.00  0.00     0.000 C 
BRANCH   2   3
ATOM      3  C   UNL     1      23.857   1.045  16.219  1.00  0.00     0.000 C 
BRANCH   3   4
ATOM      4  C   UNL     1      23.156   1.085  14.850  1.00  0.00     0.000 C 
BRANCH   4   5
ATOM      5  C   UNL     1      23.278   2.447  14.152  1.00  0.00     0.000 C 
BRANCH   5   6
ATOM      6  C   UNL     1      22.173   2.627  13.101  1.00  0.00     0.006 C 
BRANCH   6   7
ATOM      7  C   UNL     1      22.189   4.028  12.474  1.00  0.00     0.053 C 
BRANCH   7   8
ATOM      8  C   UNL     1      22.163   5.103  13.517  1.00  0.00     0.041 C 
ATOM      9  O   UNL     1      23.135   5.896  13.634  1.00  0.00    -0.550 OA
ATOM     10  O   UNL     1      21.080   5.210  14.381  1.00  0.00    -0.550 OA
ENDBRANCH   7   8
ENDBRANCH   6   7
ENDBRANCH   5   6
ENDBRANCH   4   5
ENDBRANCH   3   4
ENDBRANCH   2   3
ENDBRANCH   1   2
BRANCH   1  11
ATOM     11  C   UNL     1      21.114  -1.229  17.371  1.00  0.00     0.000 C 
BRANCH  11  12
ATOM     12  C   UNL     1      22.296  -2.191  17.568  1.00  0.00    -0.000 C 
BRANCH  12  13
ATOM     13  C   UNL     1      22.428  -3.211  16.427  1.00  0.00    -0.000 C 
BRANCH  13  14
ATOM     14  C   UNL     1      23.512  -2.780  15.429  1.00  0.00    -0.000 C 
BRANCH  14  15
ATOM     15  C   UNL     1      22.965  -2.549  14.008  1.00  0.00    -0.000 C 
BRANCH  15  16
ATOM     16  C   UNL     1      21.435  -2.666  13.875  1.00  0.00    -0.000 C 
BRANCH  16  17
ATOM     17  C   UNL     1      20.755  -1.318  13.589  1.00  0.00    -0.003 C 
ATOM     18  C   UNL     1      21.147  -0.788  12.213  1.00  0.00     0.004 C 
ENDBRANCH  16  17
ENDBRANCH  15  16
ENDBRANCH  14  15
ENDBRANCH  13  14
ENDBRANCH  12  13
ENDBRANCH  11  12
ENDBRANCH   1  11
TORSDOF 14
ENDMDL
