MODEL 1
REMARK VINA RESULT:    -0.947      0.000      0.000
REMARK INTER + INTRA:          -5.616
REMARK INTER:                  -2.496
REMARK INTRA:                  -3.120
REMARK UNBOUND:                -3.120
REMARK SMILES CCCCCCCCCCCCCCCCCCCCCCCCCCCCCC(=O)[O-]
REMARK SMILES IDX 16 1 17 2 18 3 19 4 20 5 21 6 22 7 23 8 24 9 25 10 26 11
REMARK SMILES IDX 27 12 28 13 29 14 30 15 31 16 32 17 15 18 14 19 13 20 12 21
REMARK SMILES IDX 11 22 10 23 9 24 8 25 7 26 6 27 5 28 4 29 3 30 2 31 1 32
REMARK H PARENT
REMARK Flexibility Score: inf
ROOT
ATOM      1  C   UNL     1     -24.219 -14.674   7.689  1.00  0.00     0.000 C 
ENDROOT
BRANCH   1   2
ATOM      2  C   UNL     1     -23.945 -14.855   9.191  1.00  0.00     0.000 C 
BRANCH   2   3
ATOM      3  C   UNL     1     -22.525 -15.390   9.433  1.00  0.00     0.000 C 
BRANCH   3   4
ATOM      4  C   UNL     1     -21.852 -14.735  10.651  1.00  0.00     0.000 C 
BRANCH   4   5
ATOM      5  C   UNL     1     -21.260 -13.351  10.328  1.00  0.00     0.000 C 
BRANCH   5   6
ATOM      6  C   UNL     1     -22.012 -12.211  11.051  1.00  0.00     0.000 C 
BRANCH   6   7
ATOM      7  C   UNL     1     -22.992 -11.438  10.151  1.00  0.00     0.000 C 
BRANCH   7   8
ATOM      8  C   UNL     1     -24.424 -11.989  10.209  1.00  0.00     0.000 C 
BRANCH   8   9
ATOM      9  C   UNL     1     -25.251 -11.507   9.011  1.00  0.00     0.000 C 
BRANCH   9  10
ATOM     10  C   UNL     1     -24.536 -10.367   8.271  1.00  0.00     0.000 C 
BRANCH  10  11
ATOM     11  C   UNL     1     -24.961  -8.972   8.768  1.00  0.00     0.000 C 
BRANCH  11  12
ATOM     12  C   UNL     1     -26.055  -8.289   7.926  1.00  0.00     0.000 C 
BRANCH  12  13
ATOM     13  C   UNL     1     -26.325  -6.836   8.359  1.00  0.00     0.006 C 
BRANCH  13  14
ATOM     14  C   UNL     1     -25.316  -6.345   9.405  1.00  0.00     0.053 C 
BRANCH  14  15
ATOM     15  C   UNL     1     -24.097  -5.753   8.768  1.00  0.00     0.041 C 
ATOM     16  O   UNL     1     -22.950  -6.044   9.199  1.00  0.00    -0.550 OA
ATOM     17  O   UNL     1     -24.227  -4.916   7.669  1.00  0.00    -0.550 OA
ENDBRANCH  14  15
ENDBRANCH  13  14
ENDBRANCH  12  13
ENDBRANCH  11  12
ENDBRANCH  10  11
ENDBRANCH   9  10
ENDBRANCH   8   9
ENDBRANCH   7   8
ENDBRANCH   6   7
ENDBRANCH   5   6
ENDBRANCH   4   5
ENDBRANCH   3   4
ENDBRANCH   2   3
ENDBRANCH   1   2
BRANCH   1  18
ATOM     18  C   UNL     1     -25.718 -14.521   7.381  1.00  0.00     0.000 C 
BRANCH  18  19
ATOM     19  C   UNL     1     -26.217 -15.542   6.345  1.00  0.00     0.000 C 
BRANCH  19  20
ATOM     20  C   UNL     1     -25.095 -15.983   5.383  1.00  0.00     0.000 C 
BRANCH  20  21
ATOM     21  C   UNL     1     -24.882 -15.033   4.190  1.00  0.00     0.000 C 
BRANCH  21  22
ATOM     22  C   UNL     1     -26.016 -14.012   3.983  1.00  0.00     0.000 C 
BRANCH  22  23
ATOM     23  C   UNL     1     -25.561 -12.557   4.209  1.00  0.00     0.000 C 
BRANCH  23  24
ATOM     24  C   UNL     1     -24.032 -12.424   4.281  1.00  0.00    -0.000 C 
BRANCH  24  25
ATOM     25  C   UNL     1     -23.572 -10.995   4.615  1.00  0.00    -0.000 C 
BRANCH  25  26
ATOM     26  C   UNL     1     -22.232 -10.634   3.952  1.00  0.00    -0.000 C 
BRANCH  26  27
ATOM     27  C   UNL     1     -21.542  -9.435   4.627  1.00  0.00    -0.000 C 
BRANCH  27  28
ATOM     28  C   UNL     1     -22.325  -8.899   5.839  1.00  0.00    -0.000 C 
BRANCH  28  29
ATOM     29  C   UNL     1     -21.457  -8.321   6.971  1.00  0.00    -0.000 C 
BRANCH  29  30
ATOM     30  C   UNL     1     -21.602  -9.092   8.291  1.00  0.00    -0.000 C 
BRANCH  30  31
ATOM     31  C   UNL     1     -20.587 -10.238   8.371  1.00  0.00    -0.003 C 
ATOM     32  C   UNL     1     -19.446  -9.899   9.326  1.00  0.00     0.004 C 
ENDBRANCH  30  31
ENDBRANCH  29  30
ENDBRANCH  28  29
ENDBRANCH  27  28
ENDBRANCH  26  27
ENDBRANCH  25  26
ENDBRANCH  24  25
ENDBRANCH  23  24
ENDBRANCH  22  23
ENDBRANCH  21  22
ENDBRANCH  20  21
ENDBRANCH  19  20
ENDBRANCH  18  19
ENDBRANCH   1  18
TORSDOF 28
ENDMDL
MODEL 2
REMARK VINA RESULT:    -0.883      1.896      6.245
REMARK INTER + INTRA:          -5.447
REMARK INTER:                  -3.136
REMARK INTRA:                  -2.312
REMARK UNBOUND:                -3.120
REMARK SMILES CCCCCCCCCCCCCCCCCCCCCCCCCCCCCC(=O)[O-]
REMARK SMILES IDX 16 1 17 2 18 3 19 4 20 5 21 6 22 7 23 8 24 9 25 10 26 11
REMARK SMILES IDX 27 12 28 13 29 14 30 15 31 16 32 17 15 18 14 19 13 20 12 21
REMARK SMILES IDX 11 22 10 23 9 24 8 25 7 26 6 27 5 28 4 29 3 30 2 31 1 32
REMARK H PARENT
REMARK Flexibility Score: inf
ROOT
ATOM      1  C   UNL     1     -24.501 -11.943   5.310  1.00  0.00     0.000 C 
ENDROOT
BRANCH   1   2
ATOM      2  C   UNL     1     -24.251 -12.714   4.004  1.00  0.00     0.000 C 
BRANCH   2   3
ATOM      3  C   UNL     1     -25.185 -13.929   3.891  1.00  0.00     0.000 C 
BRANCH   3   4
ATOM      4  C   UNL     1     -24.457 -15.255   4.168  1.00  0.00     0.000 C 
BRANCH   4   5
ATOM      5  C   UNL     1     -25.062 -16.028   5.355  1.00  0.00     0.000 C 
BRANCH   5   6
ATOM      6  C   UNL     1     -26.112 -15.193   6.121  1.00  0.00     0.000 C 
BRANCH   6   7
ATOM      7  C   UNL     1     -25.866 -15.116   7.637  1.00  0.00     0.000 C 
BRANCH   7   8
ATOM      8  C   UNL     1     -24.579 -14.362   8.000  1.00  0.00     0.000 C 
BRANCH   8   9
ATOM      9  C   UNL     1     -23.697 -15.193   8.941  1.00  0.00     0.000 C 
BRANCH   9  10
ATOM     10  C   UNL     1     -23.639 -14.562  10.340  1.00  0.00     0.000 C 
BRANCH  10  11
ATOM     11  C   UNL     1     -24.086 -13.088  10.351  1.00  0.00     0.000 C 
BRANCH  11  12
ATOM     12  C   UNL     1     -22.988 -12.074   9.981  1.00  0.00     0.000 C 
BRANCH  12  13
ATOM     13  C   UNL     1     -21.612 -12.438  10.570  1.00  0.00     0.006 C 
BRANCH  13  14
ATOM     14  C   UNL     1     -20.794 -11.195  10.942  1.00  0.00     0.053 C 
BRANCH  14  15
ATOM     15  C   UNL     1     -20.175 -10.554   9.739  1.00  0.00     0.041 C 
ATOM     16  O   UNL     1     -20.844 -10.406   8.683  1.00  0.00    -0.550 OA
ATOM     17  O   UNL     1     -18.872 -10.079   9.800  1.00  0.00    -0.550 OA
ENDBRANCH  14  15
ENDBRANCH  13  14
ENDBRANCH  12  13
ENDBRANCH  11  12
ENDBRANCH  10  11
ENDBRANCH   9  10
ENDBRANCH   8   9
ENDBRANCH   7   8
ENDBRANCH   6   7
ENDBRANCH   5   6
ENDBRANCH   4   5
ENDBRANCH   3   4
ENDBRANCH   2   3
ENDBRANCH   1   2
BRANCH   1  18
ATOM     18  C   UNL     1     -23.983 -10.497   5.245  1.00  0.00     0.000 C 
BRANCH  18  19
ATOM     19  C   UNL     1     -22.774 -10.343   4.307  1.00  0.00     0.000 C 
BRANCH  19  20
ATOM     20  C   UNL     1     -21.574  -9.680   5.015  1.00  0.00     0.000 C 
BRANCH  20  21
ATOM     21  C   UNL     1     -21.904  -8.329   5.677  1.00  0.00     0.000 C 
BRANCH  21  22
ATOM     22  C   UNL     1     -21.760  -8.324   7.211  1.00  0.00     0.000 C 
BRANCH  22  23
ATOM     23  C   UNL     1     -23.084  -8.012   7.936  1.00  0.00     0.000 C 
BRANCH  23  24
ATOM     24  C   UNL     1     -23.669  -9.243   8.644  1.00  0.00    -0.000 C 
BRANCH  24  25
ATOM     25  C   UNL     1     -25.197  -9.346   8.498  1.00  0.00    -0.000 C 
BRANCH  25  26
ATOM     26  C   UNL     1     -25.780  -8.254   7.585  1.00  0.00    -0.000 C 
BRANCH  26  27
ATOM     27  C   UNL     1     -26.722  -7.297   8.334  1.00  0.00    -0.000 C 
BRANCH  27  28
ATOM     28  C   UNL     1     -25.985  -6.093   8.950  1.00  0.00    -0.000 C 
BRANCH  28  29
ATOM     29  C   UNL     1     -25.625  -6.243  10.439  1.00  0.00    -0.000 C 
BRANCH  29  30
ATOM     30  C   UNL     1     -25.915  -4.976  11.255  1.00  0.00    -0.000 C 
BRANCH  30  31
ATOM     31  C   UNL     1     -25.501  -5.160  12.720  1.00  0.00    -0.003 C 
ATOM     32  C   UNL     1     -26.559  -5.936  13.499  1.00  0.00     0.004 C 
ENDBRANCH  30  31
ENDBRANCH  29  30
ENDBRANCH  28  29
ENDBRANCH  27  28
ENDBRANCH  26  27
ENDBRANCH  25  26
ENDBRANCH  24  25
ENDBRANCH  23  24
ENDBRANCH  22  23
ENDBRANCH  21  22
ENDBRANCH  20  21
ENDBRANCH  19  20
ENDBRANCH  18  19
ENDBRANCH   1  18
TORSDOF 28
ENDMDL
MODEL 3
REMARK VINA RESULT:    -0.853      1.882      4.842
REMARK INTER + INTRA:          -5.369
REMARK INTER:                  -2.276
REMARK INTRA:                  -3.093
REMARK UNBOUND:                -3.120
REMARK SMILES CCCCCCCCCCCCCCCCCCCCCCCCCCCCCC(=O)[O-]
REMARK SMILES IDX 16 1 17 2 18 3 19 4 20 5 21 6 22 7 23 8 24 9 25 10 26 11
REMARK SMILES IDX 27 12 28 13 29 14 30 15 31 16 32 17 15 18 14 19 13 20 12 21
REMARK SMILES IDX 11 22 10 23 9 24 8 25 7 26 6 27 5 28 4 29 3 30 2 31 1 32
REMARK H PARENT
REMARK Flexibility Score: inf
ROOT
ATOM      1  C   UNL     1     -23.393 -11.454  10.531  1.00  0.00     0.000 C 
ENDROOT
BRANCH   1   2
ATOM      2  C   UNL     1     -22.007 -12.108  10.651  1.00  0.00     0.000 C 
BRANCH   2   3
ATOM      3  C   UNL     1     -20.954 -11.091  11.118  1.00  0.00     0.000 C 
BRANCH   3   4
ATOM      4  C   UNL     1     -19.911 -10.787  10.030  1.00  0.00     0.000 C 
BRANCH   4   5
ATOM      5  C   UNL     1     -20.548 -10.535   8.651  1.00  0.00     0.000 C 
BRANCH   5   6
ATOM      6  C   UNL     1     -21.159  -9.121   8.539  1.00  0.00     0.000 C 
BRANCH   6   7
ATOM      7  C   UNL     1     -21.603  -8.741   7.117  1.00  0.00     0.000 C 
BRANCH   7   8
ATOM      8  C   UNL     1     -22.555  -7.536   7.086  1.00  0.00     0.000 C 
BRANCH   8   9
ATOM      9  C   UNL     1     -23.058  -7.191   8.493  1.00  0.00     0.000 C 
BRANCH   9  10
ATOM     10  C   UNL     1     -24.195  -6.161   8.433  1.00  0.00     0.000 C 
BRANCH  10  11
ATOM     11  C   UNL     1     -25.535  -6.718   8.949  1.00  0.00     0.000 C 
BRANCH  11  12
ATOM     12  C   UNL     1     -26.296  -5.788   9.913  1.00  0.00     0.000 C 
BRANCH  12  13
ATOM     13  C   UNL     1     -25.415  -5.263  11.062  1.00  0.00     0.006 C 
BRANCH  13  14
ATOM     14  C   UNL     1     -26.018  -5.565  12.440  1.00  0.00     0.053 C 
BRANCH  14  15
ATOM     15  C   UNL     1     -25.079  -5.208  13.549  1.00  0.00     0.041 C 
ATOM     16  O   UNL     1     -25.202  -5.742  14.683  1.00  0.00    -0.550 OA
ATOM     17  O   UNL     1     -24.039  -4.318  13.318  1.00  0.00    -0.550 OA
ENDBRANCH  14  15
ENDBRANCH  13  14
ENDBRANCH  12  13
ENDBRANCH  11  12
ENDBRANCH  10  11
ENDBRANCH   9  10
ENDBRANCH   8   9
ENDBRANCH   7   8
ENDBRANCH   6   7
ENDBRANCH   5   6
ENDBRANCH   4   5
ENDBRANCH   3   4
ENDBRANCH   2   3
ENDBRANCH   1   2
BRANCH   1  18
ATOM     18  C   UNL     1     -23.938 -11.496   9.094  1.00  0.00     0.000 C 
BRANCH  18  19
ATOM     19  C   UNL     1     -24.665 -10.200   8.699  1.00  0.00     0.000 C 
BRANCH  19  20
ATOM     20  C   UNL     1     -24.685  -9.991   7.171  1.00  0.00     0.000 C 
BRANCH  20  21
ATOM     21  C   UNL     1     -24.234 -11.221   6.363  1.00  0.00     0.000 C 
BRANCH  21  22
ATOM     22  C   UNL     1     -23.811 -10.907   4.914  1.00  0.00     0.000 C 
BRANCH  22  23
ATOM     23  C   UNL     1     -23.823 -12.150   4.004  1.00  0.00     0.000 C 
BRANCH  23  24
ATOM     24  C   UNL     1     -24.969 -13.116   4.343  1.00  0.00    -0.000 C 
BRANCH  24  25
ATOM     25  C   UNL     1     -24.557 -14.594   4.235  1.00  0.00    -0.000 C 
BRANCH  25  26
ATOM     26  C   UNL     1     -25.275 -15.486   5.261  1.00  0.00    -0.000 C 
BRANCH  26  27
ATOM     27  C   UNL     1     -25.581 -14.748   6.576  1.00  0.00    -0.000 C 
BRANCH  27  28
ATOM     28  C   UNL     1     -24.389 -14.744   7.550  1.00  0.00    -0.000 C 
BRANCH  28  29
ATOM     29  C   UNL     1     -24.752 -14.480   9.022  1.00  0.00    -0.000 C 
BRANCH  29  30
ATOM     30  C   UNL     1     -23.694 -15.004  10.004  1.00  0.00    -0.000 C 
BRANCH  30  31
ATOM     31  C   UNL     1     -22.304 -15.013   9.357  1.00  0.00    -0.003 C 
ATOM     32  C   UNL     1     -21.224 -15.368  10.376  1.00  0.00     0.004 C 
ENDBRANCH  30  31
ENDBRANCH  29  30
ENDBRANCH  28  29
ENDBRANCH  27  28
ENDBRANCH  26  27
ENDBRANCH  25  26
ENDBRANCH  24  25
ENDBRANCH  23  24
ENDBRANCH  22  23
ENDBRANCH  21  22
ENDBRANCH  20  21
ENDBRANCH  19  20
ENDBRANCH  18  19
ENDBRANCH   1  18
TORSDOF 28
ENDMDL
MODEL 4
REMARK VINA RESULT:    -0.651      2.858      7.487
REMARK INTER + INTRA:          -4.838
REMARK INTER:                  -2.051
REMARK INTRA:                  -2.786
REMARK UNBOUND:                -3.120
REMARK SMILES CCCCCCCCCCCCCCCCCCCCCCCCCCCCCC(=O)[O-]
REMARK SMILES IDX 16 1 17 2 18 3 19 4 20 5 21 6 22 7 23 8 24 9 25 10 26 11
REMARK SMILES IDX 27 12 28 13 29 14 30 15 31 16 32 17 15 18 14 19 13 20 12 21
REMARK SMILES IDX 11 22 10 23 9 24 8 25 7 26 6 27 5 28 4 29 3 30 2 31 1 32
REMARK H PARENT
REMARK Flexibility Score: inf
ROOT
ATOM      1  C   UNL     1     -21.704  -9.987   4.435  1.00  0.00     0.000 C 
ENDROOT
BRANCH   1   2
ATOM      2  C   UNL     1     -22.409 -11.233   3.876  1.00  0.00     0.000 C 
BRANCH   2   3
ATOM      3  C   UNL     1     -23.885 -11.272   4.303  1.00  0.00     0.000 C 
BRANCH   3   4
ATOM      4  C   UNL     1     -24.246 -12.572   5.041  1.00  0.00     0.000 C 
BRANCH   4   5
ATOM      5  C   UNL     1     -25.447 -13.299   4.409  1.00  0.00     0.000 C 
BRANCH   5   6
ATOM      6  C   UNL     1     -25.386 -14.827   4.628  1.00  0.00     0.000 C 
BRANCH   6   7
ATOM      7  C   UNL     1     -24.859 -15.241   6.012  1.00  0.00     0.000 C 
BRANCH   7   8
ATOM      8  C   UNL     1     -25.720 -14.709   7.167  1.00  0.00     0.000 C 
BRANCH   8   9
ATOM      9  C   UNL     1     -24.864 -13.958   8.195  1.00  0.00     0.000 C 
BRANCH   9  10
ATOM     10  C   UNL     1     -23.932 -14.922   8.944  1.00  0.00     0.000 C 
BRANCH  10  11
ATOM     11  C   UNL     1     -23.119 -14.228  10.053  1.00  0.00     0.000 C 
BRANCH  11  12
ATOM     12  C   UNL     1     -23.794 -12.991  10.675  1.00  0.00     0.000 C 
BRANCH  12  13
ATOM     13  C   UNL     1     -22.849 -11.780  10.777  1.00  0.00     0.006 C 
BRANCH  13  14
ATOM     14  C   UNL     1     -21.674 -11.878   9.796  1.00  0.00     0.053 C 
BRANCH  14  15
ATOM     15  C   UNL     1     -20.459 -11.169  10.308  1.00  0.00     0.041 C 
ATOM     16  O   UNL     1     -20.029 -11.402  11.469  1.00  0.00    -0.550 OA
ATOM     17  O   UNL     1     -19.775 -10.283   9.487  1.00  0.00    -0.550 OA
ENDBRANCH  14  15
ENDBRANCH  13  14
ENDBRANCH  12  13
ENDBRANCH  11  12
ENDBRANCH  10  11
ENDBRANCH   9  10
ENDBRANCH   8   9
ENDBRANCH   7   8
ENDBRANCH   6   7
ENDBRANCH   5   6
ENDBRANCH   4   5
ENDBRANCH   3   4
ENDBRANCH   2   3
ENDBRANCH   1   2
BRANCH   1  18
ATOM     18  C   UNL     1     -22.641  -9.116   5.288  1.00  0.00     0.000 C 
BRANCH  18  19
ATOM     19  C   UNL     1     -21.878  -8.225   6.282  1.00  0.00     0.000 C 
BRANCH  19  20
ATOM     20  C   UNL     1     -22.116  -8.655   7.744  1.00  0.00     0.000 C 
BRANCH  20  21
ATOM     21  C   UNL     1     -23.426  -9.435   7.964  1.00  0.00     0.000 C 
BRANCH  21  22
ATOM     22  C   UNL     1     -24.473  -8.685   8.810  1.00  0.00     0.000 C 
BRANCH  22  23
ATOM     23  C   UNL     1     -25.811  -8.487   8.069  1.00  0.00     0.000 C 
BRANCH  23  24
ATOM     24  C   UNL     1     -26.410  -7.091   8.304  1.00  0.00    -0.000 C 
BRANCH  24  25
ATOM     25  C   UNL     1     -25.610  -6.262   9.324  1.00  0.00    -0.000 C 
BRANCH  25  26
ATOM     26  C   UNL     1     -26.446  -5.867  10.553  1.00  0.00    -0.000 C 
BRANCH  26  27
ATOM     27  C   UNL     1     -25.578  -5.404  11.736  1.00  0.00    -0.000 C 
BRANCH  27  28
ATOM     28  C   UNL     1     -26.339  -5.408  13.074  1.00  0.00    -0.000 C 
BRANCH  28  29
ATOM     29  C   UNL     1     -27.388  -6.524  13.222  1.00  0.00    -0.000 C 
BRANCH  29  30
ATOM     30  C   UNL     1     -28.359  -6.282  14.387  1.00  0.00    -0.000 C 
BRANCH  30  31
ATOM     31  C   UNL     1     -29.783  -6.041  13.872  1.00  0.00    -0.003 C 
ATOM     32  C   UNL     1     -30.394  -4.793  14.502  1.00  0.00     0.004 C 
ENDBRANCH  30  31
ENDBRANCH  29  30
ENDBRANCH  28  29
ENDBRANCH  27  28
ENDBRANCH  26  27
ENDBRANCH  25  26
ENDBRANCH  24  25
ENDBRANCH  23  24
ENDBRANCH  22  23
ENDBRANCH  21  22
ENDBRANCH  20  21
ENDBRANCH  19  20
ENDBRANCH  18  19
ENDBRANCH   1  18
TORSDOF 28
ENDMDL
MODEL 5
REMARK VINA RESULT:    -0.525      2.705      6.907
REMARK INTER + INTRA:          -4.505
REMARK INTER:                  -2.016
REMARK INTRA:                  -2.489
REMARK UNBOUND:                -3.120
REMARK SMILES CCCCCCCCCCCCCCCCCCCCCCCCCCCCCC(=O)[O-]
REMARK SMILES IDX 16 1 17 2 18 3 19 4 20 5 21 6 22 7 23 8 24 9 25 10 26 11
REMARK SMILES IDX 27 12 28 13 29 14 30 15 31 16 32 17 15 18 14 19 13 20 12 21
REMARK SMILES IDX 11 22 10 23 9 24 8 25 7 26 6 27 5 28 4 29 3 30 2 31 1 32
REMARK H PARENT
REMARK Flexibility Score: inf
ROOT
ATOM      1  C   UNL     1     -24.577 -11.473   9.365  1.00  0.00     0.000 C 
ENDROOT
BRANCH   1   2
ATOM      2  C   UNL     1     -24.007 -11.169   7.970  1.00  0.00     0.000 C 
BRANCH   2   3
ATOM      3  C   UNL     1     -24.825 -10.078   7.263  1.00  0.00     0.000 C 
BRANCH   3   4
ATOM      4  C   UNL     1     -24.628 -10.094   5.738  1.00  0.00     0.000 C 
BRANCH   4   5
ATOM      5  C   UNL     1     -23.441 -10.973   5.303  1.00  0.00     0.000 C 
BRANCH   5   6
ATOM      6  C   UNL     1     -23.675 -11.628   3.923  1.00  0.00     0.000 C 
BRANCH   6   7
ATOM      7  C   UNL     1     -23.333 -13.127   3.875  1.00  0.00     0.000 C 
BRANCH   7   8
ATOM      8  C   UNL     1     -24.577 -14.027   3.875  1.00  0.00     0.000 C 
BRANCH   8   9
ATOM      9  C   UNL     1     -24.189 -15.508   3.964  1.00  0.00     0.000 C 
BRANCH   9  10
ATOM     10  C   UNL     1     -24.920 -16.199   5.125  1.00  0.00     0.000 C 
BRANCH  10  11
ATOM     11  C   UNL     1     -26.036 -15.329   5.732  1.00  0.00     0.000 C 
BRANCH  11  12
ATOM     12  C   UNL     1     -25.587 -14.410   6.884  1.00  0.00     0.000 C 
BRANCH  12  13
ATOM     13  C   UNL     1     -24.587 -15.089   7.838  1.00  0.00     0.006 C 
BRANCH  13  14
ATOM     14  C   UNL     1     -24.637 -14.494   9.251  1.00  0.00     0.053 C 
BRANCH  14  15
ATOM     15  C   UNL     1     -23.481 -14.946  10.088  1.00  0.00     0.041 C 
ATOM     16  O   UNL     1     -23.643 -15.200  11.311  1.00  0.00    -0.550 OA
ATOM     17  O   UNL     1     -22.234 -15.131   9.506  1.00  0.00    -0.550 OA
ENDBRANCH  14  15
ENDBRANCH  13  14
ENDBRANCH  12  13
ENDBRANCH  11  12
ENDBRANCH  10  11
ENDBRANCH   9  10
ENDBRANCH   8   9
ENDBRANCH   7   8
ENDBRANCH   6   7
ENDBRANCH   5   6
ENDBRANCH   4   5
ENDBRANCH   3   4
ENDBRANCH   2   3
ENDBRANCH   1   2
BRANCH   1  18
ATOM     18  C   UNL     1     -23.673 -10.951  10.495  1.00  0.00     0.000 C 
BRANCH  18  19
ATOM     19  C   UNL     1     -22.681 -12.014  10.997  1.00  0.00     0.000 C 
BRANCH  19  20
ATOM     20  C   UNL     1     -21.324 -11.926  10.270  1.00  0.00     0.000 C 
BRANCH  20  21
ATOM     21  C   UNL     1     -20.300 -11.006  10.960  1.00  0.00     0.000 C 
BRANCH  21  22
ATOM     22  C   UNL     1     -19.368 -10.256   9.990  1.00  0.00     0.000 C 
BRANCH  22  23
ATOM     23  C   UNL     1     -19.925 -10.190   8.554  1.00  0.00     0.000 C 
BRANCH  23  24
ATOM     24  C   UNL     1     -21.200  -9.339   8.457  1.00  0.00    -0.000 C 
BRANCH  24  25
ATOM     25  C   UNL     1     -21.320  -8.594   7.116  1.00  0.00    -0.000 C 
BRANCH  25  26
ATOM     26  C   UNL     1     -22.540  -7.659   7.065  1.00  0.00    -0.000 C 
BRANCH  26  27
ATOM     27  C   UNL     1     -23.070  -7.299   8.464  1.00  0.00    -0.000 C 
BRANCH  27  28
ATOM     28  C   UNL     1     -23.537  -5.836   8.569  1.00  0.00    -0.000 C 
BRANCH  28  29
ATOM     29  C   UNL     1     -25.063  -5.642   8.609  1.00  0.00    -0.000 C 
BRANCH  29  30
ATOM     30  C   UNL     1     -25.766  -6.621   9.559  1.00  0.00    -0.000 C 
BRANCH  30  31
ATOM     31  C   UNL     1     -26.267  -7.856   8.802  1.00  0.00    -0.003 C 
ATOM     32  C   UNL     1     -27.344  -7.482   7.787  1.00  0.00     0.004 C 
ENDBRANCH  30  31
ENDBRANCH  29  30
ENDBRANCH  28  29
ENDBRANCH  27  28
ENDBRANCH  26  27
ENDBRANCH  25  26
ENDBRANCH  24  25
ENDBRANCH  23  24
ENDBRANCH  22  23
ENDBRANCH  21  22
ENDBRANCH  20  21
ENDBRANCH  19  20
ENDBRANCH  18  19
ENDBRANCH   1  18
TORSDOF 28
ENDMDL
MODEL 6
REMARK VINA RESULT:    -0.519      2.136      5.896
REMARK INTER + INTRA:          -4.488
REMARK INTER:                  -1.479
REMARK INTRA:                  -3.009
REMARK UNBOUND:                -3.120
REMARK SMILES CCCCCCCCCCCCCCCCCCCCCCCCCCCCCC(=O)[O-]
REMARK SMILES IDX 16 1 17 2 18 3 19 4 20 5 21 6 22 7 23 8 24 9 25 10 26 11
REMARK SMILES IDX 27 12 28 13 29 14 30 15 31 16 32 17 15 18 14 19 13 20 12 21
REMARK SMILES IDX 11 22 10 23 9 24 8 25 7 26 6 27 5 28 4 29 3 30 2 31 1 32
REMARK H PARENT
REMARK Flexibility Score: inf
ROOT
ATOM      1  C   UNL     1     -25.234 -14.409   8.731  1.00  0.00     0.000 C 
ENDROOT
BRANCH   1   2
ATOM      2  C   UNL     1     -25.889 -14.906   7.432  1.00  0.00     0.000 C 
BRANCH   2   3
ATOM      3  C   UNL     1     -24.832 -15.177   6.349  1.00  0.00     0.000 C 
BRANCH   3   4
ATOM      4  C   UNL     1     -25.440 -15.218   4.936  1.00  0.00     0.000 C 
BRANCH   4   5
ATOM      5  C   UNL     1     -25.340 -13.865   4.209  1.00  0.00     0.000 C 
BRANCH   5   6
ATOM      6  C   UNL     1     -23.880 -13.487   3.875  1.00  0.00     0.000 C 
BRANCH   6   7
ATOM      7  C   UNL     1     -23.570 -11.988   4.029  1.00  0.00     0.000 C 
BRANCH   7   8
ATOM      8  C   UNL     1     -24.485 -11.286   5.042  1.00  0.00     0.000 C 
BRANCH   8   9
ATOM      9  C   UNL     1     -23.750 -10.142   5.752  1.00  0.00     0.000 C 
BRANCH   9  10
ATOM     10  C   UNL     1     -22.410  -9.839   5.065  1.00  0.00     0.000 C 
BRANCH  10  11
ATOM     11  C   UNL     1     -21.643  -8.683   5.732  1.00  0.00     0.000 C 
BRANCH  11  12
ATOM     12  C   UNL     1     -22.306  -8.110   6.999  1.00  0.00     0.000 C 
BRANCH  12  13
ATOM     13  C   UNL     1     -21.634  -8.590   8.298  1.00  0.00     0.006 C 
BRANCH  13  14
ATOM     14  C   UNL     1     -20.698  -9.782   8.060  1.00  0.00     0.053 C 
BRANCH  14  15
ATOM     15  C   UNL     1     -19.916 -10.132   9.288  1.00  0.00     0.041 C 
ATOM     16  O   UNL     1     -20.384 -10.944  10.130  1.00  0.00    -0.550 OA
ATOM     17  O   UNL     1     -18.650  -9.595   9.480  1.00  0.00    -0.550 OA
ENDBRANCH  14  15
ENDBRANCH  13  14
ENDBRANCH  12  13
ENDBRANCH  11  12
ENDBRANCH  10  11
ENDBRANCH   9  10
ENDBRANCH   8   9
ENDBRANCH   7   8
ENDBRANCH   6   7
ENDBRANCH   5   6
ENDBRANCH   4   5
ENDBRANCH   3   4
ENDBRANCH   2   3
ENDBRANCH   1   2
BRANCH   1  18
ATOM     18  C   UNL     1     -23.762 -14.838   8.848  1.00  0.00     0.000 C 
BRANCH  18  19
ATOM     19  C   UNL     1     -23.234 -14.752  10.290  1.00  0.00     0.000 C 
BRANCH  19  20
ATOM     20  C   UNL     1     -22.510 -13.417  10.561  1.00  0.00     0.000 C 
BRANCH  20  21
ATOM     21  C   UNL     1     -23.447 -12.197  10.627  1.00  0.00     0.000 C 
BRANCH  21  22
ATOM     22  C   UNL     1     -23.505 -11.372   9.327  1.00  0.00     0.000 C 
BRANCH  22  23
ATOM     23  C   UNL     1     -24.917 -10.837   9.019  1.00  0.00     0.000 C 
BRANCH  23  24
ATOM     24  C   UNL     1     -24.980  -9.302   9.041  1.00  0.00    -0.000 C 
BRANCH  24  25
ATOM     25  C   UNL     1     -25.787  -8.721   7.867  1.00  0.00    -0.000 C 
BRANCH  25  26
ATOM     26  C   UNL     1     -26.268  -7.285   8.131  1.00  0.00    -0.000 C 
BRANCH  26  27
ATOM     27  C   UNL     1     -25.327  -6.508   9.069  1.00  0.00    -0.000 C 
BRANCH  27  28
ATOM     28  C   UNL     1     -26.057  -5.427   9.887  1.00  0.00    -0.000 C 
BRANCH  28  29
ATOM     29  C   UNL     1     -26.358  -5.809  11.347  1.00  0.00    -0.000 C 
BRANCH  29  30
ATOM     30  C   UNL     1     -25.690  -4.869  12.361  1.00  0.00    -0.000 C 
BRANCH  30  31
ATOM     31  C   UNL     1     -25.479  -5.575  13.706  1.00  0.00    -0.003 C 
ATOM     32  C   UNL     1     -24.083  -5.302  14.259  1.00  0.00     0.004 C 
ENDBRANCH  30  31
ENDBRANCH  29  30
ENDBRANCH  28  29
ENDBRANCH  27  28
ENDBRANCH  26  27
ENDBRANCH  25  26
ENDBRANCH  24  25
ENDBRANCH  23  24
ENDBRANCH  22  23
ENDBRANCH  21  22
ENDBRANCH  20  21
ENDBRANCH  19  20
ENDBRANCH  18  19
ENDBRANCH   1  18
TORSDOF 28
ENDMDL
MODEL 7
REMARK VINA RESULT:    -0.463      1.894      5.286
REMARK INTER + INTRA:          -4.341
REMARK INTER:                  -1.156
REMARK INTRA:                  -3.184
REMARK UNBOUND:                -3.120
REMARK SMILES CCCCCCCCCCCCCCCCCCCCCCCCCCCCCC(=O)[O-]
REMARK SMILES IDX 16 1 17 2 18 3 19 4 20 5 21 6 22 7 23 8 24 9 25 10 26 11
REMARK SMILES IDX 27 12 28 13 29 14 30 15 31 16 32 17 15 18 14 19 13 20 12 21
REMARK SMILES IDX 11 22 10 23 9 24 8 25 7 26 6 27 5 28 4 29 3 30 2 31 1 32
REMARK H PARENT
REMARK Flexibility Score: inf
ROOT
ATOM      1  C   UNL     1     -22.363 -12.714  11.160  1.00  0.00     0.000 C 
ENDROOT
BRANCH   1   2
ATOM      2  C   UNL     1     -21.830 -13.620  10.038  1.00  0.00     0.000 C 
BRANCH   2   3
ATOM      3  C   UNL     1     -22.669 -14.901   9.916  1.00  0.00     0.000 C 
BRANCH   3   4
ATOM      4  C   UNL     1     -23.729 -14.803   8.806  1.00  0.00     0.000 C 
BRANCH   4   5
ATOM      5  C   UNL     1     -24.737 -13.664   9.048  1.00  0.00     0.000 C 
BRANCH   5   6
ATOM      6  C   UNL     1     -24.405 -12.404   8.218  1.00  0.00     0.000 C 
BRANCH   6   7
ATOM      7  C   UNL     1     -24.520 -11.088   9.005  1.00  0.00     0.000 C 
BRANCH   7   8
ATOM      8  C   UNL     1     -25.111  -9.940   8.173  1.00  0.00     0.000 C 
BRANCH   8   9
ATOM      9  C   UNL     1     -24.766  -8.577   8.786  1.00  0.00     0.000 C 
BRANCH   9  10
ATOM     10  C   UNL     1     -25.638  -7.466   8.181  1.00  0.00     0.000 C 
BRANCH  10  11
ATOM     11  C   UNL     1     -25.422  -6.100   8.859  1.00  0.00     0.000 C 
BRANCH  11  12
ATOM     12  C   UNL     1     -26.446  -5.750   9.956  1.00  0.00     0.000 C 
BRANCH  12  13
ATOM     13  C   UNL     1     -25.827  -4.963  11.125  1.00  0.00     0.006 C 
BRANCH  13  14
ATOM     14  C   UNL     1     -26.098  -5.629  12.481  1.00  0.00     0.053 C 
BRANCH  14  15
ATOM     15  C   UNL     1     -25.096  -5.218  13.514  1.00  0.00     0.041 C 
ATOM     16  O   UNL     1     -24.279  -4.291  13.274  1.00  0.00    -0.550 OA
ATOM     17  O   UNL     1     -25.096  -5.830  14.760  1.00  0.00    -0.550 OA
ENDBRANCH  14  15
ENDBRANCH  13  14
ENDBRANCH  12  13
ENDBRANCH  11  12
ENDBRANCH  10  11
ENDBRANCH   9  10
ENDBRANCH   8   9
ENDBRANCH   7   8
ENDBRANCH   6   7
ENDBRANCH   5   6
ENDBRANCH   4   5
ENDBRANCH   3   4
ENDBRANCH   2   3
ENDBRANCH   1   2
BRANCH   1  18
ATOM     18  C   UNL     1     -21.604 -11.379  11.247  1.00  0.00     0.000 C 
BRANCH  18  19
ATOM     19  C   UNL     1     -20.200 -11.455  10.622  1.00  0.00     0.000 C 
BRANCH  19  20
ATOM     20  C   UNL     1     -20.034 -10.462   9.453  1.00  0.00     0.000 C 
BRANCH  20  21
ATOM     21  C   UNL     1     -21.364  -9.941   8.878  1.00  0.00     0.000 C 
BRANCH  21  22
ATOM     22  C   UNL     1     -21.243  -8.610   8.111  1.00  0.00     0.000 C 
BRANCH  22  23
ATOM     23  C   UNL     1     -21.121  -8.805   6.587  1.00  0.00     0.000 C 
BRANCH  23  24
ATOM     24  C   UNL     1     -22.418  -8.449   5.843  1.00  0.00    -0.000 C 
BRANCH  24  25
ATOM     25  C   UNL     1     -23.199  -9.689   5.376  1.00  0.00    -0.000 C 
BRANCH  25  26
ATOM     26  C   UNL     1     -22.466 -10.469   4.272  1.00  0.00    -0.000 C 
BRANCH  26  27
ATOM     27  C   UNL     1     -23.200 -11.763   3.875  1.00  0.00    -0.000 C 
BRANCH  27  28
ATOM     28  C   UNL     1     -24.371 -12.098   4.816  1.00  0.00    -0.000 C 
BRANCH  28  29
ATOM     29  C   UNL     1     -25.374 -13.128   4.266  1.00  0.00    -0.000 C 
BRANCH  29  30
ATOM     30  C   UNL     1     -24.759 -14.522   4.080  1.00  0.00    -0.000 C 
BRANCH  30  31
ATOM     31  C   UNL     1     -25.470 -15.557   4.960  1.00  0.00    -0.003 C 
ATOM     32  C   UNL     1     -24.696 -16.871   5.002  1.00  0.00     0.004 C 
ENDBRANCH  30  31
ENDBRANCH  29  30
ENDBRANCH  28  29
ENDBRANCH  27  28
ENDBRANCH  26  27
ENDBRANCH  25  26
ENDBRANCH  24  25
ENDBRANCH  23  24
ENDBRANCH  22  23
ENDBRANCH  21  22
ENDBRANCH  20  21
ENDBRANCH  19  20
ENDBRANCH  18  19
ENDBRANCH   1  18
TORSDOF 28
ENDMDL
MODEL 8
REMARK VINA RESULT:    -0.458      2.913      7.203
REMARK INTER + INTRA:          -4.326
REMARK INTER:                  -0.873
REMARK INTRA:                  -3.453
REMARK UNBOUND:                -3.120
REMARK SMILES CCCCCCCCCCCCCCCCCCCCCCCCCCCCCC(=O)[O-]
REMARK SMILES IDX 16 1 17 2 18 3 19 4 20 5 21 6 22 7 23 8 24 9 25 10 26 11
REMARK SMILES IDX 27 12 28 13 29 14 30 15 31 16 32 17 15 18 14 19 13 20 12 21
REMARK SMILES IDX 11 22 10 23 9 24 8 25 7 26 6 27 5 28 4 29 3 30 2 31 1 32
REMARK H PARENT
REMARK Flexibility Score: inf
ROOT
ATOM      1  C   UNL     1     -23.208 -11.321  10.496  1.00  0.00     0.000 C 
ENDROOT
BRANCH   1   2
ATOM      2  C   UNL     1     -23.830 -11.437   9.095  1.00  0.00     0.000 C 
BRANCH   2   3
ATOM      3  C   UNL     1     -24.644 -10.181   8.746  1.00  0.00     0.000 C 
BRANCH   3   4
ATOM      4  C   UNL     1     -24.740  -9.949   7.229  1.00  0.00     0.000 C 
BRANCH   4   5
ATOM      5  C   UNL     1     -24.224 -11.147   6.412  1.00  0.00     0.000 C 
BRANCH   5   6
ATOM      6  C   UNL     1     -23.515 -10.706   5.112  1.00  0.00     0.000 C 
BRANCH   6   7
ATOM      7  C   UNL     1     -23.748 -11.649   3.920  1.00  0.00     0.000 C 
BRANCH   7   8
ATOM      8  C   UNL     1     -24.840 -12.696   4.186  1.00  0.00     0.000 C 
BRANCH   8   9
ATOM      9  C   UNL     1     -24.267 -14.118   4.139  1.00  0.00     0.000 C 
BRANCH   9  10
ATOM     10  C   UNL     1     -25.291 -15.141   4.655  1.00  0.00     0.000 C 
BRANCH  10  11
ATOM     11  C   UNL     1     -25.090 -15.493   6.141  1.00  0.00     0.000 C 
BRANCH  11  12
ATOM     12  C   UNL     1     -25.940 -14.666   7.124  1.00  0.00     0.000 C 
BRANCH  12  13
ATOM     13  C   UNL     1     -25.249 -14.455   8.484  1.00  0.00     0.006 C 
BRANCH  13  14
ATOM     14  C   UNL     1     -23.745 -14.754   8.422  1.00  0.00     0.053 C 
BRANCH  14  15
ATOM     15  C   UNL     1     -23.162 -14.963   9.785  1.00  0.00     0.041 C 
ATOM     16  O   UNL     1     -21.952 -15.289   9.916  1.00  0.00    -0.550 OA
ATOM     17  O   UNL     1     -23.943 -14.752  10.913  1.00  0.00    -0.550 OA
ENDBRANCH  14  15
ENDBRANCH  13  14
ENDBRANCH  12  13
ENDBRANCH  11  12
ENDBRANCH  10  11
ENDBRANCH   9  10
ENDBRANCH   8   9
ENDBRANCH   7   8
ENDBRANCH   6   7
ENDBRANCH   5   6
ENDBRANCH   4   5
ENDBRANCH   3   4
ENDBRANCH   2   3
ENDBRANCH   1   2
BRANCH   1  18
ATOM     18  C   UNL     1     -21.830 -11.999  10.583  1.00  0.00     0.000 C 
BRANCH  18  19
ATOM     19  C   UNL     1     -20.671 -10.988  10.557  1.00  0.00     0.000 C 
BRANCH  19  20
ATOM     20  C   UNL     1     -20.302 -10.571   9.118  1.00  0.00     0.000 C 
BRANCH  20  21
ATOM     21  C   UNL     1     -20.749  -9.147   8.742  1.00  0.00     0.000 C 
BRANCH  21  22
ATOM     22  C   UNL     1     -21.272  -9.007   7.299  1.00  0.00     0.000 C 
BRANCH  22  23
ATOM     23  C   UNL     1     -22.301  -7.871   7.141  1.00  0.00     0.000 C 
BRANCH  23  24
ATOM     24  C   UNL     1     -22.742  -7.287   8.492  1.00  0.00    -0.000 C 
BRANCH  24  25
ATOM     25  C   UNL     1     -23.833  -6.212   8.350  1.00  0.00    -0.000 C 
BRANCH  25  26
ATOM     26  C   UNL     1     -25.210  -6.696   8.835  1.00  0.00    -0.000 C 
BRANCH  26  27
ATOM     27  C   UNL     1     -26.094  -5.547   9.350  1.00  0.00    -0.000 C 
BRANCH  27  28
ATOM     28  C   UNL     1     -26.564  -5.759  10.801  1.00  0.00    -0.000 C 
BRANCH  28  29
ATOM     29  C   UNL     1     -25.572  -5.291  11.881  1.00  0.00    -0.000 C 
BRANCH  29  30
ATOM     30  C   UNL     1     -25.971  -5.739  13.294  1.00  0.00    -0.000 C 
BRANCH  30  31
ATOM     31  C   UNL     1     -24.949  -5.258  14.331  1.00  0.00    -0.003 C 
ATOM     32  C   UNL     1     -23.882  -4.378  13.687  1.00  0.00     0.004 C 
ENDBRANCH  30  31
ENDBRANCH  29  30
ENDBRANCH  28  29
ENDBRANCH  27  28
ENDBRANCH  26  27
ENDBRANCH  25  26
ENDBRANCH  24  25
ENDBRANCH  23  24
ENDBRANCH  22  23
ENDBRANCH  21  22
ENDBRANCH  20  21
ENDBRANCH  19  20
ENDBRANCH  18  19
ENDBRANCH   1  18
TORSDOF 28
ENDMDL
