MODEL 1
REMARK VINA RESULT:    82.928      0.000      0.000
REMARK INTER + INTRA:         124.057
REMARK INTER:                 124.136
REMARK INTRA:                  -0.080
REMARK UNBOUND:                -0.080
REMARK SMILES C[C@@H]1O[C@@H](OC[C@@H]2O[C@H](Oc3c(-c4ccc(O)c(O)c4)oc4cc(O)cc(O)c4c3=O)[C@H](O)[C@@H](O)[C@H]2O)[C@@H](O)[C@@H](O)[C@@H]1O
REMARK SMILES IDX 7 1 36 2 34 3 32 4 9 5 8 6 6 7 5 8 4 9 1 10 2 11 42 12 3 13
REMARK SMILES IDX 40 14 38 15 43 16 41 18 39 20 37 22 35 24 10 26 11 27 12 28
REMARK SMILES IDX 30 29 21 30 29 31 31 32 22 33 27 34 23 35 26 36 24 37 13 38
REMARK SMILES IDX 20 39 14 40 18 41 15 42 16 43 19 44 17 46 28 48 25 50 33 52
REMARK H PARENT 43 17 41 19 39 21 37 23 35 25 19 45 17 47 28 49 25 51 33 53
REMARK Flexibility Score: inf
ROOT
ATOM      1  C   UNL     1       5.694   6.751  31.614  1.00  0.00     0.180 C 
ATOM      2  C   UNL     1       4.464   7.652  32.794  1.00  0.00     0.177 C 
ATOM      3  C   UNL     1       5.305   8.857  33.546  1.00  0.00     0.180 C 
ATOM      4  C   UNL     1       6.878   8.840  33.263  1.00  0.00     0.214 C 
ATOM      5  C   UNL     1       7.798   8.010  32.269  1.00  0.00     0.339 C 
ATOM      6  O   UNL     1       7.121   6.717  32.086  1.00  0.00    -0.332 OA
ENDROOT
BRANCH   1   7
ATOM      7  C   UNL     1       5.387   5.034  30.998  1.00  0.00     0.198 C 
BRANCH   7   8
ATOM      8  O   UNL     1       6.420   3.920  30.599  1.00  0.00    -0.347 OA
BRANCH   8   9
ATOM      9  C   UNL     1       6.868   2.680  31.281  1.00  0.00     0.281 C 
ATOM     10  C   UNL     1       9.365  -0.954  30.789  1.00  0.00     0.041 C 
ATOM     11  C   UNL     1       8.019   0.123  30.502  1.00  0.00     0.150 C 
ATOM     12  C   UNL     1       6.486  -0.295  31.287  1.00  0.00     0.174 C 
ATOM     13  O   UNL     1       8.072   1.759  30.805  1.00  0.00    -0.344 OA
ATOM     14  C   UNL     1       5.206   0.702  31.676  1.00  0.00     0.179 C 
ATOM     15  C   UNL     1       5.591   2.020  31.003  1.00  0.00     0.202 C 
BRANCH  12  16
ATOM     16  O   UNL     1       6.696  -1.086  32.418  1.00  0.00    -0.388 OA
ATOM     17  H   UNL     1       6.883  -0.473  33.147  1.00  0.00     0.211 HD
ENDBRANCH  12  16
BRANCH  14  18
ATOM     18  O   UNL     1       3.877   0.611  32.416  1.00  0.00    -0.387 OA
ATOM     19  H   UNL     1       2.914   0.804  32.209  1.00  0.00     0.211 HD
ENDBRANCH  14  18
BRANCH  15  20
ATOM     20  O   UNL     1       5.825   1.541  29.560  1.00  0.00    -0.385 OA
ATOM     21  H   UNL     1       5.165   0.879  29.112  1.00  0.00     0.211 HD
ENDBRANCH  15  20
ENDBRANCH   8   9
ENDBRANCH   7   8
ENDBRANCH   1   7
BRANCH   2  22
ATOM     22  O   UNL     1       2.988   8.035  32.549  1.00  0.00    -0.387 OA
ATOM     23  H   UNL     1       1.915   8.341  32.530  1.00  0.00     0.211 HD
ENDBRANCH   2  22
BRANCH   3  24
ATOM     24  O   UNL     1       4.617  10.108  34.114  1.00  0.00    -0.387 OA
ATOM     25  H   UNL     1       4.482  10.969  33.584  1.00  0.00     0.211 HD
ENDBRANCH   3  24
BRANCH   5  26
ATOM     26  O   UNL     1       9.316   8.070  32.343  1.00  0.00    -0.454 OA
BRANCH  26  27
ATOM     27  C   UNL     1       9.990   8.471  31.191  1.00  0.00     0.214 A 
ATOM     28  C   UNL     1      11.106   7.436  30.497  1.00  0.00     0.180 A 
ATOM     29  C   UNL     1       9.408  10.042  31.044  1.00  0.00     0.239 A 
ATOM     30  O   UNL     1      11.375   8.768  30.787  1.00  0.00    -0.452 OA
ATOM     31  C   UNL     1      10.354  10.815  30.331  1.00  0.00     0.111 A 
ATOM     32  O   UNL     1       8.547  10.638  31.946  1.00  0.00    -0.285 OA
ATOM     33  C   UNL     1      11.657   9.985  30.150  1.00  0.00     0.146 A 
ATOM     34  C   UNL     1      10.195  12.196  29.762  1.00  0.00     0.134 A 
ATOM     35  C   UNL     1      12.756  11.038  30.332  1.00  0.00     0.094 A 
ATOM     36  C   UNL     1      11.352  12.695  28.977  1.00  0.00     0.093 A 
ATOM     37  C   UNL     1      12.721  12.177  29.365  1.00  0.00     0.123 A 
BRANCH  28  38
ATOM     38  C   UNL     1      11.811   5.704  29.832  1.00  0.00     0.025 A 
ATOM     39  C   UNL     1      12.041   4.313  30.426  1.00  0.00     0.062 A 
ATOM     40  C   UNL     1      12.468   5.174  28.444  1.00  0.00     0.016 A 
ATOM     41  C   UNL     1      13.050   3.301  30.274  1.00  0.00     0.158 A 
ATOM     42  C   UNL     1      12.782   3.528  28.057  1.00  0.00     0.051 A 
ATOM     43  C   UNL     1      13.010   2.551  29.053  1.00  0.00     0.157 A 
BRANCH  41  44
ATOM     44  O   UNL     1      14.184   3.353  31.168  1.00  0.00    -0.504 OA
ATOM     45  H   UNL     1      14.982   2.806  30.995  1.00  0.00     0.293 HD
ENDBRANCH  41  44
BRANCH  43  46
ATOM     46  O   UNL     1      12.747   1.162  28.774  1.00  0.00    -0.504 OA
ATOM     47  H   UNL     1      13.183   0.425  29.401  1.00  0.00     0.293 HD
ENDBRANCH  43  46
ENDBRANCH  28  38
BRANCH  34  48
ATOM     48  O   UNL     1       9.106  13.095  30.016  1.00  0.00    -0.507 OA
ATOM     49  H   UNL     1       8.862  13.822  29.318  1.00  0.00     0.293 HD
ENDBRANCH  34  48
BRANCH  37  50
ATOM     50  O   UNL     1      13.874  13.003  29.385  1.00  0.00    -0.508 OA
ATOM     51  H   UNL     1      13.821  13.781  28.760  1.00  0.00     0.293 HD
ENDBRANCH  37  50
ENDBRANCH  26  27
ENDBRANCH   5  26
BRANCH   4  52
ATOM     52  O   UNL     1       7.620   9.687  34.021  1.00  0.00    -0.384 OA
ATOM     53  H   UNL     1       8.566   9.371  34.171  1.00  0.00     0.211 HD
ENDBRANCH   4  52
TORSDOF 16
ENDMDL
MODEL 2
REMARK VINA RESULT:    83.247      0.887      1.544
REMARK INTER + INTRA:         124.534
REMARK INTER:                 125.409
REMARK INTRA:                  -0.875
REMARK UNBOUND:                -0.080
REMARK SMILES C[C@@H]1O[C@@H](OC[C@@H]2O[C@H](Oc3c(-c4ccc(O)c(O)c4)oc4cc(O)cc(O)c4c3=O)[C@H](O)[C@@H](O)[C@H]2O)[C@@H](O)[C@@H](O)[C@@H]1O
REMARK SMILES IDX 7 1 36 2 34 3 32 4 9 5 8 6 6 7 5 8 4 9 1 10 2 11 42 12 3 13
REMARK SMILES IDX 40 14 38 15 43 16 41 18 39 20 37 22 35 24 10 26 11 27 12 28
REMARK SMILES IDX 30 29 21 30 29 31 31 32 22 33 27 34 23 35 26 36 24 37 13 38
REMARK SMILES IDX 20 39 14 40 18 41 15 42 16 43 19 44 17 46 28 48 25 50 33 52
REMARK H PARENT 43 17 41 19 39 21 37 23 35 25 19 45 17 47 28 49 25 51 33 53
REMARK Flexibility Score: inf
ROOT
ATOM      1  C   UNL     1       5.925   6.976  31.494  1.00  0.00     0.180 C 
ATOM      2  C   UNL     1       4.673   7.749  32.739  1.00  0.00     0.177 C 
ATOM      3  C   UNL     1       5.472   8.937  33.561  1.00  0.00     0.180 C 
ATOM      4  C   UNL     1       7.042   9.002  33.264  1.00  0.00     0.214 C 
ATOM      5  C   UNL     1       7.983   8.276  32.212  1.00  0.00     0.339 C 
ATOM      6  O   UNL     1       7.357   6.971  31.952  1.00  0.00    -0.332 OA
ENDROOT
BRANCH   1   7
ATOM      7  C   UNL     1       5.681   5.291  30.772  1.00  0.00     0.198 C 
BRANCH   7   8
ATOM      8  O   UNL     1       5.310   3.944  31.490  1.00  0.00    -0.347 OA
BRANCH   8   9
ATOM      9  C   UNL     1       5.409   2.525  31.067  1.00  0.00     0.281 C 
ATOM     10  C   UNL     1       6.085  -1.599  32.557  1.00  0.00     0.041 C 
ATOM     11  C   UNL     1       6.492   0.053  32.156  1.00  0.00     0.150 C 
ATOM     12  C   UNL     1       7.384   0.306  30.646  1.00  0.00     0.174 C 
ATOM     13  O   UNL     1       5.366   1.274  32.045  1.00  0.00    -0.344 OA
ATOM     14  C   UNL     1       7.474   1.682  29.704  1.00  0.00     0.179 C 
ATOM     15  C   UNL     1       6.772   2.728  30.571  1.00  0.00     0.202 C 
BRANCH  12  16
ATOM     16  O   UNL     1       7.169  -0.742  29.749  1.00  0.00    -0.388 OA
ATOM     17  H   UNL     1       6.876  -0.334  28.919  1.00  0.00     0.211 HD
ENDBRANCH  12  16
BRANCH  14  18
ATOM     18  O   UNL     1       8.062   2.107  28.364  1.00  0.00    -0.387 OA
ATOM     19  H   UNL     1       7.733   2.580  27.543  1.00  0.00     0.211 HD
ENDBRANCH  14  18
BRANCH  15  20
ATOM     20  O   UNL     1       7.573   2.595  31.877  1.00  0.00    -0.385 OA
ATOM     21  H   UNL     1       8.407   3.188  32.045  1.00  0.00     0.211 HD
ENDBRANCH  15  20
ENDBRANCH   8   9
ENDBRANCH   7   8
ENDBRANCH   1   7
BRANCH   2  22
ATOM     22  O   UNL     1       3.180   8.085  32.532  1.00  0.00    -0.387 OA
ATOM     23  H   UNL     1       2.152   8.436  32.274  1.00  0.00     0.211 HD
ENDBRANCH   2  22
BRANCH   3  24
ATOM     24  O   UNL     1       4.741  10.119  34.214  1.00  0.00    -0.387 OA
ATOM     25  H   UNL     1       5.146  11.050  34.312  1.00  0.00     0.211 HD
ENDBRANCH   3  24
BRANCH   5  26
ATOM     26  O   UNL     1       9.499   8.393  32.277  1.00  0.00    -0.454 OA
BRANCH  26  27
ATOM     27  C   UNL     1      10.156   8.749  31.102  1.00  0.00     0.214 A 
ATOM     28  C   UNL     1      11.222   7.666  30.403  1.00  0.00     0.180 A 
ATOM     29  C   UNL     1       9.620  10.335  30.935  1.00  0.00     0.239 A 
ATOM     30  O   UNL     1      11.540   8.995  30.659  1.00  0.00    -0.452 OA
ATOM     31  C   UNL     1      10.573  11.063  30.184  1.00  0.00     0.111 A 
ATOM     32  O   UNL     1       8.800  10.976  31.845  1.00  0.00    -0.285 OA
ATOM     33  C   UNL     1      11.844  10.189  29.990  1.00  0.00     0.146 A 
ATOM     34  C   UNL     1      10.443  12.436  29.590  1.00  0.00     0.134 A 
ATOM     35  C   UNL     1      12.980  11.210  30.124  1.00  0.00     0.094 A 
ATOM     36  C   UNL     1      11.595  12.883  28.768  1.00  0.00     0.093 A 
ATOM     37  C   UNL     1      12.957  12.330  29.135  1.00  0.00     0.123 A 
BRANCH  28  38
ATOM     38  C   UNL     1      11.857   5.900  29.758  1.00  0.00     0.025 A 
ATOM     39  C   UNL     1      12.081   4.520  30.381  1.00  0.00     0.062 A 
ATOM     40  C   UNL     1      12.439   5.315  28.359  1.00  0.00     0.016 A 
ATOM     41  C   UNL     1      13.059   3.481  30.214  1.00  0.00     0.158 A 
ATOM     42  C   UNL     1      12.697   3.652  28.006  1.00  0.00     0.051 A 
ATOM     43  C   UNL     1      12.947   2.698  29.019  1.00  0.00     0.157 A 
BRANCH  41  44
ATOM     44  O   UNL     1      14.232   3.529  31.057  1.00  0.00    -0.504 OA
ATOM     45  H   UNL     1      14.188   3.933  31.951  1.00  0.00     0.293 HD
ENDBRANCH  41  44
BRANCH  43  46
ATOM     46  O   UNL     1      12.639   1.309  28.792  1.00  0.00    -0.504 OA
ATOM     47  H   UNL     1      11.630   1.033  28.616  1.00  0.00     0.293 HD
ENDBRANCH  43  46
ENDBRANCH  28  38
BRANCH  34  48
ATOM     48  O   UNL     1       9.389  13.374  29.851  1.00  0.00    -0.507 OA
ATOM     49  H   UNL     1       9.524  14.379  29.630  1.00  0.00     0.293 HD
ENDBRANCH  34  48
BRANCH  37  50
ATOM     50  O   UNL     1      14.134  13.119  29.110  1.00  0.00    -0.508 OA
ATOM     51  H   UNL     1      14.587  13.137  28.219  1.00  0.00     0.293 HD
ENDBRANCH  37  50
ENDBRANCH  26  27
ENDBRANCH   5  26
BRANCH   4  52
ATOM     52  O   UNL     1       7.757   9.829  34.069  1.00  0.00    -0.384 OA
ATOM     53  H   UNL     1       7.374  10.760  34.133  1.00  0.00     0.211 HD
ENDBRANCH   4  52
TORSDOF 16
ENDMDL
MODEL 3
REMARK VINA RESULT:    84.905      4.960      8.373
REMARK INTER + INTRA:         127.016
REMARK INTER:                 127.534
REMARK INTRA:                  -0.518
REMARK UNBOUND:                -0.080
REMARK SMILES C[C@@H]1O[C@@H](OC[C@@H]2O[C@H](Oc3c(-c4ccc(O)c(O)c4)oc4cc(O)cc(O)c4c3=O)[C@H](O)[C@@H](O)[C@H]2O)[C@@H](O)[C@@H](O)[C@@H]1O
REMARK SMILES IDX 7 1 36 2 34 3 32 4 9 5 8 6 6 7 5 8 4 9 1 10 2 11 42 12 3 13
REMARK SMILES IDX 40 14 38 15 43 16 41 18 39 20 37 22 35 24 10 26 11 27 12 28
REMARK SMILES IDX 30 29 21 30 29 31 31 32 22 33 27 34 23 35 26 36 24 37 13 38
REMARK SMILES IDX 20 39 14 40 18 41 15 42 16 43 19 44 17 46 28 48 25 50 33 52
REMARK H PARENT 43 17 41 19 39 21 37 23 35 25 19 45 17 47 28 49 25 51 33 53
REMARK Flexibility Score: inf
ROOT
ATOM      1  C   UNL     1       5.356   8.901  34.313  1.00  0.00     0.180 C 
ATOM      2  C   UNL     1       5.985   7.403  35.351  1.00  0.00     0.177 C 
ATOM      3  C   UNL     1       7.355   6.844  34.621  1.00  0.00     0.180 C 
ATOM      4  C   UNL     1       7.678   7.529  33.212  1.00  0.00     0.214 C 
ATOM      5  C   UNL     1       7.054   8.762  32.431  1.00  0.00     0.339 C 
ATOM      6  O   UNL     1       5.642   8.819  32.839  1.00  0.00    -0.332 OA
ENDROOT
BRANCH   1   7
ATOM      7  C   UNL     1       3.604   9.489  34.395  1.00  0.00     0.198 C 
BRANCH   7   8
ATOM      8  O   UNL     1       2.660   9.968  33.236  1.00  0.00    -0.347 OA
BRANCH   8   9
ATOM      9  C   UNL     1       1.628   9.266  32.432  1.00  0.00     0.281 C 
ATOM     10  C   UNL     1      -1.444   9.851  29.285  1.00  0.00     0.041 C 
ATOM     11  C   UNL     1      -0.710  10.004  30.864  1.00  0.00     0.150 C 
ATOM     12  C   UNL     1      -1.340   8.947  32.139  1.00  0.00     0.174 C 
ATOM     13  O   UNL     1       0.925   9.853  31.133  1.00  0.00    -0.344 OA
ATOM     14  C   UNL     1      -0.590   8.439  33.541  1.00  0.00     0.179 C 
ATOM     15  C   UNL     1       0.690   9.275  33.557  1.00  0.00     0.202 C 
BRANCH  12  16
ATOM     16  O   UNL     1      -1.933   7.803  31.600  1.00  0.00    -0.388 OA
ATOM     17  H   UNL     1      -2.081   7.198  32.345  1.00  0.00     0.211 HD
ENDBRANCH  12  16
BRANCH  14  18
ATOM     18  O   UNL     1      -0.866   7.487  34.698  1.00  0.00    -0.387 OA
ATOM     19  H   UNL     1      -0.750   7.500  35.694  1.00  0.00     0.211 HD
ENDBRANCH  14  18
BRANCH  15  20
ATOM     20  O   UNL     1       0.104  10.691  33.428  1.00  0.00    -0.385 OA
ATOM     21  H   UNL     1       0.714  11.491  33.177  1.00  0.00     0.211 HD
ENDBRANCH  15  20
ENDBRANCH   8   9
ENDBRANCH   7   8
ENDBRANCH   1   7
BRANCH   2  22
ATOM     22  O   UNL     1       6.032   7.237  36.885  1.00  0.00    -0.387 OA
ATOM     23  H   UNL     1       6.221   7.079  37.974  1.00  0.00     0.211 HD
ENDBRANCH   2  22
BRANCH   3  24
ATOM     24  O   UNL     1       8.435   6.063  35.385  1.00  0.00    -0.387 OA
ATOM     25  H   UNL     1       9.328   6.463  35.669  1.00  0.00     0.211 HD
ENDBRANCH   3  24
BRANCH   5  26
ATOM     26  O   UNL     1       7.445   9.085  30.997  1.00  0.00    -0.454 OA
BRANCH  26  27
ATOM     27  C   UNL     1       7.861  10.388  30.733  1.00  0.00     0.214 A 
ATOM     28  C   UNL     1       7.025  11.298  29.606  1.00  0.00     0.180 A 
ATOM     29  C   UNL     1       9.247  10.451  31.683  1.00  0.00     0.239 A 
ATOM     30  O   UNL     1       8.406  11.147  29.594  1.00  0.00    -0.452 OA
ATOM     31  C   UNL     1      10.128  11.418  31.144  1.00  0.00     0.111 A 
ATOM     32  O   UNL     1       9.734   9.386  32.418  1.00  0.00    -0.285 OA
ATOM     33  C   UNL     1       9.584  11.890  29.766  1.00  0.00     0.146 A 
ATOM     34  C   UNL     1      11.376  11.988  31.754  1.00  0.00     0.134 A 
ATOM     35  C   UNL     1      10.861  12.044  28.933  1.00  0.00     0.094 A 
ATOM     36  C   UNL     1      12.029  13.066  30.969  1.00  0.00     0.093 A 
ATOM     37  C   UNL     1      11.861  13.020  29.465  1.00  0.00     0.123 A 
BRANCH  28  38
ATOM     38  C   UNL     1       5.426  12.044  28.696  1.00  0.00     0.025 A 
ATOM     39  C   UNL     1       4.134  11.474  28.107  1.00  0.00     0.062 A 
ATOM     40  C   UNL     1       4.962  13.513  28.183  1.00  0.00     0.016 A 
ATOM     41  C   UNL     1       3.324  11.777  26.960  1.00  0.00     0.158 A 
ATOM     42  C   UNL     1       3.387  13.920  27.623  1.00  0.00     0.051 A 
ATOM     43  C   UNL     1       2.521  12.961  27.051  1.00  0.00     0.157 A 
BRANCH  41  44
ATOM     44  O   UNL     1       3.632  11.088  25.727  1.00  0.00    -0.504 OA
ATOM     45  H   UNL     1       3.245  11.390  24.876  1.00  0.00     0.293 HD
ENDBRANCH  41  44
BRANCH  43  46
ATOM     46  O   UNL     1       1.095  13.168  27.082  1.00  0.00    -0.504 OA
ATOM     47  H   UNL     1       0.586  13.347  26.169  1.00  0.00     0.293 HD
ENDBRANCH  43  46
ENDBRANCH  28  38
BRANCH  34  48
ATOM     48  O   UNL     1      12.041  11.503  32.929  1.00  0.00    -0.507 OA
ATOM     49  H   UNL     1      11.781  10.581  33.327  1.00  0.00     0.293 HD
ENDBRANCH  34  48
BRANCH  37  50
ATOM     50  O   UNL     1      12.912  13.334  28.567  1.00  0.00    -0.508 OA
ATOM     51  H   UNL     1      12.662  14.013  27.877  1.00  0.00     0.293 HD
ENDBRANCH  37  50
ENDBRANCH  26  27
ENDBRANCH   5  26
BRANCH   4  52
ATOM     52  O   UNL     1       8.678   6.954  32.496  1.00  0.00    -0.384 OA
ATOM     53  H   UNL     1       8.539   7.001  31.498  1.00  0.00     0.211 HD
ENDBRANCH   4  52
TORSDOF 16
ENDMDL
MODEL 4
REMARK VINA RESULT:    85.714      4.879      8.217
REMARK INTER + INTRA:         128.227
REMARK INTER:                 128.149
REMARK INTRA:                   0.078
REMARK UNBOUND:                -0.080
REMARK SMILES C[C@@H]1O[C@@H](OC[C@@H]2O[C@H](Oc3c(-c4ccc(O)c(O)c4)oc4cc(O)cc(O)c4c3=O)[C@H](O)[C@@H](O)[C@H]2O)[C@@H](O)[C@@H](O)[C@@H]1O
REMARK SMILES IDX 7 1 36 2 34 3 32 4 9 5 8 6 6 7 5 8 4 9 1 10 2 11 42 12 3 13
REMARK SMILES IDX 40 14 38 15 43 16 41 18 39 20 37 22 35 24 10 26 11 27 12 28
REMARK SMILES IDX 30 29 21 30 29 31 31 32 22 33 27 34 23 35 26 36 24 37 13 38
REMARK SMILES IDX 20 39 14 40 18 41 15 42 16 43 19 44 17 46 28 48 25 50 33 52
REMARK H PARENT 43 17 41 19 39 21 37 23 35 25 19 45 17 47 28 49 25 51 33 53
REMARK Flexibility Score: inf
ROOT
ATOM      1  C   UNL     1       7.512   6.172  33.961  1.00  0.00     0.180 C 
ATOM      2  C   UNL     1       6.349   5.386  32.641  1.00  0.00     0.177 C 
ATOM      3  C   UNL     1       6.090   6.527  31.477  1.00  0.00     0.180 C 
ATOM      4  C   UNL     1       6.679   7.972  31.828  1.00  0.00     0.214 C 
ATOM      5  C   UNL     1       7.618   8.514  32.988  1.00  0.00     0.339 C 
ATOM      6  O   UNL     1       7.350   7.655  34.151  1.00  0.00    -0.332 OA
ENDROOT
BRANCH   1   7
ATOM      7  C   UNL     1       7.631   5.512  35.685  1.00  0.00     0.198 C 
BRANCH   7   8
ATOM      8  O   UNL     1       7.870   6.284  37.032  1.00  0.00    -0.347 OA
BRANCH   8   9
ATOM      9  C   UNL     1       6.939   6.803  38.066  1.00  0.00     0.281 C 
ATOM     10  C   UNL     1       6.754   9.028  41.899  1.00  0.00     0.041 C 
ATOM     11  C   UNL     1       7.117   7.694  40.831  1.00  0.00     0.150 C 
ATOM     12  C   UNL     1       6.002   6.317  40.874  1.00  0.00     0.174 C 
ATOM     13  O   UNL     1       7.317   7.863  39.187  1.00  0.00    -0.344 OA
ATOM     14  C   UNL     1       5.715   5.168  39.697  1.00  0.00     0.179 C 
ATOM     15  C   UNL     1       6.797   5.472  38.661  1.00  0.00     0.202 C 
BRANCH  12  16
ATOM     16  O   UNL     1       4.740   6.702  41.331  1.00  0.00    -0.388 OA
ATOM     17  H   UNL     1       4.877   7.089  42.211  1.00  0.00     0.211 HD
ENDBRANCH  12  16
BRANCH  14  18
ATOM     18  O   UNL     1       4.771   3.996  39.458  1.00  0.00    -0.387 OA
ATOM     19  H   UNL     1       4.851   3.057  39.115  1.00  0.00     0.211 HD
ENDBRANCH  14  18
BRANCH  15  20
ATOM     20  O   UNL     1       8.055   5.419  39.544  1.00  0.00    -0.385 OA
ATOM     21  H   UNL     1       8.029   4.952  40.469  1.00  0.00     0.211 HD
ENDBRANCH  15  20
ENDBRANCH   8   9
ENDBRANCH   7   8
ENDBRANCH   1   7
BRANCH   2  22
ATOM     22  O   UNL     1       6.366   3.955  32.060  1.00  0.00    -0.387 OA
ATOM     23  H   UNL     1       6.538   2.925  31.664  1.00  0.00     0.211 HD
ENDBRANCH   2  22
BRANCH   3  24
ATOM     24  O   UNL     1       5.701   6.161  30.037  1.00  0.00    -0.387 OA
ATOM     25  H   UNL     1       5.173   6.776  29.419  1.00  0.00     0.211 HD
ENDBRANCH   3  24
BRANCH   5  26
ATOM     26  O   UNL     1       7.876  10.000  33.183  1.00  0.00    -0.454 OA
BRANCH  26  27
ATOM     27  C   UNL     1       9.204  10.419  33.170  1.00  0.00     0.214 A 
ATOM     28  C   UNL     1       9.788  11.320  34.453  1.00  0.00     0.180 A 
ATOM     29  C   UNL     1       9.668   9.873  31.649  1.00  0.00     0.239 A 
ATOM     30  O   UNL     1       9.944  11.692  33.122  1.00  0.00    -0.452 OA
ATOM     31  C   UNL     1      10.744  10.667  31.187  1.00  0.00     0.111 A 
ATOM     32  O   UNL     1       8.816   9.251  30.754  1.00  0.00    -0.285 OA
ATOM     33  C   UNL     1      10.942  11.870  32.152  1.00  0.00     0.146 A 
ATOM     34  C   UNL     1      11.635  10.434  30.000  1.00  0.00     0.134 A 
ATOM     35  C   UNL     1      11.288  13.017  31.197  1.00  0.00     0.094 A 
ATOM     36  C   UNL     1      12.744  11.408  29.839  1.00  0.00     0.093 A 
ATOM     37  C   UNL     1      12.508  12.810  30.360  1.00  0.00     0.123 A 
BRANCH  28  38
ATOM     38  C   UNL     1      10.066  11.803  36.357  1.00  0.00     0.025 A 
ATOM     39  C   UNL     1       9.172  11.973  37.588  1.00  0.00     0.062 A 
ATOM     40  C   UNL     1      11.330  12.268  37.265  1.00  0.00     0.016 A 
ATOM     41  C   UNL     1       9.153  12.871  38.709  1.00  0.00     0.158 A 
ATOM     42  C   UNL     1      11.330  12.399  38.980  1.00  0.00     0.051 A 
ATOM     43  C   UNL     1      10.148  12.643  39.715  1.00  0.00     0.157 A 
BRANCH  41  44
ATOM     44  O   UNL     1       8.389  14.091  38.572  1.00  0.00    -0.504 OA
ATOM     45  H   UNL     1       8.673  14.789  37.941  1.00  0.00     0.293 HD
ENDBRANCH  41  44
BRANCH  43  46
ATOM     46  O   UNL     1      10.060  12.235  41.094  1.00  0.00    -0.504 OA
ATOM     47  H   UNL     1       9.106  12.001  41.496  1.00  0.00     0.293 HD
ENDBRANCH  43  46
ENDBRANCH  28  38
BRANCH  34  48
ATOM     48  O   UNL     1      11.431   9.459  28.967  1.00  0.00    -0.507 OA
ATOM     49  H   UNL     1      11.861   9.597  28.033  1.00  0.00     0.293 HD
ENDBRANCH  34  48
BRANCH  37  50
ATOM     50  O   UNL     1      12.953  13.967  29.671  1.00  0.00    -0.508 OA
ATOM     51  H   UNL     1      13.939  14.117  29.733  1.00  0.00     0.293 HD
ENDBRANCH  37  50
ENDBRANCH  26  27
ENDBRANCH   5  26
BRANCH   4  52
ATOM     52  O   UNL     1       6.311   8.975  30.991  1.00  0.00    -0.384 OA
ATOM     53  H   UNL     1       6.817   9.835  31.143  1.00  0.00     0.211 HD
ENDBRANCH   4  52
TORSDOF 16
ENDMDL
