MODEL 1
REMARK VINA RESULT:    -3.847      0.000      0.000
REMARK INTER + INTRA:          -6.848
REMARK INTER:                  -6.095
REMARK INTRA:                  -0.753
REMARK UNBOUND:                -0.753
REMARK SMILES CCCCCCCCCCCC(=O)[O-]
REMARK SMILES IDX 7 1 8 2 9 3 10 4 11 5 12 6 13 7 14 8 6 9 5 10 4 11 3 12 2 13
REMARK SMILES IDX 1 14
REMARK H PARENT
REMARK Flexibility Score: inf
ROOT
ATOM      1  C   UNL     1     -93.475 146.536 239.162  1.00  0.00     0.000 C 
ENDROOT
BRANCH   1   2
ATOM      2  C   UNL     1     -93.568 148.045 239.436  1.00  0.00     0.000 C 
BRANCH   2   3
ATOM      3  C   UNL     1     -94.787 148.657 238.728  1.00  0.00     0.000 C 
BRANCH   3   4
ATOM      4  C   UNL     1     -96.048 148.671 239.612  1.00  0.00     0.006 C 
BRANCH   4   5
ATOM      5  C   UNL     1     -95.789 149.056 241.077  1.00  0.00     0.053 C 
BRANCH   5   6
ATOM      6  C   UNL     1     -97.024 149.570 241.750  1.00  0.00     0.041 C 
ATOM      7  O   UNL     1     -97.680 150.515 241.236  1.00  0.00    -0.550 OA
ATOM      8  O   UNL     1     -97.434 149.028 242.961  1.00  0.00    -0.550 OA
ENDBRANCH   5   6
ENDBRANCH   4   5
ENDBRANCH   3   4
ENDBRANCH   2   3
ENDBRANCH   1   2
BRANCH   1   9
ATOM      9  C   UNL     1     -92.024 146.044 239.041  1.00  0.00     0.000 C 
BRANCH   9  10
ATOM     10  C   UNL     1     -91.643 145.681 237.596  1.00  0.00    -0.000 C 
BRANCH  10  11
ATOM     11  C   UNL     1     -92.805 145.875 236.605  1.00  0.00    -0.000 C 
BRANCH  11  12
ATOM     12  C   UNL     1     -92.388 146.102 235.137  1.00  0.00    -0.000 C 
BRANCH  12  13
ATOM     13  C   UNL     1     -93.205 147.168 234.386  1.00  0.00    -0.003 C 
ATOM     14  C   UNL     1     -94.430 147.640 235.168  1.00  0.00     0.004 C 
ENDBRANCH  12  13
ENDBRANCH  11  12
ENDBRANCH  10  11
ENDBRANCH   9  10
ENDBRANCH   1   9
TORSDOF 10
ENDMDL
MODEL 2
REMARK VINA RESULT:    -3.811      2.105      3.177
REMARK INTER + INTRA:          -6.793
REMARK INTER:                  -5.556
REMARK INTRA:                  -1.237
REMARK UNBOUND:                -0.753
REMARK SMILES CCCCCCCCCCCC(=O)[O-]
REMARK SMILES IDX 7 1 8 2 9 3 10 4 11 5 12 6 13 7 14 8 6 9 5 10 4 11 3 12 2 13
REMARK SMILES IDX 1 14
REMARK H PARENT
REMARK Flexibility Score: inf
ROOT
ATOM      1  C   UNL     1     -96.270 146.603 240.952  1.00  0.00     0.000 C 
ENDROOT
BRANCH   1   2
ATOM      2  C   UNL     1     -96.914 147.913 240.470  1.00  0.00     0.000 C 
BRANCH   2   3
ATOM      3  C   UNL     1     -96.153 149.131 241.016  1.00  0.00     0.000 C 
BRANCH   3   4
ATOM      4  C   UNL     1     -97.089 150.221 241.570  1.00  0.00     0.006 C 
BRANCH   4   5
ATOM      5  C   UNL     1     -98.375 149.684 242.217  1.00  0.00     0.053 C 
BRANCH   5   6
ATOM      6  C   UNL     1     -98.192 149.392 243.674  1.00  0.00     0.041 C 
ATOM      7  O   UNL     1     -97.828 148.247 244.051  1.00  0.00    -0.550 OA
ATOM      8  O   UNL     1     -98.456 150.376 244.619  1.00  0.00    -0.550 OA
ENDBRANCH   5   6
ENDBRANCH   4   5
ENDBRANCH   3   4
ENDBRANCH   2   3
ENDBRANCH   1   2
BRANCH   1   9
ATOM      9  C   UNL     1     -94.767 146.753 241.242  1.00  0.00     0.000 C 
BRANCH   9  10
ATOM     10  C   UNL     1     -93.924 145.660 240.564  1.00  0.00    -0.000 C 
BRANCH  10  11
ATOM     11  C   UNL     1     -93.098 146.193 239.379  1.00  0.00    -0.000 C 
BRANCH  11  12
ATOM     12  C   UNL     1     -93.481 147.605 238.891  1.00  0.00    -0.000 C 
BRANCH  12  13
ATOM     13  C   UNL     1     -94.294 147.643 237.585  1.00  0.00    -0.003 C 
ATOM     14  C   UNL     1     -95.089 148.937 237.416  1.00  0.00     0.004 C 
ENDBRANCH  12  13
ENDBRANCH  11  12
ENDBRANCH  10  11
ENDBRANCH   9  10
ENDBRANCH   1   9
TORSDOF 10
ENDMDL
MODEL 3
REMARK VINA RESULT:    -3.766      1.589      2.226
REMARK INTER + INTRA:          -6.721
REMARK INTER:                  -5.184
REMARK INTRA:                  -1.537
REMARK UNBOUND:                -0.753
REMARK SMILES CCCCCCCCCCCC(=O)[O-]
REMARK SMILES IDX 7 1 8 2 9 3 10 4 11 5 12 6 13 7 14 8 6 9 5 10 4 11 3 12 2 13
REMARK SMILES IDX 1 14
REMARK H PARENT
REMARK Flexibility Score: inf
ROOT
ATOM      1  C   UNL     1     -93.988 145.908 240.049  1.00  0.00     0.000 C 
ENDROOT
BRANCH   1   2
ATOM      2  C   UNL     1     -94.618 146.910 241.029  1.00  0.00     0.000 C 
BRANCH   2   3
ATOM      3  C   UNL     1     -94.275 148.354 240.632  1.00  0.00     0.000 C 
BRANCH   3   4
ATOM      4  C   UNL     1     -95.399 149.351 240.972  1.00  0.00     0.006 C 
BRANCH   4   5
ATOM      5  C   UNL     1     -96.647 148.709 241.599  1.00  0.00     0.053 C 
BRANCH   5   6
ATOM      6  C   UNL     1     -97.661 149.732 242.003  1.00  0.00     0.041 C 
ATOM      7  O   UNL     1     -98.133 150.530 241.150  1.00  0.00    -0.550 OA
ATOM      8  O   UNL     1     -98.063 149.829 243.330  1.00  0.00    -0.550 OA
ENDBRANCH   5   6
ENDBRANCH   4   5
ENDBRANCH   3   4
ENDBRANCH   2   3
ENDBRANCH   1   2
BRANCH   1   9
ATOM      9  C   UNL     1     -92.846 146.523 239.224  1.00  0.00     0.000 C 
BRANCH   9  10
ATOM     10  C   UNL     1     -93.004 146.269 237.716  1.00  0.00    -0.000 C 
BRANCH  10  11
ATOM     11  C   UNL     1     -94.427 146.565 237.206  1.00  0.00    -0.000 C 
BRANCH  11  12
ATOM     12  C   UNL     1     -94.730 148.051 236.925  1.00  0.00    -0.000 C 
BRANCH  12  13
ATOM     13  C   UNL     1     -96.110 148.535 237.404  1.00  0.00    -0.003 C 
ATOM     14  C   UNL     1     -96.926 147.435 238.081  1.00  0.00     0.004 C 
ENDBRANCH  12  13
ENDBRANCH  11  12
ENDBRANCH  10  11
ENDBRANCH   9  10
ENDBRANCH   1   9
TORSDOF 10
ENDMDL
MODEL 4
REMARK VINA RESULT:    -3.660      3.398      6.407
REMARK INTER + INTRA:          -6.552
REMARK INTER:                  -5.689
REMARK INTRA:                  -0.863
REMARK UNBOUND:                -0.753
REMARK SMILES CCCCCCCCCCCC(=O)[O-]
REMARK SMILES IDX 7 1 8 2 9 3 10 4 11 5 12 6 13 7 14 8 6 9 5 10 4 11 3 12 2 13
REMARK SMILES IDX 1 14
REMARK H PARENT
REMARK Flexibility Score: inf
ROOT
ATOM      1  C   UNL     1     -93.410 146.458 239.029  1.00  0.00     0.000 C 
ENDROOT
BRANCH   1   2
ATOM      2  C   UNL     1     -91.952 145.990 238.902  1.00  0.00     0.000 C 
BRANCH   2   3
ATOM      3  C   UNL     1     -91.624 145.606 237.451  1.00  0.00     0.000 C 
BRANCH   3   4
ATOM      4  C   UNL     1     -92.799 145.853 236.486  1.00  0.00     0.006 C 
BRANCH   4   5
ATOM      5  C   UNL     1     -92.377 146.191 235.047  1.00  0.00     0.053 C 
BRANCH   5   6
ATOM      6  C   UNL     1     -93.228 147.269 234.451  1.00  0.00     0.041 C 
ATOM      7  O   UNL     1     -94.274 147.649 235.039  1.00  0.00    -0.550 OA
ATOM      8  O   UNL     1     -92.884 147.830 233.227  1.00  0.00    -0.550 OA
ENDBRANCH   5   6
ENDBRANCH   4   5
ENDBRANCH   3   4
ENDBRANCH   2   3
ENDBRANCH   1   2
BRANCH   1   9
ATOM      9  C   UNL     1     -93.526 147.961 239.332  1.00  0.00     0.000 C 
BRANCH   9  10
ATOM     10  C   UNL     1     -94.609 148.651 238.486  1.00  0.00    -0.000 C 
BRANCH  10  11
ATOM     11  C   UNL     1     -95.956 148.772 239.221  1.00  0.00    -0.000 C 
BRANCH  11  12
ATOM     12  C   UNL     1     -95.857 148.960 240.749  1.00  0.00    -0.000 C 
BRANCH  12  13
ATOM     13  C   UNL     1     -96.645 147.934 241.583  1.00  0.00    -0.003 C 
ATOM     14  C   UNL     1     -95.824 146.693 241.932  1.00  0.00     0.004 C 
ENDBRANCH  12  13
ENDBRANCH  11  12
ENDBRANCH  10  11
ENDBRANCH   9  10
ENDBRANCH   1   9
TORSDOF 10
ENDMDL
MODEL 5
REMARK VINA RESULT:    -3.642      1.330      2.231
REMARK INTER + INTRA:          -6.524
REMARK INTER:                  -5.444
REMARK INTRA:                  -1.080
REMARK UNBOUND:                -0.753
REMARK SMILES CCCCCCCCCCCC(=O)[O-]
REMARK SMILES IDX 7 1 8 2 9 3 10 4 11 5 12 6 13 7 14 8 6 9 5 10 4 11 3 12 2 13
REMARK SMILES IDX 1 14
REMARK H PARENT
REMARK Flexibility Score: inf
ROOT
ATOM      1  C   UNL     1     -91.882 145.944 238.791  1.00  0.00     0.000 C 
ENDROOT
BRANCH   1   2
ATOM      2  C   UNL     1     -93.143 146.682 239.269  1.00  0.00     0.000 C 
BRANCH   2   3
ATOM      3  C   UNL     1     -93.789 145.952 240.456  1.00  0.00     0.000 C 
BRANCH   3   4
ATOM      4  C   UNL     1     -94.848 146.805 241.179  1.00  0.00     0.006 C 
BRANCH   4   5
ATOM      5  C   UNL     1     -94.807 148.300 240.823  1.00  0.00     0.053 C 
BRANCH   5   6
ATOM      6  C   UNL     1     -96.172 148.914 240.823  1.00  0.00     0.041 C 
ATOM      7  O   UNL     1     -97.097 148.404 240.137  1.00  0.00    -0.550 OA
ATOM      8  O   UNL     1     -96.416 150.070 241.553  1.00  0.00    -0.550 OA
ENDBRANCH   5   6
ENDBRANCH   4   5
ENDBRANCH   3   4
ENDBRANCH   2   3
ENDBRANCH   1   2
BRANCH   1   9
ATOM      9  C   UNL     1     -91.841 145.767 237.264  1.00  0.00     0.000 C 
BRANCH   9  10
ATOM     10  C   UNL     1     -93.239 145.828 236.626  1.00  0.00    -0.000 C 
BRANCH  10  11
ATOM     11  C   UNL     1     -93.273 146.678 235.342  1.00  0.00    -0.000 C 
BRANCH  11  12
ATOM     12  C   UNL     1     -94.462 147.654 235.231  1.00  0.00    -0.000 C 
BRANCH  12  13
ATOM     13  C   UNL     1     -95.338 147.759 236.492  1.00  0.00    -0.003 C 
ATOM     14  C   UNL     1     -95.179 149.094 237.218  1.00  0.00     0.004 C 
ENDBRANCH  12  13
ENDBRANCH  11  12
ENDBRANCH  10  11
ENDBRANCH   9  10
ENDBRANCH   1   9
TORSDOF 10
ENDMDL
MODEL 6
REMARK VINA RESULT:    -3.591      2.643      4.809
REMARK INTER + INTRA:          -6.444
REMARK INTER:                  -5.942
REMARK INTRA:                  -0.502
REMARK UNBOUND:                -0.753
REMARK SMILES CCCCCCCCCCCC(=O)[O-]
REMARK SMILES IDX 7 1 8 2 9 3 10 4 11 5 12 6 13 7 14 8 6 9 5 10 4 11 3 12 2 13
REMARK SMILES IDX 1 14
REMARK H PARENT
REMARK Flexibility Score: inf
ROOT
ATOM      1  C   UNL     1     -96.481 149.757 241.451  1.00  0.00     0.000 C 
ENDROOT
BRANCH   1   2
ATOM      2  C   UNL     1     -97.312 148.878 242.398  1.00  0.00     0.000 C 
BRANCH   2   3
ATOM      3  C   UNL     1     -98.805 149.232 242.305  1.00  0.00     0.000 C 
BRANCH   3   4
ATOM      4  C   UNL     1     -99.347 149.883 243.591  1.00  0.00     0.006 C 
BRANCH   4   5
ATOM      5  C   UNL     1     -98.332 149.950 244.743  1.00  0.00     0.053 C 
BRANCH   5   6
ATOM      6  C   UNL     1     -98.678 151.016 245.735  1.00  0.00     0.041 C 
ATOM      7  O   UNL     1     -99.823 151.541 245.728  1.00  0.00    -0.550 OA
ATOM      8  O   UNL     1     -97.727 151.453 246.648  1.00  0.00    -0.550 OA
ENDBRANCH   5   6
ENDBRANCH   4   5
ENDBRANCH   3   4
ENDBRANCH   2   3
ENDBRANCH   1   2
BRANCH   1   9
ATOM      9  C   UNL     1     -95.297 149.001 240.826  1.00  0.00     0.000 C 
BRANCH   9  10
ATOM     10  C   UNL     1     -95.507 148.706 239.331  1.00  0.00    -0.000 C 
BRANCH  10  11
ATOM     11  C   UNL     1     -94.186 148.469 238.577  1.00  0.00    -0.000 C 
BRANCH  11  12
ATOM     12  C   UNL     1     -93.862 146.994 238.265  1.00  0.00    -0.000 C 
BRANCH  12  13
ATOM     13  C   UNL     1     -92.880 146.323 239.241  1.00  0.00    -0.003 C 
ATOM     14  C   UNL     1     -93.584 145.551 240.357  1.00  0.00     0.004 C 
ENDBRANCH  12  13
ENDBRANCH  11  12
ENDBRANCH  10  11
ENDBRANCH   9  10
ENDBRANCH   1   9
TORSDOF 10
ENDMDL
MODEL 7
REMARK VINA RESULT:    -3.574      2.784      6.626
REMARK INTER + INTRA:          -6.416
REMARK INTER:                  -5.507
REMARK INTRA:                  -0.909
REMARK UNBOUND:                -0.753
REMARK SMILES CCCCCCCCCCCC(=O)[O-]
REMARK SMILES IDX 7 1 8 2 9 3 10 4 11 5 12 6 13 7 14 8 6 9 5 10 4 11 3 12 2 13
REMARK SMILES IDX 1 14
REMARK H PARENT
REMARK Flexibility Score: inf
ROOT
ATOM      1  C   UNL     1     -95.777 148.720 239.258  1.00  0.00     0.000 C 
ENDROOT
BRANCH   1   2
ATOM      2  C   UNL     1     -94.573 148.394 238.361  1.00  0.00     0.000 C 
BRANCH   2   3
ATOM      3  C   UNL     1     -93.385 147.894 239.198  1.00  0.00     0.000 C 
BRANCH   3   4
ATOM      4  C   UNL     1     -93.168 146.374 239.081  1.00  0.00     0.006 C 
BRANCH   4   5
ATOM      5  C   UNL     1     -93.576 145.578 240.332  1.00  0.00     0.053 C 
BRANCH   5   6
ATOM      6  C   UNL     1     -95.047 145.308 240.371  1.00  0.00     0.041 C 
ATOM      7  O   UNL     1     -95.667 145.015 239.314  1.00  0.00    -0.550 OA
ATOM      8  O   UNL     1     -95.743 145.413 241.569  1.00  0.00    -0.550 OA
ENDBRANCH   5   6
ENDBRANCH   4   5
ENDBRANCH   3   4
ENDBRANCH   2   3
ENDBRANCH   1   2
BRANCH   1   9
ATOM      9  C   UNL     1     -95.369 149.043 240.705  1.00  0.00     0.000 C 
BRANCH   9  10
ATOM     10  C   UNL     1     -96.544 148.923 241.690  1.00  0.00    -0.000 C 
BRANCH  10  11
ATOM     11  C   UNL     1     -97.583 150.047 241.520  1.00  0.00    -0.000 C 
BRANCH  11  12
ATOM     12  C   UNL     1     -98.780 149.989 242.490  1.00  0.00    -0.000 C 
BRANCH  12  13
ATOM     13  C   UNL     1     -98.406 149.887 243.980  1.00  0.00    -0.003 C 
ATOM     14  C   UNL     1     -99.069 148.702 244.681  1.00  0.00     0.004 C 
ENDBRANCH  12  13
ENDBRANCH  11  12
ENDBRANCH  10  11
ENDBRANCH   9  10
ENDBRANCH   1   9
TORSDOF 10
ENDMDL
MODEL 8
REMARK VINA RESULT:    -3.561      3.801      5.864
REMARK INTER + INTRA:          -6.396
REMARK INTER:                  -5.438
REMARK INTRA:                  -0.958
REMARK UNBOUND:                -0.753
REMARK SMILES CCCCCCCCCCCC(=O)[O-]
REMARK SMILES IDX 7 1 8 2 9 3 10 4 11 5 12 6 13 7 14 8 6 9 5 10 4 11 3 12 2 13
REMARK SMILES IDX 1 14
REMARK H PARENT
REMARK Flexibility Score: inf
ROOT
ATOM      1  C   UNL     1     -93.980 146.259 240.332  1.00  0.00     0.000 C 
ENDROOT
BRANCH   1   2
ATOM      2  C   UNL     1     -93.069 146.878 239.261  1.00  0.00     0.000 C 
BRANCH   2   3
ATOM      3  C   UNL     1     -91.882 145.954 238.949  1.00  0.00     0.000 C 
BRANCH   3   4
ATOM      4  C   UNL     1     -91.752 145.631 237.449  1.00  0.00     0.006 C 
BRANCH   4   5
ATOM      5  C   UNL     1     -92.958 146.067 236.601  1.00  0.00     0.053 C 
BRANCH   5   6
ATOM      6  C   UNL     1     -92.625 146.132 235.143  1.00  0.00     0.041 C 
ATOM      7  O   UNL     1     -92.787 147.204 234.502  1.00  0.00    -0.550 OA
ATOM      8  O   UNL     1     -92.167 144.998 234.483  1.00  0.00    -0.550 OA
ENDBRANCH   5   6
ENDBRANCH   4   5
ENDBRANCH   3   4
ENDBRANCH   2   3
ENDBRANCH   1   2
BRANCH   1   9
ATOM      9  C   UNL     1     -94.718 147.318 241.167  1.00  0.00     0.000 C 
BRANCH   9  10
ATOM     10  C   UNL     1     -94.975 148.615 240.381  1.00  0.00    -0.000 C 
BRANCH  10  11
ATOM     11  C   UNL     1     -96.368 148.651 239.727  1.00  0.00    -0.000 C 
BRANCH  11  12
ATOM     12  C   UNL     1     -96.386 148.412 238.203  1.00  0.00    -0.000 C 
BRANCH  12  13
ATOM     13  C   UNL     1     -95.173 148.975 237.442  1.00  0.00    -0.003 C 
ATOM     14  C   UNL     1     -95.417 149.100 235.939  1.00  0.00     0.004 C 
ENDBRANCH  12  13
ENDBRANCH  11  12
ENDBRANCH  10  11
ENDBRANCH   9  10
ENDBRANCH   1   9
TORSDOF 10
ENDMDL
MODEL 9
REMARK VINA RESULT:    -3.532      3.504      5.853
REMARK INTER + INTRA:          -6.351
REMARK INTER:                  -5.088
REMARK INTRA:                  -1.263
REMARK UNBOUND:                -0.753
REMARK SMILES CCCCCCCCCCCC(=O)[O-]
REMARK SMILES IDX 7 1 8 2 9 3 10 4 11 5 12 6 13 7 14 8 6 9 5 10 4 11 3 12 2 13
REMARK SMILES IDX 1 14
REMARK H PARENT
REMARK Flexibility Score: inf
ROOT
ATOM      1  C   UNL     1     -93.364 146.668 239.138  1.00  0.00     0.000 C 
ENDROOT
BRANCH   1   2
ATOM      2  C   UNL     1     -93.601 148.183 239.236  1.00  0.00     0.000 C 
BRANCH   2   3
ATOM      3  C   UNL     1     -94.574 148.657 238.145  1.00  0.00     0.000 C 
BRANCH   3   4
ATOM      4  C   UNL     1     -95.296 147.493 237.441  1.00  0.00     0.006 C 
BRANCH   4   5
ATOM      5  C   UNL     1     -95.456 147.673 235.923  1.00  0.00     0.053 C 
BRANCH   5   6
ATOM      6  C   UNL     1     -94.158 147.501 235.197  1.00  0.00     0.041 C 
ATOM      7  O   UNL     1     -93.893 148.215 234.194  1.00  0.00    -0.550 OA
ATOM      8  O   UNL     1     -93.253 146.530 235.608  1.00  0.00    -0.550 OA
ENDBRANCH   5   6
ENDBRANCH   4   5
ENDBRANCH   3   4
ENDBRANCH   2   3
ENDBRANCH   1   2
BRANCH   1   9
ATOM      9  C   UNL     1     -93.885 145.905 240.367  1.00  0.00     0.000 C 
BRANCH   9  10
ATOM     10  C   UNL     1     -94.526 146.835 241.410  1.00  0.00    -0.000 C 
BRANCH  10  11
ATOM     11  C   UNL     1     -96.046 146.628 241.541  1.00  0.00    -0.000 C 
BRANCH  11  12
ATOM     12  C   UNL     1     -96.916 147.780 240.996  1.00  0.00    -0.000 C 
BRANCH  12  13
ATOM     13  C   UNL     1     -96.443 149.192 241.383  1.00  0.00    -0.003 C 
ATOM     14  C   UNL     1     -97.577 150.216 241.401  1.00  0.00     0.004 C 
ENDBRANCH  12  13
ENDBRANCH  11  12
ENDBRANCH  10  11
ENDBRANCH   9  10
ENDBRANCH   1   9
TORSDOF 10
ENDMDL
