MODEL 1
REMARK VINA RESULT:    -3.716      0.000      0.000
REMARK INTER + INTRA:          -9.215
REMARK INTER:                  -8.061
REMARK INTRA:                  -1.153
REMARK UNBOUND:                -1.153
REMARK SMILES CCCCCCCCCCCCCCCCCCCCCC(=O)[O-]
REMARK SMILES IDX 12 1 11 2 10 3 9 4 8 5 7 6 6 7 5 8 4 9 3 10 2 11 1 12 13 13
REMARK SMILES IDX 14 14 15 15 16 16 17 17 18 18 19 19 20 20 21 21 22 22 23 23
REMARK SMILES IDX 24 24
REMARK H PARENT
REMARK Flexibility Score: inf
ROOT
ATOM      1  C   UNL     1      16.946  22.687   4.871  1.00  0.00     0.000 C 
ENDROOT
BRANCH   1   2
ATOM      2  C   UNL     1      15.758  22.148   5.692  1.00  0.00     0.000 C 
BRANCH   2   3
ATOM      3  C   UNL     1      16.037  20.837   6.455  1.00  0.00     0.000 C 
BRANCH   3   4
ATOM      4  C   UNL     1      15.691  20.876   7.957  1.00  0.00    -0.000 C 
BRANCH   4   5
ATOM      5  C   UNL     1      16.862  21.246   8.889  1.00  0.00    -0.000 C 
BRANCH   5   6
ATOM      6  C   UNL     1      16.574  21.102  10.395  1.00  0.00    -0.000 C 
BRANCH   6   7
ATOM      7  C   UNL     1      15.925  22.357  11.002  1.00  0.00    -0.000 C 
BRANCH   7   8
ATOM      8  C   UNL     1      16.822  23.051  12.042  1.00  0.00    -0.000 C 
BRANCH   8   9
ATOM      9  C   UNL     1      17.595  24.284  11.529  1.00  0.00    -0.000 C 
BRANCH   9  10
ATOM     10  C   UNL     1      18.602  24.000  10.401  1.00  0.00    -0.000 C 
BRANCH  10  11
ATOM     11  C   UNL     1      19.836  24.911  10.462  1.00  0.00    -0.003 C 
ATOM     12  C   UNL     1      21.087  24.119  10.833  1.00  0.00     0.004 C 
ENDBRANCH  10  11
ENDBRANCH   9  10
ENDBRANCH   8   9
ENDBRANCH   7   8
ENDBRANCH   6   7
ENDBRANCH   5   6
ENDBRANCH   4   5
ENDBRANCH   3   4
ENDBRANCH   2   3
ENDBRANCH   1   2
BRANCH   1  13
ATOM     13  C   UNL     1      17.787  23.769   5.577  1.00  0.00     0.000 C 
BRANCH  13  14
ATOM     14  C   UNL     1      18.693  24.603   4.649  1.00  0.00     0.000 C 
BRANCH  14  15
ATOM     15  C   UNL     1      19.769  23.801   3.894  1.00  0.00     0.000 C 
BRANCH  15  16
ATOM     16  C   UNL     1      20.256  24.509   2.618  1.00  0.00     0.000 C 
BRANCH  16  17
ATOM     17  C   UNL     1      19.219  25.502   2.069  1.00  0.00     0.000 C 
BRANCH  17  18
ATOM     18  C   UNL     1      18.974  25.325   0.561  1.00  0.00     0.000 C 
BRANCH  18  19
ATOM     19  C   UNL     1      18.595  26.640  -0.142  1.00  0.00     0.000 C 
BRANCH  19  20
ATOM     20  C   UNL     1      17.383  26.511  -1.089  1.00  0.00     0.006 C 
BRANCH  20  21
ATOM     21  C   UNL     1      16.830  25.080  -1.130  1.00  0.00     0.053 C 
BRANCH  21  22
ATOM     22  C   UNL     1      15.522  25.045  -1.857  1.00  0.00     0.041 C 
ATOM     23  O   UNL     1      14.532  24.451  -1.353  1.00  0.00    -0.550 OA
ATOM     24  O   UNL     1      15.410  25.627  -3.112  1.00  0.00    -0.550 OA
ENDBRANCH  21  22
ENDBRANCH  20  21
ENDBRANCH  19  20
ENDBRANCH  18  19
ENDBRANCH  17  18
ENDBRANCH  16  17
ENDBRANCH  15  16
ENDBRANCH  14  15
ENDBRANCH  13  14
ENDBRANCH   1  13
TORSDOF 20
ENDMDL
MODEL 2
REMARK VINA RESULT:    -3.249      4.197      7.869
REMARK INTER + INTRA:          -8.201
REMARK INTER:                  -7.193
REMARK INTRA:                  -1.008
REMARK UNBOUND:                -1.153
REMARK SMILES CCCCCCCCCCCCCCCCCCCCCC(=O)[O-]
REMARK SMILES IDX 12 1 11 2 10 3 9 4 8 5 7 6 6 7 5 8 4 9 3 10 2 11 1 12 13 13
REMARK SMILES IDX 14 14 15 15 16 16 17 17 18 18 19 19 20 20 21 21 22 22 23 23
REMARK SMILES IDX 24 24
REMARK H PARENT
REMARK Flexibility Score: inf
ROOT
ATOM      1  C   UNL     1      16.093  21.864   6.029  1.00  0.00     0.000 C 
ENDROOT
BRANCH   1   2
ATOM      2  C   UNL     1      14.590  21.596   5.814  1.00  0.00     0.000 C 
BRANCH   2   3
ATOM      3  C   UNL     1      13.991  22.232   4.544  1.00  0.00     0.000 C 
BRANCH   3   4
ATOM      4  C   UNL     1      13.059  23.432   4.797  1.00  0.00    -0.000 C 
BRANCH   4   5
ATOM      5  C   UNL     1      11.923  23.608   3.768  1.00  0.00    -0.000 C 
BRANCH   5   6
ATOM      6  C   UNL     1      11.738  22.436   2.787  1.00  0.00    -0.000 C 
BRANCH   6   7
ATOM      7  C   UNL     1      10.309  22.349   2.222  1.00  0.00    -0.000 C 
BRANCH   7   8
ATOM      8  C   UNL     1      10.280  22.035   0.716  1.00  0.00    -0.000 C 
BRANCH   8   9
ATOM      9  C   UNL     1       8.927  21.533   0.173  1.00  0.00    -0.000 C 
BRANCH   9  10
ATOM     10  C   UNL     1       9.016  20.624  -1.065  1.00  0.00    -0.000 C 
BRANCH  10  11
ATOM     11  C   UNL     1       9.071  19.133  -0.705  1.00  0.00    -0.003 C 
ATOM     12  C   UNL     1      10.322  18.474  -1.280  1.00  0.00     0.004 C 
ENDBRANCH  10  11
ENDBRANCH   9  10
ENDBRANCH   8   9
ENDBRANCH   7   8
ENDBRANCH   6   7
ENDBRANCH   5   6
ENDBRANCH   4   5
ENDBRANCH   3   4
ENDBRANCH   2   3
ENDBRANCH   1   2
BRANCH   1  13
ATOM     13  C   UNL     1      16.792  22.609   4.874  1.00  0.00     0.000 C 
BRANCH  13  14
ATOM     14  C   UNL     1      17.786  23.705   5.310  1.00  0.00     0.000 C 
BRANCH  14  15
ATOM     15  C   UNL     1      19.007  23.882   4.389  1.00  0.00     0.000 C 
BRANCH  15  16
ATOM     16  C   UNL     1      19.105  25.296   3.792  1.00  0.00     0.000 C 
BRANCH  16  17
ATOM     17  C   UNL     1      19.711  25.294   2.379  1.00  0.00     0.000 C 
BRANCH  17  18
ATOM     18  C   UNL     1      18.766  25.906   1.331  1.00  0.00     0.000 C 
BRANCH  18  19
ATOM     19  C   UNL     1      19.017  25.365  -0.087  1.00  0.00     0.000 C 
BRANCH  19  20
ATOM     20  C   UNL     1      17.853  25.628  -1.066  1.00  0.00     0.006 C 
BRANCH  20  21
ATOM     21  C   UNL     1      16.683  24.658  -0.849  1.00  0.00     0.053 C 
BRANCH  21  22
ATOM     22  C   UNL     1      15.572  24.958  -1.805  1.00  0.00     0.041 C 
ATOM     23  O   UNL     1      14.407  24.535  -1.577  1.00  0.00    -0.550 OA
ATOM     24  O   UNL     1      15.832  25.661  -2.974  1.00  0.00    -0.550 OA
ENDBRANCH  21  22
ENDBRANCH  20  21
ENDBRANCH  19  20
ENDBRANCH  18  19
ENDBRANCH  17  18
ENDBRANCH  16  17
ENDBRANCH  15  16
ENDBRANCH  14  15
ENDBRANCH  13  14
ENDBRANCH   1  13
TORSDOF 20
ENDMDL
MODEL 3
REMARK VINA RESULT:    -3.082      4.616     10.482
REMARK INTER + INTRA:          -7.838
REMARK INTER:                  -6.592
REMARK INTRA:                  -1.246
REMARK UNBOUND:                -1.153
REMARK SMILES CCCCCCCCCCCCCCCCCCCCCC(=O)[O-]
REMARK SMILES IDX 12 1 11 2 10 3 9 4 8 5 7 6 6 7 5 8 4 9 3 10 2 11 1 12 13 13
REMARK SMILES IDX 14 14 15 15 16 16 17 17 18 18 19 19 20 20 21 21 22 22 23 23
REMARK SMILES IDX 24 24
REMARK H PARENT
REMARK Flexibility Score: inf
ROOT
ATOM      1  C   UNL     1      17.025  22.546   4.869  1.00  0.00     0.000 C 
ENDROOT
BRANCH   1   2
ATOM      2  C   UNL     1      17.756  23.712   5.564  1.00  0.00     0.000 C 
BRANCH   2   3
ATOM      3  C   UNL     1      18.664  24.552   4.643  1.00  0.00     0.000 C 
BRANCH   3   4
ATOM      4  C   UNL     1      19.637  23.735   3.771  1.00  0.00    -0.000 C 
BRANCH   4   5
ATOM      5  C   UNL     1      20.251  24.500   2.581  1.00  0.00    -0.000 C 
BRANCH   5   6
ATOM      6  C   UNL     1      19.278  24.817   1.432  1.00  0.00    -0.000 C 
BRANCH   6   7
ATOM      7  C   UNL     1      18.883  26.303   1.374  1.00  0.00    -0.000 C 
BRANCH   7   8
ATOM      8  C   UNL     1      18.523  26.772  -0.047  1.00  0.00    -0.000 C 
BRANCH   8   9
ATOM      9  C   UNL     1      18.705  25.716  -1.156  1.00  0.00    -0.000 C 
BRANCH   9  10
ATOM     10  C   UNL     1      17.436  24.927  -1.522  1.00  0.00    -0.000 C 
BRANCH  10  11
ATOM     11  C   UNL     1      16.145  25.687  -1.184  1.00  0.00    -0.003 C 
ATOM     12  C   UNL     1      14.923  24.982  -1.766  1.00  0.00     0.004 C 
ENDBRANCH  10  11
ENDBRANCH   9  10
ENDBRANCH   8   9
ENDBRANCH   7   8
ENDBRANCH   6   7
ENDBRANCH   5   6
ENDBRANCH   4   5
ENDBRANCH   3   4
ENDBRANCH   2   3
ENDBRANCH   1   2
BRANCH   1  13
ATOM     13  C   UNL     1      15.600  22.271   5.387  1.00  0.00     0.000 C 
BRANCH  13  14
ATOM     14  C   UNL     1      15.498  21.183   6.475  1.00  0.00     0.000 C 
BRANCH  14  15
ATOM     15  C   UNL     1      16.673  21.143   7.469  1.00  0.00     0.000 C 
BRANCH  15  16
ATOM     16  C   UNL     1      16.227  20.842   8.910  1.00  0.00     0.000 C 
BRANCH  16  17
ATOM     17  C   UNL     1      17.010  21.662   9.949  1.00  0.00     0.000 C 
BRANCH  17  18
ATOM     18  C   UNL     1      18.300  22.267   9.371  1.00  0.00     0.000 C 
BRANCH  18  19
ATOM     19  C   UNL     1      18.508  23.734   9.785  1.00  0.00     0.000 C 
BRANCH  19  20
ATOM     20  C   UNL     1      18.438  23.964  11.310  1.00  0.00     0.006 C 
BRANCH  20  21
ATOM     21  C   UNL     1      17.167  24.719  11.724  1.00  0.00     0.053 C 
BRANCH  21  22
ATOM     22  C   UNL     1      16.608  24.147  12.989  1.00  0.00     0.041 C 
ATOM     23  O   UNL     1      16.444  22.904  13.105  1.00  0.00    -0.550 OA
ATOM     24  O   UNL     1      16.222  24.992  14.021  1.00  0.00    -0.550 OA
ENDBRANCH  21  22
ENDBRANCH  20  21
ENDBRANCH  19  20
ENDBRANCH  18  19
ENDBRANCH  17  18
ENDBRANCH  16  17
ENDBRANCH  15  16
ENDBRANCH  14  15
ENDBRANCH  13  14
ENDBRANCH   1  13
TORSDOF 20
ENDMDL
MODEL 4
REMARK VINA RESULT:    -3.038      4.327      6.857
REMARK INTER + INTRA:          -7.742
REMARK INTER:                  -6.048
REMARK INTRA:                  -1.694
REMARK UNBOUND:                -1.153
REMARK SMILES CCCCCCCCCCCCCCCCCCCCCC(=O)[O-]
REMARK SMILES IDX 12 1 11 2 10 3 9 4 8 5 7 6 6 7 5 8 4 9 3 10 2 11 1 12 13 13
REMARK SMILES IDX 14 14 15 15 16 16 17 17 18 18 19 19 20 20 21 21 22 22 23 23
REMARK SMILES IDX 24 24
REMARK H PARENT
REMARK Flexibility Score: inf
ROOT
ATOM      1  C   UNL     1      19.678  25.133   2.307  1.00  0.00     0.000 C 
ENDROOT
BRANCH   1   2
ATOM      2  C   UNL     1      19.201  25.227   3.770  1.00  0.00     0.000 C 
BRANCH   2   3
ATOM      3  C   UNL     1      19.070  23.875   4.500  1.00  0.00     0.000 C 
BRANCH   3   4
ATOM      4  C   UNL     1      17.781  23.707   5.326  1.00  0.00    -0.000 C 
BRANCH   4   5
ATOM      5  C   UNL     1      16.761  22.702   4.751  1.00  0.00    -0.000 C 
BRANCH   5   6
ATOM      6  C   UNL     1      16.087  21.785   5.788  1.00  0.00    -0.000 C 
BRANCH   6   7
ATOM      7  C   UNL     1      14.552  21.797   5.688  1.00  0.00    -0.000 C 
BRANCH   7   8
ATOM      8  C   UNL     1      13.985  23.188   5.354  1.00  0.00    -0.000 C 
BRANCH   8   9
ATOM      9  C   UNL     1      12.838  23.204   4.324  1.00  0.00    -0.000 C 
BRANCH   9  10
ATOM     10  C   UNL     1      12.949  22.154   3.205  1.00  0.00    -0.000 C 
BRANCH  10  11
ATOM     11  C   UNL     1      11.637  21.969   2.430  1.00  0.00    -0.003 C 
ATOM     12  C   UNL     1      10.502  22.762   3.071  1.00  0.00     0.004 C 
ENDBRANCH  10  11
ENDBRANCH   9  10
ENDBRANCH   8   9
ENDBRANCH   7   8
ENDBRANCH   6   7
ENDBRANCH   5   6
ENDBRANCH   4   5
ENDBRANCH   3   4
ENDBRANCH   2   3
ENDBRANCH   1   2
BRANCH   1  13
ATOM     13  C   UNL     1      18.902  24.127   1.434  1.00  0.00     0.000 C 
BRANCH  13  14
ATOM     14  C   UNL     1      19.490  23.892   0.027  1.00  0.00     0.000 C 
BRANCH  14  15
ATOM     15  C   UNL     1      18.741  24.597  -1.119  1.00  0.00     0.000 C 
BRANCH  15  16
ATOM     16  C   UNL     1      17.307  25.002  -0.735  1.00  0.00     0.000 C 
BRANCH  16  17
ATOM     17  C   UNL     1      17.173  26.513  -0.486  1.00  0.00     0.000 C 
BRANCH  17  18
ATOM     18  C   UNL     1      18.509  27.259  -0.649  1.00  0.00     0.000 C 
BRANCH  18  19
ATOM     19  C   UNL     1      18.843  28.155   0.555  1.00  0.00     0.000 C 
BRANCH  19  20
ATOM     20  C   UNL     1      20.021  29.121   0.301  1.00  0.00     0.006 C 
BRANCH  20  21
ATOM     21  C   UNL     1      19.828  30.469   1.009  1.00  0.00     0.053 C 
BRANCH  21  22
ATOM     22  C   UNL     1      20.984  31.377   0.728  1.00  0.00     0.041 C 
ATOM     23  O   UNL     1      22.149  30.908   0.631  1.00  0.00    -0.550 OA
ATOM     24  O   UNL     1      20.781  32.746   0.622  1.00  0.00    -0.550 OA
ENDBRANCH  21  22
ENDBRANCH  20  21
ENDBRANCH  19  20
ENDBRANCH  18  19
ENDBRANCH  17  18
ENDBRANCH  16  17
ENDBRANCH  15  16
ENDBRANCH  14  15
ENDBRANCH  13  14
ENDBRANCH   1  13
TORSDOF 20
ENDMDL
MODEL 5
REMARK VINA RESULT:    -2.879      3.689      8.694
REMARK INTER + INTRA:          -7.397
REMARK INTER:                  -6.754
REMARK INTRA:                  -0.644
REMARK UNBOUND:                -1.153
REMARK SMILES CCCCCCCCCCCCCCCCCCCCCC(=O)[O-]
REMARK SMILES IDX 12 1 11 2 10 3 9 4 8 5 7 6 6 7 5 8 4 9 3 10 2 11 1 12 13 13
REMARK SMILES IDX 14 14 15 15 16 16 17 17 18 18 19 19 20 20 21 21 22 22 23 23
REMARK SMILES IDX 24 24
REMARK H PARENT
REMARK Flexibility Score: inf
ROOT
ATOM      1  C   UNL     1      19.239  25.594   2.567  1.00  0.00     0.000 C 
ENDROOT
BRANCH   1   2
ATOM      2  C   UNL     1      19.958  24.480   1.781  1.00  0.00     0.000 C 
BRANCH   2   3
ATOM      3  C   UNL     1      19.344  24.154   0.405  1.00  0.00     0.000 C 
BRANCH   3   4
ATOM      4  C   UNL     1      17.811  23.996   0.400  1.00  0.00    -0.000 C 
BRANCH   4   5
ATOM      5  C   UNL     1      17.101  24.529  -0.861  1.00  0.00    -0.000 C 
BRANCH   5   6
ATOM      6  C   UNL     1      16.891  26.054  -0.902  1.00  0.00    -0.000 C 
BRANCH   6   7
ATOM      7  C   UNL     1      18.206  26.835  -1.068  1.00  0.00    -0.000 C 
BRANCH   7   8
ATOM      8  C   UNL     1      18.523  27.736   0.138  1.00  0.00    -0.000 C 
BRANCH   8   9
ATOM      9  C   UNL     1      19.659  28.756  -0.080  1.00  0.00    -0.000 C 
BRANCH   9  10
ATOM     10  C   UNL     1      19.674  29.938   0.904  1.00  0.00    -0.000 C 
BRANCH  10  11
ATOM     11  C   UNL     1      20.923  30.819   0.758  1.00  0.00    -0.003 C 
ATOM     12  C   UNL     1      20.592  32.288   1.002  1.00  0.00     0.004 C 
ENDBRANCH  10  11
ENDBRANCH   9  10
ENDBRANCH   8   9
ENDBRANCH   7   8
ENDBRANCH   6   7
ENDBRANCH   5   6
ENDBRANCH   4   5
ENDBRANCH   3   4
ENDBRANCH   2   3
ENDBRANCH   1   2
BRANCH   1  13
ATOM     13  C   UNL     1      19.131  25.352   4.086  1.00  0.00     0.000 C 
BRANCH  13  14
ATOM     14  C   UNL     1      18.979  23.876   4.504  1.00  0.00     0.000 C 
BRANCH  14  15
ATOM     15  C   UNL     1      17.840  23.593   5.501  1.00  0.00     0.000 C 
BRANCH  15  16
ATOM     16  C   UNL     1      16.713  22.740   4.893  1.00  0.00     0.000 C 
BRANCH  16  17
ATOM     17  C   UNL     1      16.247  21.624   5.843  1.00  0.00     0.000 C 
BRANCH  17  18
ATOM     18  C   UNL     1      14.721  21.609   6.030  1.00  0.00     0.000 C 
BRANCH  18  19
ATOM     19  C   UNL     1      13.962  22.117   4.792  1.00  0.00     0.000 C 
BRANCH  19  20
ATOM     20  C   UNL     1      13.203  23.441   5.030  1.00  0.00     0.006 C 
BRANCH  20  21
ATOM     21  C   UNL     1      12.430  23.897   3.786  1.00  0.00     0.053 C 
BRANCH  21  22
ATOM     22  C   UNL     1      11.796  22.725   3.104  1.00  0.00     0.041 C 
ATOM     23  O   UNL     1      12.511  21.867   2.522  1.00  0.00    -0.550 OA
ATOM     24  O   UNL     1      10.413  22.607   3.071  1.00  0.00    -0.550 OA
ENDBRANCH  21  22
ENDBRANCH  20  21
ENDBRANCH  19  20
ENDBRANCH  18  19
ENDBRANCH  17  18
ENDBRANCH  16  17
ENDBRANCH  15  16
ENDBRANCH  14  15
ENDBRANCH  13  14
ENDBRANCH   1  13
TORSDOF 20
ENDMDL
MODEL 6
REMARK VINA RESULT:    -2.837      3.679     10.506
REMARK INTER + INTRA:          -7.308
REMARK INTER:                  -6.087
REMARK INTRA:                  -1.221
REMARK UNBOUND:                -1.153
REMARK SMILES CCCCCCCCCCCCCCCCCCCCCC(=O)[O-]
REMARK SMILES IDX 12 1 11 2 10 3 9 4 8 5 7 6 6 7 5 8 4 9 3 10 2 11 1 12 13 13
REMARK SMILES IDX 14 14 15 15 16 16 17 17 18 18 19 19 20 20 21 21 22 22 23 23
REMARK SMILES IDX 24 24
REMARK H PARENT
REMARK Flexibility Score: inf
ROOT
ATOM      1  C   UNL     1      17.794  23.863   5.453  1.00  0.00     0.000 C 
ENDROOT
BRANCH   1   2
ATOM      2  C   UNL     1      18.695  24.694   4.519  1.00  0.00     0.000 C 
BRANCH   2   3
ATOM      3  C   UNL     1      19.829  23.903   3.836  1.00  0.00     0.000 C 
BRANCH   3   4
ATOM      4  C   UNL     1      20.169  24.362   2.405  1.00  0.00    -0.000 C 
BRANCH   4   5
ATOM      5  C   UNL     1      18.978  24.905   1.590  1.00  0.00    -0.000 C 
BRANCH   5   6
ATOM      6  C   UNL     1      18.931  26.435   1.433  1.00  0.00    -0.000 C 
BRANCH   6   7
ATOM      7  C   UNL     1      18.851  26.884  -0.037  1.00  0.00    -0.000 C 
BRANCH   7   8
ATOM      8  C   UNL     1      18.631  25.711  -1.009  1.00  0.00    -0.000 C 
BRANCH   8   9
ATOM      9  C   UNL     1      17.269  25.699  -1.732  1.00  0.00    -0.000 C 
BRANCH   9  10
ATOM     10  C   UNL     1      16.156  24.913  -1.017  1.00  0.00    -0.000 C 
BRANCH  10  11
ATOM     11  C   UNL     1      14.823  24.945  -1.777  1.00  0.00    -0.003 C 
ATOM     12  C   UNL     1      15.015  25.443  -3.206  1.00  0.00     0.004 C 
ENDBRANCH  10  11
ENDBRANCH   9  10
ENDBRANCH   8   9
ENDBRANCH   7   8
ENDBRANCH   6   7
ENDBRANCH   5   6
ENDBRANCH   4   5
ENDBRANCH   3   4
ENDBRANCH   2   3
ENDBRANCH   1   2
BRANCH   1  13
ATOM     13  C   UNL     1      17.266  22.547   4.847  1.00  0.00     0.000 C 
BRANCH  13  14
ATOM     14  C   UNL     1      15.969  22.008   5.482  1.00  0.00     0.000 C 
BRANCH  14  15
ATOM     15  C   UNL     1      16.163  20.856   6.485  1.00  0.00     0.000 C 
BRANCH  15  16
ATOM     16  C   UNL     1      15.776  21.243   7.923  1.00  0.00     0.000 C 
BRANCH  16  17
ATOM     17  C   UNL     1      16.990  21.282   8.865  1.00  0.00     0.000 C 
BRANCH  17  18
ATOM     18  C   UNL     1      16.598  21.099  10.340  1.00  0.00     0.000 C 
BRANCH  18  19
ATOM     19  C   UNL     1      16.119  22.404  10.998  1.00  0.00     0.000 C 
BRANCH  19  20
ATOM     20  C   UNL     1      17.186  23.080  11.885  1.00  0.00     0.006 C 
BRANCH  20  21
ATOM     21  C   UNL     1      17.735  24.367  11.254  1.00  0.00     0.053 C 
BRANCH  21  22
ATOM     22  C   UNL     1      18.996  24.083  10.500  1.00  0.00     0.041 C 
ATOM     23  O   UNL     1      20.116  24.303  11.033  1.00  0.00    -0.550 OA
ATOM     24  O   UNL     1      18.933  23.623   9.191  1.00  0.00    -0.550 OA
ENDBRANCH  21  22
ENDBRANCH  20  21
ENDBRANCH  19  20
ENDBRANCH  18  19
ENDBRANCH  17  18
ENDBRANCH  16  17
ENDBRANCH  15  16
ENDBRANCH  14  15
ENDBRANCH  13  14
ENDBRANCH   1  13
TORSDOF 20
ENDMDL
MODEL 7
REMARK VINA RESULT:    -2.523      1.125      2.010
REMARK INTER + INTRA:          -6.626
REMARK INTER:                  -5.641
REMARK INTRA:                  -0.986
REMARK UNBOUND:                -1.153
REMARK SMILES CCCCCCCCCCCCCCCCCCCCCC(=O)[O-]
REMARK SMILES IDX 12 1 11 2 10 3 9 4 8 5 7 6 6 7 5 8 4 9 3 10 2 11 1 12 13 13
REMARK SMILES IDX 14 14 15 15 16 16 17 17 18 18 19 19 20 20 21 21 22 22 23 23
REMARK SMILES IDX 24 24
REMARK H PARENT
REMARK Flexibility Score: inf
ROOT
ATOM      1  C   UNL     1      15.284  21.220   5.907  1.00  0.00     0.000 C 
ENDROOT
BRANCH   1   2
ATOM      2  C   UNL     1      16.328  20.819   6.969  1.00  0.00     0.000 C 
BRANCH   2   3
ATOM      3  C   UNL     1      15.843  20.925   8.429  1.00  0.00     0.000 C 
BRANCH   3   4
ATOM      4  C   UNL     1      16.878  21.500   9.416  1.00  0.00    -0.000 C 
BRANCH   4   5
ATOM      5  C   UNL     1      16.534  21.314  10.908  1.00  0.00    -0.000 C 
BRANCH   5   6
ATOM      6  C   UNL     1      15.466  22.275  11.460  1.00  0.00    -0.000 C 
BRANCH   6   7
ATOM      7  C   UNL     1      16.026  23.258  12.502  1.00  0.00    -0.000 C 
BRANCH   7   8
ATOM      8  C   UNL     1      17.509  23.598  12.267  1.00  0.00    -0.000 C 
BRANCH   8   9
ATOM      9  C   UNL     1      17.776  24.680  11.200  1.00  0.00    -0.000 C 
BRANCH   9  10
ATOM     10  C   UNL     1      18.836  24.311  10.148  1.00  0.00    -0.000 C 
BRANCH  10  11
ATOM     11  C   UNL     1      20.200  24.960  10.424  1.00  0.00    -0.003 C 
ATOM     12  C   UNL     1      21.209  23.930  10.922  1.00  0.00     0.004 C 
ENDBRANCH  10  11
ENDBRANCH   9  10
ENDBRANCH   8   9
ENDBRANCH   7   8
ENDBRANCH   6   7
ENDBRANCH   5   6
ENDBRANCH   4   5
ENDBRANCH   3   4
ENDBRANCH   2   3
ENDBRANCH   1   2
BRANCH   1  13
ATOM     13  C   UNL     1      15.581  22.542   5.171  1.00  0.00     0.000 C 
BRANCH  13  14
ATOM     14  C   UNL     1      16.929  23.201   5.527  1.00  0.00     0.000 C 
BRANCH  14  15
ATOM     15  C   UNL     1      17.989  23.162   4.411  1.00  0.00     0.000 C 
BRANCH  15  16
ATOM     16  C   UNL     1      19.174  24.106   4.680  1.00  0.00     0.000 C 
BRANCH  16  17
ATOM     17  C   UNL     1      19.340  25.164   3.578  1.00  0.00     0.000 C 
BRANCH  17  18
ATOM     18  C   UNL     1      19.897  24.573   2.272  1.00  0.00     0.000 C 
BRANCH  18  19
ATOM     19  C   UNL     1      19.059  24.953   1.040  1.00  0.00     0.000 C 
BRANCH  19  20
ATOM     20  C   UNL     1      18.780  26.467   0.921  1.00  0.00     0.006 C 
BRANCH  20  21
ATOM     21  C   UNL     1      18.058  26.823  -0.386  1.00  0.00     0.053 C 
BRANCH  21  22
ATOM     22  C   UNL     1      17.730  25.583  -1.157  1.00  0.00     0.041 C 
ATOM     23  O   UNL     1      16.611  25.023  -1.012  1.00  0.00    -0.550 OA
ATOM     24  O   UNL     1      18.680  25.017  -1.998  1.00  0.00    -0.550 OA
ENDBRANCH  21  22
ENDBRANCH  20  21
ENDBRANCH  19  20
ENDBRANCH  18  19
ENDBRANCH  17  18
ENDBRANCH  16  17
ENDBRANCH  15  16
ENDBRANCH  14  15
ENDBRANCH  13  14
ENDBRANCH   1  13
TORSDOF 20
ENDMDL
MODEL 8
REMARK VINA RESULT:    -2.427      9.103     12.382
REMARK INTER + INTRA:          -6.417
REMARK INTER:                  -5.385
REMARK INTRA:                  -1.032
REMARK UNBOUND:                -1.153
REMARK SMILES CCCCCCCCCCCCCCCCCCCCCC(=O)[O-]
REMARK SMILES IDX 12 1 11 2 10 3 9 4 8 5 7 6 6 7 5 8 4 9 3 10 2 11 1 12 13 13
REMARK SMILES IDX 14 14 15 15 16 16 17 17 18 18 19 19 20 20 21 21 22 22 23 23
REMARK SMILES IDX 24 24
REMARK H PARENT
REMARK Flexibility Score: inf
ROOT
ATOM      1  C   UNL     1      17.421  31.505  10.145  1.00  0.00     0.000 C 
ENDROOT
BRANCH   1   2
ATOM      2  C   UNL     1      16.251  30.686  10.723  1.00  0.00     0.000 C 
BRANCH   2   3
ATOM      3  C   UNL     1      16.342  29.165  10.485  1.00  0.00     0.000 C 
BRANCH   3   4
ATOM      4  C   UNL     1      15.716  28.296  11.593  1.00  0.00    -0.000 C 
BRANCH   4   5
ATOM      5  C   UNL     1      16.379  26.919  11.799  1.00  0.00    -0.000 C 
BRANCH   5   6
ATOM      6  C   UNL     1      16.151  26.281  13.182  1.00  0.00    -0.000 C 
BRANCH   6   7
ATOM      7  C   UNL     1      16.415  24.766  13.192  1.00  0.00    -0.000 C 
BRANCH   7   8
ATOM      8  C   UNL     1      16.589  24.179  11.780  1.00  0.00    -0.000 C 
BRANCH   8   9
ATOM      9  C   UNL     1      17.933  23.468  11.521  1.00  0.00    -0.000 C 
BRANCH   9  10
ATOM     10  C   UNL     1      18.651  23.880  10.224  1.00  0.00    -0.000 C 
BRANCH  10  11
ATOM     11  C   UNL     1      19.766  24.909  10.463  1.00  0.00    -0.003 C 
ATOM     12  C   UNL     1      21.070  24.225  10.860  1.00  0.00     0.004 C 
ENDBRANCH  10  11
ENDBRANCH   9  10
ENDBRANCH   8   9
ENDBRANCH   7   8
ENDBRANCH   6   7
ENDBRANCH   5   6
ENDBRANCH   4   5
ENDBRANCH   3   4
ENDBRANCH   2   3
ENDBRANCH   1   2
BRANCH   1  13
ATOM     13  C   UNL     1      17.345  33.023  10.406  1.00  0.00     0.000 C 
BRANCH  13  14
ATOM     14  C   UNL     1      18.706  33.742  10.489  1.00  0.00     0.000 C 
BRANCH  14  15
ATOM     15  C   UNL     1      19.221  34.003  11.916  1.00  0.00     0.000 C 
BRANCH  15  16
ATOM     16  C   UNL     1      20.684  34.479  11.945  1.00  0.00     0.000 C 
BRANCH  16  17
ATOM     17  C   UNL     1      21.158  34.825  13.366  1.00  0.00     0.000 C 
BRANCH  17  18
ATOM     18  C   UNL     1      22.030  33.718  13.982  1.00  0.00     0.000 C 
BRANCH  18  19
ATOM     19  C   UNL     1      22.979  33.068  12.962  1.00  0.00     0.000 C 
BRANCH  19  20
ATOM     20  C   UNL     1      24.432  32.930  13.467  1.00  0.00     0.006 C 
BRANCH  20  21
ATOM     21  C   UNL     1      25.091  34.294  13.717  1.00  0.00     0.053 C 
BRANCH  21  22
ATOM     22  C   UNL     1      25.839  34.744  12.502  1.00  0.00     0.041 C 
ATOM     23  O   UNL     1      26.597  33.944  11.891  1.00  0.00    -0.550 OA
ATOM     24  O   UNL     1      25.739  36.061  12.074  1.00  0.00    -0.550 OA
ENDBRANCH  21  22
ENDBRANCH  20  21
ENDBRANCH  19  20
ENDBRANCH  18  19
ENDBRANCH  17  18
ENDBRANCH  16  17
ENDBRANCH  15  16
ENDBRANCH  14  15
ENDBRANCH  13  14
ENDBRANCH   1  13
TORSDOF 20
ENDMDL
MODEL 9
REMARK VINA RESULT:    -2.332      7.117     13.125
REMARK INTER + INTRA:          -6.213
REMARK INTER:                  -4.596
REMARK INTRA:                  -1.617
REMARK UNBOUND:                -1.153
REMARK SMILES CCCCCCCCCCCCCCCCCCCCCC(=O)[O-]
REMARK SMILES IDX 12 1 11 2 10 3 9 4 8 5 7 6 6 7 5 8 4 9 3 10 2 11 1 12 13 13
REMARK SMILES IDX 14 14 15 15 16 16 17 17 18 18 19 19 20 20 21 21 22 22 23 23
REMARK SMILES IDX 24 24
REMARK H PARENT
REMARK Flexibility Score: inf
ROOT
ATOM      1  C   UNL     1      20.410  31.009   1.462  1.00  0.00     0.000 C 
ENDROOT
BRANCH   1   2
ATOM      2  C   UNL     1      20.106  32.489   1.158  1.00  0.00     0.000 C 
BRANCH   2   3
ATOM      3  C   UNL     1      20.753  33.034  -0.132  1.00  0.00     0.000 C 
BRANCH   3   4
ATOM      4  C   UNL     1      20.358  34.479  -0.495  1.00  0.00    -0.000 C 
BRANCH   4   5
ATOM      5  C   UNL     1      20.145  34.740  -2.000  1.00  0.00    -0.000 C 
BRANCH   5   6
ATOM      6  C   UNL     1      21.127  35.739  -2.639  1.00  0.00    -0.000 C 
BRANCH   6   7
ATOM      7  C   UNL     1      20.600  37.185  -2.628  1.00  0.00    -0.000 C 
BRANCH   7   8
ATOM      8  C   UNL     1      19.626  37.475  -3.783  1.00  0.00    -0.000 C 
BRANCH   8   9
ATOM      9  C   UNL     1      18.239  38.001  -3.360  1.00  0.00    -0.000 C 
BRANCH   9  10
ATOM     10  C   UNL     1      17.934  37.903  -1.856  1.00  0.00    -0.000 C 
BRANCH  10  11
ATOM     11  C   UNL     1      16.779  36.942  -1.543  1.00  0.00    -0.003 C 
ATOM     12  C   UNL     1      16.652  35.867  -2.619  1.00  0.00     0.004 C 
ENDBRANCH  10  11
ENDBRANCH   9  10
ENDBRANCH   8   9
ENDBRANCH   7   8
ENDBRANCH   6   7
ENDBRANCH   5   6
ENDBRANCH   4   5
ENDBRANCH   3   4
ENDBRANCH   2   3
ENDBRANCH   1   2
BRANCH   1  13
ATOM     13  C   UNL     1      20.034  30.024   0.337  1.00  0.00     0.000 C 
BRANCH  13  14
ATOM     14  C   UNL     1      19.327  28.736   0.805  1.00  0.00     0.000 C 
BRANCH  14  15
ATOM     15  C   UNL     1      18.923  27.767  -0.321  1.00  0.00     0.000 C 
BRANCH  15  16
ATOM     16  C   UNL     1      17.548  27.118  -0.085  1.00  0.00     0.000 C 
BRANCH  16  17
ATOM     17  C   UNL     1      17.229  26.029  -1.123  1.00  0.00     0.000 C 
BRANCH  17  18
ATOM     18  C   UNL     1      18.261  24.889  -1.117  1.00  0.00     0.000 C 
BRANCH  18  19
ATOM     19  C   UNL     1      18.295  24.121   0.215  1.00  0.00     0.000 C 
BRANCH  19  20
ATOM     20  C   UNL     1      19.614  24.294   0.997  1.00  0.00     0.006 C 
BRANCH  20  21
ATOM     21  C   UNL     1      19.434  25.153   2.256  1.00  0.00     0.053 C 
BRANCH  21  22
ATOM     22  C   UNL     1      19.955  24.433   3.460  1.00  0.00     0.041 C 
ATOM     23  O   UNL     1      19.160  24.027   4.350  1.00  0.00    -0.550 OA
ATOM     24  O   UNL     1      21.322  24.253   3.623  1.00  0.00    -0.550 OA
ENDBRANCH  21  22
ENDBRANCH  20  21
ENDBRANCH  19  20
ENDBRANCH  18  19
ENDBRANCH  17  18
ENDBRANCH  16  17
ENDBRANCH  15  16
ENDBRANCH  14  15
ENDBRANCH  13  14
ENDBRANCH   1  13
TORSDOF 20
ENDMDL
