MODEL 1
REMARK VINA RESULT:    -9.013      0.000      0.000
REMARK INTER + INTRA:         -13.768
REMARK INTER:                 -12.964
REMARK INTRA:                  -0.804
REMARK UNBOUND:                -0.804
REMARK SMILES O=c1cc(-c2ccc(O)c(O)c2)oc2cc(O[C@@H]3O[C@@H](CO)[C@@H](O)[C@@H](O)[C@@H]3O)cc(O)c12
REMARK SMILES IDX 17 1 16 2 4 3 3 4 13 5 2 6 14 7 1 8 32 9 15 10 30 11 29 12
REMARK SMILES IDX 5 13 6 14 7 15 8 16 12 17 10 18 9 19 11 21 31 23 18 25 27 26
REMARK SMILES IDX 19 27 25 28 20 29 23 30 28 31 26 33 21 35 22 36 24 38
REMARK H PARENT 9 20 11 22 31 24 28 32 26 34 22 37 24 39
REMARK Flexibility Score: inf
ROOT
ATOM      1  O   UNL     1     -12.370 -19.374  31.910  1.00  0.00    -0.462 OA
ENDROOT
BRANCH   1   2
ATOM      2  C   UNL     1     -11.836 -18.547  30.908  1.00  0.00     0.130 A 
ATOM      3  C   UNL     1      -8.338 -15.519  29.740  1.00  0.00     0.138 A 
ATOM      4  C   UNL     1      -8.854 -15.321  28.449  1.00  0.00     0.100 A 
ATOM      5  O   UNL     1      -8.964 -16.345  30.575  1.00  0.00    -0.456 OA
ATOM      6  C   UNL     1     -10.022 -15.983  28.067  1.00  0.00     0.197 A 
ATOM      7  C   UNL     1     -10.079 -16.998  30.258  1.00  0.00     0.146 A 
ATOM      8  O   UNL     1     -10.477 -15.800  26.906  1.00  0.00    -0.289 OA
ATOM      9  C   UNL     1     -10.665 -16.843  28.981  1.00  0.00     0.107 A 
ATOM     10  C   UNL     1     -10.666 -17.842  31.203  1.00  0.00     0.094 A 
ATOM     11  C   UNL     1     -11.851 -17.549  28.677  1.00  0.00     0.134 A 
ATOM     12  C   UNL     1     -12.428 -18.390  29.640  1.00  0.00     0.093 A 
BRANCH   3  13
ATOM     13  C   UNL     1      -7.099 -14.844  30.201  1.00  0.00     0.021 A 
ATOM     14  C   UNL     1      -6.039 -14.560  29.318  1.00  0.00     0.016 A 
ATOM     15  C   UNL     1      -4.888 -13.914  29.778  1.00  0.00     0.051 A 
ATOM     16  C   UNL     1      -4.778 -13.534  31.122  1.00  0.00     0.157 A 
ATOM     17  C   UNL     1      -6.986 -14.446  31.545  1.00  0.00     0.062 A 
ATOM     18  C   UNL     1      -5.834 -13.800  32.008  1.00  0.00     0.158 A 
BRANCH  16  19
ATOM     19  O   UNL     1      -3.629 -12.890  31.576  1.00  0.00    -0.504 OA
ATOM     20  H   UNL     1      -3.013 -12.393  30.943  1.00  0.00     0.293 HD
ENDBRANCH  16  19
BRANCH  18  21
ATOM     21  O   UNL     1      -5.759 -13.431  33.350  1.00  0.00    -0.504 OA
ATOM     22  H   UNL     1      -4.956 -12.943  33.730  1.00  0.00     0.293 HD
ENDBRANCH  18  21
ENDBRANCH   3  13
BRANCH  11  23
ATOM     23  O   UNL     1     -12.460 -17.420  27.428  1.00  0.00    -0.507 OA
ATOM     24  H   UNL     1     -12.764 -18.228  26.897  1.00  0.00     0.293 HD
ENDBRANCH  11  23
ENDBRANCH   1   2
BRANCH   1  25
ATOM     25  C   UNL     1     -12.456 -19.080  33.313  1.00  0.00     0.339 C 
ATOM     26  C   UNL     1     -13.866 -18.581  33.713  1.00  0.00     0.214 C 
ATOM     27  O   UNL     1     -12.086 -20.219  34.075  1.00  0.00    -0.332 OA
ATOM     28  C   UNL     1     -14.898 -19.716  33.582  1.00  0.00     0.180 C 
ATOM     29  C   UNL     1     -12.955 -21.317  33.833  1.00  0.00     0.179 C 
ATOM     30  C   UNL     1     -14.402 -20.996  34.285  1.00  0.00     0.177 C 
BRANCH  26  31
ATOM     31  O   UNL     1     -14.242 -17.496  32.906  1.00  0.00    -0.384 OA
ATOM     32  H   UNL     1     -15.040 -17.083  33.328  1.00  0.00     0.211 HD
ENDBRANCH  26  31
BRANCH  28  33
ATOM     33  O   UNL     1     -16.125 -19.305  34.127  1.00  0.00    -0.387 OA
ATOM     34  H   UNL     1     -16.836 -19.642  33.521  1.00  0.00     0.211 HD
ENDBRANCH  28  33
BRANCH  29  35
ATOM     35  C   UNL     1     -12.398 -22.569  34.526  1.00  0.00     0.191 C 
BRANCH  35  36
ATOM     36  O   UNL     1     -11.255 -22.257  35.272  1.00  0.00    -0.394 OA
ATOM     37  H   UNL     1     -10.567 -21.973  34.616  1.00  0.00     0.210 HD
ENDBRANCH  35  36
ENDBRANCH  29  35
BRANCH  30  38
ATOM     38  O   UNL     1     -14.512 -20.885  35.685  1.00  0.00    -0.387 OA
ATOM     39  H   UNL     1     -13.971 -21.606  36.096  1.00  0.00     0.211 HD
ENDBRANCH  30  38
ENDBRANCH   1  25
TORSDOF 11
ENDMDL
MODEL 2
REMARK VINA RESULT:    -8.943      1.564      9.161
REMARK INTER + INTRA:         -13.668
REMARK INTER:                 -12.980
REMARK INTRA:                  -0.688
REMARK UNBOUND:                -0.804
REMARK SMILES O=c1cc(-c2ccc(O)c(O)c2)oc2cc(O[C@@H]3O[C@@H](CO)[C@@H](O)[C@@H](O)[C@@H]3O)cc(O)c12
REMARK SMILES IDX 17 1 16 2 4 3 3 4 13 5 2 6 14 7 1 8 32 9 15 10 30 11 29 12
REMARK SMILES IDX 5 13 6 14 7 15 8 16 12 17 10 18 9 19 11 21 31 23 18 25 27 26
REMARK SMILES IDX 19 27 25 28 20 29 23 30 28 31 26 33 21 35 22 36 24 38
REMARK H PARENT 9 20 11 22 31 24 28 32 26 34 22 37 24 39
REMARK Flexibility Score: inf
ROOT
ATOM      1  O   UNL     1      -7.411 -15.449  30.735  1.00  0.00    -0.462 OA
ENDROOT
BRANCH   1   2
ATOM      2  C   UNL     1      -8.672 -15.969  30.398  1.00  0.00     0.130 A 
ATOM      3  C   UNL     1     -12.168 -18.965  31.652  1.00  0.00     0.138 A 
ATOM      4  C   UNL     1     -12.942 -18.631  30.529  1.00  0.00     0.100 A 
ATOM      5  O   UNL     1     -10.988 -18.375  31.831  1.00  0.00    -0.456 OA
ATOM      6  C   UNL     1     -12.458 -17.697  29.613  1.00  0.00     0.197 A 
ATOM      7  C   UNL     1     -10.484 -17.479  30.987  1.00  0.00     0.146 A 
ATOM      8  O   UNL     1     -13.161 -17.402  28.609  1.00  0.00    -0.289 OA
ATOM      9  C   UNL     1     -11.199 -17.099  29.829  1.00  0.00     0.107 A 
ATOM     10  C   UNL     1      -9.235 -16.915  31.259  1.00  0.00     0.094 A 
ATOM     11  C   UNL     1     -10.634 -16.146  28.951  1.00  0.00     0.134 A 
ATOM     12  C   UNL     1      -9.377 -15.592  29.240  1.00  0.00     0.093 A 
BRANCH   3  13
ATOM     13  C   UNL     1     -12.632 -19.950  32.660  1.00  0.00     0.021 A 
ATOM     14  C   UNL     1     -13.979 -20.356  32.733  1.00  0.00     0.016 A 
ATOM     15  C   UNL     1     -14.386 -21.293  33.686  1.00  0.00     0.051 A 
ATOM     16  C   UNL     1     -13.457 -21.847  34.577  1.00  0.00     0.157 A 
ATOM     17  C   UNL     1     -11.704 -20.522  33.548  1.00  0.00     0.062 A 
ATOM     18  C   UNL     1     -12.109 -21.460  34.505  1.00  0.00     0.158 A 
BRANCH  16  19
ATOM     19  O   UNL     1     -13.868 -22.781  35.526  1.00  0.00    -0.504 OA
ATOM     20  H   UNL     1     -13.200 -23.348  36.036  1.00  0.00     0.293 HD
ENDBRANCH  16  19
BRANCH  18  21
ATOM     21  O   UNL     1     -11.159 -21.995  35.373  1.00  0.00    -0.504 OA
ATOM     22  H   UNL     1     -10.164 -21.922  35.195  1.00  0.00     0.293 HD
ENDBRANCH  18  21
ENDBRANCH   3  13
BRANCH  11  23
ATOM     23  O   UNL     1     -11.309 -15.747  27.798  1.00  0.00    -0.507 OA
ATOM     24  H   UNL     1     -11.231 -16.262  26.928  1.00  0.00     0.293 HD
ENDBRANCH  11  23
ENDBRANCH   1   2
BRANCH   1  25
ATOM     25  C   UNL     1      -7.000 -14.075  30.665  1.00  0.00     0.339 C 
ATOM     26  C   UNL     1      -5.711 -13.815  31.481  1.00  0.00     0.214 C 
ATOM     27  O   UNL     1      -6.830 -13.684  29.311  1.00  0.00    -0.332 OA
ATOM     28  C   UNL     1      -4.507 -14.521  30.830  1.00  0.00     0.180 C 
ATOM     29  C   UNL     1      -5.818 -14.448  28.668  1.00  0.00     0.179 C 
ATOM     30  C   UNL     1      -4.435 -14.207  29.322  1.00  0.00     0.177 C 
BRANCH  26  31
ATOM     31  O   UNL     1      -5.875 -14.267  32.800  1.00  0.00    -0.384 OA
ATOM     32  H   UNL     1      -5.794 -15.256  32.781  1.00  0.00     0.211 HD
ENDBRANCH  26  31
BRANCH  28  33
ATOM     33  O   UNL     1      -3.322 -14.121  31.469  1.00  0.00    -0.387 OA
ATOM     34  H   UNL     1      -3.368 -13.133  31.564  1.00  0.00     0.211 HD
ENDBRANCH  28  33
BRANCH  29  35
ATOM     35  C   UNL     1      -5.811 -14.123  27.167  1.00  0.00     0.191 C 
BRANCH  35  36
ATOM     36  O   UNL     1      -6.932 -13.357  26.819  1.00  0.00    -0.394 OA
ATOM     37  H   UNL     1      -6.790 -12.462  27.223  1.00  0.00     0.210 HD
ENDBRANCH  35  36
ENDBRANCH  29  35
BRANCH  30  38
ATOM     38  O   UNL     1      -3.956 -12.902  29.095  1.00  0.00    -0.387 OA
ATOM     39  H   UNL     1      -2.970 -12.910  29.206  1.00  0.00     0.211 HD
ENDBRANCH  30  38
ENDBRANCH   1  25
TORSDOF 11
ENDMDL
MODEL 3
REMARK VINA RESULT:    -8.760      1.601      9.274
REMARK INTER + INTRA:         -13.405
REMARK INTER:                 -12.653
REMARK INTRA:                  -0.752
REMARK UNBOUND:                -0.804
REMARK SMILES O=c1cc(-c2ccc(O)c(O)c2)oc2cc(O[C@@H]3O[C@@H](CO)[C@@H](O)[C@@H](O)[C@@H]3O)cc(O)c12
REMARK SMILES IDX 17 1 16 2 4 3 3 4 13 5 2 6 14 7 1 8 32 9 15 10 30 11 29 12
REMARK SMILES IDX 5 13 6 14 7 15 8 16 12 17 10 18 9 19 11 21 31 23 18 25 27 26
REMARK SMILES IDX 19 27 25 28 20 29 23 30 28 31 26 33 21 35 22 36 24 38
REMARK H PARENT 9 20 11 22 31 24 28 32 26 34 22 37 24 39
REMARK Flexibility Score: inf
ROOT
ATOM      1  O   UNL     1      -6.878 -14.812  30.815  1.00  0.00    -0.462 OA
ENDROOT
BRANCH   1   2
ATOM      2  C   UNL     1      -8.024 -15.452  30.314  1.00  0.00     0.130 A 
ATOM      3  C   UNL     1     -11.525 -18.561  31.231  1.00  0.00     0.138 A 
ATOM      4  C   UNL     1     -12.093 -18.393  29.957  1.00  0.00     0.100 A 
ATOM      5  O   UNL     1     -10.433 -17.872  31.555  1.00  0.00    -0.456 OA
ATOM      6  C   UNL     1     -11.498 -17.517  29.049  1.00  0.00     0.197 A 
ATOM      7  C   UNL     1      -9.830 -17.027  30.725  1.00  0.00     0.146 A 
ATOM      8  O   UNL     1     -12.016 -17.371  27.909  1.00  0.00    -0.289 OA
ATOM      9  C   UNL     1     -10.336 -16.811  29.423  1.00  0.00     0.107 A 
ATOM     10  C   UNL     1      -8.685 -16.350  31.156  1.00  0.00     0.094 A 
ATOM     11  C   UNL     1      -9.669 -15.908  28.565  1.00  0.00     0.134 A 
ATOM     12  C   UNL     1      -8.520 -15.239  29.014  1.00  0.00     0.093 A 
BRANCH   3  13
ATOM     13  C   UNL     1     -12.115 -19.478  32.238  1.00  0.00     0.021 A 
ATOM     14  C   UNL     1     -11.351 -20.005  33.297  1.00  0.00     0.016 A 
ATOM     15  C   UNL     1     -11.936 -20.857  34.237  1.00  0.00     0.051 A 
ATOM     16  C   UNL     1     -13.294 -21.192  34.142  1.00  0.00     0.157 A 
ATOM     17  C   UNL     1     -13.481 -19.807  32.158  1.00  0.00     0.062 A 
ATOM     18  C   UNL     1     -14.068 -20.662  33.098  1.00  0.00     0.158 A 
BRANCH  16  19
ATOM     19  O   UNL     1     -13.873 -22.043  35.081  1.00  0.00    -0.504 OA
ATOM     20  H   UNL     1     -14.366 -21.683  35.890  1.00  0.00     0.293 HD
ENDBRANCH  16  19
BRANCH  18  21
ATOM     21  O   UNL     1     -15.423 -20.971  32.977  1.00  0.00    -0.504 OA
ATOM     22  H   UNL     1     -15.901 -20.954  32.084  1.00  0.00     0.293 HD
ENDBRANCH  18  21
ENDBRANCH   3  13
BRANCH  11  23
ATOM     23  O   UNL     1     -10.138 -15.670  27.273  1.00  0.00    -0.507 OA
ATOM     24  H   UNL     1     -10.087 -16.377  26.548  1.00  0.00     0.293 HD
ENDBRANCH  11  23
ENDBRANCH   1   2
BRANCH   1  25
ATOM     25  C   UNL     1      -6.497 -13.443  30.609  1.00  0.00     0.339 C 
ATOM     26  C   UNL     1      -5.702 -12.877  31.810  1.00  0.00     0.214 C 
ATOM     27  O   UNL     1      -5.753 -13.319  29.405  1.00  0.00    -0.332 OA
ATOM     28  C   UNL     1      -4.325 -13.557  31.917  1.00  0.00     0.180 C 
ATOM     29  C   UNL     1      -4.552 -14.076  29.450  1.00  0.00     0.179 C 
ATOM     30  C   UNL     1      -3.601 -13.550  30.555  1.00  0.00     0.177 C 
BRANCH  26  31
ATOM     31  O   UNL     1      -6.424 -13.066  32.999  1.00  0.00    -0.384 OA
ATOM     32  H   UNL     1      -6.214 -13.981  33.323  1.00  0.00     0.211 HD
ENDBRANCH  26  31
BRANCH  28  33
ATOM     33  O   UNL     1      -3.548 -12.902  32.885  1.00  0.00    -0.387 OA
ATOM     34  H   UNL     1      -2.843 -13.541  33.168  1.00  0.00     0.211 HD
ENDBRANCH  28  33
BRANCH  29  35
ATOM     35  C   UNL     1      -3.890 -14.063  28.065  1.00  0.00     0.191 C 
BRANCH  35  36
ATOM     36  O   UNL     1      -4.857 -14.076  27.052  1.00  0.00    -0.394 OA
ATOM     37  H   UNL     1      -5.237 -13.160  27.024  1.00  0.00     0.210 HD
ENDBRANCH  35  36
ENDBRANCH  29  35
BRANCH  30  38
ATOM     38  O   UNL     1      -3.089 -12.272  30.256  1.00  0.00    -0.387 OA
ATOM     39  H   UNL     1      -2.194 -12.386  29.844  1.00  0.00     0.211 HD
ENDBRANCH  30  38
ENDBRANCH   1  25
TORSDOF 11
ENDMDL
MODEL 4
REMARK VINA RESULT:    -8.641      1.692      9.166
REMARK INTER + INTRA:         -13.234
REMARK INTER:                 -12.431
REMARK INTRA:                  -0.803
REMARK UNBOUND:                -0.804
REMARK SMILES O=c1cc(-c2ccc(O)c(O)c2)oc2cc(O[C@@H]3O[C@@H](CO)[C@@H](O)[C@@H](O)[C@@H]3O)cc(O)c12
REMARK SMILES IDX 17 1 16 2 4 3 3 4 13 5 2 6 14 7 1 8 32 9 15 10 30 11 29 12
REMARK SMILES IDX 5 13 6 14 7 15 8 16 12 17 10 18 9 19 11 21 31 23 18 25 27 26
REMARK SMILES IDX 19 27 25 28 20 29 23 30 28 31 26 33 21 35 22 36 24 38
REMARK H PARENT 9 20 11 22 31 24 28 32 26 34 22 37 24 39
REMARK Flexibility Score: inf
ROOT
ATOM      1  O   UNL     1      -6.305 -13.892  29.109  1.00  0.00    -0.462 OA
ENDROOT
BRANCH   1   2
ATOM      2  C   UNL     1      -7.495 -14.532  28.722  1.00  0.00     0.130 A 
ATOM      3  C   UNL     1     -11.149 -17.254  30.136  1.00  0.00     0.138 A 
ATOM      4  C   UNL     1     -11.731 -17.248  28.857  1.00  0.00     0.100 A 
ATOM      5  O   UNL     1     -10.014 -16.590  30.340  1.00  0.00    -0.456 OA
ATOM      6  C   UNL     1     -11.103 -16.556  27.820  1.00  0.00     0.197 A 
ATOM      7  C   UNL     1      -9.379 -15.917  29.386  1.00  0.00     0.146 A 
ATOM      8  O   UNL     1     -11.634 -16.555  26.677  1.00  0.00    -0.289 OA
ATOM      9  C   UNL     1      -9.896 -15.872  28.071  1.00  0.00     0.107 A 
ATOM     10  C   UNL     1      -8.190 -15.252  29.697  1.00  0.00     0.094 A 
ATOM     11  C   UNL     1      -9.195 -15.150  27.078  1.00  0.00     0.134 A 
ATOM     12  C   UNL     1      -8.002 -14.490  27.409  1.00  0.00     0.093 A 
BRANCH   3  13
ATOM     13  C   UNL     1     -11.772 -17.971  31.277  1.00  0.00     0.021 A 
ATOM     14  C   UNL     1     -11.168 -19.102  31.859  1.00  0.00     0.016 A 
ATOM     15  C   UNL     1     -11.772 -19.750  32.939  1.00  0.00     0.051 A 
ATOM     16  C   UNL     1     -12.984 -19.278  33.462  1.00  0.00     0.157 A 
ATOM     17  C   UNL     1     -12.980 -17.495  31.816  1.00  0.00     0.062 A 
ATOM     18  C   UNL     1     -13.588 -18.144  32.897  1.00  0.00     0.158 A 
BRANCH  16  19
ATOM     19  O   UNL     1     -13.583 -19.928  34.538  1.00  0.00    -0.504 OA
ATOM     20  H   UNL     1     -13.186 -19.888  35.471  1.00  0.00     0.293 HD
ENDBRANCH  16  19
BRANCH  18  21
ATOM     21  O   UNL     1     -14.791 -17.645  33.396  1.00  0.00    -0.504 OA
ATOM     22  H   UNL     1     -15.502 -18.250  33.791  1.00  0.00     0.293 HD
ENDBRANCH  18  21
ENDBRANCH   3  13
BRANCH  11  23
ATOM     23  O   UNL     1      -9.674 -15.084  25.770  1.00  0.00    -0.507 OA
ATOM     24  H   UNL     1     -10.644 -14.871  25.567  1.00  0.00     0.293 HD
ENDBRANCH  11  23
ENDBRANCH   1   2
BRANCH   1  25
ATOM     25  C   UNL     1      -5.065 -14.523  29.465  1.00  0.00     0.339 C 
ATOM     26  C   UNL     1      -3.867 -13.918  28.696  1.00  0.00     0.214 C 
ATOM     27  O   UNL     1      -4.860 -14.442  30.868  1.00  0.00    -0.332 OA
ATOM     28  C   UNL     1      -3.607 -12.470  29.152  1.00  0.00     0.180 C 
ATOM     29  C   UNL     1      -4.775 -13.094  31.308  1.00  0.00     0.179 C 
ATOM     30  C   UNL     1      -3.546 -12.380  30.690  1.00  0.00     0.177 C 
BRANCH  26  31
ATOM     31  O   UNL     1      -4.114 -13.947  27.315  1.00  0.00    -0.384 OA
ATOM     32  H   UNL     1      -3.437 -13.362  26.886  1.00  0.00     0.211 HD
ENDBRANCH  26  31
BRANCH  28  33
ATOM     33  O   UNL     1      -2.408 -12.005  28.589  1.00  0.00    -0.387 OA
ATOM     34  H   UNL     1      -2.541 -11.042  28.386  1.00  0.00     0.211 HD
ENDBRANCH  28  33
BRANCH  29  35
ATOM     35  C   UNL     1      -4.751 -13.059  32.843  1.00  0.00     0.191 C 
BRANCH  35  36
ATOM     36  O   UNL     1      -5.976 -13.491  33.368  1.00  0.00    -0.394 OA
ATOM     37  H   UNL     1      -6.444 -13.957  32.628  1.00  0.00     0.210 HD
ENDBRANCH  35  36
ENDBRANCH  29  35
BRANCH  30  38
ATOM     38  O   UNL     1      -2.329 -12.889  31.184  1.00  0.00    -0.387 OA
ATOM     39  H   UNL     1      -1.597 -12.296  30.875  1.00  0.00     0.211 HD
ENDBRANCH  30  38
ENDBRANCH   1  25
TORSDOF 11
ENDMDL
MODEL 5
REMARK VINA RESULT:    -8.406      2.272      9.885
REMARK INTER + INTRA:         -12.895
REMARK INTER:                 -11.869
REMARK INTRA:                  -1.027
REMARK UNBOUND:                -0.804
REMARK SMILES O=c1cc(-c2ccc(O)c(O)c2)oc2cc(O[C@@H]3O[C@@H](CO)[C@@H](O)[C@@H](O)[C@@H]3O)cc(O)c12
REMARK SMILES IDX 17 1 16 2 4 3 3 4 13 5 2 6 14 7 1 8 32 9 15 10 30 11 29 12
REMARK SMILES IDX 5 13 6 14 7 15 8 16 12 17 10 18 9 19 11 21 31 23 18 25 27 26
REMARK SMILES IDX 19 27 25 28 20 29 23 30 28 31 26 33 21 35 22 36 24 38
REMARK H PARENT 9 20 11 22 31 24 28 32 26 34 22 37 24 39
REMARK Flexibility Score: inf
ROOT
ATOM      1  O   UNL     1      -5.131 -13.579  30.577  1.00  0.00    -0.462 OA
ENDROOT
BRANCH   1   2
ATOM      2  C   UNL     1      -6.141 -13.978  29.685  1.00  0.00     0.130 A 
ATOM      3  C   UNL     1     -10.159 -16.493  29.145  1.00  0.00     0.138 A 
ATOM      4  C   UNL     1     -10.270 -16.145  27.789  1.00  0.00     0.100 A 
ATOM      5  O   UNL     1      -9.138 -16.026  29.858  1.00  0.00    -0.456 OA
ATOM      6  C   UNL     1      -9.301 -15.326  27.209  1.00  0.00     0.197 A 
ATOM      7  C   UNL     1      -8.190 -15.243  29.351  1.00  0.00     0.146 A 
ATOM      8  O   UNL     1      -9.409 -15.017  25.991  1.00  0.00    -0.289 OA
ATOM      9  C   UNL     1      -8.227 -14.857  27.992  1.00  0.00     0.107 A 
ATOM     10  C   UNL     1      -7.154 -14.803  30.179  1.00  0.00     0.094 A 
ATOM     11  C   UNL     1      -7.202 -14.026  27.483  1.00  0.00     0.134 A 
ATOM     12  C   UNL     1      -6.169 -13.596  28.330  1.00  0.00     0.093 A 
BRANCH   3  13
ATOM     13  C   UNL     1     -11.160 -17.360  29.816  1.00  0.00     0.021 A 
ATOM     14  C   UNL     1     -12.508 -17.387  29.408  1.00  0.00     0.016 A 
ATOM     15  C   UNL     1     -13.426 -18.220  30.052  1.00  0.00     0.051 A 
ATOM     16  C   UNL     1     -13.016 -19.045  31.107  1.00  0.00     0.157 A 
ATOM     17  C   UNL     1     -10.753 -18.203  30.866  1.00  0.00     0.062 A 
ATOM     18  C   UNL     1     -11.672 -19.037  31.513  1.00  0.00     0.158 A 
BRANCH  16  19
ATOM     19  O   UNL     1     -13.936 -19.875  31.746  1.00  0.00    -0.504 OA
ATOM     20  H   UNL     1     -14.480 -20.559  31.233  1.00  0.00     0.293 HD
ENDBRANCH  16  19
BRANCH  18  21
ATOM     21  O   UNL     1     -11.230 -19.850  32.556  1.00  0.00    -0.504 OA
ATOM     22  H   UNL     1     -10.275 -20.184  32.611  1.00  0.00     0.293 HD
ENDBRANCH  18  21
ENDBRANCH   3  13
BRANCH  11  23
ATOM     23  O   UNL     1      -7.204 -13.625  26.147  1.00  0.00    -0.507 OA
ATOM     24  H   UNL     1      -7.951 -13.059  25.761  1.00  0.00     0.293 HD
ENDBRANCH  11  23
ENDBRANCH   1   2
BRANCH   1  25
ATOM     25  C   UNL     1      -5.043 -12.326  31.273  1.00  0.00     0.339 C 
ATOM     26  C   UNL     1      -4.192 -12.440  32.560  1.00  0.00     0.214 C 
ATOM     27  O   UNL     1      -4.526 -11.323  30.411  1.00  0.00    -0.332 OA
ATOM     28  C   UNL     1      -2.714 -12.692  32.211  1.00  0.00     0.180 C 
ATOM     29  C   UNL     1      -3.214 -11.638  29.966  1.00  0.00     0.179 C 
ATOM     30  C   UNL     1      -2.218 -11.686  31.153  1.00  0.00     0.177 C 
BRANCH  26  31
ATOM     31  O   UNL     1      -4.677 -13.478  33.370  1.00  0.00    -0.384 OA
ATOM     32  H   UNL     1      -3.934 -13.749  33.971  1.00  0.00     0.211 HD
ENDBRANCH  26  31
BRANCH  28  33
ATOM     33  O   UNL     1      -1.931 -12.601  33.374  1.00  0.00    -0.387 OA
ATOM     34  H   UNL     1      -1.550 -11.685  33.391  1.00  0.00     0.211 HD
ENDBRANCH  28  33
BRANCH  29  35
ATOM     35  C   UNL     1      -2.784 -10.628  28.893  1.00  0.00     0.191 C 
BRANCH  35  36
ATOM     36  O   UNL     1      -3.128  -9.324  29.271  1.00  0.00    -0.394 OA
ATOM     37  H   UNL     1      -2.326  -8.946  29.716  1.00  0.00     0.210 HD
ENDBRANCH  35  36
ENDBRANCH  29  35
BRANCH  30  38
ATOM     38  O   UNL     1      -2.000 -10.415  31.719  1.00  0.00    -0.387 OA
ATOM     39  H   UNL     1      -2.633 -10.300  32.474  1.00  0.00     0.211 HD
ENDBRANCH  30  38
ENDBRANCH   1  25
TORSDOF 11
ENDMDL
MODEL 6
REMARK VINA RESULT:    -8.263      3.074      6.708
REMARK INTER + INTRA:         -12.690
REMARK INTER:                 -11.771
REMARK INTRA:                  -0.919
REMARK UNBOUND:                -0.804
REMARK SMILES O=c1cc(-c2ccc(O)c(O)c2)oc2cc(O[C@@H]3O[C@@H](CO)[C@@H](O)[C@@H](O)[C@@H]3O)cc(O)c12
REMARK SMILES IDX 17 1 16 2 4 3 3 4 13 5 2 6 14 7 1 8 32 9 15 10 30 11 29 12
REMARK SMILES IDX 5 13 6 14 7 15 8 16 12 17 10 18 9 19 11 21 31 23 18 25 27 26
REMARK SMILES IDX 19 27 25 28 20 29 23 30 28 31 26 33 21 35 22 36 24 38
REMARK H PARENT 9 20 11 22 31 24 28 32 26 34 22 37 24 39
REMARK Flexibility Score: inf
ROOT
ATOM      1  O   UNL     1      -9.237 -15.604  29.899  1.00  0.00    -0.462 OA
ENDROOT
BRANCH   1   2
ATOM      2  C   UNL     1      -7.986 -15.104  30.299  1.00  0.00     0.130 A 
ATOM      3  C   UNL     1      -3.595 -13.878  28.893  1.00  0.00     0.138 A 
ATOM      4  C   UNL     1      -3.215 -13.504  30.192  1.00  0.00     0.100 A 
ATOM      5  O   UNL     1      -4.828 -14.331  28.677  1.00  0.00    -0.456 OA
ATOM      6  C   UNL     1      -4.131 -13.625  31.238  1.00  0.00     0.197 A 
ATOM      7  C   UNL     1      -5.735 -14.464  29.640  1.00  0.00     0.146 A 
ATOM      8  O   UNL     1      -3.781 -13.285  32.400  1.00  0.00    -0.289 OA
ATOM      9  C   UNL     1      -5.425 -14.118  30.975  1.00  0.00     0.107 A 
ATOM     10  C   UNL     1      -7.004 -14.952  29.317  1.00  0.00     0.094 A 
ATOM     11  C   UNL     1      -6.412 -14.275  31.975  1.00  0.00     0.134 A 
ATOM     12  C   UNL     1      -7.680 -14.768  31.631  1.00  0.00     0.093 A 
BRANCH   3  13
ATOM     13  C   UNL     1      -2.664 -13.769  27.742  1.00  0.00     0.021 A 
ATOM     14  C   UNL     1      -1.552 -12.906  27.768  1.00  0.00     0.016 A 
ATOM     15  C   UNL     1      -0.687 -12.831  26.674  1.00  0.00     0.051 A 
ATOM     16  C   UNL     1      -0.910 -13.622  25.538  1.00  0.00     0.157 A 
ATOM     17  C   UNL     1      -2.873 -14.570  26.604  1.00  0.00     0.062 A 
ATOM     18  C   UNL     1      -2.008 -14.496  25.506  1.00  0.00     0.158 A 
BRANCH  16  19
ATOM     19  O   UNL     1      -0.045 -13.544  24.449  1.00  0.00    -0.504 OA
ATOM     20  H   UNL     1      -0.041 -14.251  23.723  1.00  0.00     0.293 HD
ENDBRANCH  16  19
BRANCH  18  21
ATOM     21  O   UNL     1      -2.256 -15.300  24.394  1.00  0.00    -0.504 OA
ATOM     22  H   UNL     1      -2.441 -16.292  24.478  1.00  0.00     0.293 HD
ENDBRANCH  18  21
ENDBRANCH   3  13
BRANCH  11  23
ATOM     23  O   UNL     1      -6.143 -13.945  33.303  1.00  0.00    -0.507 OA
ATOM     24  H   UNL     1      -5.546 -13.163  33.548  1.00  0.00     0.293 HD
ENDBRANCH  11  23
ENDBRANCH   1   2
BRANCH   1  25
ATOM     25  C   UNL     1      -9.506 -16.892  29.325  1.00  0.00     0.339 C 
ATOM     26  C   UNL     1      -9.937 -17.923  30.396  1.00  0.00     0.214 C 
ATOM     27  O   UNL     1     -10.488 -16.779  28.306  1.00  0.00    -0.332 OA
ATOM     28  C   UNL     1     -11.318 -17.558  30.972  1.00  0.00     0.180 C 
ATOM     29  C   UNL     1     -11.721 -16.293  28.818  1.00  0.00     0.179 C 
ATOM     30  C   UNL     1     -12.331 -17.284  29.841  1.00  0.00     0.177 C 
BRANCH  26  31
ATOM     31  O   UNL     1      -8.987 -17.975  31.427  1.00  0.00    -0.384 OA
ATOM     32  H   UNL     1      -8.103 -17.787  31.018  1.00  0.00     0.211 HD
ENDBRANCH  26  31
BRANCH  28  33
ATOM     33  O   UNL     1     -11.777 -18.599  31.795  1.00  0.00    -0.387 OA
ATOM     34  H   UNL     1     -11.701 -18.279  32.731  1.00  0.00     0.211 HD
ENDBRANCH  28  33
BRANCH  29  35
ATOM     35  C   UNL     1     -12.678 -16.006  27.652  1.00  0.00     0.191 C 
BRANCH  35  36
ATOM     36  O   UNL     1     -14.011 -16.034  28.085  1.00  0.00    -0.394 OA
ATOM     37  H   UNL     1     -14.518 -16.516  27.382  1.00  0.00     0.210 HD
ENDBRANCH  35  36
ENDBRANCH  29  35
BRANCH  30  38
ATOM     38  O   UNL     1     -12.757 -18.482  29.236  1.00  0.00    -0.387 OA
ATOM     39  H   UNL     1     -12.617 -19.222  29.881  1.00  0.00     0.211 HD
ENDBRANCH  30  38
ENDBRANCH   1  25
TORSDOF 11
ENDMDL
MODEL 7
REMARK VINA RESULT:    -8.148      1.635      9.229
REMARK INTER + INTRA:         -12.524
REMARK INTER:                 -11.585
REMARK INTRA:                  -0.939
REMARK UNBOUND:                -0.804
REMARK SMILES O=c1cc(-c2ccc(O)c(O)c2)oc2cc(O[C@@H]3O[C@@H](CO)[C@@H](O)[C@@H](O)[C@@H]3O)cc(O)c12
REMARK SMILES IDX 17 1 16 2 4 3 3 4 13 5 2 6 14 7 1 8 32 9 15 10 30 11 29 12
REMARK SMILES IDX 5 13 6 14 7 15 8 16 12 17 10 18 9 19 11 21 31 23 18 25 27 26
REMARK SMILES IDX 19 27 25 28 20 29 23 30 28 31 26 33 21 35 22 36 24 38
REMARK H PARENT 9 20 11 22 31 24 28 32 26 34 22 37 24 39
REMARK Flexibility Score: inf
ROOT
ATOM      1  O   UNL     1      -6.196 -14.417  30.381  1.00  0.00    -0.462 OA
ENDROOT
BRANCH   1   2
ATOM      2  C   UNL     1      -7.384 -14.964  29.866  1.00  0.00     0.130 A 
ATOM      3  C   UNL     1     -11.340 -17.441  30.856  1.00  0.00     0.138 A 
ATOM      4  C   UNL     1     -11.792 -17.371  29.528  1.00  0.00     0.100 A 
ATOM      5  O   UNL     1     -10.187 -16.863  31.185  1.00  0.00    -0.456 OA
ATOM      6  C   UNL     1     -11.019 -16.709  28.573  1.00  0.00     0.197 A 
ATOM      7  C   UNL     1      -9.416 -16.221  30.312  1.00  0.00     0.146 A 
ATOM      8  O   UNL     1     -11.434 -16.651  27.384  1.00  0.00    -0.289 OA
ATOM      9  C   UNL     1      -9.798 -16.117  28.956  1.00  0.00     0.107 A 
ATOM     10  C   UNL     1      -8.220 -15.648  30.752  1.00  0.00     0.094 A 
ATOM     11  C   UNL     1      -8.954 -15.431  28.052  1.00  0.00     0.134 A 
ATOM     12  C   UNL     1      -7.756 -14.864  28.512  1.00  0.00     0.093 A 
BRANCH   3  13
ATOM     13  C   UNL     1     -12.120 -18.130  31.915  1.00  0.00     0.021 A 
ATOM     14  C   UNL     1     -13.314 -17.586  32.426  1.00  0.00     0.016 A 
ATOM     15  C   UNL     1     -14.033 -18.262  33.416  1.00  0.00     0.051 A 
ATOM     16  C   UNL     1     -13.579 -19.494  33.906  1.00  0.00     0.157 A 
ATOM     17  C   UNL     1     -11.679 -19.373  32.401  1.00  0.00     0.062 A 
ATOM     18  C   UNL     1     -12.396 -20.051  33.393  1.00  0.00     0.158 A 
BRANCH  16  19
ATOM     19  O   UNL     1     -14.299 -20.164  34.893  1.00  0.00    -0.504 OA
ATOM     20  H   UNL     1     -14.860 -20.981  34.678  1.00  0.00     0.293 HD
ENDBRANCH  16  19
BRANCH  18  21
ATOM     21  O   UNL     1     -11.919 -21.277  33.856  1.00  0.00    -0.504 OA
ATOM     22  H   UNL     1     -12.480 -22.121  33.822  1.00  0.00     0.293 HD
ENDBRANCH  18  21
ENDBRANCH   3  13
BRANCH  11  23
ATOM     23  O   UNL     1      -9.297 -15.309  26.706  1.00  0.00    -0.507 OA
ATOM     24  H   UNL     1      -9.055 -16.022  26.027  1.00  0.00     0.293 HD
ENDBRANCH  11  23
ENDBRANCH   1   2
BRANCH   1  25
ATOM     25  C   UNL     1      -5.368 -13.421  29.761  1.00  0.00     0.339 C 
ATOM     26  C   UNL     1      -5.160 -12.192  30.678  1.00  0.00     0.214 C 
ATOM     27  O   UNL     1      -4.123 -13.987  29.381  1.00  0.00    -0.332 OA
ATOM     28  C   UNL     1      -4.307 -12.569  31.903  1.00  0.00     0.180 C 
ATOM     29  C   UNL     1      -3.404 -14.475  30.505  1.00  0.00     0.179 C 
ATOM     30  C   UNL     1      -3.032 -13.325  31.474  1.00  0.00     0.177 C 
BRANCH  26  31
ATOM     31  O   UNL     1      -6.400 -11.685  31.096  1.00  0.00    -0.384 OA
ATOM     32  H   UNL     1      -7.039 -11.829  30.350  1.00  0.00     0.211 HD
ENDBRANCH  26  31
BRANCH  28  33
ATOM     33  O   UNL     1      -3.968 -11.410  32.619  1.00  0.00    -0.387 OA
ATOM     34  H   UNL     1      -3.996 -11.649  33.582  1.00  0.00     0.211 HD
ENDBRANCH  28  33
BRANCH  29  35
ATOM     35  C   UNL     1      -2.167 -15.246  30.023  1.00  0.00     0.191 C 
BRANCH  35  36
ATOM     36  O   UNL     1      -1.226 -15.371  31.053  1.00  0.00    -0.394 OA
ATOM     37  H   UNL     1      -1.501 -14.726  31.756  1.00  0.00     0.210 HD
ENDBRANCH  35  36
ENDBRANCH  29  35
BRANCH  30  38
ATOM     38  O   UNL     1      -2.080 -12.447  30.921  1.00  0.00    -0.387 OA
ATOM     39  H   UNL     1      -2.052 -11.628  31.480  1.00  0.00     0.211 HD
ENDBRANCH  30  38
ENDBRANCH   1  25
TORSDOF 11
ENDMDL
MODEL 8
REMARK VINA RESULT:    -8.081      2.394      9.674
REMARK INTER + INTRA:         -12.428
REMARK INTER:                 -11.740
REMARK INTRA:                  -0.688
REMARK UNBOUND:                -0.804
REMARK SMILES O=c1cc(-c2ccc(O)c(O)c2)oc2cc(O[C@@H]3O[C@@H](CO)[C@@H](O)[C@@H](O)[C@@H]3O)cc(O)c12
REMARK SMILES IDX 17 1 16 2 4 3 3 4 13 5 2 6 14 7 1 8 32 9 15 10 30 11 29 12
REMARK SMILES IDX 5 13 6 14 7 15 8 16 12 17 10 18 9 19 11 21 31 23 18 25 27 26
REMARK SMILES IDX 19 27 25 28 20 29 23 30 28 31 26 33 21 35 22 36 24 38
REMARK H PARENT 9 20 11 22 31 24 28 32 26 34 22 37 24 39
REMARK Flexibility Score: inf
ROOT
ATOM      1  O   UNL     1      -4.764 -13.270  30.646  1.00  0.00    -0.462 OA
ENDROOT
BRANCH   1   2
ATOM      2  C   UNL     1      -5.773 -13.713  29.773  1.00  0.00     0.130 A 
ATOM      3  C   UNL     1      -9.738 -16.329  29.331  1.00  0.00     0.138 A 
ATOM      4  C   UNL     1      -9.867 -16.018  27.968  1.00  0.00     0.100 A 
ATOM      5  O   UNL     1      -8.721 -15.821  30.024  1.00  0.00    -0.456 OA
ATOM      6  C   UNL     1      -8.921 -15.192  27.359  1.00  0.00     0.197 A 
ATOM      7  C   UNL     1      -7.796 -15.031  29.489  1.00  0.00     0.146 A 
ATOM      8  O   UNL     1      -9.047 -14.917  26.135  1.00  0.00    -0.289 OA
ATOM      9  C   UNL     1      -7.852 -14.680  28.121  1.00  0.00     0.107 A 
ATOM     10  C   UNL     1      -6.763 -14.548  30.297  1.00  0.00     0.094 A 
ATOM     11  C   UNL     1      -6.850 -13.840  27.583  1.00  0.00     0.134 A 
ATOM     12  C   UNL     1      -5.820 -13.367  28.409  1.00  0.00     0.093 A 
BRANCH   3  13
ATOM     13  C   UNL     1     -10.714 -17.200  30.032  1.00  0.00     0.021 A 
ATOM     14  C   UNL     1     -10.299 -18.226  30.903  1.00  0.00     0.016 A 
ATOM     15  C   UNL     1     -11.240 -19.024  31.558  1.00  0.00     0.051 A 
ATOM     16  C   UNL     1     -12.611 -18.809  31.362  1.00  0.00     0.157 A 
ATOM     17  C   UNL     1     -12.092 -16.981  29.853  1.00  0.00     0.062 A 
ATOM     18  C   UNL     1     -13.037 -17.780  30.506  1.00  0.00     0.158 A 
BRANCH  16  19
ATOM     19  O   UNL     1     -13.546 -19.607  32.016  1.00  0.00    -0.504 OA
ATOM     20  H   UNL     1     -14.536 -19.549  31.803  1.00  0.00     0.293 HD
ENDBRANCH  16  19
BRANCH  18  21
ATOM     21  O   UNL     1     -14.393 -17.536  30.293  1.00  0.00    -0.504 OA
ATOM     22  H   UNL     1     -14.983 -18.183  29.784  1.00  0.00     0.293 HD
ENDBRANCH  18  21
ENDBRANCH   3  13
BRANCH  11  23
ATOM     23  O   UNL     1      -6.871 -13.473  26.237  1.00  0.00    -0.507 OA
ATOM     24  H   UNL     1      -6.678 -12.524  25.940  1.00  0.00     0.293 HD
ENDBRANCH  11  23
ENDBRANCH   1   2
BRANCH   1  25
ATOM     25  C   UNL     1      -3.526 -12.641  30.281  1.00  0.00     0.339 C 
ATOM     26  C   UNL     1      -2.786 -12.065  31.511  1.00  0.00     0.214 C 
ATOM     27  O   UNL     1      -2.701 -13.557  29.576  1.00  0.00    -0.332 OA
ATOM     28  C   UNL     1      -2.287 -13.201  32.423  1.00  0.00     0.180 C 
ATOM     29  C   UNL     1      -2.368 -14.684  30.374  1.00  0.00     0.179 C 
ATOM     30  C   UNL     1      -1.527 -14.267  31.607  1.00  0.00     0.177 C 
BRANCH  26  31
ATOM     31  O   UNL     1      -3.637 -11.212  32.232  1.00  0.00    -0.384 OA
ATOM     32  H   UNL     1      -3.786 -10.408  31.670  1.00  0.00     0.211 HD
ENDBRANCH  26  31
BRANCH  28  33
ATOM     33  O   UNL     1      -1.458 -12.673  33.426  1.00  0.00    -0.387 OA
ATOM     34  H   UNL     1      -1.654 -11.701  33.478  1.00  0.00     0.211 HD
ENDBRANCH  28  33
BRANCH  29  35
ATOM     35  C   UNL     1      -1.645 -15.726  29.509  1.00  0.00     0.191 C 
BRANCH  35  36
ATOM     36  O   UNL     1      -2.227 -16.991  29.665  1.00  0.00    -0.394 OA
ATOM     37  H   UNL     1      -3.118 -16.939  29.232  1.00  0.00     0.210 HD
ENDBRANCH  35  36
ENDBRANCH  29  35
BRANCH  30  38
ATOM     38  O   UNL     1      -0.241 -13.816  31.250  1.00  0.00    -0.387 OA
ATOM     39  H   UNL     1      -0.322 -12.888  30.910  1.00  0.00     0.211 HD
ENDBRANCH  30  38
ENDBRANCH   1  25
TORSDOF 11
ENDMDL
MODEL 9
REMARK VINA RESULT:    -7.882      7.184     10.460
REMARK INTER + INTRA:         -12.142
REMARK INTER:                 -11.109
REMARK INTRA:                  -1.033
REMARK UNBOUND:                -0.804
REMARK SMILES O=c1cc(-c2ccc(O)c(O)c2)oc2cc(O[C@@H]3O[C@@H](CO)[C@@H](O)[C@@H](O)[C@@H]3O)cc(O)c12
REMARK SMILES IDX 17 1 16 2 4 3 3 4 13 5 2 6 14 7 1 8 32 9 15 10 30 11 29 12
REMARK SMILES IDX 5 13 6 14 7 15 8 16 12 17 10 18 9 19 11 21 31 23 18 25 27 26
REMARK SMILES IDX 19 27 25 28 20 29 23 30 28 31 26 33 21 35 22 36 24 38
REMARK H PARENT 9 20 11 22 31 24 28 32 26 34 22 37 24 39
REMARK Flexibility Score: inf
ROOT
ATOM      1  O   UNL     1      -4.006 -13.488  28.578  1.00  0.00    -0.462 OA
ENDROOT
BRANCH   1   2
ATOM      2  C   UNL     1      -3.223 -14.427  27.886  1.00  0.00     0.130 A 
ATOM      3  C   UNL     1      -1.366 -18.822  27.940  1.00  0.00     0.138 A 
ATOM      4  C   UNL     1      -0.757 -18.648  26.686  1.00  0.00     0.100 A 
ATOM      5  O   UNL     1      -2.083 -17.829  28.461  1.00  0.00    -0.456 OA
ATOM      6  C   UNL     1      -0.903 -17.434  26.014  1.00  0.00     0.197 A 
ATOM      7  C   UNL     1      -2.252 -16.655  27.859  1.00  0.00     0.146 A 
ATOM      8  O   UNL     1      -0.354 -17.289  24.888  1.00  0.00    -0.289 OA
ATOM      9  C   UNL     1      -1.662 -16.401  26.600  1.00  0.00     0.107 A 
ATOM     10  C   UNL     1      -3.021 -15.672  28.486  1.00  0.00     0.094 A 
ATOM     11  C   UNL     1      -1.858 -15.141  25.989  1.00  0.00     0.134 A 
ATOM     12  C   UNL     1      -2.632 -14.166  26.635  1.00  0.00     0.093 A 
BRANCH   3  13
ATOM     13  C   UNL     1      -1.247 -20.091  28.701  1.00  0.00     0.021 A 
ATOM     14  C   UNL     1      -0.493 -21.177  28.215  1.00  0.00     0.016 A 
ATOM     15  C   UNL     1      -0.390 -22.356  28.958  1.00  0.00     0.051 A 
ATOM     16  C   UNL     1      -1.029 -22.470  30.199  1.00  0.00     0.157 A 
ATOM     17  C   UNL     1      -1.873 -20.208  29.954  1.00  0.00     0.062 A 
ATOM     18  C   UNL     1      -1.772 -21.388  30.699  1.00  0.00     0.158 A 
BRANCH  16  19
ATOM     19  O   UNL     1      -0.924 -23.647  30.936  1.00  0.00    -0.504 OA
ATOM     20  H   UNL     1      -1.738 -24.092  31.346  1.00  0.00     0.293 HD
ENDBRANCH  16  19
BRANCH  18  21
ATOM     21  O   UNL     1      -2.417 -21.467  31.933  1.00  0.00    -0.504 OA
ATOM     22  H   UNL     1      -3.073 -22.208  32.152  1.00  0.00     0.293 HD
ENDBRANCH  18  21
ENDBRANCH   3  13
BRANCH  11  23
ATOM     23  O   UNL     1      -1.290 -14.853  24.747  1.00  0.00    -0.507 OA
ATOM     24  H   UNL     1      -0.287 -14.865  24.603  1.00  0.00     0.293 HD
ENDBRANCH  11  23
ENDBRANCH   1   2
BRANCH   1  25
ATOM     25  C   UNL     1      -3.668 -12.825  29.806  1.00  0.00     0.339 C 
ATOM     26  C   UNL     1      -4.113 -11.343  29.804  1.00  0.00     0.214 C 
ATOM     27  O   UNL     1      -4.229 -13.521  30.909  1.00  0.00    -0.332 OA
ATOM     28  C   UNL     1      -5.650 -11.240  29.822  1.00  0.00     0.180 C 
ATOM     29  C   UNL     1      -5.647 -13.557  30.840  1.00  0.00     0.179 C 
ATOM     30  C   UNL     1      -6.248 -12.131  30.930  1.00  0.00     0.177 C 
BRANCH  26  31
ATOM     31  O   UNL     1      -3.603 -10.686  28.674  1.00  0.00    -0.384 OA
ATOM     32  H   UNL     1      -2.697 -10.359  28.912  1.00  0.00     0.211 HD
ENDBRANCH  26  31
BRANCH  28  33
ATOM     33  O   UNL     1      -6.032  -9.902  30.013  1.00  0.00    -0.387 OA
ATOM     34  H   UNL     1      -6.187  -9.517  29.112  1.00  0.00     0.211 HD
ENDBRANCH  28  33
BRANCH  29  35
ATOM     35  C   UNL     1      -6.188 -14.481  31.940  1.00  0.00     0.191 C 
BRANCH  35  36
ATOM     36  O   UNL     1      -5.690 -14.104  33.194  1.00  0.00    -0.394 OA
ATOM     37  H   UNL     1      -6.465 -14.119  33.813  1.00  0.00     0.210 HD
ENDBRANCH  35  36
ENDBRANCH  29  35
BRANCH  30  38
ATOM     38  O   UNL     1      -6.066 -11.554  32.202  1.00  0.00    -0.387 OA
ATOM     39  H   UNL     1      -6.806 -11.859  32.789  1.00  0.00     0.211 HD
ENDBRANCH  30  38
ENDBRANCH   1  25
TORSDOF 11
ENDMDL
