MODEL 1
REMARK VINA RESULT:    -5.992      0.000      0.000
REMARK INTER + INTRA:         -11.784
REMARK INTER:                 -10.195
REMARK INTRA:                  -1.589
REMARK UNBOUND:                -1.589
REMARK SMILES CCCCCCCCCCCCCC(=O)[O-]
REMARK SMILES IDX 8 1 9 2 10 3 11 4 12 5 13 6 14 7 15 8 16 9 7 10 6 11 5 12
REMARK SMILES IDX 4 13 3 14 2 15 1 16
REMARK H PARENT
REMARK Flexibility Score: inf
ROOT
ATOM      1  C   UNL     1     -16.897  -8.928  -7.108  1.00  0.00     0.000 C 
ENDROOT
BRANCH   1   2
ATOM      2  C   UNL     1     -16.446  -8.163  -8.365  1.00  0.00     0.000 C 
BRANCH   2   3
ATOM      3  C   UNL     1     -16.931  -8.758  -9.703  1.00  0.00     0.000 C 
BRANCH   3   4
ATOM      4  C   UNL     1     -17.998  -9.863  -9.581  1.00  0.00     0.000 C 
BRANCH   4   5
ATOM      5  C   UNL     1     -19.133  -9.790 -10.622  1.00  0.00     0.006 C 
BRANCH   5   6
ATOM      6  C   UNL     1     -19.227 -11.016 -11.545  1.00  0.00     0.053 C 
BRANCH   6   7
ATOM      7  C   UNL     1     -20.275 -10.846 -12.600  1.00  0.00     0.041 C 
ATOM      8  O   UNL     1     -21.070  -9.870 -12.553  1.00  0.00    -0.550 OA
ATOM      9  O   UNL     1     -20.354 -11.747 -13.656  1.00  0.00    -0.550 OA
ENDBRANCH   6   7
ENDBRANCH   5   6
ENDBRANCH   4   5
ENDBRANCH   3   4
ENDBRANCH   2   3
ENDBRANCH   1   2
BRANCH   1  10
ATOM     10  C   UNL     1     -15.717  -9.496  -6.300  1.00  0.00     0.000 C 
BRANCH  10  11
ATOM     11  C   UNL     1     -14.366  -9.278  -6.999  1.00  0.00    -0.000 C 
BRANCH  11  12
ATOM     12  C   UNL     1     -13.768 -10.581  -7.558  1.00  0.00    -0.000 C 
BRANCH  12  13
ATOM     13  C   UNL     1     -14.658 -11.804  -7.281  1.00  0.00    -0.000 C 
BRANCH  13  14
ATOM     14  C   UNL     1     -15.089 -12.525  -8.571  1.00  0.00    -0.000 C 
BRANCH  14  15
ATOM     15  C   UNL     1     -14.755 -11.719  -9.835  1.00  0.00    -0.003 C 
ATOM     16  C   UNL     1     -15.674 -12.054 -11.009  1.00  0.00     0.004 C 
ENDBRANCH  14  15
ENDBRANCH  13  14
ENDBRANCH  12  13
ENDBRANCH  11  12
ENDBRANCH  10  11
ENDBRANCH   1  10
TORSDOF 12
ENDMDL
MODEL 2
REMARK VINA RESULT:    -5.914      0.979      2.934
REMARK INTER + INTRA:         -11.652
REMARK INTER:                  -9.993
REMARK INTRA:                  -1.659
REMARK UNBOUND:                -1.589
REMARK SMILES CCCCCCCCCCCCCC(=O)[O-]
REMARK SMILES IDX 8 1 9 2 10 3 11 4 12 5 13 6 14 7 15 8 16 9 7 10 6 11 5 12
REMARK SMILES IDX 4 13 3 14 2 15 1 16
REMARK H PARENT
REMARK Flexibility Score: inf
ROOT
ATOM      1  C   UNL     1     -15.093 -12.405  -8.033  1.00  0.00     0.000 C 
ENDROOT
BRANCH   1   2
ATOM      2  C   UNL     1     -14.557 -12.029  -9.426  1.00  0.00     0.000 C 
BRANCH   2   3
ATOM      3  C   UNL     1     -15.523 -11.201 -10.298  1.00  0.00     0.000 C 
BRANCH   3   4
ATOM      4  C   UNL     1     -16.695 -11.993 -10.912  1.00  0.00     0.000 C 
BRANCH   4   5
ATOM      5  C   UNL     1     -17.915 -11.141 -11.317  1.00  0.00     0.006 C 
BRANCH   5   6
ATOM      6  C   UNL     1     -19.143 -11.959 -11.749  1.00  0.00     0.053 C 
BRANCH   6   7
ATOM      7  C   UNL     1     -20.101 -11.146 -12.564  1.00  0.00     0.041 C 
ATOM      8  O   UNL     1     -20.432  -9.991 -12.186  1.00  0.00    -0.550 OA
ATOM      9  O   UNL     1     -20.601 -11.649 -13.759  1.00  0.00    -0.550 OA
ENDBRANCH   6   7
ENDBRANCH   5   6
ENDBRANCH   4   5
ENDBRANCH   3   4
ENDBRANCH   2   3
ENDBRANCH   1   2
BRANCH   1  10
ATOM     10  C   UNL     1     -14.707 -11.385  -6.949  1.00  0.00     0.000 C 
BRANCH  10  11
ATOM     11  C   UNL     1     -13.663 -10.370  -7.441  1.00  0.00    -0.000 C 
BRANCH  11  12
ATOM     12  C   UNL     1     -14.026  -8.920  -7.079  1.00  0.00    -0.000 C 
BRANCH  12  13
ATOM     13  C   UNL     1     -15.545  -8.680  -7.057  1.00  0.00    -0.000 C 
BRANCH  13  14
ATOM     14  C   UNL     1     -16.080  -8.167  -8.406  1.00  0.00    -0.000 C 
BRANCH  14  15
ATOM     15  C   UNL     1     -17.543  -8.565  -8.648  1.00  0.00    -0.003 C 
ATOM     16  C   UNL     1     -17.965  -9.788  -7.833  1.00  0.00     0.004 C 
ENDBRANCH  14  15
ENDBRANCH  13  14
ENDBRANCH  12  13
ENDBRANCH  11  12
ENDBRANCH  10  11
ENDBRANCH   1  10
TORSDOF 12
ENDMDL
MODEL 3
REMARK VINA RESULT:    -5.858      2.519      5.156
REMARK INTER + INTRA:         -11.556
REMARK INTER:                 -10.494
REMARK INTRA:                  -1.062
REMARK UNBOUND:                -1.589
REMARK SMILES CCCCCCCCCCCCCC(=O)[O-]
REMARK SMILES IDX 8 1 9 2 10 3 11 4 12 5 13 6 14 7 15 8 16 9 7 10 6 11 5 12
REMARK SMILES IDX 4 13 3 14 2 15 1 16
REMARK H PARENT
REMARK Flexibility Score: inf
ROOT
ATOM      1  C   UNL     1     -16.960  -9.486  -6.504  1.00  0.00     0.000 C 
ENDROOT
BRANCH   1   2
ATOM      2  C   UNL     1     -15.933  -8.366  -6.746  1.00  0.00     0.000 C 
BRANCH   2   3
ATOM      3  C   UNL     1     -14.541  -8.843  -7.208  1.00  0.00     0.000 C 
BRANCH   3   4
ATOM      4  C   UNL     1     -13.988 -10.073  -6.461  1.00  0.00     0.000 C 
BRANCH   4   5
ATOM      5  C   UNL     1     -14.005 -11.387  -7.269  1.00  0.00     0.006 C 
BRANCH   5   6
ATOM      6  C   UNL     1     -14.440 -11.224  -8.735  1.00  0.00     0.053 C 
BRANCH   6   7
ATOM      7  C   UNL     1     -15.121 -12.450  -9.258  1.00  0.00     0.041 C 
ATOM      8  O   UNL     1     -15.123 -13.512  -8.581  1.00  0.00    -0.550 OA
ATOM      9  O   UNL     1     -15.785 -12.411 -10.479  1.00  0.00    -0.550 OA
ENDBRANCH   6   7
ENDBRANCH   5   6
ENDBRANCH   4   5
ENDBRANCH   3   4
ENDBRANCH   2   3
ENDBRANCH   1   2
BRANCH   1  10
ATOM     10  C   UNL     1     -17.765  -9.841  -7.766  1.00  0.00     0.000 C 
BRANCH  10  11
ATOM     11  C   UNL     1     -17.572  -8.816  -8.894  1.00  0.00    -0.000 C 
BRANCH  11  12
ATOM     12  C   UNL     1     -17.672  -9.446 -10.294  1.00  0.00    -0.000 C 
BRANCH  12  13
ATOM     13  C   UNL     1     -19.042 -10.093 -10.553  1.00  0.00    -0.000 C 
BRANCH  13  14
ATOM     14  C   UNL     1     -19.373 -10.192 -12.053  1.00  0.00    -0.000 C 
BRANCH  14  15
ATOM     15  C   UNL     1     -19.672 -11.632 -12.496  1.00  0.00    -0.003 C 
ATOM     16  C   UNL     1     -20.717 -11.703 -13.608  1.00  0.00     0.004 C 
ENDBRANCH  14  15
ENDBRANCH  13  14
ENDBRANCH  12  13
ENDBRANCH  11  12
ENDBRANCH  10  11
ENDBRANCH   1  10
TORSDOF 12
ENDMDL
MODEL 4
REMARK VINA RESULT:    -5.823      2.539      5.569
REMARK INTER + INTRA:         -11.496
REMARK INTER:                 -10.293
REMARK INTRA:                  -1.203
REMARK UNBOUND:                -1.589
REMARK SMILES CCCCCCCCCCCCCC(=O)[O-]
REMARK SMILES IDX 8 1 9 2 10 3 11 4 12 5 13 6 14 7 15 8 16 9 7 10 6 11 5 12
REMARK SMILES IDX 4 13 3 14 2 15 1 16
REMARK H PARENT
REMARK Flexibility Score: inf
ROOT
ATOM      1  C   UNL     1     -14.394 -12.289  -9.337  1.00  0.00     0.000 C 
ENDROOT
BRANCH   1   2
ATOM      2  C   UNL     1     -15.184 -12.275  -8.016  1.00  0.00     0.000 C 
BRANCH   2   3
ATOM      3  C   UNL     1     -14.548 -11.446  -6.882  1.00  0.00     0.000 C 
BRANCH   3   4
ATOM      4  C   UNL     1     -13.737 -10.218  -7.343  1.00  0.00     0.000 C 
BRANCH   4   5
ATOM      5  C   UNL     1     -14.576  -8.960  -7.646  1.00  0.00     0.006 C 
BRANCH   5   6
ATOM      6  C   UNL     1     -15.724  -8.710  -6.654  1.00  0.00     0.053 C 
BRANCH   6   7
ATOM      7  C   UNL     1     -17.067  -8.885  -7.293  1.00  0.00     0.041 C 
ATOM      8  O   UNL     1     -17.476  -8.054  -8.147  1.00  0.00    -0.550 OA
ATOM      9  O   UNL     1     -17.853  -9.985  -6.972  1.00  0.00    -0.550 OA
ENDBRANCH   6   7
ENDBRANCH   5   6
ENDBRANCH   4   5
ENDBRANCH   3   4
ENDBRANCH   2   3
ENDBRANCH   1   2
BRANCH   1  10
ATOM     10  C   UNL     1     -15.219 -11.774 -10.530  1.00  0.00     0.000 C 
BRANCH  10  11
ATOM     11  C   UNL     1     -16.450 -10.966 -10.090  1.00  0.00    -0.000 C 
BRANCH  11  12
ATOM     12  C   UNL     1     -17.670 -11.199 -10.997  1.00  0.00    -0.000 C 
BRANCH  12  13
ATOM     13  C   UNL     1     -18.693 -10.055 -10.914  1.00  0.00    -0.000 C 
BRANCH  13  14
ATOM     14  C   UNL     1     -19.909 -10.283 -11.831  1.00  0.00    -0.000 C 
BRANCH  14  15
ATOM     15  C   UNL     1     -19.713 -11.472 -12.783  1.00  0.00    -0.003 C 
ATOM     16  C   UNL     1     -20.911 -11.693 -13.705  1.00  0.00     0.004 C 
ENDBRANCH  14  15
ENDBRANCH  13  14
ENDBRANCH  12  13
ENDBRANCH  11  12
ENDBRANCH  10  11
ENDBRANCH   1  10
TORSDOF 12
ENDMDL
MODEL 5
REMARK VINA RESULT:    -5.784      4.121      6.284
REMARK INTER + INTRA:         -11.431
REMARK INTER:                 -10.107
REMARK INTRA:                  -1.324
REMARK UNBOUND:                -1.589
REMARK SMILES CCCCCCCCCCCCCC(=O)[O-]
REMARK SMILES IDX 8 1 9 2 10 3 11 4 12 5 13 6 14 7 15 8 16 9 7 10 6 11 5 12
REMARK SMILES IDX 4 13 3 14 2 15 1 16
REMARK H PARENT
REMARK Flexibility Score: inf
ROOT
ATOM      1  C   UNL     1     -17.150  -8.508  -7.631  1.00  0.00     0.000 C 
ENDROOT
BRANCH   1   2
ATOM      2  C   UNL     1     -17.524  -9.874  -7.029  1.00  0.00     0.000 C 
BRANCH   2   3
ATOM      3  C   UNL     1     -16.370 -10.618  -6.325  1.00  0.00     0.000 C 
BRANCH   3   4
ATOM      4  C   UNL     1     -15.683 -11.710  -7.168  1.00  0.00     0.000 C 
BRANCH   4   5
ATOM      5  C   UNL     1     -14.304 -11.322  -7.738  1.00  0.00     0.006 C 
BRANCH   5   6
ATOM      6  C   UNL     1     -13.837  -9.907  -7.359  1.00  0.00     0.053 C 
BRANCH   6   7
ATOM      7  C   UNL     1     -12.588  -9.929  -6.535  1.00  0.00     0.041 C 
ATOM      8  O   UNL     1     -12.486 -10.719  -5.560  1.00  0.00    -0.550 OA
ATOM      9  O   UNL     1     -11.521  -9.101  -6.864  1.00  0.00    -0.550 OA
ENDBRANCH   6   7
ENDBRANCH   5   6
ENDBRANCH   4   5
ENDBRANCH   3   4
ENDBRANCH   2   3
ENDBRANCH   1   2
BRANCH   1  10
ATOM     10  C   UNL     1     -16.960  -8.561  -9.157  1.00  0.00     0.000 C 
BRANCH  10  11
ATOM     11  C   UNL     1     -17.768  -9.693  -9.812  1.00  0.00    -0.000 C 
BRANCH  11  12
ATOM     12  C   UNL     1     -16.874 -10.754 -10.477  1.00  0.00    -0.000 C 
BRANCH  12  13
ATOM     13  C   UNL     1     -17.683 -11.789 -11.275  1.00  0.00    -0.000 C 
BRANCH  13  14
ATOM     14  C   UNL     1     -19.164 -11.396 -11.421  1.00  0.00    -0.000 C 
BRANCH  14  15
ATOM     15  C   UNL     1     -19.509 -10.919 -12.839  1.00  0.00    -0.003 C 
ATOM     16  C   UNL     1     -20.649 -11.718 -13.469  1.00  0.00     0.004 C 
ENDBRANCH  14  15
ENDBRANCH  13  14
ENDBRANCH  12  13
ENDBRANCH  11  12
ENDBRANCH  10  11
ENDBRANCH   1  10
TORSDOF 12
ENDMDL
MODEL 6
REMARK VINA RESULT:    -5.772      1.013      1.364
REMARK INTER + INTRA:         -11.409
REMARK INTER:                  -9.998
REMARK INTRA:                  -1.411
REMARK UNBOUND:                -1.589
REMARK SMILES CCCCCCCCCCCCCC(=O)[O-]
REMARK SMILES IDX 8 1 9 2 10 3 11 4 12 5 13 6 14 7 15 8 16 9 7 10 6 11 5 12
REMARK SMILES IDX 4 13 3 14 2 15 1 16
REMARK H PARENT
REMARK Flexibility Score: inf
ROOT
ATOM      1  C   UNL     1     -17.698  -9.750  -7.607  1.00  0.00     0.000 C 
ENDROOT
BRANCH   1   2
ATOM      2  C   UNL     1     -17.743  -8.694  -8.727  1.00  0.00     0.000 C 
BRANCH   2   3
ATOM      3  C   UNL     1     -17.194  -9.162 -10.090  1.00  0.00     0.000 C 
BRANCH   3   4
ATOM      4  C   UNL     1     -17.683 -10.548 -10.554  1.00  0.00     0.000 C 
BRANCH   4   5
ATOM      5  C   UNL     1     -19.154 -10.599 -11.015  1.00  0.00     0.006 C 
BRANCH   5   6
ATOM      6  C   UNL     1     -19.431 -11.611 -12.139  1.00  0.00     0.053 C 
BRANCH   6   7
ATOM      7  C   UNL     1     -20.641 -11.242 -12.941  1.00  0.00     0.041 C 
ATOM      8  O   UNL     1     -21.155 -10.099 -12.823  1.00  0.00    -0.550 OA
ATOM      9  O   UNL     1     -21.180 -12.150 -13.845  1.00  0.00    -0.550 OA
ENDBRANCH   6   7
ENDBRANCH   5   6
ENDBRANCH   4   5
ENDBRANCH   3   4
ENDBRANCH   2   3
ENDBRANCH   1   2
BRANCH   1  10
ATOM     10  C   UNL     1     -16.788  -9.339  -6.437  1.00  0.00     0.000 C 
BRANCH  10  11
ATOM     11  C   UNL     1     -15.708  -8.330  -6.857  1.00  0.00    -0.000 C 
BRANCH  11  12
ATOM     12  C   UNL     1     -14.383  -9.005  -7.250  1.00  0.00    -0.000 C 
BRANCH  12  13
ATOM     13  C   UNL     1     -14.037 -10.197  -6.341  1.00  0.00    -0.000 C 
BRANCH  13  14
ATOM     14  C   UNL     1     -13.974 -11.527  -7.112  1.00  0.00    -0.000 C 
BRANCH  14  15
ATOM     15  C   UNL     1     -14.424 -11.383  -8.573  1.00  0.00    -0.003 C 
ATOM     16  C   UNL     1     -14.931 -12.696  -9.168  1.00  0.00     0.004 C 
ENDBRANCH  14  15
ENDBRANCH  13  14
ENDBRANCH  12  13
ENDBRANCH  11  12
ENDBRANCH  10  11
ENDBRANCH   1  10
TORSDOF 12
ENDMDL
MODEL 7
REMARK VINA RESULT:    -5.447      2.981      4.805
REMARK INTER + INTRA:         -10.857
REMARK INTER:                  -9.582
REMARK INTRA:                  -1.275
REMARK UNBOUND:                -1.589
REMARK SMILES CCCCCCCCCCCCCC(=O)[O-]
REMARK SMILES IDX 8 1 9 2 10 3 11 4 12 5 13 6 14 7 15 8 16 9 7 10 6 11 5 12
REMARK SMILES IDX 4 13 3 14 2 15 1 16
REMARK H PARENT
REMARK Flexibility Score: inf
ROOT
ATOM      1  C   UNL     1     -18.894  -9.418  -9.516  1.00  0.00     0.000 C 
ENDROOT
BRANCH   1   2
ATOM      2  C   UNL     1     -18.153  -9.844 -10.796  1.00  0.00     0.000 C 
BRANCH   2   3
ATOM      3  C   UNL     1     -17.986 -11.366 -10.980  1.00  0.00     0.000 C 
BRANCH   3   4
ATOM      4  C   UNL     1     -16.528 -11.867 -11.018  1.00  0.00     0.000 C 
BRANCH   4   5
ATOM      5  C   UNL     1     -15.516 -10.982 -10.262  1.00  0.00     0.006 C 
BRANCH   5   6
ATOM      6  C   UNL     1     -14.501 -11.764  -9.413  1.00  0.00     0.053 C 
BRANCH   6   7
ATOM      7  C   UNL     1     -15.172 -12.671  -8.428  1.00  0.00     0.041 C 
ATOM      8  O   UNL     1     -15.081 -13.921  -8.555  1.00  0.00    -0.550 OA
ATOM      9  O   UNL     1     -15.869 -12.137  -7.351  1.00  0.00    -0.550 OA
ENDBRANCH   6   7
ENDBRANCH   5   6
ENDBRANCH   4   5
ENDBRANCH   3   4
ENDBRANCH   2   3
ENDBRANCH   1   2
BRANCH   1  10
ATOM     10  C   UNL     1     -17.983  -9.399  -8.277  1.00  0.00     0.000 C 
BRANCH  10  11
ATOM     11  C   UNL     1     -16.935  -8.276  -8.333  1.00  0.00    -0.000 C 
BRANCH  11  12
ATOM     12  C   UNL     1     -16.078  -8.198  -7.058  1.00  0.00    -0.000 C 
BRANCH  12  13
ATOM     13  C   UNL     1     -14.625  -8.639  -7.297  1.00  0.00    -0.000 C 
BRANCH  13  14
ATOM     14  C   UNL     1     -14.187  -9.766  -6.344  1.00  0.00    -0.000 C 
BRANCH  14  15
ATOM     15  C   UNL     1     -12.701 -10.123  -6.498  1.00  0.00    -0.003 C 
ATOM     16  C   UNL     1     -11.839  -8.915  -6.861  1.00  0.00     0.004 C 
ENDBRANCH  14  15
ENDBRANCH  13  14
ENDBRANCH  12  13
ENDBRANCH  11  12
ENDBRANCH  10  11
ENDBRANCH   1  10
TORSDOF 12
ENDMDL
MODEL 8
REMARK VINA RESULT:    -5.393      4.023      6.039
REMARK INTER + INTRA:         -10.765
REMARK INTER:                  -9.681
REMARK INTRA:                  -1.084
REMARK UNBOUND:                -1.589
REMARK SMILES CCCCCCCCCCCCCC(=O)[O-]
REMARK SMILES IDX 8 1 9 2 10 3 11 4 12 5 13 6 14 7 15 8 16 9 7 10 6 11 5 12
REMARK SMILES IDX 4 13 3 14 2 15 1 16
REMARK H PARENT
REMARK Flexibility Score: inf
ROOT
ATOM      1  C   UNL     1     -18.895  -9.495  -9.511  1.00  0.00     0.000 C 
ENDROOT
BRANCH   1   2
ATOM      2  C   UNL     1     -17.919  -8.584  -8.744  1.00  0.00     0.000 C 
BRANCH   2   3
ATOM      3  C   UNL     1     -17.405  -9.155  -7.406  1.00  0.00     0.000 C 
BRANCH   3   4
ATOM      4  C   UNL     1     -16.173  -8.439  -6.818  1.00  0.00     0.000 C 
BRANCH   4   5
ATOM      5  C   UNL     1     -14.997  -9.366  -6.448  1.00  0.00     0.006 C 
BRANCH   5   6
ATOM      6  C   UNL     1     -13.742  -9.173  -7.315  1.00  0.00     0.053 C 
BRANCH   6   7
ATOM      7  C   UNL     1     -12.517  -9.737  -6.663  1.00  0.00     0.041 C 
ATOM      8  O   UNL     1     -11.393  -9.204  -6.859  1.00  0.00    -0.550 OA
ATOM      9  O   UNL     1     -12.622 -10.831  -5.812  1.00  0.00    -0.550 OA
ENDBRANCH   6   7
ENDBRANCH   5   6
ENDBRANCH   4   5
ENDBRANCH   3   4
ENDBRANCH   2   3
ENDBRANCH   1   2
BRANCH   1  10
ATOM     10  C   UNL     1     -18.417  -9.812 -10.939  1.00  0.00     0.000 C 
BRANCH  10  11
ATOM     11  C   UNL     1     -18.438 -11.318 -11.245  1.00  0.00    -0.000 C 
BRANCH  11  12
ATOM     12  C   UNL     1     -17.062 -11.982 -11.061  1.00  0.00    -0.000 C 
BRANCH  12  13
ATOM     13  C   UNL     1     -16.075 -11.088 -10.293  1.00  0.00    -0.000 C 
BRANCH  13  14
ATOM     14  C   UNL     1     -14.718 -11.776 -10.056  1.00  0.00    -0.000 C 
BRANCH  14  15
ATOM     15  C   UNL     1     -14.822 -12.966  -9.091  1.00  0.00    -0.003 C 
ATOM     16  C   UNL     1     -15.266 -12.552  -7.689  1.00  0.00     0.004 C 
ENDBRANCH  14  15
ENDBRANCH  13  14
ENDBRANCH  12  13
ENDBRANCH  11  12
ENDBRANCH  10  11
ENDBRANCH   1  10
TORSDOF 12
ENDMDL
MODEL 9
REMARK VINA RESULT:    -5.295      4.105      6.741
REMARK INTER + INTRA:         -10.599
REMARK INTER:                  -9.087
REMARK INTRA:                  -1.512
REMARK UNBOUND:                -1.589
REMARK SMILES CCCCCCCCCCCCCC(=O)[O-]
REMARK SMILES IDX 8 1 9 2 10 3 11 4 12 5 13 6 14 7 15 8 16 9 7 10 6 11 5 12
REMARK SMILES IDX 4 13 3 14 2 15 1 16
REMARK H PARENT
REMARK Flexibility Score: inf
ROOT
ATOM      1  C   UNL     1     -15.224 -11.444 -10.397  1.00  0.00     0.000 C 
ENDROOT
BRANCH   1   2
ATOM      2  C   UNL     1     -14.491 -12.514  -9.567  1.00  0.00     0.000 C 
BRANCH   2   3
ATOM      3  C   UNL     1     -15.121 -12.821  -8.193  1.00  0.00     0.000 C 
BRANCH   3   4
ATOM      4  C   UNL     1     -15.694 -11.600  -7.446  1.00  0.00     0.000 C 
BRANCH   4   5
ATOM      5  C   UNL     1     -14.703 -10.891  -6.500  1.00  0.00     0.006 C 
BRANCH   5   6
ATOM      6  C   UNL     1     -13.722  -9.941  -7.206  1.00  0.00     0.053 C 
BRANCH   6   7
ATOM      7  C   UNL     1     -12.413  -9.848  -6.486  1.00  0.00     0.041 C 
ATOM      8  O   UNL     1     -11.541  -9.020  -6.860  1.00  0.00    -0.550 OA
ATOM      9  O   UNL     1     -12.168 -10.652  -5.379  1.00  0.00    -0.550 OA
ENDBRANCH   6   7
ENDBRANCH   5   6
ENDBRANCH   4   5
ENDBRANCH   3   4
ENDBRANCH   2   3
ENDBRANCH   1   2
BRANCH   1  10
ATOM     10  C   UNL     1     -16.221 -12.048 -11.401  1.00  0.00     0.000 C 
BRANCH  10  11
ATOM     11  C   UNL     1     -17.677 -11.937 -10.923  1.00  0.00    -0.000 C 
BRANCH  11  12
ATOM     12  C   UNL     1     -18.439 -10.783 -11.598  1.00  0.00    -0.000 C 
BRANCH  12  13
ATOM     13  C   UNL     1     -19.031  -9.793 -10.582  1.00  0.00    -0.000 C 
BRANCH  13  14
ATOM     14  C   UNL     1     -18.239  -9.757  -9.263  1.00  0.00    -0.000 C 
BRANCH  14  15
ATOM     15  C   UNL     1     -17.120  -8.705  -9.276  1.00  0.00    -0.003 C 
ATOM     16  C   UNL     1     -16.960  -7.996  -7.932  1.00  0.00     0.004 C 
ENDBRANCH  14  15
ENDBRANCH  13  14
ENDBRANCH  12  13
ENDBRANCH  11  12
ENDBRANCH  10  11
ENDBRANCH   1  10
TORSDOF 12
ENDMDL
