MODEL 1
REMARK VINA RESULT:    -4.146      0.000      0.000
REMARK INTER + INTRA:         -13.784
REMARK INTER:                  -9.478
REMARK INTRA:                  -4.306
REMARK UNBOUND:                -4.306
REMARK SMILES CCCCCCCCCCCCCCCCCCCCCCCC(=O)[O-]
REMARK SMILES IDX 13 1 14 2 15 3 16 4 17 5 18 6 19 7 20 8 21 9 22 10 23 11
REMARK SMILES IDX 24 12 25 13 26 14 12 15 11 16 10 17 9 18 8 19 7 20 6 21 5 22
REMARK SMILES IDX 4 23 3 24 2 25 1 26
REMARK H PARENT
REMARK Flexibility Score: inf
ROOT
ATOM      1  C   UNL     1     -10.866   0.289 -36.041  1.00  0.00     0.000 C 
ENDROOT
BRANCH   1   2
ATOM      2  C   UNL     1      -9.941  -0.710 -35.326  1.00  0.00     0.000 C 
BRANCH   2   3
ATOM      3  C   UNL     1      -8.628  -0.950 -36.091  1.00  0.00     0.000 C 
BRANCH   3   4
ATOM      4  C   UNL     1      -8.831  -1.755 -37.384  1.00  0.00     0.000 C 
BRANCH   4   5
ATOM      5  C   UNL     1      -7.920  -1.232 -38.503  1.00  0.00     0.000 C 
BRANCH   5   6
ATOM      6  C   UNL     1      -8.140  -1.953 -39.845  1.00  0.00     0.000 C 
BRANCH   6   7
ATOM      7  C   UNL     1      -8.472  -1.032 -41.034  1.00  0.00     0.000 C 
BRANCH   7   8
ATOM      8  C   UNL     1      -9.913  -1.208 -41.543  1.00  0.00     0.000 C 
BRANCH   8   9
ATOM      9  C   UNL     1     -10.717   0.101 -41.502  1.00  0.00     0.000 C 
BRANCH   9  10
ATOM     10  C   UNL     1     -12.059  -0.050 -40.763  1.00  0.00     0.006 C 
BRANCH  10  11
ATOM     11  C   UNL     1     -12.033  -1.201 -39.749  1.00  0.00     0.053 C 
BRANCH  11  12
ATOM     12  C   UNL     1     -13.351  -1.912 -39.687  1.00  0.00     0.041 C 
ATOM     13  O   UNL     1     -14.397  -1.349 -40.104  1.00  0.00    -0.550 OA
ATOM     14  O   UNL     1     -13.416  -3.211 -39.198  1.00  0.00    -0.550 OA
ENDBRANCH  11  12
ENDBRANCH  10  11
ENDBRANCH   9  10
ENDBRANCH   8   9
ENDBRANCH   7   8
ENDBRANCH   6   7
ENDBRANCH   5   6
ENDBRANCH   4   5
ENDBRANCH   3   4
ENDBRANCH   2   3
ENDBRANCH   1   2
BRANCH   1  15
ATOM     15  C   UNL     1     -10.531   1.755 -35.710  1.00  0.00     0.000 C 
BRANCH  15  16
ATOM     16  C   UNL     1     -10.259   2.662 -36.929  1.00  0.00     0.000 C 
BRANCH  16  17
ATOM     17  C   UNL     1     -10.114   1.929 -38.275  1.00  0.00     0.000 C 
BRANCH  17  18
ATOM     18  C   UNL     1      -8.749   2.168 -38.941  1.00  0.00    -0.000 C 
BRANCH  18  19
ATOM     19  C   UNL     1      -8.738   3.417 -39.836  1.00  0.00    -0.000 C 
BRANCH  19  20
ATOM     20  C   UNL     1      -8.778   3.078 -41.334  1.00  0.00    -0.000 C 
BRANCH  20  21
ATOM     21  C   UNL     1      -9.014   4.341 -42.175  1.00  0.00    -0.000 C 
BRANCH  21  22
ATOM     22  C   UNL     1     -10.151   4.173 -43.199  1.00  0.00    -0.000 C 
BRANCH  22  23
ATOM     23  C   UNL     1     -11.414   3.471 -42.662  1.00  0.00    -0.000 C 
BRANCH  23  24
ATOM     24  C   UNL     1     -12.324   4.346 -41.778  1.00  0.00    -0.000 C 
BRANCH  24  25
ATOM     25  C   UNL     1     -12.435   3.889 -40.313  1.00  0.00    -0.003 C 
ATOM     26  C   UNL     1     -12.017   4.972 -39.319  1.00  0.00     0.004 C 
ENDBRANCH  24  25
ENDBRANCH  23  24
ENDBRANCH  22  23
ENDBRANCH  21  22
ENDBRANCH  20  21
ENDBRANCH  19  20
ENDBRANCH  18  19
ENDBRANCH  17  18
ENDBRANCH  16  17
ENDBRANCH  15  16
ENDBRANCH   1  15
TORSDOF 22
ENDMDL
MODEL 2
REMARK VINA RESULT:    -3.929      2.509      6.076
REMARK INTER + INTRA:         -13.288
REMARK INTER:                  -9.881
REMARK INTRA:                  -3.407
REMARK UNBOUND:                -4.306
REMARK SMILES CCCCCCCCCCCCCCCCCCCCCCCC(=O)[O-]
REMARK SMILES IDX 13 1 14 2 15 3 16 4 17 5 18 6 19 7 20 8 21 9 22 10 23 11
REMARK SMILES IDX 24 12 25 13 26 14 12 15 11 16 10 17 9 18 8 19 7 20 6 21 5 22
REMARK SMILES IDX 4 23 3 24 2 25 1 26
REMARK H PARENT
REMARK Flexibility Score: inf
ROOT
ATOM      1  C   UNL     1      -9.868  -2.070 -39.293  1.00  0.00     0.000 C 
ENDROOT
BRANCH   1   2
ATOM      2  C   UNL     1     -11.161  -1.269 -39.068  1.00  0.00     0.000 C 
BRANCH   2   3
ATOM      3  C   UNL     1     -12.150  -1.404 -40.239  1.00  0.00     0.000 C 
BRANCH   3   4
ATOM      4  C   UNL     1     -12.633  -0.046 -40.769  1.00  0.00     0.000 C 
BRANCH   4   5
ATOM      5  C   UNL     1     -11.478   0.964 -40.823  1.00  0.00     0.000 C 
BRANCH   5   6
ATOM      6  C   UNL     1     -11.930   2.374 -41.242  1.00  0.00     0.000 C 
BRANCH   6   7
ATOM      7  C   UNL     1     -11.658   3.482 -40.207  1.00  0.00     0.000 C 
BRANCH   7   8
ATOM      8  C   UNL     1     -12.608   4.682 -40.351  1.00  0.00     0.000 C 
BRANCH   8   9
ATOM      9  C   UNL     1     -13.746   4.418 -41.351  1.00  0.00     0.000 C 
BRANCH   9  10
ATOM     10  C   UNL     1     -14.699   5.617 -41.496  1.00  0.00     0.006 C 
BRANCH  10  11
ATOM     11  C   UNL     1     -16.101   5.190 -41.948  1.00  0.00     0.053 C 
BRANCH  11  12
ATOM     12  C   UNL     1     -16.996   4.904 -40.781  1.00  0.00     0.041 C 
ATOM     13  O   UNL     1     -17.376   5.839 -40.028  1.00  0.00    -0.550 OA
ATOM     14  O   UNL     1     -17.436   3.608 -40.545  1.00  0.00    -0.550 OA
ENDBRANCH  11  12
ENDBRANCH  10  11
ENDBRANCH   9  10
ENDBRANCH   8   9
ENDBRANCH   7   8
ENDBRANCH   6   7
ENDBRANCH   5   6
ENDBRANCH   4   5
ENDBRANCH   3   4
ENDBRANCH   2   3
ENDBRANCH   1   2
BRANCH   1  15
ATOM     15  C   UNL     1      -9.530  -2.252 -40.785  1.00  0.00     0.000 C 
BRANCH  15  16
ATOM     16  C   UNL     1      -8.585  -1.189 -41.382  1.00  0.00     0.000 C 
BRANCH  16  17
ATOM     17  C   UNL     1      -7.907  -0.261 -40.357  1.00  0.00     0.000 C 
BRANCH  17  18
ATOM     18  C   UNL     1      -7.906   1.213 -40.797  1.00  0.00    -0.000 C 
BRANCH  18  19
ATOM     19  C   UNL     1      -8.030   2.184 -39.611  1.00  0.00    -0.000 C 
BRANCH  19  20
ATOM     20  C   UNL     1      -8.370   1.472 -38.292  1.00  0.00    -0.000 C 
BRANCH  20  21
ATOM     21  C   UNL     1      -9.796   1.815 -37.837  1.00  0.00    -0.000 C 
BRANCH  21  22
ATOM     22  C   UNL     1      -9.839   2.460 -36.440  1.00  0.00    -0.000 C 
BRANCH  22  23
ATOM     23  C   UNL     1     -10.471   1.587 -35.338  1.00  0.00    -0.000 C 
BRANCH  23  24
ATOM     24  C   UNL     1     -10.807   0.143 -35.759  1.00  0.00    -0.000 C 
BRANCH  24  25
ATOM     25  C   UNL     1      -9.924  -0.940 -35.114  1.00  0.00    -0.003 C 
ATOM     26  C   UNL     1      -8.644  -1.211 -35.901  1.00  0.00     0.004 C 
ENDBRANCH  24  25
ENDBRANCH  23  24
ENDBRANCH  22  23
ENDBRANCH  21  22
ENDBRANCH  20  21
ENDBRANCH  19  20
ENDBRANCH  18  19
ENDBRANCH  17  18
ENDBRANCH  16  17
ENDBRANCH  15  16
ENDBRANCH   1  15
TORSDOF 22
ENDMDL
MODEL 3
REMARK VINA RESULT:    -3.824      2.521      5.502
REMARK INTER + INTRA:         -13.047
REMARK INTER:                  -9.909
REMARK INTRA:                  -3.138
REMARK UNBOUND:                -4.306
REMARK SMILES CCCCCCCCCCCCCCCCCCCCCCCC(=O)[O-]
REMARK SMILES IDX 13 1 14 2 15 3 16 4 17 5 18 6 19 7 20 8 21 9 22 10 23 11
REMARK SMILES IDX 24 12 25 13 26 14 12 15 11 16 10 17 9 18 8 19 7 20 6 21 5 22
REMARK SMILES IDX 4 23 3 24 2 25 1 26
REMARK H PARENT
REMARK Flexibility Score: inf
ROOT
ATOM      1  C   UNL     1     -10.829   0.209 -35.934  1.00  0.00     0.000 C 
ENDROOT
BRANCH   1   2
ATOM      2  C   UNL     1     -10.623   1.683 -35.548  1.00  0.00     0.000 C 
BRANCH   2   3
ATOM      3  C   UNL     1     -10.234   2.559 -36.751  1.00  0.00     0.000 C 
BRANCH   3   4
ATOM      4  C   UNL     1     -10.265   1.791 -38.081  1.00  0.00     0.000 C 
BRANCH   4   5
ATOM      5  C   UNL     1      -9.367   2.470 -39.126  1.00  0.00     0.000 C 
BRANCH   5   6
ATOM      6  C   UNL     1      -9.979   2.467 -40.538  1.00  0.00     0.000 C 
BRANCH   6   7
ATOM      7  C   UNL     1     -11.500   2.697 -40.591  1.00  0.00     0.000 C 
BRANCH   7   8
ATOM      8  C   UNL     1     -11.882   4.187 -40.550  1.00  0.00     0.000 C 
BRANCH   8   9
ATOM      9  C   UNL     1     -13.041   4.524 -41.502  1.00  0.00     0.000 C 
BRANCH   9  10
ATOM     10  C   UNL     1     -14.379   4.710 -40.765  1.00  0.00     0.006 C 
BRANCH  10  11
ATOM     11  C   UNL     1     -15.550   4.918 -41.734  1.00  0.00     0.053 C 
BRANCH  11  12
ATOM     12  C   UNL     1     -16.859   5.002 -41.010  1.00  0.00     0.041 C 
ATOM     13  O   UNL     1     -16.994   5.781 -40.031  1.00  0.00    -0.550 OA
ATOM     14  O   UNL     1     -17.940   4.242 -41.441  1.00  0.00    -0.550 OA
ENDBRANCH  11  12
ENDBRANCH  10  11
ENDBRANCH   9  10
ENDBRANCH   8   9
ENDBRANCH   7   8
ENDBRANCH   6   7
ENDBRANCH   5   6
ENDBRANCH   4   5
ENDBRANCH   3   4
ENDBRANCH   2   3
ENDBRANCH   1   2
BRANCH   1  15
ATOM     15  C   UNL     1      -9.746  -0.718 -35.351  1.00  0.00     0.000 C 
BRANCH  15  16
ATOM     16  C   UNL     1      -8.612  -1.102 -36.325  1.00  0.00     0.000 C 
BRANCH  16  17
ATOM     17  C   UNL     1      -8.742  -2.494 -36.969  1.00  0.00     0.000 C 
BRANCH  17  18
ATOM     18  C   UNL     1      -8.318  -2.510 -38.448  1.00  0.00    -0.000 C 
BRANCH  18  19
ATOM     19  C   UNL     1      -8.047  -1.101 -39.000  1.00  0.00    -0.000 C 
BRANCH  19  20
ATOM     20  C   UNL     1      -8.531  -0.925 -40.448  1.00  0.00    -0.000 C 
BRANCH  20  21
ATOM     21  C   UNL     1      -9.683  -1.891 -40.761  1.00  0.00    -0.000 C 
BRANCH  21  22
ATOM     22  C   UNL     1     -11.011  -1.166 -41.042  1.00  0.00    -0.000 C 
BRANCH  22  23
ATOM     23  C   UNL     1     -11.890  -0.910 -39.802  1.00  0.00    -0.000 C 
BRANCH  23  24
ATOM     24  C   UNL     1     -12.679  -2.133 -39.296  1.00  0.00    -0.000 C 
BRANCH  24  25
ATOM     25  C   UNL     1     -14.015  -2.384 -40.017  1.00  0.00    -0.003 C 
ATOM     26  C   UNL     1     -14.733  -1.094 -40.408  1.00  0.00     0.004 C 
ENDBRANCH  24  25
ENDBRANCH  23  24
ENDBRANCH  22  23
ENDBRANCH  21  22
ENDBRANCH  20  21
ENDBRANCH  19  20
ENDBRANCH  18  19
ENDBRANCH  17  18
ENDBRANCH  16  17
ENDBRANCH  15  16
ENDBRANCH   1  15
TORSDOF 22
ENDMDL
MODEL 4
REMARK VINA RESULT:    -3.823      3.591      6.353
REMARK INTER + INTRA:         -13.047
REMARK INTER:                 -10.186
REMARK INTRA:                  -2.861
REMARK UNBOUND:                -4.306
REMARK SMILES CCCCCCCCCCCCCCCCCCCCCCCC(=O)[O-]
REMARK SMILES IDX 13 1 14 2 15 3 16 4 17 5 18 6 19 7 20 8 21 9 22 10 23 11
REMARK SMILES IDX 24 12 25 13 26 14 12 15 11 16 10 17 9 18 8 19 7 20 6 21 5 22
REMARK SMILES IDX 4 23 3 24 2 25 1 26
REMARK H PARENT
REMARK Flexibility Score: inf
ROOT
ATOM      1  C   UNL     1     -13.156   4.246 -41.298  1.00  0.00     0.000 C 
ENDROOT
BRANCH   1   2
ATOM      2  C   UNL     1     -11.836   4.843 -40.782  1.00  0.00     0.000 C 
BRANCH   2   3
ATOM      3  C   UNL     1     -10.895   3.776 -40.197  1.00  0.00     0.000 C 
BRANCH   3   4
ATOM      4  C   UNL     1     -11.079   2.398 -40.849  1.00  0.00     0.000 C 
BRANCH   4   5
ATOM      5  C   UNL     1      -9.730   1.818 -41.295  1.00  0.00     0.000 C 
BRANCH   5   6
ATOM      6  C   UNL     1      -8.786   1.513 -40.118  1.00  0.00     0.000 C 
BRANCH   6   7
ATOM      7  C   UNL     1      -8.988   0.137 -39.459  1.00  0.00     0.000 C 
BRANCH   7   8
ATOM      8  C   UNL     1      -9.910   0.193 -38.228  1.00  0.00     0.000 C 
BRANCH   8   9
ATOM      9  C   UNL     1     -10.816  -1.044 -38.113  1.00  0.00     0.000 C 
BRANCH   9  10
ATOM     10  C   UNL     1     -11.050  -1.735 -39.468  1.00  0.00     0.006 C 
BRANCH  10  11
ATOM     11  C   UNL     1     -12.230  -1.123 -40.232  1.00  0.00     0.053 C 
BRANCH  11  12
ATOM     12  C   UNL     1     -13.519  -1.813 -39.904  1.00  0.00     0.041 C 
ATOM     13  O   UNL     1     -13.515  -2.892 -39.255  1.00  0.00    -0.550 OA
ATOM     14  O   UNL     1     -14.728  -1.244 -40.286  1.00  0.00    -0.550 OA
ENDBRANCH  11  12
ENDBRANCH  10  11
ENDBRANCH   9  10
ENDBRANCH   8   9
ENDBRANCH   7   8
ENDBRANCH   6   7
ENDBRANCH   5   6
ENDBRANCH   4   5
ENDBRANCH   3   4
ENDBRANCH   2   3
ENDBRANCH   1   2
BRANCH   1  15
ATOM     15  C   UNL     1     -13.849   5.142 -42.342  1.00  0.00     0.000 C 
BRANCH  15  16
ATOM     16  C   UNL     1     -13.445   4.880 -43.808  1.00  0.00     0.000 C 
BRANCH  16  17
ATOM     17  C   UNL     1     -14.545   5.146 -44.852  1.00  0.00     0.000 C 
BRANCH  17  18
ATOM     18  C   UNL     1     -15.963   5.027 -44.267  1.00  0.00    -0.000 C 
BRANCH  18  19
ATOM     19  C   UNL     1     -16.960   5.989 -44.934  1.00  0.00    -0.000 C 
BRANCH  19  20
ATOM     20  C   UNL     1     -16.866   7.420 -44.383  1.00  0.00    -0.000 C 
BRANCH  20  21
ATOM     21  C   UNL     1     -16.692   7.409 -42.857  1.00  0.00    -0.000 C 
BRANCH  21  22
ATOM     22  C   UNL     1     -18.030   7.507 -42.102  1.00  0.00    -0.000 C 
BRANCH  22  23
ATOM     23  C   UNL     1     -18.340   6.321 -41.168  1.00  0.00    -0.000 C 
BRANCH  23  24
ATOM     24  C   UNL     1     -17.106   5.639 -40.545  1.00  0.00    -0.000 C 
BRANCH  24  25
ATOM     25  C   UNL     1     -17.039   4.115 -40.746  1.00  0.00    -0.003 C 
ATOM     26  C   UNL     1     -18.176   3.579 -41.614  1.00  0.00     0.004 C 
ENDBRANCH  24  25
ENDBRANCH  23  24
ENDBRANCH  22  23
ENDBRANCH  21  22
ENDBRANCH  20  21
ENDBRANCH  19  20
ENDBRANCH  18  19
ENDBRANCH  17  18
ENDBRANCH  16  17
ENDBRANCH  15  16
ENDBRANCH   1  15
TORSDOF 22
ENDMDL
MODEL 5
REMARK VINA RESULT:    -3.795      2.825      6.827
REMARK INTER + INTRA:         -12.983
REMARK INTER:                  -9.390
REMARK INTRA:                  -3.593
REMARK UNBOUND:                -4.306
REMARK SMILES CCCCCCCCCCCCCCCCCCCCCCCC(=O)[O-]
REMARK SMILES IDX 13 1 14 2 15 3 16 4 17 5 18 6 19 7 20 8 21 9 22 10 23 11
REMARK SMILES IDX 24 12 25 13 26 14 12 15 11 16 10 17 9 18 8 19 7 20 6 21 5 22
REMARK SMILES IDX 4 23 3 24 2 25 1 26
REMARK H PARENT
REMARK Flexibility Score: inf
ROOT
ATOM      1  C   UNL     1     -12.124   1.007 -40.877  1.00  0.00     0.000 C 
ENDROOT
BRANCH   1   2
ATOM      2  C   UNL     1     -11.410   2.181 -41.567  1.00  0.00     0.000 C 
BRANCH   2   3
ATOM      3  C   UNL     1     -12.292   3.438 -41.656  1.00  0.00     0.000 C 
BRANCH   3   4
ATOM      4  C   UNL     1     -12.626   4.030 -40.279  1.00  0.00     0.000 C 
BRANCH   4   5
ATOM      5  C   UNL     1     -13.064   5.496 -40.405  1.00  0.00     0.000 C 
BRANCH   5   6
ATOM      6  C   UNL     1     -13.023   6.016 -41.853  1.00  0.00     0.000 C 
BRANCH   6   7
ATOM      7  C   UNL     1     -13.894   7.255 -42.127  1.00  0.00     0.000 C 
BRANCH   7   8
ATOM      8  C   UNL     1     -15.002   6.991 -43.162  1.00  0.00     0.000 C 
BRANCH   8   9
ATOM      9  C   UNL     1     -15.428   5.515 -43.206  1.00  0.00     0.000 C 
BRANCH   9  10
ATOM     10  C   UNL     1     -16.948   5.331 -43.048  1.00  0.00     0.006 C 
BRANCH  10  11
ATOM     11  C   UNL     1     -17.384   5.353 -41.578  1.00  0.00     0.053 C 
BRANCH  11  12
ATOM     12  C   UNL     1     -17.212   4.014 -40.930  1.00  0.00     0.041 C 
ATOM     13  O   UNL     1     -16.150   3.738 -40.313  1.00  0.00    -0.550 OA
ATOM     14  O   UNL     1     -18.241   3.081 -40.979  1.00  0.00    -0.550 OA
ENDBRANCH  11  12
ENDBRANCH  10  11
ENDBRANCH   9  10
ENDBRANCH   8   9
ENDBRANCH   7   8
ENDBRANCH   6   7
ENDBRANCH   5   6
ENDBRANCH   4   5
ENDBRANCH   3   4
ENDBRANCH   2   3
ENDBRANCH   1   2
BRANCH   1  15
ATOM     15  C   UNL     1     -11.365  -0.324 -41.026  1.00  0.00     0.000 C 
BRANCH  15  16
ATOM     16  C   UNL     1     -11.803  -1.446 -40.060  1.00  0.00     0.000 C 
BRANCH  16  17
ATOM     17  C   UNL     1     -10.662  -2.311 -39.495  1.00  0.00     0.000 C 
BRANCH  17  18
ATOM     18  C   UNL     1      -9.392  -2.265 -40.362  1.00  0.00    -0.000 C 
BRANCH  18  19
ATOM     19  C   UNL     1      -8.103  -2.292 -39.525  1.00  0.00    -0.000 C 
BRANCH  19  20
ATOM     20  C   UNL     1      -7.111  -1.188 -39.922  1.00  0.00    -0.000 C 
BRANCH  20  21
ATOM     21  C   UNL     1      -7.692  -0.307 -41.038  1.00  0.00    -0.000 C 
BRANCH  21  22
ATOM     22  C   UNL     1      -7.883   1.158 -40.605  1.00  0.00    -0.000 C 
BRANCH  22  23
ATOM     23  C   UNL     1      -7.986   1.380 -39.083  1.00  0.00    -0.000 C 
BRANCH  23  24
ATOM     24  C   UNL     1      -9.366   1.844 -38.581  1.00  0.00    -0.000 C 
BRANCH  24  25
ATOM     25  C   UNL     1     -10.086   0.848 -37.654  1.00  0.00    -0.003 C 
ATOM     26  C   UNL     1      -9.120  -0.033 -36.863  1.00  0.00     0.004 C 
ENDBRANCH  24  25
ENDBRANCH  23  24
ENDBRANCH  22  23
ENDBRANCH  21  22
ENDBRANCH  20  21
ENDBRANCH  19  20
ENDBRANCH  18  19
ENDBRANCH  17  18
ENDBRANCH  16  17
ENDBRANCH  15  16
ENDBRANCH   1  15
TORSDOF 22
ENDMDL
MODEL 6
REMARK VINA RESULT:    -3.790      3.501      6.765
REMARK INTER + INTRA:         -12.971
REMARK INTER:                  -9.222
REMARK INTRA:                  -3.749
REMARK UNBOUND:                -4.306
REMARK SMILES CCCCCCCCCCCCCCCCCCCCCCCC(=O)[O-]
REMARK SMILES IDX 13 1 14 2 15 3 16 4 17 5 18 6 19 7 20 8 21 9 22 10 23 11
REMARK SMILES IDX 24 12 25 13 26 14 12 15 11 16 10 17 9 18 8 19 7 20 6 21 5 22
REMARK SMILES IDX 4 23 3 24 2 25 1 26
REMARK H PARENT
REMARK Flexibility Score: inf
ROOT
ATOM      1  C   UNL     1     -11.450   4.792 -43.246  1.00  0.00     0.000 C 
ENDROOT
BRANCH   1   2
ATOM      2  C   UNL     1     -10.291   5.363 -42.412  1.00  0.00     0.000 C 
BRANCH   2   3
ATOM      3  C   UNL     1     -10.759   6.420 -41.398  1.00  0.00     0.000 C 
BRANCH   3   4
ATOM      4  C   UNL     1     -10.309   6.108 -39.962  1.00  0.00     0.000 C 
BRANCH   4   5
ATOM      5  C   UNL     1     -11.504   5.687 -39.094  1.00  0.00     0.000 C 
BRANCH   5   6
ATOM      6  C   UNL     1     -11.443   4.212 -38.659  1.00  0.00     0.000 C 
BRANCH   6   7
ATOM      7  C   UNL     1     -10.130   3.484 -39.003  1.00  0.00     0.000 C 
BRANCH   7   8
ATOM      8  C   UNL     1     -10.350   2.022 -39.428  1.00  0.00     0.000 C 
BRANCH   8   9
ATOM      9  C   UNL     1     -10.108   1.802 -40.930  1.00  0.00     0.000 C 
BRANCH   9  10
ATOM     10  C   UNL     1     -10.827   0.552 -41.469  1.00  0.00     0.006 C 
BRANCH  10  11
ATOM     11  C   UNL     1     -12.204   0.353 -40.822  1.00  0.00     0.053 C 
BRANCH  11  12
ATOM     12  C   UNL     1     -12.375  -1.042 -40.304  1.00  0.00     0.041 C 
ATOM     13  O   UNL     1     -11.367  -1.750 -40.043  1.00  0.00    -0.550 OA
ATOM     14  O   UNL     1     -13.649  -1.548 -40.080  1.00  0.00    -0.550 OA
ENDBRANCH  11  12
ENDBRANCH  10  11
ENDBRANCH   9  10
ENDBRANCH   8   9
ENDBRANCH   7   8
ENDBRANCH   6   7
ENDBRANCH   5   6
ENDBRANCH   4   5
ENDBRANCH   3   4
ENDBRANCH   2   3
ENDBRANCH   1   2
BRANCH   1  15
ATOM     15  C   UNL     1     -12.498   4.058 -42.388  1.00  0.00     0.000 C 
BRANCH  15  16
ATOM     16  C   UNL     1     -13.748   4.886 -42.021  1.00  0.00     0.000 C 
BRANCH  16  17
ATOM     17  C   UNL     1     -14.495   4.424 -40.757  1.00  0.00     0.000 C 
BRANCH  17  18
ATOM     18  C   UNL     1     -15.878   5.081 -40.608  1.00  0.00    -0.000 C 
BRANCH  18  19
ATOM     19  C   UNL     1     -17.031   4.087 -40.821  1.00  0.00    -0.000 C 
BRANCH  19  20
ATOM     20  C   UNL     1     -18.241   4.721 -41.525  1.00  0.00    -0.000 C 
BRANCH  20  21
ATOM     21  C   UNL     1     -18.259   6.242 -41.319  1.00  0.00    -0.000 C 
BRANCH  21  22
ATOM     22  C   UNL     1     -18.533   7.018 -42.619  1.00  0.00    -0.000 C 
BRANCH  22  23
ATOM     23  C   UNL     1     -17.344   7.845 -43.149  1.00  0.00    -0.000 C 
BRANCH  23  24
ATOM     24  C   UNL     1     -16.198   7.020 -43.767  1.00  0.00    -0.000 C 
BRANCH  24  25
ATOM     25  C   UNL     1     -16.607   6.139 -44.960  1.00  0.00    -0.003 C 
ATOM     26  C   UNL     1     -16.305   4.658 -44.737  1.00  0.00     0.004 C 
ENDBRANCH  24  25
ENDBRANCH  23  24
ENDBRANCH  22  23
ENDBRANCH  21  22
ENDBRANCH  20  21
ENDBRANCH  19  20
ENDBRANCH  18  19
ENDBRANCH  17  18
ENDBRANCH  16  17
ENDBRANCH  15  16
ENDBRANCH   1  15
TORSDOF 22
ENDMDL
MODEL 7
REMARK VINA RESULT:    -3.767      4.232      7.713
REMARK INTER + INTRA:         -12.919
REMARK INTER:                  -9.484
REMARK INTRA:                  -3.435
REMARK UNBOUND:                -4.306
REMARK SMILES CCCCCCCCCCCCCCCCCCCCCCCC(=O)[O-]
REMARK SMILES IDX 13 1 14 2 15 3 16 4 17 5 18 6 19 7 20 8 21 9 22 10 23 11
REMARK SMILES IDX 24 12 25 13 26 14 12 15 11 16 10 17 9 18 8 19 7 20 6 21 5 22
REMARK SMILES IDX 4 23 3 24 2 25 1 26
REMARK H PARENT
REMARK Flexibility Score: inf
ROOT
ATOM      1  C   UNL     1     -14.899   4.875 -43.784  1.00  0.00     0.000 C 
ENDROOT
BRANCH   1   2
ATOM      2  C   UNL     1     -14.180   6.071 -43.137  1.00  0.00     0.000 C 
BRANCH   2   3
ATOM      3  C   UNL     1     -13.513   5.704 -41.801  1.00  0.00     0.000 C 
BRANCH   3   4
ATOM      4  C   UNL     1     -13.584   4.202 -41.492  1.00  0.00     0.000 C 
BRANCH   4   5
ATOM      5  C   UNL     1     -12.543   3.811 -40.432  1.00  0.00     0.000 C 
BRANCH   5   6
ATOM      6  C   UNL     1     -11.105   4.183 -40.834  1.00  0.00     0.000 C 
BRANCH   6   7
ATOM      7  C   UNL     1     -10.089   3.027 -40.766  1.00  0.00     0.000 C 
BRANCH   7   8
ATOM      8  C   UNL     1     -10.656   1.700 -41.298  1.00  0.00     0.000 C 
BRANCH   8   9
ATOM      9  C   UNL     1      -9.870   0.479 -40.793  1.00  0.00     0.000 C 
BRANCH   9  10
ATOM     10  C   UNL     1     -10.588  -0.256 -39.648  1.00  0.00     0.006 C 
BRANCH  10  11
ATOM     11  C   UNL     1     -11.259  -1.551 -40.122  1.00  0.00     0.053 C 
BRANCH  11  12
ATOM     12  C   UNL     1     -12.742  -1.517 -39.909  1.00  0.00     0.041 C 
ATOM     13  O   UNL     1     -13.280  -2.282 -39.067  1.00  0.00    -0.550 OA
ATOM     14  O   UNL     1     -13.525  -0.614 -40.618  1.00  0.00    -0.550 OA
ENDBRANCH  11  12
ENDBRANCH  10  11
ENDBRANCH   9  10
ENDBRANCH   8   9
ENDBRANCH   7   8
ENDBRANCH   6   7
ENDBRANCH   5   6
ENDBRANCH   4   5
ENDBRANCH   3   4
ENDBRANCH   2   3
ENDBRANCH   1   2
BRANCH   1  15
ATOM     15  C   UNL     1     -16.259   5.256 -44.398  1.00  0.00     0.000 C 
BRANCH  15  16
ATOM     16  C   UNL     1     -16.325   6.661 -45.034  1.00  0.00     0.000 C 
BRANCH  16  17
ATOM     17  C   UNL     1     -17.660   7.406 -44.846  1.00  0.00     0.000 C 
BRANCH  17  18
ATOM     18  C   UNL     1     -17.470   8.877 -44.441  1.00  0.00    -0.000 C 
BRANCH  18  19
ATOM     19  C   UNL     1     -16.079   9.152 -43.847  1.00  0.00    -0.000 C 
BRANCH  19  20
ATOM     20  C   UNL     1     -16.141   9.683 -42.406  1.00  0.00    -0.000 C 
BRANCH  20  21
ATOM     21  C   UNL     1     -16.008   8.536 -41.394  1.00  0.00    -0.000 C 
BRANCH  21  22
ATOM     22  C   UNL     1     -17.370   7.993 -40.925  1.00  0.00    -0.000 C 
BRANCH  22  23
ATOM     23  C   UNL     1     -17.634   6.512 -41.266  1.00  0.00    -0.000 C 
BRANCH  23  24
ATOM     24  C   UNL     1     -17.014   5.495 -40.288  1.00  0.00    -0.000 C 
BRANCH  24  25
ATOM     25  C   UNL     1     -17.047   4.034 -40.769  1.00  0.00    -0.003 C 
ATOM     26  C   UNL     1     -18.310   3.695 -41.559  1.00  0.00     0.004 C 
ENDBRANCH  24  25
ENDBRANCH  23  24
ENDBRANCH  22  23
ENDBRANCH  21  22
ENDBRANCH  20  21
ENDBRANCH  19  20
ENDBRANCH  18  19
ENDBRANCH  17  18
ENDBRANCH  16  17
ENDBRANCH  15  16
ENDBRANCH   1  15
TORSDOF 22
ENDMDL
MODEL 8
REMARK VINA RESULT:    -3.746      1.342      2.434
REMARK INTER + INTRA:         -12.871
REMARK INTER:                  -9.328
REMARK INTRA:                  -3.543
REMARK UNBOUND:                -4.306
REMARK SMILES CCCCCCCCCCCCCCCCCCCCCCCC(=O)[O-]
REMARK SMILES IDX 13 1 14 2 15 3 16 4 17 5 18 6 19 7 20 8 21 9 22 10 23 11
REMARK SMILES IDX 24 12 25 13 26 14 12 15 11 16 10 17 9 18 8 19 7 20 6 21 5 22
REMARK SMILES IDX 4 23 3 24 2 25 1 26
REMARK H PARENT
REMARK Flexibility Score: inf
ROOT
ATOM      1  C   UNL     1     -10.605   0.970 -35.852  1.00  0.00     0.000 C 
ENDROOT
BRANCH   1   2
ATOM      2  C   UNL     1     -10.578  -0.254 -36.783  1.00  0.00     0.000 C 
BRANCH   2   3
ATOM      3  C   UNL     1      -9.232  -0.996 -36.743  1.00  0.00     0.000 C 
BRANCH   3   4
ATOM      4  C   UNL     1      -9.112  -2.072 -37.832  1.00  0.00     0.000 C 
BRANCH   4   5
ATOM      5  C   UNL     1      -7.908  -1.797 -38.744  1.00  0.00     0.000 C 
BRANCH   5   6
ATOM      6  C   UNL     1      -8.157  -0.651 -39.742  1.00  0.00     0.000 C 
BRANCH   6   7
ATOM      7  C   UNL     1      -8.294  -1.085 -41.213  1.00  0.00     0.000 C 
BRANCH   7   8
ATOM      8  C   UNL     1      -9.748  -1.054 -41.713  1.00  0.00     0.000 C 
BRANCH   8   9
ATOM      9  C   UNL     1     -10.510   0.193 -41.235  1.00  0.00     0.000 C 
BRANCH   9  10
ATOM     10  C   UNL     1     -11.913  -0.139 -40.699  1.00  0.00     0.006 C 
BRANCH  10  11
ATOM     11  C   UNL     1     -11.958  -1.505 -40.003  1.00  0.00     0.053 C 
BRANCH  11  12
ATOM     12  C   UNL     1     -13.366  -1.970 -39.786  1.00  0.00     0.041 C 
ATOM     13  O   UNL     1     -13.594  -3.026 -39.141  1.00  0.00    -0.550 OA
ATOM     14  O   UNL     1     -14.429  -1.215 -40.269  1.00  0.00    -0.550 OA
ENDBRANCH  11  12
ENDBRANCH  10  11
ENDBRANCH   9  10
ENDBRANCH   8   9
ENDBRANCH   7   8
ENDBRANCH   6   7
ENDBRANCH   5   6
ENDBRANCH   4   5
ENDBRANCH   3   4
ENDBRANCH   2   3
ENDBRANCH   1   2
BRANCH   1  15
ATOM     15  C   UNL     1     -10.219   2.276 -36.570  1.00  0.00     0.000 C 
BRANCH  15  16
ATOM     16  C   UNL     1     -10.329   2.240 -38.109  1.00  0.00     0.000 C 
BRANCH  16  17
ATOM     17  C   UNL     1      -9.158   2.892 -38.867  1.00  0.00     0.000 C 
BRANCH  17  18
ATOM     18  C   UNL     1      -9.615   3.677 -40.110  1.00  0.00    -0.000 C 
BRANCH  18  19
ATOM     19  C   UNL     1     -11.066   4.172 -39.995  1.00  0.00    -0.000 C 
BRANCH  19  20
ATOM     20  C   UNL     1     -11.988   3.569 -41.066  1.00  0.00    -0.000 C 
BRANCH  20  21
ATOM     21  C   UNL     1     -13.463   3.819 -40.722  1.00  0.00    -0.000 C 
BRANCH  21  22
ATOM     22  C   UNL     1     -13.805   5.316 -40.609  1.00  0.00    -0.000 C 
BRANCH  22  23
ATOM     23  C   UNL     1     -13.887   6.068 -41.952  1.00  0.00    -0.000 C 
BRANCH  23  24
ATOM     24  C   UNL     1     -14.776   5.404 -43.021  1.00  0.00    -0.000 C 
BRANCH  24  25
ATOM     25  C   UNL     1     -14.045   5.018 -44.320  1.00  0.00    -0.003 C 
ATOM     26  C   UNL     1     -12.553   5.342 -44.282  1.00  0.00     0.004 C 
ENDBRANCH  24  25
ENDBRANCH  23  24
ENDBRANCH  22  23
ENDBRANCH  21  22
ENDBRANCH  20  21
ENDBRANCH  19  20
ENDBRANCH  18  19
ENDBRANCH  17  18
ENDBRANCH  16  17
ENDBRANCH  15  16
ENDBRANCH   1  15
TORSDOF 22
ENDMDL
MODEL 9
REMARK VINA RESULT:    -3.701      2.838      6.301
REMARK INTER + INTRA:         -12.768
REMARK INTER:                  -9.422
REMARK INTRA:                  -3.346
REMARK UNBOUND:                -4.306
REMARK SMILES CCCCCCCCCCCCCCCCCCCCCCCC(=O)[O-]
REMARK SMILES IDX 13 1 14 2 15 3 16 4 17 5 18 6 19 7 20 8 21 9 22 10 23 11
REMARK SMILES IDX 24 12 25 13 26 14 12 15 11 16 10 17 9 18 8 19 7 20 6 21 5 22
REMARK SMILES IDX 4 23 3 24 2 25 1 26
REMARK H PARENT
REMARK Flexibility Score: inf
ROOT
ATOM      1  C   UNL     1     -10.629   3.347 -37.964  1.00  0.00     0.000 C 
ENDROOT
BRANCH   1   2
ATOM      2  C   UNL     1     -10.501   2.387 -39.159  1.00  0.00     0.000 C 
BRANCH   2   3
ATOM      3  C   UNL     1      -9.330   2.752 -40.085  1.00  0.00     0.000 C 
BRANCH   3   4
ATOM      4  C   UNL     1      -9.792   3.277 -41.452  1.00  0.00     0.000 C 
BRANCH   4   5
ATOM      5  C   UNL     1     -11.123   2.632 -41.865  1.00  0.00     0.000 C 
BRANCH   5   6
ATOM      6  C   UNL     1     -12.159   3.655 -42.366  1.00  0.00     0.000 C 
BRANCH   6   7
ATOM      7  C   UNL     1     -12.592   4.706 -41.327  1.00  0.00     0.000 C 
BRANCH   7   8
ATOM      8  C   UNL     1     -13.997   4.441 -40.758  1.00  0.00     0.000 C 
BRANCH   8   9
ATOM      9  C   UNL     1     -15.036   5.460 -41.254  1.00  0.00     0.000 C 
BRANCH   9  10
ATOM     10  C   UNL     1     -15.411   5.252 -42.732  1.00  0.00     0.006 C 
BRANCH  10  11
ATOM     11  C   UNL     1     -16.873   5.621 -43.014  1.00  0.00     0.053 C 
BRANCH  11  12
ATOM     12  C   UNL     1     -17.794   5.079 -41.965  1.00  0.00     0.041 C 
ATOM     13  O   UNL     1     -18.420   5.862 -41.203  1.00  0.00    -0.550 OA
ATOM     14  O   UNL     1     -17.986   3.707 -41.851  1.00  0.00    -0.550 OA
ENDBRANCH  11  12
ENDBRANCH  10  11
ENDBRANCH   9  10
ENDBRANCH   8   9
ENDBRANCH   7   8
ENDBRANCH   6   7
ENDBRANCH   5   6
ENDBRANCH   4   5
ENDBRANCH   3   4
ENDBRANCH   2   3
ENDBRANCH   1   2
BRANCH   1  15
ATOM     15  C   UNL     1      -9.353   3.401 -37.102  1.00  0.00     0.000 C 
BRANCH  15  16
ATOM     16  C   UNL     1      -9.293   2.378 -35.948  1.00  0.00     0.000 C 
BRANCH  16  17
ATOM     17  C   UNL     1     -10.654   1.830 -35.482  1.00  0.00     0.000 C 
BRANCH  17  18
ATOM     18  C   UNL     1     -10.854   0.347 -35.840  1.00  0.00    -0.000 C 
BRANCH  18  19
ATOM     19  C   UNL     1      -9.547  -0.340 -36.268  1.00  0.00    -0.000 C 
BRANCH  19  20
ATOM     20  C   UNL     1      -9.587  -0.844 -37.719  1.00  0.00    -0.000 C 
BRANCH  20  21
ATOM     21  C   UNL     1     -11.031  -1.116 -38.164  1.00  0.00    -0.000 C 
BRANCH  21  22
ATOM     22  C   UNL     1     -11.113  -1.801 -39.540  1.00  0.00    -0.000 C 
BRANCH  22  23
ATOM     23  C   UNL     1     -11.191  -0.840 -40.744  1.00  0.00    -0.000 C 
BRANCH  23  24
ATOM     24  C   UNL     1     -10.038  -0.967 -41.758  1.00  0.00    -0.000 C 
BRANCH  24  25
ATOM     25  C   UNL     1      -8.729  -1.536 -41.181  1.00  0.00    -0.003 C 
ATOM     26  C   UNL     1      -7.623  -0.489 -41.070  1.00  0.00     0.004 C 
ENDBRANCH  24  25
ENDBRANCH  23  24
ENDBRANCH  22  23
ENDBRANCH  21  22
ENDBRANCH  20  21
ENDBRANCH  19  20
ENDBRANCH  18  19
ENDBRANCH  17  18
ENDBRANCH  16  17
ENDBRANCH  15  16
ENDBRANCH   1  15
TORSDOF 22
ENDMDL
