MODEL 1
REMARK VINA RESULT:    -8.145      0.000      0.000
REMARK INTER + INTRA:          -9.450
REMARK INTER:                  -9.573
REMARK INTRA:                   0.124
REMARK UNBOUND:                 0.124
REMARK SMILES O=c1c(O)c(-c2ccc(O)cc2)oc2cc(O)cc(O)c12
REMARK SMILES IDX 5 1 3 2 2 3 1 4 21 5 19 6 18 7 16 8 15 9 14 10 13 11 6 12
REMARK SMILES IDX 7 13 8 14 9 15 12 16 11 17 10 18 4 20 20 22 17 24
REMARK H PARENT 10 19 4 21 20 23 17 25
REMARK Flexibility Score: inf
ROOT
ATOM      1  C   UNL     1       5.575 -55.975 -28.406  1.00  0.00     0.180 A 
ATOM      2  C   UNL     1       5.101 -55.819 -29.720  1.00  0.00     0.208 A 
ATOM      3  C   UNL     1       6.021 -55.568 -30.750  1.00  0.00     0.238 A 
ATOM      4  O   UNL     1       5.586 -55.375 -31.915  1.00  0.00    -0.285 OA
ATOM      5  C   UNL     1       7.404 -55.492 -30.457  1.00  0.00     0.111 A 
ATOM      6  C   UNL     1       8.428 -55.281 -31.430  1.00  0.00     0.134 A 
ATOM      7  C   UNL     1       9.751 -55.093 -31.009  1.00  0.00     0.093 A 
ATOM      8  C   UNL     1      10.095 -55.172 -29.658  1.00  0.00     0.123 A 
ATOM      9  C   UNL     1       9.112 -55.437 -28.707  1.00  0.00     0.094 A 
ATOM     10  C   UNL     1       7.778 -55.593 -29.092  1.00  0.00     0.146 A 
ATOM     11  O   UNL     1       6.871 -55.832 -28.152  1.00  0.00    -0.452 OA
ENDROOT
BRANCH   1  12
ATOM     12  C   UNL     1       4.670 -56.267 -27.271  1.00  0.00     0.021 A 
ATOM     13  C   UNL     1       3.498 -55.507 -27.108  1.00  0.00     0.016 A 
ATOM     14  C   UNL     1       2.640 -55.750 -26.031  1.00  0.00     0.047 A 
ATOM     15  C   UNL     1       2.952 -56.745 -25.095  1.00  0.00     0.115 A 
ATOM     16  C   UNL     1       4.984 -57.250 -26.316  1.00  0.00     0.016 A 
ATOM     17  C   UNL     1       4.125 -57.490 -25.239  1.00  0.00     0.047 A 
BRANCH  15  18
ATOM     18  O   UNL     1       2.104 -56.997 -24.017  1.00  0.00    -0.508 OA
ATOM     19  H   UNL     1       2.240 -56.543 -23.121  1.00  0.00     0.293 HD
ENDBRANCH  15  18
ENDBRANCH   1  12
BRANCH   2  20
ATOM     20  O   UNL     1       3.730 -55.876 -29.983  1.00  0.00    -0.502 OA
ATOM     21  H   UNL     1       3.332 -56.516 -30.661  1.00  0.00     0.293 HD
ENDBRANCH   2  20
BRANCH   6  22
ATOM     22  O   UNL     1       8.205 -55.277 -32.809  1.00  0.00    -0.507 OA
ATOM     23  H   UNL     1       8.745 -55.801 -33.481  1.00  0.00     0.293 HD
ENDBRANCH   6  22
BRANCH   8  24
ATOM     24  O   UNL     1      11.417 -55.000 -29.250  1.00  0.00    -0.508 OA
ATOM     25  H   UNL     1      12.147 -54.754 -29.908  1.00  0.00     0.293 HD
ENDBRANCH   8  24
TORSDOF 5
ENDMDL
MODEL 2
REMARK VINA RESULT:    -8.117      1.736      7.284
REMARK INTER + INTRA:          -9.417
REMARK INTER:                  -9.571
REMARK INTRA:                   0.154
REMARK UNBOUND:                 0.124
REMARK SMILES O=c1c(O)c(-c2ccc(O)cc2)oc2cc(O)cc(O)c12
REMARK SMILES IDX 5 1 3 2 2 3 1 4 21 5 19 6 18 7 16 8 15 9 14 10 13 11 6 12
REMARK SMILES IDX 7 13 8 14 9 15 12 16 11 17 10 18 4 20 20 22 17 24
REMARK H PARENT 10 19 4 21 20 23 17 25
REMARK Flexibility Score: inf
ROOT
ATOM      1  C   UNL     1       5.060 -56.109 -27.659  1.00  0.00     0.180 A 
ATOM      2  C   UNL     1       5.112 -57.102 -26.666  1.00  0.00     0.208 A 
ATOM      3  C   UNL     1       4.096 -57.149 -25.697  1.00  0.00     0.238 A 
ATOM      4  O   UNL     1       4.176 -58.006 -24.779  1.00  0.00    -0.285 OA
ATOM      5  C   UNL     1       3.035 -56.214 -25.743  1.00  0.00     0.111 A 
ATOM      6  C   UNL     1       1.932 -56.194 -24.836  1.00  0.00     0.134 A 
ATOM      7  C   UNL     1       1.008 -55.144 -24.896  1.00  0.00     0.093 A 
ATOM      8  C   UNL     1       1.111 -54.149 -25.871  1.00  0.00     0.123 A 
ATOM      9  C   UNL     1       2.150 -54.192 -26.798  1.00  0.00     0.094 A 
ATOM     10  C   UNL     1       3.108 -55.207 -26.740  1.00  0.00     0.146 A 
ATOM     11  O   UNL     1       4.088 -55.205 -27.636  1.00  0.00    -0.452 OA
ENDROOT
BRANCH   1  12
ATOM     12  C   UNL     1       6.080 -56.011 -28.728  1.00  0.00     0.021 A 
ATOM     13  C   UNL     1       7.443 -56.112 -28.396  1.00  0.00     0.016 A 
ATOM     14  C   UNL     1       8.424 -55.999 -29.386  1.00  0.00     0.047 A 
ATOM     15  C   UNL     1       8.055 -55.769 -30.718  1.00  0.00     0.115 A 
ATOM     16  C   UNL     1       5.720 -55.760 -30.064  1.00  0.00     0.016 A 
ATOM     17  C   UNL     1       6.703 -55.648 -31.052  1.00  0.00     0.047 A 
BRANCH  15  18
ATOM     18  O   UNL     1       9.023 -55.656 -31.714  1.00  0.00    -0.508 OA
ATOM     19  H   UNL     1       8.800 -55.279 -32.627  1.00  0.00     0.293 HD
ENDBRANCH  15  18
ENDBRANCH   1  12
BRANCH   2  20
ATOM     20  O   UNL     1       6.181 -58.002 -26.626  1.00  0.00    -0.502 OA
ATOM     21  H   UNL     1       6.401 -58.548 -25.801  1.00  0.00     0.293 HD
ENDBRANCH   2  20
BRANCH   6  22
ATOM     22  O   UNL     1       1.686 -57.189 -23.886  1.00  0.00    -0.507 OA
ATOM     23  H   UNL     1       2.356 -57.884 -23.593  1.00  0.00     0.293 HD
ENDBRANCH   6  22
BRANCH   8  24
ATOM     24  O   UNL     1       0.178 -53.116 -25.933  1.00  0.00    -0.508 OA
ATOM     25  H   UNL     1       0.329 -52.235 -25.456  1.00  0.00     0.293 HD
ENDBRANCH   8  24
TORSDOF 5
ENDMDL
MODEL 3
REMARK VINA RESULT:    -8.041      2.117      6.542
REMARK INTER + INTRA:          -9.328
REMARK INTER:                  -9.083
REMARK INTRA:                  -0.245
REMARK UNBOUND:                 0.124
REMARK SMILES O=c1c(O)c(-c2ccc(O)cc2)oc2cc(O)cc(O)c12
REMARK SMILES IDX 5 1 3 2 2 3 1 4 21 5 19 6 18 7 16 8 15 9 14 10 13 11 6 12
REMARK SMILES IDX 7 13 8 14 9 15 12 16 11 17 10 18 4 20 20 22 17 24
REMARK H PARENT 10 19 4 21 20 23 17 25
REMARK Flexibility Score: inf
ROOT
ATOM      1  C   UNL     1       7.264 -56.236 -28.760  1.00  0.00     0.180 A 
ATOM      2  C   UNL     1       5.869 -56.064 -28.750  1.00  0.00     0.208 A 
ATOM      3  C   UNL     1       5.132 -56.543 -27.654  1.00  0.00     0.238 A 
ATOM      4  O   UNL     1       3.878 -56.434 -27.677  1.00  0.00    -0.285 OA
ATOM      5  C   UNL     1       5.800 -57.172 -26.577  1.00  0.00     0.111 A 
ATOM      6  C   UNL     1       5.156 -57.659 -25.399  1.00  0.00     0.134 A 
ATOM      7  C   UNL     1       5.898 -58.382 -24.456  1.00  0.00     0.093 A 
ATOM      8  C   UNL     1       7.272 -58.578 -24.618  1.00  0.00     0.123 A 
ATOM      9  C   UNL     1       7.919 -58.056 -25.735  1.00  0.00     0.094 A 
ATOM     10  C   UNL     1       7.199 -57.362 -26.711  1.00  0.00     0.146 A 
ATOM     11  O   UNL     1       7.854 -56.890 -27.765  1.00  0.00    -0.452 OA
ENDROOT
BRANCH   1  12
ATOM     12  C   UNL     1       8.112 -55.737 -29.867  1.00  0.00     0.021 A 
ATOM     13  C   UNL     1       8.191 -56.472 -31.063  1.00  0.00     0.016 A 
ATOM     14  C   UNL     1       9.003 -56.031 -32.112  1.00  0.00     0.047 A 
ATOM     15  C   UNL     1       9.757 -54.858 -31.973  1.00  0.00     0.115 A 
ATOM     16  C   UNL     1       8.887 -54.572 -29.728  1.00  0.00     0.016 A 
ATOM     17  C   UNL     1       9.698 -54.134 -30.779  1.00  0.00     0.047 A 
BRANCH  15  18
ATOM     18  O   UNL     1      10.569 -54.408 -33.012  1.00  0.00    -0.508 OA
ATOM     19  H   UNL     1      10.196 -54.238 -33.939  1.00  0.00     0.293 HD
ENDBRANCH  15  18
ENDBRANCH   1  12
BRANCH   2  20
ATOM     20  O   UNL     1       5.228 -55.460 -29.834  1.00  0.00    -0.502 OA
ATOM     21  H   UNL     1       4.263 -55.153 -29.794  1.00  0.00     0.293 HD
ENDBRANCH   2  20
BRANCH   6  22
ATOM     22  O   UNL     1       3.811 -57.437 -25.096  1.00  0.00    -0.507 OA
ATOM     23  H   UNL     1       3.478 -56.935 -24.287  1.00  0.00     0.293 HD
ENDBRANCH   6  22
BRANCH   8  24
ATOM     24  O   UNL     1       8.006 -59.285 -23.666  1.00  0.00    -0.508 OA
ATOM     25  H   UNL     1       7.712 -60.199 -23.342  1.00  0.00     0.293 HD
ENDBRANCH   8  24
TORSDOF 5
ENDMDL
MODEL 4
REMARK VINA RESULT:    -7.903      1.704      7.052
REMARK INTER + INTRA:          -9.165
REMARK INTER:                  -8.901
REMARK INTRA:                  -0.264
REMARK UNBOUND:                 0.124
REMARK SMILES O=c1c(O)c(-c2ccc(O)cc2)oc2cc(O)cc(O)c12
REMARK SMILES IDX 5 1 3 2 2 3 1 4 21 5 19 6 18 7 16 8 15 9 14 10 13 11 6 12
REMARK SMILES IDX 7 13 8 14 9 15 12 16 11 17 10 18 4 20 20 22 17 24
REMARK H PARENT 10 19 4 21 20 23 17 25
REMARK Flexibility Score: inf
ROOT
ATOM      1  C   UNL     1       6.975 -56.192 -28.415  1.00  0.00     0.180 A 
ATOM      2  C   UNL     1       7.371 -57.084 -27.404  1.00  0.00     0.208 A 
ATOM      3  C   UNL     1       6.442 -57.452 -26.418  1.00  0.00     0.238 A 
ATOM      4  O   UNL     1       6.818 -58.208 -25.485  1.00  0.00    -0.285 OA
ATOM      5  C   UNL     1       5.125 -56.935 -26.463  1.00  0.00     0.111 A 
ATOM      6  C   UNL     1       4.090 -57.271 -25.539  1.00  0.00     0.134 A 
ATOM      7  C   UNL     1       2.862 -56.600 -25.602  1.00  0.00     0.093 A 
ATOM      8  C   UNL     1       2.611 -55.653 -26.598  1.00  0.00     0.123 A 
ATOM      9  C   UNL     1       3.593 -55.361 -27.541  1.00  0.00     0.094 A 
ATOM     10  C   UNL     1       4.841 -55.988 -27.481  1.00  0.00     0.146 A 
ATOM     11  O   UNL     1       5.752 -55.673 -28.393  1.00  0.00    -0.452 OA
ENDROOT
BRANCH   1  12
ATOM     12  C   UNL     1       7.890 -55.777 -29.503  1.00  0.00     0.021 A 
ATOM     13  C   UNL     1       8.810 -54.739 -29.274  1.00  0.00     0.016 A 
ATOM     14  C   UNL     1       9.668 -54.315 -30.294  1.00  0.00     0.047 A 
ATOM     15  C   UNL     1       9.606 -54.915 -31.559  1.00  0.00     0.115 A 
ATOM     16  C   UNL     1       7.821 -56.359 -30.781  1.00  0.00     0.016 A 
ATOM     17  C   UNL     1       8.680 -55.934 -31.799  1.00  0.00     0.047 A 
BRANCH  15  18
ATOM     18  O   UNL     1      10.456 -54.503 -32.583  1.00  0.00    -0.508 OA
ATOM     19  H   UNL     1      10.226 -54.661 -33.558  1.00  0.00     0.293 HD
ENDBRANCH  15  18
ENDBRANCH   1  12
BRANCH   2  20
ATOM     20  O   UNL     1       8.683 -57.564 -27.365  1.00  0.00    -0.502 OA
ATOM     21  H   UNL     1       9.300 -57.396 -26.579  1.00  0.00     0.293 HD
ENDBRANCH   2  20
BRANCH   6  22
ATOM     22  O   UNL     1       4.207 -58.268 -24.566  1.00  0.00    -0.507 OA
ATOM     23  H   UNL     1       4.170 -59.259 -24.750  1.00  0.00     0.293 HD
ENDBRANCH   6  22
BRANCH   8  24
ATOM     24  O   UNL     1       1.380 -55.002 -26.664  1.00  0.00    -0.508 OA
ATOM     25  H   UNL     1       0.577 -55.430 -27.109  1.00  0.00     0.293 HD
ENDBRANCH   8  24
TORSDOF 5
ENDMDL
MODEL 5
REMARK VINA RESULT:    -7.528      2.086      4.296
REMARK INTER + INTRA:          -8.724
REMARK INTER:                  -8.839
REMARK INTRA:                   0.115
REMARK UNBOUND:                 0.124
REMARK SMILES O=c1c(O)c(-c2ccc(O)cc2)oc2cc(O)cc(O)c12
REMARK SMILES IDX 5 1 3 2 2 3 1 4 21 5 19 6 18 7 16 8 15 9 14 10 13 11 6 12
REMARK SMILES IDX 7 13 8 14 9 15 12 16 11 17 10 18 4 20 20 22 17 24
REMARK H PARENT 10 19 4 21 20 23 17 25
REMARK Flexibility Score: inf
ROOT
ATOM      1  C   UNL     1       3.062 -55.581 -26.719  1.00  0.00     0.180 A 
ATOM      2  C   UNL     1       4.100 -56.316 -26.120  1.00  0.00     0.208 A 
ATOM      3  C   UNL     1       5.251 -56.604 -26.871  1.00  0.00     0.238 A 
ATOM      4  O   UNL     1       6.153 -57.310 -26.348  1.00  0.00    -0.285 OA
ATOM      5  C   UNL     1       5.357 -56.140 -28.204  1.00  0.00     0.111 A 
ATOM      6  C   UNL     1       6.496 -56.340 -29.043  1.00  0.00     0.134 A 
ATOM      7  C   UNL     1       6.439 -55.950 -30.387  1.00  0.00     0.093 A 
ATOM      8  C   UNL     1       5.310 -55.310 -30.904  1.00  0.00     0.123 A 
ATOM      9  C   UNL     1       4.218 -55.058 -30.078  1.00  0.00     0.094 A 
ATOM     10  C   UNL     1       4.230 -55.467 -28.742  1.00  0.00     0.146 A 
ATOM     11  O   UNL     1       3.164 -55.216 -27.992  1.00  0.00    -0.452 OA
ENDROOT
BRANCH   1  12
ATOM     12  C   UNL     1       1.829 -55.217 -25.985  1.00  0.00     0.021 A 
ATOM     13  C   UNL     1       1.361 -53.892 -26.033  1.00  0.00     0.016 A 
ATOM     14  C   UNL     1       0.211 -53.521 -25.328  1.00  0.00     0.047 A 
ATOM     15  C   UNL     1      -0.475 -54.467 -24.555  1.00  0.00     0.115 A 
ATOM     16  C   UNL     1       1.146 -56.154 -25.190  1.00  0.00     0.016 A 
ATOM     17  C   UNL     1      -0.003 -55.781 -24.486  1.00  0.00     0.047 A 
BRANCH  15  18
ATOM     18  O   UNL     1      -1.622 -54.110 -23.848  1.00  0.00    -0.508 OA
ATOM     19  H   UNL     1      -1.987 -53.164 -23.876  1.00  0.00     0.293 HD
ENDBRANCH  15  18
ENDBRANCH   1  12
BRANCH   2  20
ATOM     20  O   UNL     1       3.964 -56.784 -24.811  1.00  0.00    -0.502 OA
ATOM     21  H   UNL     1       4.279 -57.705 -24.527  1.00  0.00     0.293 HD
ENDBRANCH   2  20
BRANCH   6  22
ATOM     22  O   UNL     1       7.704 -56.885 -28.602  1.00  0.00    -0.507 OA
ATOM     23  H   UNL     1       8.229 -57.593 -29.092  1.00  0.00     0.293 HD
ENDBRANCH   6  22
BRANCH   8  24
ATOM     24  O   UNL     1       5.269 -54.911 -32.239  1.00  0.00    -0.508 OA
ATOM     25  H   UNL     1       5.166 -53.937 -32.498  1.00  0.00     0.293 HD
ENDBRANCH   8  24
TORSDOF 5
ENDMDL
MODEL 6
REMARK VINA RESULT:    -7.292      2.009      2.727
REMARK INTER + INTRA:          -8.447
REMARK INTER:                  -9.030
REMARK INTRA:                   0.584
REMARK UNBOUND:                 0.124
REMARK SMILES O=c1c(O)c(-c2ccc(O)cc2)oc2cc(O)cc(O)c12
REMARK SMILES IDX 5 1 3 2 2 3 1 4 21 5 19 6 18 7 16 8 15 9 14 10 13 11 6 12
REMARK SMILES IDX 7 13 8 14 9 15 12 16 11 17 10 18 4 20 20 22 17 24
REMARK H PARENT 10 19 4 21 20 23 17 25
REMARK Flexibility Score: inf
ROOT
ATOM      1  C   UNL     1       6.491 -56.699 -27.898  1.00  0.00     0.180 A 
ATOM      2  C   UNL     1       5.265 -56.262 -28.429  1.00  0.00     0.208 A 
ATOM      3  C   UNL     1       5.248 -55.667 -29.701  1.00  0.00     0.238 A 
ATOM      4  O   UNL     1       4.156 -55.229 -30.148  1.00  0.00    -0.285 OA
ATOM      5  C   UNL     1       6.452 -55.532 -30.432  1.00  0.00     0.111 A 
ATOM      6  C   UNL     1       6.545 -54.981 -31.746  1.00  0.00     0.134 A 
ATOM      7  C   UNL     1       7.806 -54.776 -32.322  1.00  0.00     0.093 A 
ATOM      8  C   UNL     1       8.972 -55.162 -31.656  1.00  0.00     0.123 A 
ATOM      9  C   UNL     1       8.888 -55.755 -30.399  1.00  0.00     0.094 A 
ATOM     10  C   UNL     1       7.647 -55.939 -29.784  1.00  0.00     0.146 A 
ATOM     11  O   UNL     1       7.613 -56.498 -28.580  1.00  0.00    -0.452 OA
ENDROOT
BRANCH   1  12
ATOM     12  C   UNL     1       6.586 -57.357 -26.575  1.00  0.00     0.021 A 
ATOM     13  C   UNL     1       5.439 -57.457 -25.768  1.00  0.00     0.016 A 
ATOM     14  C   UNL     1       5.511 -58.054 -24.506  1.00  0.00     0.047 A 
ATOM     15  C   UNL     1       6.734 -58.545 -24.029  1.00  0.00     0.115 A 
ATOM     16  C   UNL     1       7.813 -57.835 -26.080  1.00  0.00     0.016 A 
ATOM     17  C   UNL     1       7.882 -58.431 -24.817  1.00  0.00     0.047 A 
BRANCH  15  18
ATOM     18  O   UNL     1       6.818 -59.143 -22.773  1.00  0.00    -0.508 OA
ATOM     19  H   UNL     1       7.268 -58.675 -21.994  1.00  0.00     0.293 HD
ENDBRANCH  15  18
ENDBRANCH   1  12
BRANCH   2  20
ATOM     20  O   UNL     1       4.091 -56.385 -27.681  1.00  0.00    -0.502 OA
ATOM     21  H   UNL     1       3.203 -56.636 -28.100  1.00  0.00     0.293 HD
ENDBRANCH   2  20
BRANCH   6  22
ATOM     22  O   UNL     1       5.439 -54.648 -32.533  1.00  0.00    -0.507 OA
ATOM     23  H   UNL     1       4.819 -55.316 -32.966  1.00  0.00     0.293 HD
ENDBRANCH   6  22
BRANCH   8  24
ATOM     24  O   UNL     1      10.221 -54.969 -32.243  1.00  0.00    -0.508 OA
ATOM     25  H   UNL     1      10.361 -54.290 -32.982  1.00  0.00     0.293 HD
ENDBRANCH   8  24
TORSDOF 5
ENDMDL
MODEL 7
REMARK VINA RESULT:    -7.093      3.449      5.996
REMARK INTER + INTRA:          -8.214
REMARK INTER:                  -8.015
REMARK INTRA:                  -0.199
REMARK UNBOUND:                 0.124
REMARK SMILES O=c1c(O)c(-c2ccc(O)cc2)oc2cc(O)cc(O)c12
REMARK SMILES IDX 5 1 3 2 2 3 1 4 21 5 19 6 18 7 16 8 15 9 14 10 13 11 6 12
REMARK SMILES IDX 7 13 8 14 9 15 12 16 11 17 10 18 4 20 20 22 17 24
REMARK H PARENT 10 19 4 21 20 23 17 25
REMARK Flexibility Score: inf
ROOT
ATOM      1  C   UNL     1       3.013 -54.339 -25.070  1.00  0.00     0.180 A 
ATOM      2  C   UNL     1       3.317 -55.582 -24.487  1.00  0.00     0.208 A 
ATOM      3  C   UNL     1       3.807 -56.615 -25.301  1.00  0.00     0.238 A 
ATOM      4  O   UNL     1       4.025 -57.741 -24.783  1.00  0.00    -0.285 OA
ATOM      5  C   UNL     1       4.003 -56.388 -26.685  1.00  0.00     0.111 A 
ATOM      6  C   UNL     1       4.532 -57.351 -27.597  1.00  0.00     0.134 A 
ATOM      7  C   UNL     1       4.560 -57.062 -28.967  1.00  0.00     0.093 A 
ATOM      8  C   UNL     1       4.139 -55.821 -29.449  1.00  0.00     0.123 A 
ATOM      9  C   UNL     1       3.676 -54.853 -28.561  1.00  0.00     0.094 A 
ATOM     10  C   UNL     1       3.602 -55.125 -27.192  1.00  0.00     0.146 A 
ATOM     11  O   UNL     1       3.145 -54.178 -26.382  1.00  0.00    -0.452 OA
ENDROOT
BRANCH   1  12
ATOM     12  C   UNL     1       2.516 -53.195 -24.272  1.00  0.00     0.021 A 
ATOM     13  C   UNL     1       3.382 -52.125 -23.984  1.00  0.00     0.016 A 
ATOM     14  C   UNL     1       2.940 -51.045 -23.212  1.00  0.00     0.047 A 
ATOM     15  C   UNL     1       1.633 -51.029 -22.709  1.00  0.00     0.115 A 
ATOM     16  C   UNL     1       1.213 -53.180 -23.746  1.00  0.00     0.016 A 
ATOM     17  C   UNL     1       0.774 -52.099 -22.975  1.00  0.00     0.047 A 
BRANCH  15  18
ATOM     18  O   UNL     1       1.181 -49.958 -21.940  1.00  0.00    -0.508 OA
ATOM     19  H   UNL     1       1.345 -49.919 -20.940  1.00  0.00     0.293 HD
ENDBRANCH  15  18
ENDBRANCH   1  12
BRANCH   2  20
ATOM     20  O   UNL     1       3.095 -55.790 -23.123  1.00  0.00    -0.502 OA
ATOM     21  H   UNL     1       3.746 -55.479 -22.412  1.00  0.00     0.293 HD
ENDBRANCH   2  20
BRANCH   6  22
ATOM     22  O   UNL     1       5.065 -58.583 -27.208  1.00  0.00    -0.507 OA
ATOM     23  H   UNL     1       6.001 -58.721 -26.857  1.00  0.00     0.293 HD
ENDBRANCH   6  22
BRANCH   8  24
ATOM     24  O   UNL     1       4.185 -55.536 -30.813  1.00  0.00    -0.508 OA
ATOM     25  H   UNL     1       5.065 -55.452 -31.307  1.00  0.00     0.293 HD
ENDBRANCH   8  24
TORSDOF 5
ENDMDL
MODEL 8
REMARK VINA RESULT:    -7.079      4.187      8.166
REMARK INTER + INTRA:          -8.197
REMARK INTER:                  -7.995
REMARK INTRA:                  -0.202
REMARK UNBOUND:                 0.124
REMARK SMILES O=c1c(O)c(-c2ccc(O)cc2)oc2cc(O)cc(O)c12
REMARK SMILES IDX 5 1 3 2 2 3 1 4 21 5 19 6 18 7 16 8 15 9 14 10 13 11 6 12
REMARK SMILES IDX 7 13 8 14 9 15 12 16 11 17 10 18 4 20 20 22 17 24
REMARK H PARENT 10 19 4 21 20 23 17 25
REMARK Flexibility Score: inf
ROOT
ATOM      1  C   UNL     1       2.711 -54.190 -25.251  1.00  0.00     0.180 A 
ATOM      2  C   UNL     1       1.735 -54.597 -24.325  1.00  0.00     0.208 A 
ATOM      3  C   UNL     1       1.267 -53.671 -23.378  1.00  0.00     0.238 A 
ATOM      4  O   UNL     1       0.434 -54.057 -22.517  1.00  0.00    -0.285 OA
ATOM      5  C   UNL     1       1.768 -52.348 -23.380  1.00  0.00     0.111 A 
ATOM      6  C   UNL     1       1.335 -51.317 -22.492  1.00  0.00     0.134 A 
ATOM      7  C   UNL     1       1.992 -50.080 -22.497  1.00  0.00     0.093 A 
ATOM      8  C   UNL     1       3.023 -49.817 -23.402  1.00  0.00     0.123 A 
ATOM      9  C   UNL     1       3.412 -50.796 -24.313  1.00  0.00     0.094 A 
ATOM     10  C   UNL     1       2.800 -52.052 -24.307  1.00  0.00     0.146 A 
ATOM     11  O   UNL     1       3.209 -52.960 -25.185  1.00  0.00    -0.452 OA
ENDROOT
BRANCH   1  12
ATOM     12  C   UNL     1       3.235 -55.100 -26.295  1.00  0.00     0.021 A 
ATOM     13  C   UNL     1       4.124 -56.127 -25.933  1.00  0.00     0.016 A 
ATOM     14  C   UNL     1       4.650 -56.984 -26.905  1.00  0.00     0.047 A 
ATOM     15  C   UNL     1       4.304 -56.815 -28.252  1.00  0.00     0.115 A 
ATOM     16  C   UNL     1       2.909 -54.925 -27.651  1.00  0.00     0.016 A 
ATOM     17  C   UNL     1       3.436 -55.784 -28.621  1.00  0.00     0.047 A 
BRANCH  15  18
ATOM     18  O   UNL     1       4.820 -57.663 -29.230  1.00  0.00    -0.508 OA
ATOM     19  H   UNL     1       4.213 -58.184 -29.853  1.00  0.00     0.293 HD
ENDBRANCH  15  18
ENDBRANCH   1  12
BRANCH   2  20
ATOM     20  O   UNL     1       1.271 -55.915 -24.327  1.00  0.00    -0.502 OA
ATOM     21  H   UNL     1       1.889 -56.709 -24.450  1.00  0.00     0.293 HD
ENDBRANCH   2  20
BRANCH   6  22
ATOM     22  O   UNL     1       0.256 -51.446 -21.613  1.00  0.00    -0.507 OA
ATOM     23  H   UNL     1      -0.246 -52.304 -21.440  1.00  0.00     0.293 HD
ENDBRANCH   6  22
BRANCH   8  24
ATOM     24  O   UNL     1       3.661 -48.577 -23.412  1.00  0.00    -0.508 OA
ATOM     25  H   UNL     1       3.289 -47.786 -22.901  1.00  0.00     0.293 HD
ENDBRANCH   8  24
TORSDOF 5
ENDMDL
MODEL 9
REMARK VINA RESULT:    -6.773      3.304      8.814
REMARK INTER + INTRA:          -7.837
REMARK INTER:                  -7.537
REMARK INTRA:                  -0.299
REMARK UNBOUND:                 0.124
REMARK SMILES O=c1c(O)c(-c2ccc(O)cc2)oc2cc(O)cc(O)c12
REMARK SMILES IDX 5 1 3 2 2 3 1 4 21 5 19 6 18 7 16 8 15 9 14 10 13 11 6 12
REMARK SMILES IDX 7 13 8 14 9 15 12 16 11 17 10 18 4 20 20 22 17 24
REMARK H PARENT 10 19 4 21 20 23 17 25
REMARK Flexibility Score: inf
ROOT
ATOM      1  C   UNL     1       2.397 -55.070 -25.690  1.00  0.00     0.180 A 
ATOM      2  C   UNL     1       2.528 -53.897 -24.927  1.00  0.00     0.208 A 
ATOM      3  C   UNL     1       1.522 -53.570 -24.003  1.00  0.00     0.238 A 
ATOM      4  O   UNL     1       1.618 -52.491 -23.362  1.00  0.00    -0.285 OA
ATOM      5  C   UNL     1       0.408 -54.427 -23.842  1.00  0.00     0.111 A 
ATOM      6  C   UNL     1      -0.650 -54.215 -22.906  1.00  0.00     0.134 A 
ATOM      7  C   UNL     1      -1.768 -55.058 -22.925  1.00  0.00     0.093 A 
ATOM      8  C   UNL     1      -1.835 -56.145 -23.800  1.00  0.00     0.123 A 
ATOM      9  C   UNL     1      -0.781 -56.395 -24.676  1.00  0.00     0.094 A 
ATOM     10  C   UNL     1       0.331 -55.550 -24.707  1.00  0.00     0.146 A 
ATOM     11  O   UNL     1       1.308 -55.819 -25.564  1.00  0.00    -0.452 OA
ENDROOT
BRANCH   1  12
ATOM     12  C   UNL     1       3.427 -55.493 -26.666  1.00  0.00     0.021 A 
ATOM     13  C   UNL     1       3.282 -55.144 -28.021  1.00  0.00     0.016 A 
ATOM     14  C   UNL     1       4.231 -55.553 -28.963  1.00  0.00     0.047 A 
ATOM     15  C   UNL     1       5.327 -56.329 -28.565  1.00  0.00     0.115 A 
ATOM     16  C   UNL     1       4.520 -56.289 -26.280  1.00  0.00     0.016 A 
ATOM     17  C   UNL     1       5.466 -56.697 -27.225  1.00  0.00     0.047 A 
BRANCH  15  18
ATOM     18  O   UNL     1       6.279 -56.742 -29.495  1.00  0.00    -0.508 OA
ATOM     19  H   UNL     1       6.615 -56.119 -30.221  1.00  0.00     0.293 HD
ENDBRANCH  15  18
ENDBRANCH   1  12
BRANCH   2  20
ATOM     20  O   UNL     1       3.625 -53.053 -25.119  1.00  0.00    -0.502 OA
ATOM     21  H   UNL     1       4.271 -52.822 -24.372  1.00  0.00     0.293 HD
ENDBRANCH   2  20
BRANCH   6  22
ATOM     22  O   UNL     1      -0.637 -53.216 -21.929  1.00  0.00    -0.507 OA
ATOM     23  H   UNL     1      -1.226 -53.205 -21.110  1.00  0.00     0.293 HD
ENDBRANCH   6  22
BRANCH   8  24
ATOM     24  O   UNL     1      -2.944 -56.989 -23.800  1.00  0.00    -0.508 OA
ATOM     25  H   UNL     1      -3.182 -57.552 -24.608  1.00  0.00     0.293 HD
ENDBRANCH   8  24
TORSDOF 5
ENDMDL
