MODEL 1
REMARK VINA RESULT:    -5.017      0.000      0.000
REMARK INTER + INTRA:         -17.482
REMARK INTER:                 -13.230
REMARK INTRA:                  -4.252
REMARK UNBOUND:                -4.252
REMARK SMILES CCCCCCCCCCCCCCCCCCCCCCCCCCCCCC(=O)[O-]
REMARK SMILES IDX 16 1 17 2 18 3 19 4 20 5 21 6 22 7 23 8 24 9 25 10 26 11
REMARK SMILES IDX 27 12 28 13 29 14 30 15 31 16 32 17 15 18 14 19 13 20 12 21
REMARK SMILES IDX 11 22 10 23 9 24 8 25 7 26 6 27 5 28 4 29 3 30 2 31 1 32
REMARK H PARENT
REMARK Flexibility Score: inf
ROOT
ATOM      1  C   UNL     1     162.045 166.886 154.791  1.00  0.00     0.000 C 
ENDROOT
BRANCH   1   2
ATOM      2  C   UNL     1     160.895 166.393 155.683  1.00  0.00     0.000 C 
BRANCH   2   3
ATOM      3  C   UNL     1     161.408 165.951 157.058  1.00  0.00     0.000 C 
BRANCH   3   4
ATOM      4  C   UNL     1     162.687 166.714 157.433  1.00  0.00     0.000 C 
BRANCH   4   5
ATOM      5  C   UNL     1     163.501 166.014 158.531  1.00  0.00     0.000 C 
BRANCH   5   6
ATOM      6  C   UNL     1     163.312 166.661 159.916  1.00  0.00     0.000 C 
BRANCH   6   7
ATOM      7  C   UNL     1     162.614 168.036 159.841  1.00  0.00     0.000 C 
BRANCH   7   8
ATOM      8  C   UNL     1     161.316 168.132 160.665  1.00  0.00     0.000 C 
BRANCH   8   9
ATOM      9  C   UNL     1     160.046 167.651 159.941  1.00  0.00     0.000 C 
BRANCH   9  10
ATOM     10  C   UNL     1     159.236 166.639 160.765  1.00  0.00     0.000 C 
BRANCH  10  11
ATOM     11  C   UNL     1     160.025 166.173 161.996  1.00  0.00     0.000 C 
BRANCH  11  12
ATOM     12  C   UNL     1     160.502 164.725 161.823  1.00  0.00     0.000 C 
BRANCH  12  13
ATOM     13  C   UNL     1     160.105 164.175 160.447  1.00  0.00     0.006 C 
BRANCH  13  14
ATOM     14  C   UNL     1     161.295 163.486 159.766  1.00  0.00     0.053 C 
BRANCH  14  15
ATOM     15  C   UNL     1     160.845 162.346 158.904  1.00  0.00     0.041 C 
ATOM     16  O   UNL     1     159.618 162.157 158.680  1.00  0.00    -0.550 OA
ATOM     17  O   UNL     1     161.787 161.508 158.318  1.00  0.00    -0.550 OA
ENDBRANCH  14  15
ENDBRANCH  13  14
ENDBRANCH  12  13
ENDBRANCH  11  12
ENDBRANCH  10  11
ENDBRANCH   9  10
ENDBRANCH   8   9
ENDBRANCH   7   8
ENDBRANCH   6   7
ENDBRANCH   5   6
ENDBRANCH   4   5
ENDBRANCH   3   4
ENDBRANCH   2   3
ENDBRANCH   1   2
BRANCH   1  18
ATOM     18  C   UNL     1     161.644 167.024 153.310  1.00  0.00     0.000 C 
BRANCH  18  19
ATOM     19  C   UNL     1     162.738 167.594 152.386  1.00  0.00     0.000 C 
BRANCH  19  20
ATOM     20  C   UNL     1     164.155 167.444 152.968  1.00  0.00     0.000 C 
BRANCH  20  21
ATOM     21  C   UNL     1     165.156 166.884 151.944  1.00  0.00     0.000 C 
BRANCH  21  22
ATOM     22  C   UNL     1     166.609 166.919 152.443  1.00  0.00     0.000 C 
BRANCH  22  23
ATOM     23  C   UNL     1     167.492 167.751 151.500  1.00  0.00     0.000 C 
BRANCH  23  24
ATOM     24  C   UNL     1     167.997 169.049 152.165  1.00  0.00    -0.000 C 
BRANCH  24  25
ATOM     25  C   UNL     1     167.882 169.040 153.698  1.00  0.00    -0.000 C 
BRANCH  25  26
ATOM     26  C   UNL     1     166.775 169.966 154.220  1.00  0.00    -0.000 C 
BRANCH  26  27
ATOM     27  C   UNL     1     167.088 171.432 153.894  1.00  0.00    -0.000 C 
BRANCH  27  28
ATOM     28  C   UNL     1     165.918 172.093 153.149  1.00  0.00    -0.000 C 
BRANCH  28  29
ATOM     29  C   UNL     1     164.917 171.070 152.582  1.00  0.00    -0.000 C 
BRANCH  29  30
ATOM     30  C   UNL     1     164.897 170.955 151.045  1.00  0.00    -0.000 C 
BRANCH  30  31
ATOM     31  C   UNL     1     165.710 172.031 150.302  1.00  0.00    -0.003 C 
ATOM     32  C   UNL     1     166.947 171.467 149.606  1.00  0.00     0.004 C 
ENDBRANCH  30  31
ENDBRANCH  29  30
ENDBRANCH  28  29
ENDBRANCH  27  28
ENDBRANCH  26  27
ENDBRANCH  25  26
ENDBRANCH  24  25
ENDBRANCH  23  24
ENDBRANCH  22  23
ENDBRANCH  21  22
ENDBRANCH  20  21
ENDBRANCH  19  20
ENDBRANCH  18  19
ENDBRANCH   1  18
TORSDOF 28
ENDMDL
MODEL 2
REMARK VINA RESULT:    -5.013      1.442      2.833
REMARK INTER + INTRA:         -17.470
REMARK INTER:                 -13.794
REMARK INTRA:                  -3.677
REMARK UNBOUND:                -4.252
REMARK SMILES CCCCCCCCCCCCCCCCCCCCCCCCCCCCCC(=O)[O-]
REMARK SMILES IDX 16 1 17 2 18 3 19 4 20 5 21 6 22 7 23 8 24 9 25 10 26 11
REMARK SMILES IDX 27 12 28 13 29 14 30 15 31 16 32 17 15 18 14 19 13 20 12 21
REMARK SMILES IDX 11 22 10 23 9 24 8 25 7 26 6 27 5 28 4 29 3 30 2 31 1 32
REMARK H PARENT
REMARK Flexibility Score: inf
ROOT
ATOM      1  C   UNL     1     161.185 166.503 156.307  1.00  0.00     0.000 C 
ENDROOT
BRANCH   1   2
ATOM      2  C   UNL     1     162.716 166.595 156.208  1.00  0.00     0.000 C 
BRANCH   2   3
ATOM      3  C   UNL     1     163.325 167.147 157.502  1.00  0.00     0.000 C 
BRANCH   3   4
ATOM      4  C   UNL     1     163.560 166.019 158.518  1.00  0.00     0.000 C 
BRANCH   4   5
ATOM      5  C   UNL     1     162.851 166.263 159.858  1.00  0.00     0.000 C 
BRANCH   5   6
ATOM      6  C   UNL     1     162.609 167.759 160.139  1.00  0.00     0.000 C 
BRANCH   6   7
ATOM      7  C   UNL     1     161.138 168.069 160.491  1.00  0.00     0.000 C 
BRANCH   7   8
ATOM      8  C   UNL     1     160.121 167.089 159.873  1.00  0.00     0.000 C 
BRANCH   8   9
ATOM      9  C   UNL     1     159.234 166.345 160.885  1.00  0.00     0.000 C 
BRANCH   9  10
ATOM     10  C   UNL     1     159.481 164.829 160.895  1.00  0.00     0.000 C 
BRANCH  10  11
ATOM     11  C   UNL     1     158.469 164.100 160.002  1.00  0.00     0.000 C 
BRANCH  11  12
ATOM     12  C   UNL     1     159.182 163.140 159.040  1.00  0.00     0.000 C 
BRANCH  12  13
ATOM     13  C   UNL     1     160.633 163.576 158.801  1.00  0.00     0.006 C 
BRANCH  13  14
ATOM     14  C   UNL     1     161.384 162.543 157.950  1.00  0.00     0.053 C 
BRANCH  14  15
ATOM     15  C   UNL     1     162.517 161.928 158.714  1.00  0.00     0.041 C 
ATOM     16  O   UNL     1     163.707 162.072 158.323  1.00  0.00    -0.550 OA
ATOM     17  O   UNL     1     162.259 161.220 159.883  1.00  0.00    -0.550 OA
ENDBRANCH  14  15
ENDBRANCH  13  14
ENDBRANCH  12  13
ENDBRANCH  11  12
ENDBRANCH  10  11
ENDBRANCH   9  10
ENDBRANCH   8   9
ENDBRANCH   7   8
ENDBRANCH   6   7
ENDBRANCH   5   6
ENDBRANCH   4   5
ENDBRANCH   3   4
ENDBRANCH   2   3
ENDBRANCH   1   2
BRANCH   1  18
ATOM     18  C   UNL     1     160.519 166.080 154.984  1.00  0.00     0.000 C 
BRANCH  18  19
ATOM     19  C   UNL     1     160.059 167.241 154.082  1.00  0.00     0.000 C 
BRANCH  19  20
ATOM     20  C   UNL     1     160.534 167.096 152.626  1.00  0.00     0.000 C 
BRANCH  20  21
ATOM     21  C   UNL     1     162.030 166.754 152.524  1.00  0.00     0.000 C 
BRANCH  21  22
ATOM     22  C   UNL     1     162.942 167.947 152.848  1.00  0.00     0.000 C 
BRANCH  22  23
ATOM     23  C   UNL     1     164.403 167.494 152.997  1.00  0.00     0.000 C 
BRANCH  23  24
ATOM     24  C   UNL     1     165.327 168.644 153.451  1.00  0.00    -0.000 C 
BRANCH  24  25
ATOM     25  C   UNL     1     166.032 169.363 152.289  1.00  0.00    -0.000 C 
BRANCH  25  26
ATOM     26  C   UNL     1     165.505 170.786 152.060  1.00  0.00    -0.000 C 
BRANCH  26  27
ATOM     27  C   UNL     1     166.394 171.547 151.068  1.00  0.00    -0.000 C 
BRANCH  27  28
ATOM     28  C   UNL     1     165.741 171.609 149.679  1.00  0.00    -0.000 C 
BRANCH  28  29
ATOM     29  C   UNL     1     166.680 171.131 148.556  1.00  0.00    -0.000 C 
BRANCH  29  30
ATOM     30  C   UNL     1     166.228 169.850 147.825  1.00  0.00    -0.000 C 
BRANCH  30  31
ATOM     31  C   UNL     1     167.156 168.635 148.008  1.00  0.00    -0.003 C 
ATOM     32  C   UNL     1     166.734 167.733 149.166  1.00  0.00     0.004 C 
ENDBRANCH  30  31
ENDBRANCH  29  30
ENDBRANCH  28  29
ENDBRANCH  27  28
ENDBRANCH  26  27
ENDBRANCH  25  26
ENDBRANCH  24  25
ENDBRANCH  23  24
ENDBRANCH  22  23
ENDBRANCH  21  22
ENDBRANCH  20  21
ENDBRANCH  19  20
ENDBRANCH  18  19
ENDBRANCH   1  18
TORSDOF 28
ENDMDL
MODEL 3
REMARK VINA RESULT:    -4.991      1.824      3.424
REMARK INTER + INTRA:         -17.412
REMARK INTER:                 -13.216
REMARK INTRA:                  -4.196
REMARK UNBOUND:                -4.252
REMARK SMILES CCCCCCCCCCCCCCCCCCCCCCCCCCCCCC(=O)[O-]
REMARK SMILES IDX 16 1 17 2 18 3 19 4 20 5 21 6 22 7 23 8 24 9 25 10 26 11
REMARK SMILES IDX 27 12 28 13 29 14 30 15 31 16 32 17 15 18 14 19 13 20 12 21
REMARK SMILES IDX 11 22 10 23 9 24 8 25 7 26 6 27 5 28 4 29 3 30 2 31 1 32
REMARK H PARENT
REMARK Flexibility Score: inf
ROOT
ATOM      1  C   UNL     1     160.289 167.270 153.564  1.00  0.00     0.000 C 
ENDROOT
BRANCH   1   2
ATOM      2  C   UNL     1     160.502 166.359 154.783  1.00  0.00     0.000 C 
BRANCH   2   3
ATOM      3  C   UNL     1     161.792 166.720 155.528  1.00  0.00     0.000 C 
BRANCH   3   4
ATOM      4  C   UNL     1     161.626 166.507 157.040  1.00  0.00     0.000 C 
BRANCH   4   5
ATOM      5  C   UNL     1     162.959 166.557 157.801  1.00  0.00     0.000 C 
BRANCH   5   6
ATOM      6  C   UNL     1     163.221 165.284 158.628  1.00  0.00     0.000 C 
BRANCH   6   7
ATOM      7  C   UNL     1     163.761 164.118 157.771  1.00  0.00     0.000 C 
BRANCH   7   8
ATOM      8  C   UNL     1     163.404 162.719 158.311  1.00  0.00     0.000 C 
BRANCH   8   9
ATOM      9  C   UNL     1     162.071 162.634 159.074  1.00  0.00     0.000 C 
BRANCH   9  10
ATOM     10  C   UNL     1     160.884 162.279 158.166  1.00  0.00     0.000 C 
BRANCH  10  11
ATOM     11  C   UNL     1     159.915 163.462 158.040  1.00  0.00     0.000 C 
BRANCH  11  12
ATOM     12  C   UNL     1     159.251 163.771 159.388  1.00  0.00     0.000 C 
BRANCH  12  13
ATOM     13  C   UNL     1     159.694 165.139 159.921  1.00  0.00     0.006 C 
BRANCH  13  14
ATOM     14  C   UNL     1     159.351 165.288 161.409  1.00  0.00     0.053 C 
BRANCH  14  15
ATOM     15  C   UNL     1     160.567 165.120 162.268  1.00  0.00     0.041 C 
ATOM     16  O   UNL     1     160.458 165.018 163.521  1.00  0.00    -0.550 OA
ATOM     17  O   UNL     1     161.824 165.041 161.680  1.00  0.00    -0.550 OA
ENDBRANCH  14  15
ENDBRANCH  13  14
ENDBRANCH  12  13
ENDBRANCH  11  12
ENDBRANCH  10  11
ENDBRANCH   9  10
ENDBRANCH   8   9
ENDBRANCH   7   8
ENDBRANCH   6   7
ENDBRANCH   5   6
ENDBRANCH   4   5
ENDBRANCH   3   4
ENDBRANCH   2   3
ENDBRANCH   1   2
BRANCH   1  18
ATOM     18  C   UNL     1     161.514 167.329 152.632  1.00  0.00     0.000 C 
BRANCH  18  19
ATOM     19  C   UNL     1     161.832 166.019 151.886  1.00  0.00     0.000 C 
BRANCH  19  20
ATOM     20  C   UNL     1     163.308 165.906 151.468  1.00  0.00     0.000 C 
BRANCH  20  21
ATOM     21  C   UNL     1     164.218 166.865 152.254  1.00  0.00     0.000 C 
BRANCH  21  22
ATOM     22  C   UNL     1     165.713 166.631 151.987  1.00  0.00     0.000 C 
BRANCH  22  23
ATOM     23  C   UNL     1     166.127 167.229 150.633  1.00  0.00     0.000 C 
BRANCH  23  24
ATOM     24  C   UNL     1     167.518 167.895 150.690  1.00  0.00    -0.000 C 
BRANCH  24  25
ATOM     25  C   UNL     1     167.526 169.349 150.188  1.00  0.00    -0.000 C 
BRANCH  25  26
ATOM     26  C   UNL     1     166.146 169.823 149.712  1.00  0.00    -0.000 C 
BRANCH  26  27
ATOM     27  C   UNL     1     165.678 171.042 150.517  1.00  0.00    -0.000 C 
BRANCH  27  28
ATOM     28  C   UNL     1     164.849 170.612 151.737  1.00  0.00    -0.000 C 
BRANCH  28  29
ATOM     29  C   UNL     1     165.567 170.885 153.072  1.00  0.00    -0.000 C 
BRANCH  29  30
ATOM     30  C   UNL     1     165.989 169.627 153.858  1.00  0.00    -0.000 C 
BRANCH  30  31
ATOM     31  C   UNL     1     167.509 169.423 153.990  1.00  0.00    -0.003 C 
ATOM     32  C   UNL     1     168.312 170.663 153.600  1.00  0.00     0.004 C 
ENDBRANCH  30  31
ENDBRANCH  29  30
ENDBRANCH  28  29
ENDBRANCH  27  28
ENDBRANCH  26  27
ENDBRANCH  25  26
ENDBRANCH  24  25
ENDBRANCH  23  24
ENDBRANCH  22  23
ENDBRANCH  21  22
ENDBRANCH  20  21
ENDBRANCH  19  20
ENDBRANCH  18  19
ENDBRANCH   1  18
TORSDOF 28
ENDMDL
MODEL 4
REMARK VINA RESULT:    -4.934      1.477      2.850
REMARK INTER + INTRA:         -17.262
REMARK INTER:                 -13.662
REMARK INTRA:                  -3.601
REMARK UNBOUND:                -4.252
REMARK SMILES CCCCCCCCCCCCCCCCCCCCCCCCCCCCCC(=O)[O-]
REMARK SMILES IDX 16 1 17 2 18 3 19 4 20 5 21 6 22 7 23 8 24 9 25 10 26 11
REMARK SMILES IDX 27 12 28 13 29 14 30 15 31 16 32 17 15 18 14 19 13 20 12 21
REMARK SMILES IDX 11 22 10 23 9 24 8 25 7 26 6 27 5 28 4 29 3 30 2 31 1 32
REMARK H PARENT
REMARK Flexibility Score: inf
ROOT
ATOM      1  C   UNL     1     160.485 165.998 155.292  1.00  0.00     0.000 C 
ENDROOT
BRANCH   1   2
ATOM      2  C   UNL     1     161.182 166.281 156.632  1.00  0.00     0.000 C 
BRANCH   2   3
ATOM      3  C   UNL     1     162.649 166.672 156.423  1.00  0.00     0.000 C 
BRANCH   3   4
ATOM      4  C   UNL     1     163.142 167.571 157.567  1.00  0.00     0.000 C 
BRANCH   4   5
ATOM      5  C   UNL     1     163.178 166.849 158.922  1.00  0.00     0.000 C 
BRANCH   5   6
ATOM      6  C   UNL     1     162.386 167.594 160.014  1.00  0.00     0.000 C 
BRANCH   6   7
ATOM      7  C   UNL     1     161.258 166.734 160.623  1.00  0.00     0.000 C 
BRANCH   7   8
ATOM      8  C   UNL     1     159.844 167.110 160.138  1.00  0.00     0.000 C 
BRANCH   8   9
ATOM      9  C   UNL     1     158.731 166.131 160.548  1.00  0.00     0.000 C 
BRANCH   9  10
ATOM     10  C   UNL     1     159.197 164.668 160.565  1.00  0.00     0.000 C 
BRANCH  10  11
ATOM     11  C   UNL     1     158.343 163.807 159.625  1.00  0.00     0.000 C 
BRANCH  11  12
ATOM     12  C   UNL     1     159.228 162.919 158.741  1.00  0.00     0.000 C 
BRANCH  12  13
ATOM     13  C   UNL     1     160.714 163.227 158.963  1.00  0.00     0.006 C 
BRANCH  13  14
ATOM     14  C   UNL     1     161.570 161.965 158.791  1.00  0.00     0.053 C 
BRANCH  14  15
ATOM     15  C   UNL     1     162.958 162.304 158.341  1.00  0.00     0.041 C 
ATOM     16  O   UNL     1     163.862 161.424 158.331  1.00  0.00    -0.550 OA
ATOM     17  O   UNL     1     163.247 163.590 157.898  1.00  0.00    -0.550 OA
ENDBRANCH  14  15
ENDBRANCH  13  14
ENDBRANCH  12  13
ENDBRANCH  11  12
ENDBRANCH  10  11
ENDBRANCH   9  10
ENDBRANCH   8   9
ENDBRANCH   7   8
ENDBRANCH   6   7
ENDBRANCH   5   6
ENDBRANCH   4   5
ENDBRANCH   3   4
ENDBRANCH   2   3
ENDBRANCH   1   2
BRANCH   1  18
ATOM     18  C   UNL     1     160.850 167.015 154.194  1.00  0.00     0.000 C 
BRANCH  18  19
ATOM     19  C   UNL     1     161.025 166.420 152.783  1.00  0.00     0.000 C 
BRANCH  19  20
ATOM     20  C   UNL     1     162.475 166.495 152.275  1.00  0.00     0.000 C 
BRANCH  20  21
ATOM     21  C   UNL     1     163.162 167.821 152.642  1.00  0.00     0.000 C 
BRANCH  21  22
ATOM     22  C   UNL     1     164.508 167.623 153.355  1.00  0.00     0.000 C 
BRANCH  22  23
ATOM     23  C   UNL     1     165.475 166.805 152.484  1.00  0.00     0.000 C 
BRANCH  23  24
ATOM     24  C   UNL     1     165.467 167.267 151.012  1.00  0.00    -0.000 C 
BRANCH  24  25
ATOM     25  C   UNL     1     166.840 167.744 150.509  1.00  0.00    -0.000 C 
BRANCH  25  26
ATOM     26  C   UNL     1     166.875 167.967 148.991  1.00  0.00    -0.000 C 
BRANCH  26  27
ATOM     27  C   UNL     1     167.579 169.286 148.647  1.00  0.00    -0.000 C 
BRANCH  27  28
ATOM     28  C   UNL     1     166.560 170.417 148.441  1.00  0.00    -0.000 C 
BRANCH  28  29
ATOM     29  C   UNL     1     166.634 171.493 149.541  1.00  0.00    -0.000 C 
BRANCH  29  30
ATOM     30  C   UNL     1     165.294 171.812 150.236  1.00  0.00    -0.000 C 
BRANCH  30  31
ATOM     31  C   UNL     1     164.916 170.862 151.386  1.00  0.00    -0.003 C 
ATOM     32  C   UNL     1     165.730 171.108 152.655  1.00  0.00     0.004 C 
ENDBRANCH  30  31
ENDBRANCH  29  30
ENDBRANCH  28  29
ENDBRANCH  27  28
ENDBRANCH  26  27
ENDBRANCH  25  26
ENDBRANCH  24  25
ENDBRANCH  23  24
ENDBRANCH  22  23
ENDBRANCH  21  22
ENDBRANCH  20  21
ENDBRANCH  19  20
ENDBRANCH  18  19
ENDBRANCH   1  18
TORSDOF 28
ENDMDL
MODEL 5
REMARK VINA RESULT:    -4.930      1.388      3.748
REMARK INTER + INTRA:         -17.251
REMARK INTER:                 -12.881
REMARK INTRA:                  -4.370
REMARK UNBOUND:                -4.252
REMARK SMILES CCCCCCCCCCCCCCCCCCCCCCCCCCCCCC(=O)[O-]
REMARK SMILES IDX 16 1 17 2 18 3 19 4 20 5 21 6 22 7 23 8 24 9 25 10 26 11
REMARK SMILES IDX 27 12 28 13 29 14 30 15 31 16 32 17 15 18 14 19 13 20 12 21
REMARK SMILES IDX 11 22 10 23 9 24 8 25 7 26 6 27 5 28 4 29 3 30 2 31 1 32
REMARK H PARENT
REMARK Flexibility Score: inf
ROOT
ATOM      1  C   UNL     1     162.006 166.856 152.642  1.00  0.00     0.000 C 
ENDROOT
BRANCH   1   2
ATOM      2  C   UNL     1     160.557 167.367 152.645  1.00  0.00     0.000 C 
BRANCH   2   3
ATOM      3  C   UNL     1     159.941 167.283 154.046  1.00  0.00     0.000 C 
BRANCH   3   4
ATOM      4  C   UNL     1     160.568 166.134 154.849  1.00  0.00     0.000 C 
BRANCH   4   5
ATOM      5  C   UNL     1     161.098 166.581 156.219  1.00  0.00     0.000 C 
BRANCH   5   6
ATOM      6  C   UNL     1     162.636 166.530 156.308  1.00  0.00     0.000 C 
BRANCH   6   7
ATOM      7  C   UNL     1     163.185 167.270 157.546  1.00  0.00     0.000 C 
BRANCH   7   8
ATOM      8  C   UNL     1     163.579 166.343 158.713  1.00  0.00     0.000 C 
BRANCH   8   9
ATOM      9  C   UNL     1     163.307 166.908 160.117  1.00  0.00     0.000 C 
BRANCH   9  10
ATOM     10  C   UNL     1     162.158 167.929 160.138  1.00  0.00     0.000 C 
BRANCH  10  11
ATOM     11  C   UNL     1     160.911 167.340 160.812  1.00  0.00     0.000 C 
BRANCH  11  12
ATOM     12  C   UNL     1     159.966 166.727 159.771  1.00  0.00     0.000 C 
BRANCH  12  13
ATOM     13  C   UNL     1     159.528 165.317 160.187  1.00  0.00     0.006 C 
BRANCH  13  14
ATOM     14  C   UNL     1     160.677 164.313 160.024  1.00  0.00     0.053 C 
BRANCH  14  15
ATOM     15  C   UNL     1     160.733 163.770 158.628  1.00  0.00     0.041 C 
ATOM     16  O   UNL     1     161.837 163.451 158.108  1.00  0.00    -0.550 OA
ATOM     17  O   UNL     1     159.557 163.584 157.911  1.00  0.00    -0.550 OA
ENDBRANCH  14  15
ENDBRANCH  13  14
ENDBRANCH  12  13
ENDBRANCH  11  12
ENDBRANCH  10  11
ENDBRANCH   9  10
ENDBRANCH   8   9
ENDBRANCH   7   8
ENDBRANCH   6   7
ENDBRANCH   5   6
ENDBRANCH   4   5
ENDBRANCH   3   4
ENDBRANCH   2   3
ENDBRANCH   1   2
BRANCH   1  18
ATOM     18  C   UNL     1     163.046 167.988 152.743  1.00  0.00     0.000 C 
BRANCH  18  19
ATOM     19  C   UNL     1     164.423 167.565 153.292  1.00  0.00     0.000 C 
BRANCH  19  20
ATOM     20  C   UNL     1     165.159 168.706 154.015  1.00  0.00     0.000 C 
BRANCH  20  21
ATOM     21  C   UNL     1     166.188 169.409 153.113  1.00  0.00     0.000 C 
BRANCH  21  22
ATOM     22  C   UNL     1     165.889 170.902 152.910  1.00  0.00     0.000 C 
BRANCH  22  23
ATOM     23  C   UNL     1     165.029 171.123 151.655  1.00  0.00     0.000 C 
BRANCH  23  24
ATOM     24  C   UNL     1     165.763 171.958 150.585  1.00  0.00    -0.000 C 
BRANCH  24  25
ATOM     25  C   UNL     1     165.867 171.255 149.221  1.00  0.00    -0.000 C 
BRANCH  25  26
ATOM     26  C   UNL     1     166.806 170.041 149.244  1.00  0.00    -0.000 C 
BRANCH  26  27
ATOM     27  C   UNL     1     166.502 169.091 148.079  1.00  0.00    -0.000 C 
BRANCH  27  28
ATOM     28  C   UNL     1     166.493 167.628 148.549  1.00  0.00    -0.000 C 
BRANCH  28  29
ATOM     29  C   UNL     1     166.184 167.486 150.051  1.00  0.00    -0.000 C 
BRANCH  29  30
ATOM     30  C   UNL     1     167.191 166.632 150.850  1.00  0.00    -0.000 C 
BRANCH  30  31
ATOM     31  C   UNL     1     168.544 167.312 151.125  1.00  0.00    -0.003 C 
ATOM     32  C   UNL     1     169.005 167.155 152.573  1.00  0.00     0.004 C 
ENDBRANCH  30  31
ENDBRANCH  29  30
ENDBRANCH  28  29
ENDBRANCH  27  28
ENDBRANCH  26  27
ENDBRANCH  25  26
ENDBRANCH  24  25
ENDBRANCH  23  24
ENDBRANCH  22  23
ENDBRANCH  21  22
ENDBRANCH  20  21
ENDBRANCH  19  20
ENDBRANCH  18  19
ENDBRANCH   1  18
TORSDOF 28
ENDMDL
MODEL 6
REMARK VINA RESULT:    -4.911      3.262     10.330
REMARK INTER + INTRA:         -17.200
REMARK INTER:                 -13.475
REMARK INTRA:                  -3.725
REMARK UNBOUND:                -4.252
REMARK SMILES CCCCCCCCCCCCCCCCCCCCCCCCCCCCCC(=O)[O-]
REMARK SMILES IDX 16 1 17 2 18 3 19 4 20 5 21 6 22 7 23 8 24 9 25 10 26 11
REMARK SMILES IDX 27 12 28 13 29 14 30 15 31 16 32 17 15 18 14 19 13 20 12 21
REMARK SMILES IDX 11 22 10 23 9 24 8 25 7 26 6 27 5 28 4 29 3 30 2 31 1 32
REMARK H PARENT
REMARK Flexibility Score: inf
ROOT
ATOM      1  C   UNL     1     160.380 166.896 154.253  1.00  0.00     0.000 C 
ENDROOT
BRANCH   1   2
ATOM      2  C   UNL     1     161.270 166.495 153.067  1.00  0.00     0.000 C 
BRANCH   2   3
ATOM      3  C   UNL     1     162.135 167.670 152.599  1.00  0.00     0.000 C 
BRANCH   3   4
ATOM      4  C   UNL     1     163.492 167.670 153.319  1.00  0.00     0.000 C 
BRANCH   4   5
ATOM      5  C   UNL     1     164.651 167.233 152.411  1.00  0.00     0.000 C 
BRANCH   5   6
ATOM      6  C   UNL     1     165.668 168.363 152.159  1.00  0.00     0.000 C 
BRANCH   6   7
ATOM      7  C   UNL     1     165.562 169.502 153.196  1.00  0.00     0.000 C 
BRANCH   7   8
ATOM      8  C   UNL     1     165.213 170.876 152.591  1.00  0.00     0.000 C 
BRANCH   8   9
ATOM      9  C   UNL     1     165.043 170.893 151.063  1.00  0.00     0.000 C 
BRANCH   9  10
ATOM     10  C   UNL     1     165.768 172.072 150.394  1.00  0.00     0.000 C 
BRANCH  10  11
ATOM     11  C   UNL     1     166.962 171.584 149.564  1.00  0.00     0.000 C 
BRANCH  11  12
ATOM     12  C   UNL     1     166.507 171.109 148.178  1.00  0.00     0.000 C 
BRANCH  12  13
ATOM     13  C   UNL     1     167.170 169.776 147.807  1.00  0.00     0.006 C 
BRANCH  13  14
ATOM     14  C   UNL     1     166.148 168.631 147.819  1.00  0.00     0.053 C 
BRANCH  14  15
ATOM     15  C   UNL     1     166.611 167.497 148.682  1.00  0.00     0.041 C 
ATOM     16  O   UNL     1     167.666 167.601 149.367  1.00  0.00    -0.550 OA
ATOM     17  O   UNL     1     165.856 166.332 148.757  1.00  0.00    -0.550 OA
ENDBRANCH  14  15
ENDBRANCH  13  14
ENDBRANCH  12  13
ENDBRANCH  11  12
ENDBRANCH  10  11
ENDBRANCH   9  10
ENDBRANCH   8   9
ENDBRANCH   7   8
ENDBRANCH   6   7
ENDBRANCH   5   6
ENDBRANCH   4   5
ENDBRANCH   3   4
ENDBRANCH   2   3
ENDBRANCH   1   2
BRANCH   1  18
ATOM     18  C   UNL     1     160.499 165.934 155.451  1.00  0.00     0.000 C 
BRANCH  18  19
ATOM     19  C   UNL     1     161.233 166.506 156.679  1.00  0.00     0.000 C 
BRANCH  19  20
ATOM     20  C   UNL     1     162.760 166.330 156.603  1.00  0.00     0.000 C 
BRANCH  20  21
ATOM     21  C   UNL     1     163.492 167.013 157.771  1.00  0.00     0.000 C 
BRANCH  21  22
ATOM     22  C   UNL     1     163.782 166.059 158.939  1.00  0.00     0.000 C 
BRANCH  22  23
ATOM     23  C   UNL     1     163.274 166.646 160.265  1.00  0.00     0.000 C 
BRANCH  23  24
ATOM     24  C   UNL     1     162.413 167.909 160.053  1.00  0.00    -0.000 C 
BRANCH  24  25
ATOM     25  C   UNL     1     160.951 167.740 160.498  1.00  0.00    -0.000 C 
BRANCH  25  26
ATOM     26  C   UNL     1     160.644 166.329 161.016  1.00  0.00    -0.000 C 
BRANCH  26  27
ATOM     27  C   UNL     1     159.474 165.704 160.246  1.00  0.00    -0.000 C 
BRANCH  27  28
ATOM     28  C   UNL     1     159.614 164.175 160.176  1.00  0.00    -0.000 C 
BRANCH  28  29
ATOM     29  C   UNL     1     159.799 163.659 158.737  1.00  0.00    -0.000 C 
BRANCH  29  30
ATOM     30  C   UNL     1     161.260 163.397 158.317  1.00  0.00    -0.000 C 
BRANCH  30  31
ATOM     31  C   UNL     1     161.778 161.979 158.617  1.00  0.00    -0.003 C 
ATOM     32  C   UNL     1     163.289 161.847 158.438  1.00  0.00     0.004 C 
ENDBRANCH  30  31
ENDBRANCH  29  30
ENDBRANCH  28  29
ENDBRANCH  27  28
ENDBRANCH  26  27
ENDBRANCH  25  26
ENDBRANCH  24  25
ENDBRANCH  23  24
ENDBRANCH  22  23
ENDBRANCH  21  22
ENDBRANCH  20  21
ENDBRANCH  19  20
ENDBRANCH  18  19
ENDBRANCH   1  18
TORSDOF 28
ENDMDL
MODEL 7
REMARK VINA RESULT:    -4.900      2.185      3.993
REMARK INTER + INTRA:         -17.173
REMARK INTER:                 -13.407
REMARK INTRA:                  -3.766
REMARK UNBOUND:                -4.252
REMARK SMILES CCCCCCCCCCCCCCCCCCCCCCCCCCCCCC(=O)[O-]
REMARK SMILES IDX 16 1 17 2 18 3 19 4 20 5 21 6 22 7 23 8 24 9 25 10 26 11
REMARK SMILES IDX 27 12 28 13 29 14 30 15 31 16 32 17 15 18 14 19 13 20 12 21
REMARK SMILES IDX 11 22 10 23 9 24 8 25 7 26 6 27 5 28 4 29 3 30 2 31 1 32
REMARK H PARENT
REMARK Flexibility Score: inf
ROOT
ATOM      1  C   UNL     1     162.346 167.069 152.760  1.00  0.00     0.000 C 
ENDROOT
BRANCH   1   2
ATOM      2  C   UNL     1     160.839 166.869 152.984  1.00  0.00     0.000 C 
BRANCH   2   3
ATOM      3  C   UNL     1     160.517 166.693 154.472  1.00  0.00     0.000 C 
BRANCH   3   4
ATOM      4  C   UNL     1     161.799 166.746 155.318  1.00  0.00     0.000 C 
BRANCH   4   5
ATOM      5  C   UNL     1     161.561 166.371 156.788  1.00  0.00     0.000 C 
BRANCH   5   6
ATOM      6  C   UNL     1     162.805 166.599 157.668  1.00  0.00     0.000 C 
BRANCH   6   7
ATOM      7  C   UNL     1     163.412 165.281 158.195  1.00  0.00     0.000 C 
BRANCH   7   8
ATOM      8  C   UNL     1     162.615 164.020 157.807  1.00  0.00     0.000 C 
BRANCH   8   9
ATOM      9  C   UNL     1     162.438 162.988 158.934  1.00  0.00     0.000 C 
BRANCH   9  10
ATOM     10  C   UNL     1     161.046 162.337 158.934  1.00  0.00     0.000 C 
BRANCH  10  11
ATOM     11  C   UNL     1     159.983 163.310 158.408  1.00  0.00     0.000 C 
BRANCH  11  12
ATOM     12  C   UNL     1     158.812 163.424 159.392  1.00  0.00     0.000 C 
BRANCH  12  13
ATOM     13  C   UNL     1     159.117 164.447 160.495  1.00  0.00     0.006 C 
BRANCH  13  14
ATOM     14  C   UNL     1     159.801 165.693 159.916  1.00  0.00     0.053 C 
BRANCH  14  15
ATOM     15  C   UNL     1     160.865 166.208 160.836  1.00  0.00     0.041 C 
ATOM     16  O   UNL     1     161.703 165.420 161.353  1.00  0.00    -0.550 OA
ATOM     17  O   UNL     1     160.952 167.571 161.099  1.00  0.00    -0.550 OA
ENDBRANCH  14  15
ENDBRANCH  13  14
ENDBRANCH  12  13
ENDBRANCH  11  12
ENDBRANCH  10  11
ENDBRANCH   9  10
ENDBRANCH   8   9
ENDBRANCH   7   8
ENDBRANCH   6   7
ENDBRANCH   5   6
ENDBRANCH   4   5
ENDBRANCH   3   4
ENDBRANCH   2   3
ENDBRANCH   1   2
BRANCH   1  18
ATOM     18  C   UNL     1     162.929 166.125 151.691  1.00  0.00     0.000 C 
BRANCH  18  19
ATOM     19  C   UNL     1     164.459 166.190 151.524  1.00  0.00     0.000 C 
BRANCH  19  20
ATOM     20  C   UNL     1     165.162 166.900 152.695  1.00  0.00     0.000 C 
BRANCH  20  21
ATOM     21  C   UNL     1     166.420 167.665 152.251  1.00  0.00     0.000 C 
BRANCH  21  22
ATOM     22  C   UNL     1     166.357 169.166 152.575  1.00  0.00     0.000 C 
BRANCH  22  23
ATOM     23  C   UNL     1     164.911 169.682 152.499  1.00  0.00     0.000 C 
BRANCH  23  24
ATOM     24  C   UNL     1     164.846 171.200 152.233  1.00  0.00    -0.000 C 
BRANCH  24  25
ATOM     25  C   UNL     1     166.021 171.729 151.394  1.00  0.00    -0.000 C 
BRANCH  25  26
ATOM     26  C   UNL     1     165.648 171.960 149.923  1.00  0.00    -0.000 C 
BRANCH  26  27
ATOM     27  C   UNL     1     166.809 171.579 148.996  1.00  0.00    -0.000 C 
BRANCH  27  28
ATOM     28  C   UNL     1     166.490 170.299 148.209  1.00  0.00    -0.000 C 
BRANCH  28  29
ATOM     29  C   UNL     1     167.044 169.030 148.884  1.00  0.00    -0.000 C 
BRANCH  29  30
ATOM     30  C   UNL     1     166.261 167.735 148.587  1.00  0.00    -0.000 C 
BRANCH  30  31
ATOM     31  C   UNL     1     166.999 166.721 147.695  1.00  0.00    -0.003 C 
ATOM     32  C   UNL     1     166.161 165.483 147.382  1.00  0.00     0.004 C 
ENDBRANCH  30  31
ENDBRANCH  29  30
ENDBRANCH  28  29
ENDBRANCH  27  28
ENDBRANCH  26  27
ENDBRANCH  25  26
ENDBRANCH  24  25
ENDBRANCH  23  24
ENDBRANCH  22  23
ENDBRANCH  21  22
ENDBRANCH  20  21
ENDBRANCH  19  20
ENDBRANCH  18  19
ENDBRANCH   1  18
TORSDOF 28
ENDMDL
MODEL 8
REMARK VINA RESULT:    -4.899      1.236      2.614
REMARK INTER + INTRA:         -17.170
REMARK INTER:                 -12.971
REMARK INTRA:                  -4.198
REMARK UNBOUND:                -4.252
REMARK SMILES CCCCCCCCCCCCCCCCCCCCCCCCCCCCCC(=O)[O-]
REMARK SMILES IDX 16 1 17 2 18 3 19 4 20 5 21 6 22 7 23 8 24 9 25 10 26 11
REMARK SMILES IDX 27 12 28 13 29 14 30 15 31 16 32 17 15 18 14 19 13 20 12 21
REMARK SMILES IDX 11 22 10 23 9 24 8 25 7 26 6 27 5 28 4 29 3 30 2 31 1 32
REMARK H PARENT
REMARK Flexibility Score: inf
ROOT
ATOM      1  C   UNL     1     160.437 166.878 154.874  1.00  0.00     0.000 C 
ENDROOT
BRANCH   1   2
ATOM      2  C   UNL     1     161.243 166.511 156.130  1.00  0.00     0.000 C 
BRANCH   2   3
ATOM      3  C   UNL     1     162.715 166.914 155.982  1.00  0.00     0.000 C 
BRANCH   3   4
ATOM      4  C   UNL     1     163.348 167.181 157.356  1.00  0.00     0.000 C 
BRANCH   4   5
ATOM      5  C   UNL     1     162.382 166.915 158.521  1.00  0.00     0.000 C 
BRANCH   5   6
ATOM      6  C   UNL     1     162.640 167.836 159.729  1.00  0.00     0.000 C 
BRANCH   6   7
ATOM      7  C   UNL     1     161.349 168.173 160.506  1.00  0.00     0.000 C 
BRANCH   7   8
ATOM      8  C   UNL     1     160.058 167.665 159.837  1.00  0.00     0.000 C 
BRANCH   8   9
ATOM      9  C   UNL     1     159.325 166.546 160.597  1.00  0.00     0.000 C 
BRANCH   9  10
ATOM     10  C   UNL     1     160.040 166.138 161.895  1.00  0.00     0.000 C 
BRANCH  10  11
ATOM     11  C   UNL     1     160.429 164.654 161.865  1.00  0.00     0.000 C 
BRANCH  11  12
ATOM     12  C   UNL     1     161.462 164.383 160.764  1.00  0.00     0.000 C 
BRANCH  12  13
ATOM     13  C   UNL     1     160.941 163.344 159.763  1.00  0.00     0.006 C 
BRANCH  13  14
ATOM     14  C   UNL     1     161.527 163.584 158.365  1.00  0.00     0.053 C 
BRANCH  14  15
ATOM     15  C   UNL     1     162.889 162.973 158.233  1.00  0.00     0.041 C 
ATOM     16  O   UNL     1     163.063 161.741 158.444  1.00  0.00    -0.550 OA
ATOM     17  O   UNL     1     163.966 163.761 157.841  1.00  0.00    -0.550 OA
ENDBRANCH  14  15
ENDBRANCH  13  14
ENDBRANCH  12  13
ENDBRANCH  11  12
ENDBRANCH  10  11
ENDBRANCH   9  10
ENDBRANCH   8   9
ENDBRANCH   7   8
ENDBRANCH   6   7
ENDBRANCH   5   6
ENDBRANCH   4   5
ENDBRANCH   3   4
ENDBRANCH   2   3
ENDBRANCH   1   2
BRANCH   1  18
ATOM     18  C   UNL     1     161.003 166.249 153.587  1.00  0.00     0.000 C 
BRANCH  18  19
ATOM     19  C   UNL     1     161.618 167.247 152.587  1.00  0.00     0.000 C 
BRANCH  19  20
ATOM     20  C   UNL     1     163.152 167.155 152.511  1.00  0.00     0.000 C 
BRANCH  20  21
ATOM     21  C   UNL     1     163.833 168.527 152.649  1.00  0.00     0.000 C 
BRANCH  21  22
ATOM     22  C   UNL     1     165.356 168.428 152.821  1.00  0.00     0.000 C 
BRANCH  22  23
ATOM     23  C   UNL     1     165.808 169.115 154.119  1.00  0.00     0.000 C 
BRANCH  23  24
ATOM     24  C   UNL     1     166.573 170.428 153.849  1.00  0.00    -0.000 C 
BRANCH  24  25
ATOM     25  C   UNL     1     165.777 171.444 153.013  1.00  0.00    -0.000 C 
BRANCH  25  26
ATOM     26  C   UNL     1     166.466 171.797 151.688  1.00  0.00    -0.000 C 
BRANCH  26  27
ATOM     27  C   UNL     1     165.564 171.464 150.494  1.00  0.00    -0.000 C 
BRANCH  27  28
ATOM     28  C   UNL     1     166.121 170.274 149.697  1.00  0.00    -0.000 C 
BRANCH  28  29
ATOM     29  C   UNL     1     167.635 170.076 149.901  1.00  0.00    -0.000 C 
BRANCH  29  30
ATOM     30  C   UNL     1     168.042 168.720 150.512  1.00  0.00    -0.000 C 
BRANCH  30  31
ATOM     31  C   UNL     1     168.981 168.811 151.728  1.00  0.00    -0.003 C 
ATOM     32  C   UNL     1     168.936 167.565 152.610  1.00  0.00     0.004 C 
ENDBRANCH  30  31
ENDBRANCH  29  30
ENDBRANCH  28  29
ENDBRANCH  27  28
ENDBRANCH  26  27
ENDBRANCH  25  26
ENDBRANCH  24  25
ENDBRANCH  23  24
ENDBRANCH  22  23
ENDBRANCH  21  22
ENDBRANCH  20  21
ENDBRANCH  19  20
ENDBRANCH  18  19
ENDBRANCH   1  18
TORSDOF 28
ENDMDL
MODEL 9
REMARK VINA RESULT:    -4.822      3.772     10.414
REMARK INTER + INTRA:         -16.967
REMARK INTER:                 -12.989
REMARK INTRA:                  -3.978
REMARK UNBOUND:                -4.252
REMARK SMILES CCCCCCCCCCCCCCCCCCCCCCCCCCCCCC(=O)[O-]
REMARK SMILES IDX 16 1 17 2 18 3 19 4 20 5 21 6 22 7 23 8 24 9 25 10 26 11
REMARK SMILES IDX 27 12 28 13 29 14 30 15 31 16 32 17 15 18 14 19 13 20 12 21
REMARK SMILES IDX 11 22 10 23 9 24 8 25 7 26 6 27 5 28 4 29 3 30 2 31 1 32
REMARK H PARENT
REMARK Flexibility Score: inf
ROOT
ATOM      1  C   UNL     1     161.548 166.876 154.449  1.00  0.00     0.000 C 
ENDROOT
BRANCH   1   2
ATOM      2  C   UNL     1     160.988 166.769 153.022  1.00  0.00     0.000 C 
BRANCH   2   3
ATOM      3  C   UNL     1     162.105 166.513 152.004  1.00  0.00     0.000 C 
BRANCH   3   4
ATOM      4  C   UNL     1     163.443 167.073 152.511  1.00  0.00     0.000 C 
BRANCH   4   5
ATOM      5  C   UNL     1     164.659 166.384 151.874  1.00  0.00     0.000 C 
BRANCH   5   6
ATOM      6  C   UNL     1     165.719 167.387 151.379  1.00  0.00     0.000 C 
BRANCH   6   7
ATOM      7  C   UNL     1     166.982 167.406 152.266  1.00  0.00     0.000 C 
BRANCH   7   8
ATOM      8  C   UNL     1     167.310 168.785 152.870  1.00  0.00     0.000 C 
BRANCH   8   9
ATOM      9  C   UNL     1     166.220 169.376 153.780  1.00  0.00     0.000 C 
BRANCH   9  10
ATOM     10  C   UNL     1     165.234 170.279 153.024  1.00  0.00     0.000 C 
BRANCH  10  11
ATOM     11  C   UNL     1     165.967 171.161 152.005  1.00  0.00     0.000 C 
BRANCH  11  12
ATOM     12  C   UNL     1     165.264 171.119 150.641  1.00  0.00     0.000 C 
BRANCH  12  13
ATOM     13  C   UNL     1     166.273 171.279 149.496  1.00  0.00     0.006 C 
BRANCH  13  14
ATOM     14  C   UNL     1     167.535 170.444 149.754  1.00  0.00     0.053 C 
BRANCH  14  15
ATOM     15  C   UNL     1     167.842 169.548 148.593  1.00  0.00     0.041 C 
ATOM     16  O   UNL     1     167.742 168.295 148.706  1.00  0.00    -0.550 OA
ATOM     17  O   UNL     1     168.208 170.100 147.371  1.00  0.00    -0.550 OA
ENDBRANCH  14  15
ENDBRANCH  13  14
ENDBRANCH  12  13
ENDBRANCH  11  12
ENDBRANCH  10  11
ENDBRANCH   9  10
ENDBRANCH   8   9
ENDBRANCH   7   8
ENDBRANCH   6   7
ENDBRANCH   5   6
ENDBRANCH   4   5
ENDBRANCH   3   4
ENDBRANCH   2   3
ENDBRANCH   1   2
BRANCH   1  18
ATOM     18  C   UNL     1     160.577 166.344 155.521  1.00  0.00     0.000 C 
BRANCH  18  19
ATOM     19  C   UNL     1     161.216 166.041 156.890  1.00  0.00     0.000 C 
BRANCH  19  20
ATOM     20  C   UNL     1     162.601 166.690 157.065  1.00  0.00     0.000 C 
BRANCH  20  21
ATOM     21  C   UNL     1     162.806 167.272 158.473  1.00  0.00     0.000 C 
BRANCH  21  22
ATOM     22  C   UNL     1     163.190 166.209 159.513  1.00  0.00     0.000 C 
BRANCH  22  23
ATOM     23  C   UNL     1     162.080 166.042 160.563  1.00  0.00     0.000 C 
BRANCH  23  24
ATOM     24  C   UNL     1     160.978 167.114 160.423  1.00  0.00    -0.000 C 
BRANCH  24  25
ATOM     25  C   UNL     1     159.560 166.529 160.322  1.00  0.00    -0.000 C 
BRANCH  25  26
ATOM     26  C   UNL     1     159.453 165.117 160.912  1.00  0.00    -0.000 C 
BRANCH  26  27
ATOM     27  C   UNL     1     158.424 164.278 160.144  1.00  0.00    -0.000 C 
BRANCH  27  28
ATOM     28  C   UNL     1     159.093 163.489 159.009  1.00  0.00    -0.000 C 
BRANCH  28  29
ATOM     29  C   UNL     1     160.500 162.984 159.382  1.00  0.00    -0.000 C 
BRANCH  29  30
ATOM     30  C   UNL     1     161.481 162.845 158.200  1.00  0.00    -0.000 C 
BRANCH  30  31
ATOM     31  C   UNL     1     162.893 162.364 158.581  1.00  0.00    -0.003 C 
ATOM     32  C   UNL     1     163.997 163.111 157.835  1.00  0.00     0.004 C 
ENDBRANCH  30  31
ENDBRANCH  29  30
ENDBRANCH  28  29
ENDBRANCH  27  28
ENDBRANCH  26  27
ENDBRANCH  25  26
ENDBRANCH  24  25
ENDBRANCH  23  24
ENDBRANCH  22  23
ENDBRANCH  21  22
ENDBRANCH  20  21
ENDBRANCH  19  20
ENDBRANCH  18  19
ENDBRANCH   1  18
TORSDOF 28
ENDMDL
