MODEL 1
REMARK VINA RESULT:    -3.567      0.000      0.000
REMARK INTER + INTRA:          -6.522
REMARK INTER:                  -5.653
REMARK INTRA:                  -0.869
REMARK UNBOUND:                -0.869
REMARK SMILES CCCCCCCCCCCC(=O)[O-]
REMARK SMILES IDX 7 1 8 2 9 3 10 4 11 5 12 6 13 7 14 8 6 9 5 10 4 11 3 12 2 13
REMARK SMILES IDX 1 14
REMARK H PARENT
REMARK Flexibility Score: inf
ROOT
ATOM      1  C   UNL     1      -0.293   8.997   4.442  1.00  0.00     0.000 C 
ENDROOT
BRANCH   1   2
ATOM      2  C   UNL     1       0.008   7.549   4.022  1.00  0.00     0.000 C 
BRANCH   2   3
ATOM      3  C   UNL     1       1.497   7.193   4.159  1.00  0.00     0.000 C 
BRANCH   3   4
ATOM      4  C   UNL     1       1.886   6.813   5.598  1.00  0.00     0.006 C 
BRANCH   4   5
ATOM      5  C   UNL     1       3.137   7.562   6.077  1.00  0.00     0.053 C 
BRANCH   5   6
ATOM      6  C   UNL     1       2.789   8.730   6.948  1.00  0.00     0.041 C 
ATOM      7  O   UNL     1       1.596   8.924   7.300  1.00  0.00    -0.550 OA
ATOM      8  O   UNL     1       3.777   9.622   7.345  1.00  0.00    -0.550 OA
ENDBRANCH   5   6
ENDBRANCH   4   5
ENDBRANCH   3   4
ENDBRANCH   2   3
ENDBRANCH   1   2
BRANCH   1   9
ATOM      9  C   UNL     1      -1.543   9.573   3.748  1.00  0.00     0.000 C 
BRANCH   9  10
ATOM     10  C   UNL     1      -2.705   9.935   4.692  1.00  0.00    -0.000 C 
BRANCH  10  11
ATOM     11  C   UNL     1      -4.070   9.335   4.310  1.00  0.00    -0.000 C 
BRANCH  11  12
ATOM     12  C   UNL     1      -4.119   7.793   4.398  1.00  0.00    -0.000 C 
BRANCH  12  13
ATOM     13  C   UNL     1      -4.408   7.135   3.042  1.00  0.00    -0.003 C 
ATOM     14  C   UNL     1      -3.215   6.313   2.563  1.00  0.00     0.004 C 
ENDBRANCH  12  13
ENDBRANCH  11  12
ENDBRANCH  10  11
ENDBRANCH   9  10
ENDBRANCH   1   9
TORSDOF 10
ENDMDL
MODEL 2
REMARK VINA RESULT:    -3.403      1.367      2.136
REMARK INTER + INTRA:          -6.261
REMARK INTER:                  -5.362
REMARK INTRA:                  -0.899
REMARK UNBOUND:                -0.869
REMARK SMILES CCCCCCCCCCCC(=O)[O-]
REMARK SMILES IDX 7 1 8 2 9 3 10 4 11 5 12 6 13 7 14 8 6 9 5 10 4 11 3 12 2 13
REMARK SMILES IDX 1 14
REMARK H PARENT
REMARK Flexibility Score: inf
ROOT
ATOM      1  C   UNL     1      -2.367   9.967   3.778  1.00  0.00     0.000 C 
ENDROOT
BRANCH   1   2
ATOM      2  C   UNL     1      -1.431   9.641   4.953  1.00  0.00     0.000 C 
BRANCH   2   3
ATOM      3  C   UNL     1      -0.290   8.692   4.552  1.00  0.00     0.000 C 
BRANCH   3   4
ATOM      4  C   UNL     1       1.101   9.271   4.866  1.00  0.00     0.006 C 
BRANCH   4   5
ATOM      5  C   UNL     1       1.280   9.567   6.361  1.00  0.00     0.053 C 
BRANCH   5   6
ATOM      6  C   UNL     1       2.713   9.461   6.784  1.00  0.00     0.041 C 
ATOM      7  O   UNL     1       3.024   8.793   7.805  1.00  0.00    -0.550 OA
ATOM      8  O   UNL     1       3.702  10.125   6.069  1.00  0.00    -0.550 OA
ENDBRANCH   5   6
ENDBRANCH   4   5
ENDBRANCH   3   4
ENDBRANCH   2   3
ENDBRANCH   1   2
BRANCH   1   9
ATOM      9  C   UNL     1      -3.846  10.067   4.202  1.00  0.00     0.000 C 
BRANCH   9  10
ATOM     10  C   UNL     1      -4.727   8.876   3.779  1.00  0.00    -0.000 C 
BRANCH  10  11
ATOM     11  C   UNL     1      -4.237   7.497   4.255  1.00  0.00    -0.000 C 
BRANCH  11  12
ATOM     12  C   UNL     1      -3.997   6.491   3.107  1.00  0.00    -0.000 C 
BRANCH  12  13
ATOM     13  C   UNL     1      -2.582   6.593   2.522  1.00  0.00    -0.003 C 
ATOM     14  C   UNL     1      -2.598   7.274   1.157  1.00  0.00     0.004 C 
ENDBRANCH  12  13
ENDBRANCH  11  12
ENDBRANCH  10  11
ENDBRANCH   9  10
ENDBRANCH   1   9
TORSDOF 10
ENDMDL
MODEL 3
REMARK VINA RESULT:    -3.304     11.177     13.252
REMARK INTER + INTRA:          -6.104
REMARK INTER:                  -4.674
REMARK INTRA:                  -1.430
REMARK UNBOUND:                -0.869
REMARK SMILES CCCCCCCCCCCC(=O)[O-]
REMARK SMILES IDX 7 1 8 2 9 3 10 4 11 5 12 6 13 7 14 8 6 9 5 10 4 11 3 12 2 13
REMARK SMILES IDX 1 14
REMARK H PARENT
REMARK Flexibility Score: inf
ROOT
ATOM      1  C   UNL     1      -9.285  -2.243  10.778  1.00  0.00     0.000 C 
ENDROOT
BRANCH   1   2
ATOM      2  C   UNL     1      -8.998  -1.603   9.409  1.00  0.00     0.000 C 
BRANCH   2   3
ATOM      3  C   UNL     1      -7.529  -1.760   8.982  1.00  0.00     0.000 C 
BRANCH   3   4
ATOM      4  C   UNL     1      -7.034  -0.583   8.123  1.00  0.00     0.006 C 
BRANCH   4   5
ATOM      5  C   UNL     1      -8.152   0.422   7.816  1.00  0.00     0.053 C 
BRANCH   5   6
ATOM      6  C   UNL     1      -8.521   0.421   6.365  1.00  0.00     0.041 C 
ATOM      7  O   UNL     1      -8.641   1.509   5.742  1.00  0.00    -0.550 OA
ATOM      8  O   UNL     1      -8.765  -0.778   5.708  1.00  0.00    -0.550 OA
ENDBRANCH   5   6
ENDBRANCH   4   5
ENDBRANCH   3   4
ENDBRANCH   2   3
ENDBRANCH   1   2
BRANCH   1   9
ATOM      9  C   UNL     1      -9.417  -1.204  11.908  1.00  0.00     0.000 C 
BRANCH   9  10
ATOM     10  C   UNL     1      -9.412   0.266  11.448  1.00  0.00    -0.000 C 
BRANCH  10  11
ATOM     11  C   UNL     1      -8.314   1.145  12.076  1.00  0.00    -0.000 C 
BRANCH  11  12
ATOM     12  C   UNL     1      -7.131   1.436  11.127  1.00  0.00    -0.000 C 
BRANCH  12  13
ATOM     13  C   UNL     1      -5.897   0.582  11.447  1.00  0.00    -0.003 C 
ATOM     14  C   UNL     1      -4.619   1.254  10.955  1.00  0.00     0.004 C 
ENDBRANCH  12  13
ENDBRANCH  11  12
ENDBRANCH  10  11
ENDBRANCH   9  10
ENDBRANCH   1   9
TORSDOF 10
ENDMDL
MODEL 4
REMARK VINA RESULT:    -3.297      3.049      6.285
REMARK INTER + INTRA:          -6.093
REMARK INTER:                  -5.135
REMARK INTRA:                  -0.959
REMARK UNBOUND:                -0.869
REMARK SMILES CCCCCCCCCCCC(=O)[O-]
REMARK SMILES IDX 7 1 8 2 9 3 10 4 11 5 12 6 13 7 14 8 6 9 5 10 4 11 3 12 2 13
REMARK SMILES IDX 1 14
REMARK H PARENT
REMARK Flexibility Score: inf
ROOT
ATOM      1  C   UNL     1       0.592  10.037   4.868  1.00  0.00     0.000 C 
ENDROOT
BRANCH   1   2
ATOM      2  C   UNL     1      -0.411   8.987   4.361  1.00  0.00     0.000 C 
BRANCH   2   3
ATOM      3  C   UNL     1      -0.791   9.198   2.887  1.00  0.00     0.000 C 
BRANCH   3   4
ATOM      4  C   UNL     1      -2.262   8.850   2.598  1.00  0.00     0.006 C 
BRANCH   4   5
ATOM      5  C   UNL     1      -3.170  10.087   2.647  1.00  0.00     0.053 C 
BRANCH   5   6
ATOM      6  C   UNL     1      -4.173  10.001   3.755  1.00  0.00     0.041 C 
ATOM      7  O   UNL     1      -5.394   9.844   3.492  1.00  0.00    -0.550 OA
ATOM      8  O   UNL     1      -3.764  10.125   5.076  1.00  0.00    -0.550 OA
ENDBRANCH   5   6
ENDBRANCH   4   5
ENDBRANCH   3   4
ENDBRANCH   2   3
ENDBRANCH   1   2
BRANCH   1   9
ATOM      9  C   UNL     1       0.758  10.014   6.400  1.00  0.00     0.000 C 
BRANCH   9  10
ATOM     10  C   UNL     1       2.211  10.119   6.901  1.00  0.00    -0.000 C 
BRANCH  10  11
ATOM     11  C   UNL     1       2.968   8.782   7.001  1.00  0.00    -0.000 C 
BRANCH  11  12
ATOM     12  C   UNL     1       3.797   8.440   5.744  1.00  0.00    -0.000 C 
BRANCH  12  13
ATOM     13  C   UNL     1       3.140   7.353   4.883  1.00  0.00    -0.003 C 
ATOM     14  C   UNL     1       2.156   6.522   5.702  1.00  0.00     0.004 C 
ENDBRANCH  12  13
ENDBRANCH  11  12
ENDBRANCH  10  11
ENDBRANCH   9  10
ENDBRANCH   1   9
TORSDOF 10
ENDMDL
MODEL 5
REMARK VINA RESULT:    -3.251      2.412      3.378
REMARK INTER + INTRA:          -6.021
REMARK INTER:                  -5.386
REMARK INTRA:                  -0.635
REMARK UNBOUND:                -0.869
REMARK SMILES CCCCCCCCCCCC(=O)[O-]
REMARK SMILES IDX 7 1 8 2 9 3 10 4 11 5 12 6 13 7 14 8 6 9 5 10 4 11 3 12 2 13
REMARK SMILES IDX 1 14
REMARK H PARENT
REMARK Flexibility Score: inf
ROOT
ATOM      1  C   UNL     1       1.881   9.717   6.061  1.00  0.00     0.000 C 
ENDROOT
BRANCH   1   2
ATOM      2  C   UNL     1       2.170   8.517   6.978  1.00  0.00     0.000 C 
BRANCH   2   3
ATOM      3  C   UNL     1       3.020   7.439   6.287  1.00  0.00     0.000 C 
BRANCH   3   4
ATOM      4  C   UNL     1       2.351   6.878   5.020  1.00  0.00     0.006 C 
BRANCH   4   5
ATOM      5  C   UNL     1       1.701   5.510   5.264  1.00  0.00     0.053 C 
BRANCH   5   6
ATOM      6  C   UNL     1       2.693   4.498   5.749  1.00  0.00     0.041 C 
ATOM      7  O   UNL     1       2.508   3.904   6.843  1.00  0.00    -0.550 OA
ATOM      8  O   UNL     1       3.839   4.235   5.009  1.00  0.00    -0.550 OA
ENDBRANCH   5   6
ENDBRANCH   4   5
ENDBRANCH   3   4
ENDBRANCH   2   3
ENDBRANCH   1   2
BRANCH   1   9
ATOM      9  C   UNL     1       0.378  10.036   5.949  1.00  0.00     0.000 C 
BRANCH   9  10
ATOM     10  C   UNL     1      -0.351   9.344   4.782  1.00  0.00    -0.000 C 
BRANCH  10  11
ATOM     11  C   UNL     1      -1.874   9.569   4.735  1.00  0.00    -0.000 C 
BRANCH  11  12
ATOM     12  C   UNL     1      -2.674   8.327   4.285  1.00  0.00    -0.000 C 
BRANCH  12  13
ATOM     13  C   UNL     1      -4.163   8.632   4.074  1.00  0.00    -0.003 C 
ATOM     14  C   UNL     1      -4.396  10.125   3.864  1.00  0.00     0.004 C 
ENDBRANCH  12  13
ENDBRANCH  11  12
ENDBRANCH  10  11
ENDBRANCH   9  10
ENDBRANCH   1   9
TORSDOF 10
ENDMDL
MODEL 6
REMARK VINA RESULT:    -3.244      1.473      1.886
REMARK INTER + INTRA:          -6.009
REMARK INTER:                  -5.209
REMARK INTRA:                  -0.801
REMARK UNBOUND:                -0.869
REMARK SMILES CCCCCCCCCCCC(=O)[O-]
REMARK SMILES IDX 7 1 8 2 9 3 10 4 11 5 12 6 13 7 14 8 6 9 5 10 4 11 3 12 2 13
REMARK SMILES IDX 1 14
REMARK H PARENT
REMARK Flexibility Score: inf
ROOT
ATOM      1  C   UNL     1      -1.634   8.505   3.385  1.00  0.00     0.000 C 
ENDROOT
BRANCH   1   2
ATOM      2  C   UNL     1      -0.293   9.243   3.241  1.00  0.00     0.000 C 
BRANCH   2   3
ATOM      3  C   UNL     1       0.467   9.350   4.573  1.00  0.00     0.000 C 
BRANCH   3   4
ATOM      4  C   UNL     1       1.291   8.089   4.888  1.00  0.00     0.006 C 
BRANCH   4   5
ATOM      5  C   UNL     1       1.850   8.105   6.317  1.00  0.00     0.053 C 
BRANCH   5   6
ATOM      6  C   UNL     1       3.125   8.885   6.410  1.00  0.00     0.041 C 
ATOM      7  O   UNL     1       3.905   8.943   5.423  1.00  0.00    -0.550 OA
ATOM      8  O   UNL     1       3.468   9.521   7.596  1.00  0.00    -0.550 OA
ENDBRANCH   5   6
ENDBRANCH   4   5
ENDBRANCH   3   4
ENDBRANCH   2   3
ENDBRANCH   1   2
BRANCH   1   9
ATOM      9  C   UNL     1      -2.417   8.925   4.644  1.00  0.00     0.000 C 
BRANCH   9  10
ATOM     10  C   UNL     1      -3.392  10.100   4.445  1.00  0.00    -0.000 C 
BRANCH  10  11
ATOM     11  C   UNL     1      -4.122  10.123   3.090  1.00  0.00    -0.000 C 
BRANCH  11  12
ATOM     12  C   UNL     1      -5.620   9.758   3.183  1.00  0.00    -0.000 C 
BRANCH  12  13
ATOM     13  C   UNL     1      -5.948   8.437   2.473  1.00  0.00    -0.003 C 
ATOM     14  C   UNL     1      -4.823   8.025   1.528  1.00  0.00     0.004 C 
ENDBRANCH  12  13
ENDBRANCH  11  12
ENDBRANCH  10  11
ENDBRANCH   9  10
ENDBRANCH   1   9
TORSDOF 10
ENDMDL
MODEL 7
REMARK VINA RESULT:    -3.194     14.243     16.061
REMARK INTER + INTRA:          -5.930
REMARK INTER:                  -4.398
REMARK INTRA:                  -1.533
REMARK UNBOUND:                -0.869
REMARK SMILES CCCCCCCCCCCC(=O)[O-]
REMARK SMILES IDX 7 1 8 2 9 3 10 4 11 5 12 6 13 7 14 8 6 9 5 10 4 11 3 12 2 13
REMARK SMILES IDX 1 14
REMARK H PARENT
REMARK Flexibility Score: inf
ROOT
ATOM      1  C   UNL     1       9.596  -0.319  -5.897  1.00  0.00     0.000 C 
ENDROOT
BRANCH   1   2
ATOM      2  C   UNL     1       8.776  -1.369  -6.665  1.00  0.00     0.000 C 
BRANCH   2   3
ATOM      3  C   UNL     1       7.968  -0.756  -7.821  1.00  0.00     0.000 C 
BRANCH   3   4
ATOM      4  C   UNL     1       6.448  -0.879  -7.612  1.00  0.00     0.006 C 
BRANCH   4   5
ATOM      5  C   UNL     1       5.766   0.491  -7.495  1.00  0.00     0.053 C 
BRANCH   5   6
ATOM      6  C   UNL     1       4.327   0.367  -7.100  1.00  0.00     0.041 C 
ATOM      7  O   UNL     1       3.978  -0.485  -6.242  1.00  0.00    -0.550 OA
ATOM      8  O   UNL     1       3.368   1.171  -7.701  1.00  0.00    -0.550 OA
ENDBRANCH   5   6
ENDBRANCH   4   5
ENDBRANCH   3   4
ENDBRANCH   2   3
ENDBRANCH   1   2
BRANCH   1   9
ATOM      9  C   UNL     1       8.992   0.021  -4.521  1.00  0.00     0.000 C 
BRANCH   9  10
ATOM     10  C   UNL     1       7.973   1.177  -4.522  1.00  0.00    -0.000 C 
BRANCH  10  11
ATOM     11  C   UNL     1       6.589   0.829  -3.945  1.00  0.00    -0.000 C 
BRANCH  11  12
ATOM     12  C   UNL     1       6.610  -0.343  -2.939  1.00  0.00    -0.000 C 
BRANCH  12  13
ATOM     13  C   UNL     1       5.581  -1.429  -3.281  1.00  0.00    -0.003 C 
ATOM     14  C   UNL     1       6.162  -2.450  -4.255  1.00  0.00     0.004 C 
ENDBRANCH  12  13
ENDBRANCH  11  12
ENDBRANCH  10  11
ENDBRANCH   9  10
ENDBRANCH   1   9
TORSDOF 10
ENDMDL
MODEL 8
REMARK VINA RESULT:    -3.173     11.170     13.029
REMARK INTER + INTRA:          -5.897
REMARK INTER:                  -4.575
REMARK INTRA:                  -1.322
REMARK UNBOUND:                -0.869
REMARK SMILES CCCCCCCCCCCC(=O)[O-]
REMARK SMILES IDX 7 1 8 2 9 3 10 4 11 5 12 6 13 7 14 8 6 9 5 10 4 11 3 12 2 13
REMARK SMILES IDX 1 14
REMARK H PARENT
REMARK Flexibility Score: inf
ROOT
ATOM      1  C   UNL     1      -6.237  -0.016  10.637  1.00  0.00     0.000 C 
ENDROOT
BRANCH   1   2
ATOM      2  C   UNL     1      -5.745   0.227   9.200  1.00  0.00     0.000 C 
BRANCH   2   3
ATOM      3  C   UNL     1      -6.733  -0.291   8.143  1.00  0.00     0.000 C 
BRANCH   3   4
ATOM      4  C   UNL     1      -7.870   0.705   7.855  1.00  0.00     0.006 C 
BRANCH   4   5
ATOM      5  C   UNL     1      -8.951   0.104   6.946  1.00  0.00     0.053 C 
BRANCH   5   6
ATOM      6  C   UNL     1      -8.426  -0.192   5.575  1.00  0.00     0.041 C 
ATOM      7  O   UNL     1      -7.798   0.690   4.933  1.00  0.00    -0.550 OA
ATOM      8  O   UNL     1      -8.658  -1.432   4.993  1.00  0.00    -0.550 OA
ENDBRANCH   5   6
ENDBRANCH   4   5
ENDBRANCH   3   4
ENDBRANCH   2   3
ENDBRANCH   1   2
BRANCH   1   9
ATOM      9  C   UNL     1      -6.801   1.255  11.300  1.00  0.00     0.000 C 
BRANCH   9  10
ATOM     10  C   UNL     1      -8.155   1.075  12.012  1.00  0.00    -0.000 C 
BRANCH  10  11
ATOM     11  C   UNL     1      -9.244   0.374  11.180  1.00  0.00    -0.000 C 
BRANCH  11  12
ATOM     12  C   UNL     1      -9.857  -0.863  11.872  1.00  0.00    -0.000 C 
BRANCH  12  13
ATOM     13  C   UNL     1      -9.234  -2.178  11.385  1.00  0.00    -0.003 C 
ATOM     14  C   UNL     1      -9.276  -2.277   9.863  1.00  0.00     0.004 C 
ENDBRANCH  12  13
ENDBRANCH  11  12
ENDBRANCH  10  11
ENDBRANCH   9  10
ENDBRANCH   1   9
TORSDOF 10
ENDMDL
MODEL 9
REMARK VINA RESULT:    -3.135     10.540     12.300
REMARK INTER + INTRA:          -5.836
REMARK INTER:                  -4.474
REMARK INTRA:                  -1.362
REMARK UNBOUND:                -0.869
REMARK SMILES CCCCCCCCCCCC(=O)[O-]
REMARK SMILES IDX 7 1 8 2 9 3 10 4 11 5 12 6 13 7 14 8 6 9 5 10 4 11 3 12 2 13
REMARK SMILES IDX 1 14
REMARK H PARENT
REMARK Flexibility Score: inf
ROOT
ATOM      1  C   UNL     1      -9.368   0.028  11.010  1.00  0.00     0.000 C 
ENDROOT
BRANCH   1   2
ATOM      2  C   UNL     1      -8.880   0.969  12.124  1.00  0.00     0.000 C 
BRANCH   2   3
ATOM      3  C   UNL     1      -7.356   1.171  12.100  1.00  0.00     0.000 C 
BRANCH   3   4
ATOM      4  C   UNL     1      -6.792   1.253  10.671  1.00  0.00     0.006 C 
BRANCH   4   5
ATOM      5  C   UNL     1      -5.479   0.473  10.520  1.00  0.00     0.053 C 
BRANCH   5   6
ATOM      6  C   UNL     1      -4.548   1.128   9.547  1.00  0.00     0.041 C 
ATOM      7  O   UNL     1      -3.856   2.118   9.902  1.00  0.00    -0.550 OA
ATOM      8  O   UNL     1      -4.467   0.665   8.240  1.00  0.00    -0.550 OA
ENDBRANCH   5   6
ENDBRANCH   4   5
ENDBRANCH   3   4
ENDBRANCH   2   3
ENDBRANCH   1   2
BRANCH   1   9
ATOM      9  C   UNL     1      -9.312  -1.457  11.415  1.00  0.00     0.000 C 
BRANCH   9  10
ATOM     10  C   UNL     1      -9.095  -2.443  10.251  1.00  0.00    -0.000 C 
BRANCH  10  11
ATOM     11  C   UNL     1      -9.051  -1.804   8.851  1.00  0.00    -0.000 C 
BRANCH  11  12
ATOM     12  C   UNL     1      -7.622  -1.635   8.289  1.00  0.00    -0.000 C 
BRANCH  12  13
ATOM     13  C   UNL     1      -7.572  -0.680   7.088  1.00  0.00    -0.003 C 
ATOM     14  C   UNL     1      -8.259   0.644   7.409  1.00  0.00     0.004 C 
ENDBRANCH  12  13
ENDBRANCH  11  12
ENDBRANCH  10  11
ENDBRANCH   9  10
ENDBRANCH   1   9
TORSDOF 10
ENDMDL
