MODEL 1
REMARK VINA RESULT:    -6.036      0.000      0.000
REMARK INTER + INTRA:         -10.147
REMARK INTER:                  -8.859
REMARK INTRA:                  -1.288
REMARK UNBOUND:                -1.288
REMARK SMILES O=c1c(O[C@@H]2O[C@H](CO)[C@@H](O)[C@@H](O)[C@H]2O)c(-c2ccc(O)c(O)c2)oc2cc(O)cc(O)c12
REMARK SMILES IDX 4 1 3 2 16 3 25 4 2 5 26 6 1 7 33 8 27 9 31 10 28 11 30 12
REMARK SMILES IDX 17 13 18 14 19 15 20 16 24 17 22 18 21 19 23 21 32 23 29 25
REMARK SMILES IDX 5 27 14 28 6 29 12 30 7 31 10 32 15 33 13 35 8 37 9 38 11 40
REMARK H PARENT 21 20 23 22 32 24 29 26 15 34 13 36 9 39 11 41
REMARK Flexibility Score: inf
ROOT
ATOM      1  O   UNL     1      18.834  29.240  29.865  1.00  0.00    -0.454 OA
ENDROOT
BRANCH   1   2
ATOM      2  C   UNL     1      18.462  30.193  30.832  1.00  0.00     0.214 A 
ATOM      3  C   UNL     1      18.573  31.558  30.509  1.00  0.00     0.180 A 
ATOM      4  O   UNL     1      18.204  32.483  31.386  1.00  0.00    -0.452 OA
ATOM      5  C   UNL     1      17.972  29.844  32.109  1.00  0.00     0.239 A 
ATOM      6  C   UNL     1      17.716  32.199  32.586  1.00  0.00     0.146 A 
ATOM      7  O   UNL     1      17.974  28.637  32.461  1.00  0.00    -0.285 OA
ATOM      8  C   UNL     1      17.537  30.855  32.999  1.00  0.00     0.111 A 
ATOM      9  C   UNL     1      17.391  33.256  33.440  1.00  0.00     0.094 A 
ATOM     10  C   UNL     1      16.969  30.610  34.286  1.00  0.00     0.134 A 
ATOM     11  C   UNL     1      16.896  33.005  34.718  1.00  0.00     0.123 A 
ATOM     12  C   UNL     1      16.692  31.688  35.136  1.00  0.00     0.093 A 
BRANCH   3  13
ATOM     13  C   UNL     1      19.062  32.013  29.188  1.00  0.00     0.025 A 
ATOM     14  C   UNL     1      20.156  31.394  28.561  1.00  0.00     0.016 A 
ATOM     15  C   UNL     1      20.603  31.843  27.315  1.00  0.00     0.051 A 
ATOM     16  C   UNL     1      19.975  32.927  26.688  1.00  0.00     0.157 A 
ATOM     17  C   UNL     1      18.450  33.113  28.567  1.00  0.00     0.062 A 
ATOM     18  C   UNL     1      18.898  33.566  27.317  1.00  0.00     0.158 A 
BRANCH  16  19
ATOM     19  O   UNL     1      20.416  33.377  25.446  1.00  0.00    -0.504 OA
ATOM     20  H   UNL     1      20.004  33.040  24.583  1.00  0.00     0.293 HD
ENDBRANCH  16  19
BRANCH  18  21
ATOM     21  O   UNL     1      18.280  34.649  26.696  1.00  0.00    -0.504 OA
ATOM     22  H   UNL     1      17.331  34.587  26.345  1.00  0.00     0.293 HD
ENDBRANCH  18  21
ENDBRANCH   3  13
BRANCH  10  23
ATOM     23  O   UNL     1      16.630  29.339  34.760  1.00  0.00    -0.507 OA
ATOM     24  H   UNL     1      16.692  29.053  35.726  1.00  0.00     0.293 HD
ENDBRANCH  10  23
BRANCH  11  25
ATOM     25  O   UNL     1      16.601  34.073  35.563  1.00  0.00    -0.508 OA
ATOM     26  H   UNL     1      15.965  33.970  36.345  1.00  0.00     0.293 HD
ENDBRANCH  11  25
ENDBRANCH   1   2
BRANCH   1  27
ATOM     27  C   UNL     1      17.948  28.374  29.151  1.00  0.00     0.339 C 
ATOM     28  C   UNL     1      18.246  28.445  27.646  1.00  0.00     0.214 C 
ATOM     29  O   UNL     1      17.985  27.041  29.649  1.00  0.00    -0.332 OA
ATOM     30  C   UNL     1      19.600  27.787  27.347  1.00  0.00     0.180 C 
ATOM     31  C   UNL     1      19.209  26.353  29.413  1.00  0.00     0.179 C 
ATOM     32  C   UNL     1      19.641  26.361  27.926  1.00  0.00     0.177 C 
BRANCH  28  33
ATOM     33  O   UNL     1      17.210  27.807  26.940  1.00  0.00    -0.384 OA
ATOM     34  H   UNL     1      17.553  27.623  26.026  1.00  0.00     0.211 HD
ENDBRANCH  28  33
BRANCH  30  35
ATOM     35  O   UNL     1      19.824  27.769  25.960  1.00  0.00    -0.387 OA
ATOM     36  H   UNL     1      20.061  26.835  25.722  1.00  0.00     0.211 HD
ENDBRANCH  30  35
BRANCH  31  37
ATOM     37  C   UNL     1      20.327  26.791  30.383  1.00  0.00     0.191 C 
BRANCH  37  38
ATOM     38  O   UNL     1      19.853  26.815  31.703  1.00  0.00    -0.394 OA
ATOM     39  H   UNL     1      18.933  26.441  31.684  1.00  0.00     0.210 HD
ENDBRANCH  37  38
ENDBRANCH  31  37
BRANCH  32  40
ATOM     40  O   UNL     1      18.784  25.514  27.200  1.00  0.00    -0.387 OA
ATOM     41  H   UNL     1      18.925  25.713  26.237  1.00  0.00     0.211 HD
ENDBRANCH  32  40
ENDBRANCH   1  27
TORSDOF 12
ENDMDL
MODEL 2
REMARK VINA RESULT:    -5.925      2.800      8.447
REMARK INTER + INTRA:          -9.983
REMARK INTER:                  -8.802
REMARK INTRA:                  -1.181
REMARK UNBOUND:                -1.288
REMARK SMILES O=c1c(O[C@@H]2O[C@H](CO)[C@@H](O)[C@@H](O)[C@H]2O)c(-c2ccc(O)c(O)c2)oc2cc(O)cc(O)c12
REMARK SMILES IDX 4 1 3 2 16 3 25 4 2 5 26 6 1 7 33 8 27 9 31 10 28 11 30 12
REMARK SMILES IDX 17 13 18 14 19 15 20 16 24 17 22 18 21 19 23 21 32 23 29 25
REMARK SMILES IDX 5 27 14 28 6 29 12 30 7 31 10 32 15 33 13 35 8 37 9 38 11 40
REMARK H PARENT 21 20 23 22 32 24 29 26 15 34 13 36 9 39 11 41
REMARK Flexibility Score: inf
ROOT
ATOM      1  O   UNL     1      18.837  29.179  32.677  1.00  0.00    -0.454 OA
ENDROOT
BRANCH   1   2
ATOM      2  C   UNL     1      19.130  28.125  31.791  1.00  0.00     0.214 A 
ATOM      3  C   UNL     1      19.957  27.079  32.242  1.00  0.00     0.180 A 
ATOM      4  O   UNL     1      20.231  26.055  31.443  1.00  0.00    -0.452 OA
ATOM      5  C   UNL     1      18.626  28.062  30.475  1.00  0.00     0.239 A 
ATOM      6  C   UNL     1      19.758  25.943  30.209  1.00  0.00     0.146 A 
ATOM      7  O   UNL     1      17.983  29.038  30.013  1.00  0.00    -0.285 OA
ATOM      8  C   UNL     1      18.894  26.929  29.669  1.00  0.00     0.111 A 
ATOM      9  C   UNL     1      20.141  24.836  29.446  1.00  0.00     0.094 A 
ATOM     10  C   UNL     1      18.384  26.735  28.350  1.00  0.00     0.134 A 
ATOM     11  C   UNL     1      19.686  24.690  28.138  1.00  0.00     0.123 A 
ATOM     12  C   UNL     1      18.817  25.638  27.595  1.00  0.00     0.093 A 
BRANCH   3  13
ATOM     13  C   UNL     1      20.517  27.056  33.612  1.00  0.00     0.025 A 
ATOM     14  C   UNL     1      20.910  28.239  34.260  1.00  0.00     0.016 A 
ATOM     15  C   UNL     1      21.439  28.194  35.552  1.00  0.00     0.051 A 
ATOM     16  C   UNL     1      21.599  26.966  36.207  1.00  0.00     0.157 A 
ATOM     17  C   UNL     1      20.699  25.826  34.263  1.00  0.00     0.062 A 
ATOM     18  C   UNL     1      21.232  25.779  35.559  1.00  0.00     0.158 A 
BRANCH  16  19
ATOM     19  O   UNL     1      22.125  26.915  37.496  1.00  0.00    -0.504 OA
ATOM     20  H   UNL     1      22.039  27.698  38.135  1.00  0.00     0.293 HD
ENDBRANCH  16  19
BRANCH  18  21
ATOM     21  O   UNL     1      21.399  24.557  36.209  1.00  0.00    -0.504 OA
ATOM     22  H   UNL     1      20.828  24.298  37.006  1.00  0.00     0.293 HD
ENDBRANCH  18  21
ENDBRANCH   3  13
BRANCH  10  23
ATOM     23  O   UNL     1      17.432  27.567  27.752  1.00  0.00    -0.507 OA
ATOM     24  H   UNL     1      17.648  28.315  27.110  1.00  0.00     0.293 HD
ENDBRANCH  10  23
BRANCH  11  25
ATOM     25  O   UNL     1      20.099  23.591  27.386  1.00  0.00    -0.508 OA
ATOM     26  H   UNL     1      20.384  23.687  26.419  1.00  0.00     0.293 HD
ENDBRANCH  11  25
ENDBRANCH   1   2
BRANCH   1  27
ATOM     27  C   UNL     1      17.541  29.528  33.171  1.00  0.00     0.339 C 
ATOM     28  C   UNL     1      17.560  29.571  34.706  1.00  0.00     0.214 C 
ATOM     29  O   UNL     1      17.058  30.739  32.601  1.00  0.00    -0.332 OA
ATOM     30  C   UNL     1      18.388  30.770  35.187  1.00  0.00     0.180 C 
ATOM     31  C   UNL     1      17.770  31.907  32.996  1.00  0.00     0.179 C 
ATOM     32  C   UNL     1      17.881  32.068  34.531  1.00  0.00     0.177 C 
BRANCH  28  33
ATOM     33  O   UNL     1      16.239  29.649  35.183  1.00  0.00    -0.384 OA
ATOM     34  H   UNL     1      15.704  28.994  34.663  1.00  0.00     0.211 HD
ENDBRANCH  28  33
BRANCH  30  35
ATOM     35  O   UNL     1      18.324  30.862  36.588  1.00  0.00    -0.387 OA
ATOM     36  H   UNL     1      18.942  31.592  36.855  1.00  0.00     0.211 HD
ENDBRANCH  30  35
BRANCH  31  37
ATOM     37  C   UNL     1      19.120  32.049  32.261  1.00  0.00     0.191 C 
BRANCH  37  38
ATOM     38  O   UNL     1      18.997  31.655  30.920  1.00  0.00    -0.394 OA
ATOM     39  H   UNL     1      18.905  32.486  30.385  1.00  0.00     0.210 HD
ENDBRANCH  37  38
ENDBRANCH  31  37
BRANCH  32  40
ATOM     40  O   UNL     1      16.617  32.413  35.044  1.00  0.00    -0.387 OA
ATOM     41  H   UNL     1      15.946  31.869  34.556  1.00  0.00     0.211 HD
ENDBRANCH  32  40
ENDBRANCH   1  27
TORSDOF 12
ENDMDL
MODEL 3
REMARK VINA RESULT:    -5.675      1.497      4.852
REMARK INTER + INTRA:          -9.616
REMARK INTER:                  -8.297
REMARK INTRA:                  -1.319
REMARK UNBOUND:                -1.288
REMARK SMILES O=c1c(O[C@@H]2O[C@H](CO)[C@@H](O)[C@@H](O)[C@H]2O)c(-c2ccc(O)c(O)c2)oc2cc(O)cc(O)c12
REMARK SMILES IDX 4 1 3 2 16 3 25 4 2 5 26 6 1 7 33 8 27 9 31 10 28 11 30 12
REMARK SMILES IDX 17 13 18 14 19 15 20 16 24 17 22 18 21 19 23 21 32 23 29 25
REMARK SMILES IDX 5 27 14 28 6 29 12 30 7 31 10 32 15 33 13 35 8 37 9 38 11 40
REMARK H PARENT 21 20 23 22 32 24 29 26 15 34 13 36 9 39 11 41
REMARK Flexibility Score: inf
ROOT
ATOM      1  O   UNL     1      19.072  31.556  30.284  1.00  0.00    -0.454 OA
ENDROOT
BRANCH   1   2
ATOM      2  C   UNL     1      18.384  31.462  31.509  1.00  0.00     0.214 A 
ATOM      3  C   UNL     1      18.113  30.183  32.031  1.00  0.00     0.180 A 
ATOM      4  O   UNL     1      17.492  30.058  33.197  1.00  0.00    -0.452 OA
ATOM      5  C   UNL     1      17.963  32.590  32.244  1.00  0.00     0.239 A 
ATOM      6  C   UNL     1      17.101  31.090  33.932  1.00  0.00     0.146 A 
ATOM      7  O   UNL     1      18.090  33.736  31.743  1.00  0.00    -0.285 OA
ATOM      8  C   UNL     1      17.351  32.420  33.510  1.00  0.00     0.111 A 
ATOM      9  C   UNL     1      16.426  30.838  35.129  1.00  0.00     0.094 A 
ATOM     10  C   UNL     1      16.944  33.491  34.362  1.00  0.00     0.134 A 
ATOM     11  C   UNL     1      15.977  31.891  35.922  1.00  0.00     0.123 A 
ATOM     12  C   UNL     1      16.233  33.209  35.535  1.00  0.00     0.093 A 
BRANCH   3  13
ATOM     13  C   UNL     1      18.533  28.947  31.334  1.00  0.00     0.025 A 
ATOM     14  C   UNL     1      19.632  28.194  31.779  1.00  0.00     0.016 A 
ATOM     15  C   UNL     1      20.012  27.032  31.104  1.00  0.00     0.051 A 
ATOM     16  C   UNL     1      19.311  26.616  29.964  1.00  0.00     0.157 A 
ATOM     17  C   UNL     1      17.847  28.539  30.179  1.00  0.00     0.062 A 
ATOM     18  C   UNL     1      18.229  27.374  29.498  1.00  0.00     0.158 A 
BRANCH  16  19
ATOM     19  O   UNL     1      19.686  25.457  29.288  1.00  0.00    -0.504 OA
ATOM     20  H   UNL     1      19.621  25.388  28.278  1.00  0.00     0.293 HD
ENDBRANCH  16  19
BRANCH  18  21
ATOM     21  O   UNL     1      17.538  26.963  28.360  1.00  0.00    -0.504 OA
ATOM     22  H   UNL     1      18.020  26.568  27.561  1.00  0.00     0.293 HD
ENDBRANCH  18  21
ENDBRANCH   3  13
BRANCH  10  23
ATOM     23  O   UNL     1      17.239  34.836  34.119  1.00  0.00    -0.507 OA
ATOM     24  H   UNL     1      16.566  35.525  33.819  1.00  0.00     0.293 HD
ENDBRANCH  10  23
BRANCH  11  25
ATOM     25  O   UNL     1      15.285  31.618  37.100  1.00  0.00    -0.508 OA
ATOM     26  H   UNL     1      14.282  31.473  37.104  1.00  0.00     0.293 HD
ENDBRANCH  11  25
ENDBRANCH   1   2
BRANCH   1  27
ATOM     27  C   UNL     1      18.506  31.942  29.028  1.00  0.00     0.339 C 
ATOM     28  C   UNL     1      19.046  33.317  28.610  1.00  0.00     0.214 C 
ATOM     29  O   UNL     1      18.706  30.953  28.024  1.00  0.00    -0.332 OA
ATOM     30  C   UNL     1      20.531  33.208  28.240  1.00  0.00     0.180 C 
ATOM     31  C   UNL     1      20.060  30.786  27.618  1.00  0.00     0.179 C 
ATOM     32  C   UNL     1      20.739  32.107  27.183  1.00  0.00     0.177 C 
BRANCH  28  33
ATOM     33  O   UNL     1      18.292  33.801  27.526  1.00  0.00    -0.384 OA
ATOM     34  H   UNL     1      17.453  34.178  27.902  1.00  0.00     0.211 HD
ENDBRANCH  28  33
BRANCH  30  35
ATOM     35  O   UNL     1      20.997  34.447  27.768  1.00  0.00    -0.387 OA
ATOM     36  H   UNL     1      21.639  34.787  28.444  1.00  0.00     0.211 HD
ENDBRANCH  30  35
BRANCH  31  37
ATOM     37  C   UNL     1      20.885  29.975  28.640  1.00  0.00     0.191 C 
BRANCH  37  38
ATOM     38  O   UNL     1      21.290  28.751  28.088  1.00  0.00    -0.394 OA
ATOM     39  H   UNL     1      20.622  28.516  27.393  1.00  0.00     0.210 HD
ENDBRANCH  37  38
ENDBRANCH  31  37
BRANCH  32  40
ATOM     40  O   UNL     1      20.200  32.509  25.947  1.00  0.00    -0.387 OA
ATOM     41  H   UNL     1      19.330  32.948  26.137  1.00  0.00     0.211 HD
ENDBRANCH  32  40
ENDBRANCH   1  27
TORSDOF 12
ENDMDL
MODEL 4
REMARK VINA RESULT:    -5.605      2.914      7.938
REMARK INTER + INTRA:          -9.514
REMARK INTER:                  -8.080
REMARK INTRA:                  -1.434
REMARK UNBOUND:                -1.288
REMARK SMILES O=c1c(O[C@@H]2O[C@H](CO)[C@@H](O)[C@@H](O)[C@H]2O)c(-c2ccc(O)c(O)c2)oc2cc(O)cc(O)c12
REMARK SMILES IDX 4 1 3 2 16 3 25 4 2 5 26 6 1 7 33 8 27 9 31 10 28 11 30 12
REMARK SMILES IDX 17 13 18 14 19 15 20 16 24 17 22 18 21 19 23 21 32 23 29 25
REMARK SMILES IDX 5 27 14 28 6 29 12 30 7 31 10 32 15 33 13 35 8 37 9 38 11 40
REMARK H PARENT 21 20 23 22 32 24 29 26 15 34 13 36 9 39 11 41
REMARK Flexibility Score: inf
ROOT
ATOM      1  O   UNL     1      17.417  31.486  35.517  1.00  0.00    -0.454 OA
ENDROOT
BRANCH   1   2
ATOM      2  C   UNL     1      17.705  30.929  34.257  1.00  0.00     0.214 A 
ATOM      3  C   UNL     1      17.503  31.720  33.110  1.00  0.00     0.180 A 
ATOM      4  O   UNL     1      17.791  31.235  31.908  1.00  0.00    -0.452 OA
ATOM      5  C   UNL     1      18.196  29.617  34.089  1.00  0.00     0.239 A 
ATOM      6  C   UNL     1      18.278  30.019  31.707  1.00  0.00     0.146 A 
ATOM      7  O   UNL     1      18.274  28.855  35.086  1.00  0.00    -0.285 OA
ATOM      8  C   UNL     1      18.544  29.153  32.797  1.00  0.00     0.111 A 
ATOM      9  C   UNL     1      18.513  29.603  30.394  1.00  0.00     0.094 A 
ATOM     10  C   UNL     1      19.106  27.869  32.524  1.00  0.00     0.134 A 
ATOM     11  C   UNL     1      19.003  28.326  30.134  1.00  0.00     0.123 A 
ATOM     12  C   UNL     1      19.293  27.465  31.196  1.00  0.00     0.093 A 
BRANCH   3  13
ATOM     13  C   UNL     1      17.005  33.111  33.195  1.00  0.00     0.025 A 
ATOM     14  C   UNL     1      15.703  33.395  33.637  1.00  0.00     0.016 A 
ATOM     15  C   UNL     1      15.253  34.716  33.706  1.00  0.00     0.051 A 
ATOM     16  C   UNL     1      16.091  35.769  33.317  1.00  0.00     0.157 A 
ATOM     17  C   UNL     1      17.835  34.167  32.785  1.00  0.00     0.062 A 
ATOM     18  C   UNL     1      17.384  35.493  32.851  1.00  0.00     0.158 A 
BRANCH  16  19
ATOM     19  O   UNL     1      15.648  37.088  33.384  1.00  0.00    -0.504 OA
ATOM     20  H   UNL     1      14.685  37.312  33.612  1.00  0.00     0.293 HD
ENDBRANCH  16  19
BRANCH  18  21
ATOM     21  O   UNL     1      18.213  36.541  32.457  1.00  0.00    -0.504 OA
ATOM     22  H   UNL     1      18.737  37.085  33.132  1.00  0.00     0.293 HD
ENDBRANCH  18  21
ENDBRANCH   3  13
BRANCH  10  23
ATOM     23  O   UNL     1      19.526  26.974  33.513  1.00  0.00    -0.507 OA
ATOM     24  H   UNL     1      18.906  26.465  34.124  1.00  0.00     0.293 HD
ENDBRANCH  10  23
BRANCH  11  25
ATOM     25  O   UNL     1      19.208  27.923  28.816  1.00  0.00    -0.508 OA
ATOM     26  H   UNL     1      19.762  28.475  28.173  1.00  0.00     0.293 HD
ENDBRANCH  11  25
ENDBRANCH   1   2
BRANCH   1  27
ATOM     27  C   UNL     1      18.345  31.667  36.590  1.00  0.00     0.339 C 
ATOM     28  C   UNL     1      19.309  32.816  36.262  1.00  0.00     0.214 C 
ATOM     29  O   UNL     1      17.689  31.850  37.840  1.00  0.00    -0.332 OA
ATOM     30  C   UNL     1      18.561  34.155  36.295  1.00  0.00     0.180 C 
ATOM     31  C   UNL     1      16.969  33.072  37.959  1.00  0.00     0.179 C 
ATOM     32  C   UNL     1      17.823  34.322  37.637  1.00  0.00     0.177 C 
BRANCH  28  33
ATOM     33  O   UNL     1      20.369  32.809  37.186  1.00  0.00    -0.384 OA
ATOM     34  H   UNL     1      20.562  33.756  37.414  1.00  0.00     0.211 HD
ENDBRANCH  28  33
BRANCH  30  35
ATOM     35  O   UNL     1      19.465  35.211  36.088  1.00  0.00    -0.387 OA
ATOM     36  H   UNL     1      19.007  36.041  36.385  1.00  0.00     0.211 HD
ENDBRANCH  30  35
BRANCH  31  37
ATOM     37  C   UNL     1      15.620  33.035  37.210  1.00  0.00     0.191 C 
BRANCH  37  38
ATOM     38  O   UNL     1      14.992  31.793  37.383  1.00  0.00    -0.394 OA
ATOM     39  H   UNL     1      14.989  31.348  36.496  1.00  0.00     0.210 HD
ENDBRANCH  37  38
ENDBRANCH  31  37
BRANCH  32  40
ATOM     40  O   UNL     1      18.746  34.523  38.680  1.00  0.00    -0.387 OA
ATOM     41  H   UNL     1      18.265  34.353  39.531  1.00  0.00     0.211 HD
ENDBRANCH  32  40
ENDBRANCH   1  27
TORSDOF 12
ENDMDL
MODEL 5
REMARK VINA RESULT:    -5.448      1.916      5.107
REMARK INTER + INTRA:          -9.284
REMARK INTER:                  -7.980
REMARK INTRA:                  -1.305
REMARK UNBOUND:                -1.288
REMARK SMILES O=c1c(O[C@@H]2O[C@H](CO)[C@@H](O)[C@@H](O)[C@H]2O)c(-c2ccc(O)c(O)c2)oc2cc(O)cc(O)c12
REMARK SMILES IDX 4 1 3 2 16 3 25 4 2 5 26 6 1 7 33 8 27 9 31 10 28 11 30 12
REMARK SMILES IDX 17 13 18 14 19 15 20 16 24 17 22 18 21 19 23 21 32 23 29 25
REMARK SMILES IDX 5 27 14 28 6 29 12 30 7 31 10 32 15 33 13 35 8 37 9 38 11 40
REMARK H PARENT 21 20 23 22 32 24 29 26 15 34 13 36 9 39 11 41
REMARK Flexibility Score: inf
ROOT
ATOM      1  O   UNL     1      19.193  29.594  29.458  1.00  0.00    -0.454 OA
ENDROOT
BRANCH   1   2
ATOM      2  C   UNL     1      18.923  30.929  29.815  1.00  0.00     0.214 A 
ATOM      3  C   UNL     1      18.796  31.247  31.180  1.00  0.00     0.180 A 
ATOM      4  O   UNL     1      18.570  32.500  31.554  1.00  0.00    -0.452 OA
ATOM      5  C   UNL     1      18.784  31.966  28.869  1.00  0.00     0.239 A 
ATOM      6  C   UNL     1      18.457  33.509  30.701  1.00  0.00     0.146 A 
ATOM      7  O   UNL     1      18.778  31.686  27.644  1.00  0.00    -0.285 OA
ATOM      8  C   UNL     1      18.597  33.300  29.306  1.00  0.00     0.111 A 
ATOM      9  C   UNL     1      18.186  34.783  31.207  1.00  0.00     0.094 A 
ATOM     10  C   UNL     1      18.506  34.430  28.438  1.00  0.00     0.134 A 
ATOM     11  C   UNL     1      18.037  35.867  30.346  1.00  0.00     0.123 A 
ATOM     12  C   UNL     1      18.193  35.687  28.970  1.00  0.00     0.093 A 
BRANCH   3  13
ATOM     13  C   UNL     1      18.942  30.224  32.241  1.00  0.00     0.025 A 
ATOM     14  C   UNL     1      17.855  29.843  33.044  1.00  0.00     0.016 A 
ATOM     15  C   UNL     1      18.017  28.879  34.041  1.00  0.00     0.051 A 
ATOM     16  C   UNL     1      19.271  28.294  34.261  1.00  0.00     0.157 A 
ATOM     17  C   UNL     1      20.202  29.653  32.478  1.00  0.00     0.062 A 
ATOM     18  C   UNL     1      20.367  28.685  33.481  1.00  0.00     0.158 A 
BRANCH  16  19
ATOM     19  O   UNL     1      19.438  27.331  35.253  1.00  0.00    -0.504 OA
ATOM     20  H   UNL     1      18.655  26.791  35.604  1.00  0.00     0.293 HD
ENDBRANCH  16  19
BRANCH  18  21
ATOM     21  O   UNL     1      21.616  28.108  33.706  1.00  0.00    -0.504 OA
ATOM     22  H   UNL     1      21.793  27.529  34.518  1.00  0.00     0.293 HD
ENDBRANCH  18  21
ENDBRANCH   3  13
BRANCH  10  23
ATOM     23  O   UNL     1      18.746  34.377  27.061  1.00  0.00    -0.507 OA
ATOM     24  H   UNL     1      18.029  34.422  26.353  1.00  0.00     0.293 HD
ENDBRANCH  10  23
BRANCH  11  25
ATOM     25  O   UNL     1      17.743  37.125  30.869  1.00  0.00    -0.508 OA
ATOM     26  H   UNL     1      18.455  37.695  31.310  1.00  0.00     0.293 HD
ENDBRANCH  11  25
ENDBRANCH   1   2
BRANCH   1  27
ATOM     27  C   UNL     1      18.224  28.608  29.091  1.00  0.00     0.339 C 
ATOM     28  C   UNL     1      18.163  28.477  27.562  1.00  0.00     0.214 C 
ATOM     29  O   UNL     1      18.461  27.360  29.733  1.00  0.00    -0.332 OA
ATOM     30  C   UNL     1      19.452  27.829  27.039  1.00  0.00     0.180 C 
ATOM     31  C   UNL     1      19.639  26.686  29.305  1.00  0.00     0.179 C 
ATOM     32  C   UNL     1      19.717  26.500  27.770  1.00  0.00     0.177 C 
BRANCH  28  33
ATOM     33  O   UNL     1      17.037  27.714  27.208  1.00  0.00    -0.384 OA
ATOM     34  H   UNL     1      16.657  28.120  26.385  1.00  0.00     0.211 HD
ENDBRANCH  28  33
BRANCH  30  35
ATOM     35  O   UNL     1      19.353  27.624  25.652  1.00  0.00    -0.387 OA
ATOM     36  H   UNL     1      20.278  27.649  25.293  1.00  0.00     0.211 HD
ENDBRANCH  30  35
BRANCH  31  37
ATOM     37  C   UNL     1      20.919  27.292  29.919  1.00  0.00     0.191 C 
BRANCH  37  38
ATOM     38  O   UNL     1      21.347  26.532  31.018  1.00  0.00    -0.394 OA
ATOM     39  H   UNL     1      21.571  27.176  31.740  1.00  0.00     0.210 HD
ENDBRANCH  37  38
ENDBRANCH  31  37
BRANCH  32  40
ATOM     40  O   UNL     1      18.773  25.532  27.381  1.00  0.00    -0.387 OA
ATOM     41  H   UNL     1      18.099  25.993  26.816  1.00  0.00     0.211 HD
ENDBRANCH  32  40
ENDBRANCH   1  27
TORSDOF 12
ENDMDL
MODEL 6
REMARK VINA RESULT:    -5.375      2.821      8.000
REMARK INTER + INTRA:          -9.176
REMARK INTER:                  -7.337
REMARK INTRA:                  -1.839
REMARK UNBOUND:                -1.288
REMARK SMILES O=c1c(O[C@@H]2O[C@H](CO)[C@@H](O)[C@@H](O)[C@H]2O)c(-c2ccc(O)c(O)c2)oc2cc(O)cc(O)c12
REMARK SMILES IDX 4 1 3 2 16 3 25 4 2 5 26 6 1 7 33 8 27 9 31 10 28 11 30 12
REMARK SMILES IDX 17 13 18 14 19 15 20 16 24 17 22 18 21 19 23 21 32 23 29 25
REMARK SMILES IDX 5 27 14 28 6 29 12 30 7 31 10 32 15 33 13 35 8 37 9 38 11 40
REMARK H PARENT 21 20 23 22 32 24 29 26 15 34 13 36 9 39 11 41
REMARK Flexibility Score: inf
ROOT
ATOM      1  O   UNL     1      20.294  29.314  28.898  1.00  0.00    -0.454 OA
ENDROOT
BRANCH   1   2
ATOM      2  C   UNL     1      20.358  29.341  27.493  1.00  0.00     0.214 A 
ATOM      3  C   UNL     1      20.238  28.127  26.791  1.00  0.00     0.180 A 
ATOM      4  O   UNL     1      20.265  28.120  25.464  1.00  0.00    -0.452 OA
ATOM      5  C   UNL     1      20.526  30.530  26.752  1.00  0.00     0.239 A 
ATOM      6  C   UNL     1      20.396  29.215  24.729  1.00  0.00     0.146 A 
ATOM      7  O   UNL     1      20.751  31.608  27.359  1.00  0.00    -0.285 OA
ATOM      8  C   UNL     1      20.496  30.491  25.337  1.00  0.00     0.111 A 
ATOM      9  C   UNL     1      20.445  29.083  23.338  1.00  0.00     0.094 A 
ATOM     10  C   UNL     1      20.594  31.640  24.494  1.00  0.00     0.134 A 
ATOM     11  C   UNL     1      20.604  30.205  22.528  1.00  0.00     0.123 A 
ATOM     12  C   UNL     1      20.682  31.473  23.107  1.00  0.00     0.093 A 
BRANCH   3  13
ATOM     13  C   UNL     1      20.044  26.835  27.486  1.00  0.00     0.025 A 
ATOM     14  C   UNL     1      18.769  26.261  27.620  1.00  0.00     0.016 A 
ATOM     15  C   UNL     1      18.608  25.043  28.283  1.00  0.00     0.051 A 
ATOM     16  C   UNL     1      19.717  24.389  28.838  1.00  0.00     0.157 A 
ATOM     17  C   UNL     1      21.149  26.189  28.063  1.00  0.00     0.062 A 
ATOM     18  C   UNL     1      20.989  24.966  28.731  1.00  0.00     0.158 A 
BRANCH  16  19
ATOM     19  O   UNL     1      19.562  23.173  29.500  1.00  0.00    -0.504 OA
ATOM     20  H   UNL     1      19.865  23.050  30.460  1.00  0.00     0.293 HD
ENDBRANCH  16  19
BRANCH  18  21
ATOM     21  O   UNL     1      22.089  24.319  29.290  1.00  0.00    -0.504 OA
ATOM     22  H   UNL     1      23.011  24.741  29.288  1.00  0.00     0.293 HD
ENDBRANCH  18  21
ENDBRANCH   3  13
BRANCH  10  23
ATOM     23  O   UNL     1      20.576  32.957  24.965  1.00  0.00    -0.507 OA
ATOM     24  H   UNL     1      21.378  33.443  25.336  1.00  0.00     0.293 HD
ENDBRANCH  10  23
BRANCH  11  25
ATOM     25  O   UNL     1      20.675  30.049  21.145  1.00  0.00    -0.508 OA
ATOM     26  H   UNL     1      21.045  30.779  20.547  1.00  0.00     0.293 HD
ENDBRANCH  11  25
ENDBRANCH   1   2
BRANCH   1  27
ATOM     27  C   UNL     1      19.180  29.717  29.699  1.00  0.00     0.339 C 
ATOM     28  C   UNL     1      18.732  28.554  30.598  1.00  0.00     0.214 C 
ATOM     29  O   UNL     1      19.452  30.901  30.441  1.00  0.00    -0.332 OA
ATOM     30  C   UNL     1      19.788  28.290  31.680  1.00  0.00     0.180 C 
ATOM     31  C   UNL     1      20.423  30.746  31.470  1.00  0.00     0.179 C 
ATOM     32  C   UNL     1      20.103  29.588  32.447  1.00  0.00     0.177 C 
BRANCH  28  33
ATOM     33  O   UNL     1      17.489  28.867  31.174  1.00  0.00    -0.384 OA
ATOM     34  H   UNL     1      17.461  29.854  31.287  1.00  0.00     0.211 HD
ENDBRANCH  28  33
BRANCH  30  35
ATOM     35  O   UNL     1      19.332  27.291  32.556  1.00  0.00    -0.387 OA
ATOM     36  H   UNL     1      19.352  26.437  32.050  1.00  0.00     0.211 HD
ENDBRANCH  30  35
BRANCH  31  37
ATOM     37  C   UNL     1      21.865  30.708  30.919  1.00  0.00     0.191 C 
BRANCH  37  38
ATOM     38  O   UNL     1      22.037  31.680  29.922  1.00  0.00    -0.394 OA
ATOM     39  H   UNL     1      22.105  32.556  30.385  1.00  0.00     0.210 HD
ENDBRANCH  37  38
ENDBRANCH  31  37
BRANCH  32  40
ATOM     40  O   UNL     1      19.009  29.959  33.249  1.00  0.00    -0.387 OA
ATOM     41  H   UNL     1      19.357  30.564  33.955  1.00  0.00     0.211 HD
ENDBRANCH  32  40
ENDBRANCH   1  27
TORSDOF 12
ENDMDL
MODEL 7
REMARK VINA RESULT:    -5.350      2.094      5.801
REMARK INTER + INTRA:          -9.139
REMARK INTER:                  -8.203
REMARK INTRA:                  -0.936
REMARK UNBOUND:                -1.288
REMARK SMILES O=c1c(O[C@@H]2O[C@H](CO)[C@@H](O)[C@@H](O)[C@H]2O)c(-c2ccc(O)c(O)c2)oc2cc(O)cc(O)c12
REMARK SMILES IDX 4 1 3 2 16 3 25 4 2 5 26 6 1 7 33 8 27 9 31 10 28 11 30 12
REMARK SMILES IDX 17 13 18 14 19 15 20 16 24 17 22 18 21 19 23 21 32 23 29 25
REMARK SMILES IDX 5 27 14 28 6 29 12 30 7 31 10 32 15 33 13 35 8 37 9 38 11 40
REMARK H PARENT 21 20 23 22 32 24 29 26 15 34 13 36 9 39 11 41
REMARK Flexibility Score: inf
ROOT
ATOM      1  O   UNL     1      18.406  28.974  31.884  1.00  0.00    -0.454 OA
ENDROOT
BRANCH   1   2
ATOM      2  C   UNL     1      18.497  30.072  31.008  1.00  0.00     0.214 A 
ATOM      3  C   UNL     1      18.682  29.823  29.635  1.00  0.00     0.180 A 
ATOM      4  O   UNL     1      18.743  30.834  28.777  1.00  0.00    -0.452 OA
ATOM      5  C   UNL     1      18.402  31.411  31.440  1.00  0.00     0.239 A 
ATOM      6  C   UNL     1      18.634  32.106  29.137  1.00  0.00     0.146 A 
ATOM      7  O   UNL     1      18.354  31.660  32.671  1.00  0.00    -0.285 OA
ATOM      8  C   UNL     1      18.417  32.462  30.491  1.00  0.00     0.111 A 
ATOM      9  C   UNL     1      18.747  33.089  28.151  1.00  0.00     0.094 A 
ATOM     10  C   UNL     1      18.266  33.845  30.814  1.00  0.00     0.134 A 
ATOM     11  C   UNL     1      18.661  34.438  28.486  1.00  0.00     0.123 A 
ATOM     12  C   UNL     1      18.426  34.810  29.811  1.00  0.00     0.093 A 
BRANCH   3  13
ATOM     13  C   UNL     1      18.777  28.449  29.093  1.00  0.00     0.025 A 
ATOM     14  C   UNL     1      17.675  27.578  29.112  1.00  0.00     0.016 A 
ATOM     15  C   UNL     1      17.788  26.284  28.598  1.00  0.00     0.051 A 
ATOM     16  C   UNL     1      19.008  25.837  28.074  1.00  0.00     0.157 A 
ATOM     17  C   UNL     1      20.003  27.990  28.588  1.00  0.00     0.062 A 
ATOM     18  C   UNL     1      20.120  26.690  28.073  1.00  0.00     0.158 A 
BRANCH  16  19
ATOM     19  O   UNL     1      19.126  24.548  27.560  1.00  0.00    -0.504 OA
ATOM     20  H   UNL     1      18.340  24.075  27.128  1.00  0.00     0.293 HD
ENDBRANCH  16  19
BRANCH  18  21
ATOM     21  O   UNL     1      21.334  26.241  27.559  1.00  0.00    -0.504 OA
ATOM     22  H   UNL     1      21.923  25.597  28.075  1.00  0.00     0.293 HD
ENDBRANCH  18  21
ENDBRANCH   3  13
BRANCH  10  23
ATOM     23  O   UNL     1      17.929  34.317  32.086  1.00  0.00    -0.507 OA
ATOM     24  H   UNL     1      18.403  35.070  32.561  1.00  0.00     0.293 HD
ENDBRANCH  10  23
BRANCH  11  25
ATOM     25  O   UNL     1      18.800  35.404  27.491  1.00  0.00    -0.508 OA
ATOM     26  H   UNL     1      18.173  36.197  27.430  1.00  0.00     0.293 HD
ENDBRANCH  11  25
ENDBRANCH   1   2
BRANCH   1  27
ATOM     27  C   UNL     1      19.466  28.075  32.222  1.00  0.00     0.339 C 
ATOM     28  C   UNL     1      20.786  28.848  32.353  1.00  0.00     0.214 C 
ATOM     29  O   UNL     1      19.169  27.308  33.383  1.00  0.00    -0.332 OA
ATOM     30  C   UNL     1      20.751  29.740  33.602  1.00  0.00     0.180 C 
ATOM     31  C   UNL     1      19.117  28.058  34.592  1.00  0.00     0.179 C 
ATOM     32  C   UNL     1      20.389  28.905  34.844  1.00  0.00     0.177 C 
BRANCH  28  33
ATOM     33  O   UNL     1      21.853  27.934  32.418  1.00  0.00    -0.384 OA
ATOM     34  H   UNL     1      22.630  28.363  31.973  1.00  0.00     0.211 HD
ENDBRANCH  28  33
BRANCH  30  35
ATOM     35  O   UNL     1      21.994  30.372  33.771  1.00  0.00    -0.387 OA
ATOM     36  H   UNL     1      22.036  31.103  33.101  1.00  0.00     0.211 HD
ENDBRANCH  30  35
BRANCH  31  37
ATOM     37  C   UNL     1      17.805  28.857  34.733  1.00  0.00     0.191 C 
BRANCH  37  38
ATOM     38  O   UNL     1      18.045  30.099  35.341  1.00  0.00    -0.394 OA
ATOM     39  H   UNL     1      17.481  30.131  36.157  1.00  0.00     0.210 HD
ENDBRANCH  37  38
ENDBRANCH  31  37
BRANCH  32  40
ATOM     40  O   UNL     1      21.449  28.043  35.180  1.00  0.00    -0.387 OA
ATOM     41  H   UNL     1      21.061  27.138  35.304  1.00  0.00     0.211 HD
ENDBRANCH  32  40
ENDBRANCH   1  27
TORSDOF 12
ENDMDL
MODEL 8
REMARK VINA RESULT:    -5.230      2.955      5.638
REMARK INTER + INTRA:          -8.963
REMARK INTER:                  -7.181
REMARK INTRA:                  -1.782
REMARK UNBOUND:                -1.288
REMARK SMILES O=c1c(O[C@@H]2O[C@H](CO)[C@@H](O)[C@@H](O)[C@H]2O)c(-c2ccc(O)c(O)c2)oc2cc(O)cc(O)c12
REMARK SMILES IDX 4 1 3 2 16 3 25 4 2 5 26 6 1 7 33 8 27 9 31 10 28 11 30 12
REMARK SMILES IDX 17 13 18 14 19 15 20 16 24 17 22 18 21 19 23 21 32 23 29 25
REMARK SMILES IDX 5 27 14 28 6 29 12 30 7 31 10 32 15 33 13 35 8 37 9 38 11 40
REMARK H PARENT 21 20 23 22 32 24 29 26 15 34 13 36 9 39 11 41
REMARK Flexibility Score: inf
ROOT
ATOM      1  O   UNL     1      19.417  30.651  34.611  1.00  0.00    -0.454 OA
ENDROOT
BRANCH   1   2
ATOM      2  C   UNL     1      18.441  31.634  34.360  1.00  0.00     0.214 A 
ATOM      3  C   UNL     1      17.885  31.715  33.070  1.00  0.00     0.180 A 
ATOM      4  O   UNL     1      16.942  32.611  32.807  1.00  0.00    -0.452 OA
ATOM      5  C   UNL     1      17.986  32.536  35.346  1.00  0.00     0.239 A 
ATOM      6  C   UNL     1      16.468  33.460  33.708  1.00  0.00     0.146 A 
ATOM      7  O   UNL     1      18.550  32.558  36.469  1.00  0.00    -0.285 OA
ATOM      8  C   UNL     1      16.940  33.442  35.044  1.00  0.00     0.111 A 
ATOM      9  C   UNL     1      15.497  34.383  33.309  1.00  0.00     0.094 A 
ATOM     10  C   UNL     1      16.364  34.352  35.981  1.00  0.00     0.134 A 
ATOM     11  C   UNL     1      14.986  35.308  34.216  1.00  0.00     0.123 A 
ATOM     12  C   UNL     1      15.423  35.292  35.543  1.00  0.00     0.093 A 
BRANCH   3  13
ATOM     13  C   UNL     1      18.293  30.799  31.981  1.00  0.00     0.025 A 
ATOM     14  C   UNL     1      17.626  29.583  31.761  1.00  0.00     0.016 A 
ATOM     15  C   UNL     1      18.030  28.733  30.729  1.00  0.00     0.051 A 
ATOM     16  C   UNL     1      19.117  29.077  29.915  1.00  0.00     0.157 A 
ATOM     17  C   UNL     1      19.396  31.130  31.178  1.00  0.00     0.062 A 
ATOM     18  C   UNL     1      19.804  30.276  30.143  1.00  0.00     0.158 A 
BRANCH  16  19
ATOM     19  O   UNL     1      19.523  28.232  28.884  1.00  0.00    -0.504 OA
ATOM     20  H   UNL     1      19.974  28.593  28.050  1.00  0.00     0.293 HD
ENDBRANCH  16  19
BRANCH  18  21
ATOM     21  O   UNL     1      20.890  30.613  29.337  1.00  0.00    -0.504 OA
ATOM     22  H   UNL     1      20.782  30.780  28.344  1.00  0.00     0.293 HD
ENDBRANCH  18  21
ENDBRANCH   3  13
BRANCH  10  23
ATOM     23  O   UNL     1      16.655  34.351  37.349  1.00  0.00    -0.507 OA
ATOM     24  H   UNL     1      16.216  34.955  38.028  1.00  0.00     0.293 HD
ENDBRANCH  10  23
BRANCH  11  25
ATOM     25  O   UNL     1      14.037  36.235  33.792  1.00  0.00    -0.508 OA
ATOM     26  H   UNL     1      14.138  36.734  32.916  1.00  0.00     0.293 HD
ENDBRANCH  11  25
ENDBRANCH   1   2
BRANCH   1  27
ATOM     27  C   UNL     1      19.191  29.371  35.206  1.00  0.00     0.339 C 
ATOM     28  C   UNL     1      19.752  28.265  34.301  1.00  0.00     0.214 C 
ATOM     29  O   UNL     1      19.703  29.298  36.532  1.00  0.00    -0.332 OA
ATOM     30  C   UNL     1      21.286  28.317  34.298  1.00  0.00     0.180 C 
ATOM     31  C   UNL     1      21.123  29.338  36.623  1.00  0.00     0.179 C 
ATOM     32  C   UNL     1      21.825  28.278  35.739  1.00  0.00     0.177 C 
BRANCH  28  33
ATOM     33  O   UNL     1      19.293  27.016  34.756  1.00  0.00    -0.384 OA
ATOM     34  H   UNL     1      19.737  26.843  35.627  1.00  0.00     0.211 HD
ENDBRANCH  28  33
BRANCH  30  35
ATOM     35  O   UNL     1      21.797  27.246  33.545  1.00  0.00    -0.387 OA
ATOM     36  H   UNL     1      21.047  26.900  32.995  1.00  0.00     0.211 HD
ENDBRANCH  30  35
BRANCH  31  37
ATOM     37  C   UNL     1      21.684  30.765  36.439  1.00  0.00     0.191 C 
BRANCH  37  38
ATOM     38  O   UNL     1      20.984  31.677  37.243  1.00  0.00    -0.394 OA
ATOM     39  H   UNL     1      21.508  32.521  37.240  1.00  0.00     0.210 HD
ENDBRANCH  37  38
ENDBRANCH  31  37
BRANCH  32  40
ATOM     40  O   UNL     1      21.618  27.007  36.305  1.00  0.00    -0.387 OA
ATOM     41  H   UNL     1      22.513  26.634  36.520  1.00  0.00     0.211 HD
ENDBRANCH  32  40
ENDBRANCH   1  27
TORSDOF 12
ENDMDL
MODEL 9
REMARK VINA RESULT:    -5.223      3.475      8.500
REMARK INTER + INTRA:          -8.954
REMARK INTER:                  -7.547
REMARK INTRA:                  -1.407
REMARK UNBOUND:                -1.288
REMARK SMILES O=c1c(O[C@@H]2O[C@H](CO)[C@@H](O)[C@@H](O)[C@H]2O)c(-c2ccc(O)c(O)c2)oc2cc(O)cc(O)c12
REMARK SMILES IDX 4 1 3 2 16 3 25 4 2 5 26 6 1 7 33 8 27 9 31 10 28 11 30 12
REMARK SMILES IDX 17 13 18 14 19 15 20 16 24 17 22 18 21 19 23 21 32 23 29 25
REMARK SMILES IDX 5 27 14 28 6 29 12 30 7 31 10 32 15 33 13 35 8 37 9 38 11 40
REMARK H PARENT 21 20 23 22 32 24 29 26 15 34 13 36 9 39 11 41
REMARK Flexibility Score: inf
ROOT
ATOM      1  O   UNL     1      17.711  32.605  35.874  1.00  0.00    -0.454 OA
ENDROOT
BRANCH   1   2
ATOM      2  C   UNL     1      17.894  31.682  34.827  1.00  0.00     0.214 A 
ATOM      3  C   UNL     1      17.485  32.046  33.531  1.00  0.00     0.180 A 
ATOM      4  O   UNL     1      17.669  31.210  32.515  1.00  0.00    -0.452 OA
ATOM      5  C   UNL     1      18.478  30.411  35.015  1.00  0.00     0.239 A 
ATOM      6  C   UNL     1      18.235  30.018  32.642  1.00  0.00     0.146 A 
ATOM      7  O   UNL     1      18.743  30.020  36.179  1.00  0.00    -0.285 OA
ATOM      8  C   UNL     1      18.708  29.568  33.900  1.00  0.00     0.111 A 
ATOM      9  C   UNL     1      18.347  29.209  31.508  1.00  0.00     0.094 A 
ATOM     10  C   UNL     1      19.346  28.293  33.969  1.00  0.00     0.134 A 
ATOM     11  C   UNL     1      18.915  27.941  31.599  1.00  0.00     0.123 A 
ATOM     12  C   UNL     1      19.406  27.487  32.825  1.00  0.00     0.093 A 
BRANCH   3  13
ATOM     13  C   UNL     1      16.878  33.364  33.241  1.00  0.00     0.025 A 
ATOM     14  C   UNL     1      15.536  33.635  33.555  1.00  0.00     0.016 A 
ATOM     15  C   UNL     1      14.982  34.886  33.269  1.00  0.00     0.051 A 
ATOM     16  C   UNL     1      15.757  35.876  32.651  1.00  0.00     0.157 A 
ATOM     17  C   UNL     1      17.644  34.351  32.601  1.00  0.00     0.062 A 
ATOM     18  C   UNL     1      17.089  35.607  32.312  1.00  0.00     0.158 A 
BRANCH  16  19
ATOM     19  O   UNL     1      15.210  37.125  32.365  1.00  0.00    -0.504 OA
ATOM     20  H   UNL     1      15.101  37.832  33.083  1.00  0.00     0.293 HD
ENDBRANCH  16  19
BRANCH  18  21
ATOM     21  O   UNL     1      17.856  36.590  31.690  1.00  0.00    -0.504 OA
ATOM     22  H   UNL     1      18.268  36.441  30.776  1.00  0.00     0.293 HD
ENDBRANCH  18  21
ENDBRANCH   3  13
BRANCH  10  23
ATOM     23  O   UNL     1      19.961  27.789  35.120  1.00  0.00    -0.507 OA
ATOM     24  H   UNL     1      20.589  27.000  35.134  1.00  0.00     0.293 HD
ENDBRANCH  10  23
BRANCH  11  25
ATOM     25  O   UNL     1      18.995  27.140  30.461  1.00  0.00    -0.508 OA
ATOM     26  H   UNL     1      19.886  26.900  30.044  1.00  0.00     0.293 HD
ENDBRANCH  11  25
ENDBRANCH   1   2
BRANCH   1  27
ATOM     27  C   UNL     1      16.734  32.517  36.914  1.00  0.00     0.339 C 
ATOM     28  C   UNL     1      17.425  32.272  38.263  1.00  0.00     0.214 C 
ATOM     29  O   UNL     1      15.877  33.652  36.942  1.00  0.00    -0.332 OA
ATOM     30  C   UNL     1      18.196  33.527  38.694  1.00  0.00     0.180 C 
ATOM     31  C   UNL     1      16.511  34.865  37.334  1.00  0.00     0.179 C 
ATOM     32  C   UNL     1      17.267  34.755  38.681  1.00  0.00     0.177 C 
BRANCH  28  33
ATOM     33  O   UNL     1      16.457  31.922  39.222  1.00  0.00    -0.384 OA
ATOM     34  H   UNL     1      16.412  32.669  39.875  1.00  0.00     0.211 HD
ENDBRANCH  28  33
BRANCH  30  35
ATOM     35  O   UNL     1      18.747  33.332  39.971  1.00  0.00    -0.387 OA
ATOM     36  H   UNL     1      19.584  32.812  39.845  1.00  0.00     0.211 HD
ENDBRANCH  30  35
BRANCH  31  37
ATOM     37  C   UNL     1      17.358  35.480  36.199  1.00  0.00     0.191 C 
BRANCH  37  38
ATOM     38  O   UNL     1      16.854  36.736  35.832  1.00  0.00    -0.394 OA
ATOM     39  H   UNL     1      16.107  36.938  36.455  1.00  0.00     0.210 HD
ENDBRANCH  37  38
ENDBRANCH  31  37
BRANCH  32  40
ATOM     40  O   UNL     1      16.326  34.668  39.724  1.00  0.00    -0.387 OA
ATOM     41  H   UNL     1      16.148  35.594  40.034  1.00  0.00     0.211 HD
ENDBRANCH  32  40
ENDBRANCH   1  27
TORSDOF 12
ENDMDL
