MODEL 1
REMARK VINA RESULT:    -3.803      0.000      0.000
REMARK INTER + INTRA:          -4.494
REMARK INTER:                  -4.581
REMARK INTRA:                   0.087
REMARK UNBOUND:                 0.087
REMARK SMILES O=c1c(O)c(-c2ccc(O)c(O)c2)oc2cc(O)cc(O)c12
REMARK SMILES IDX 5 1 3 2 2 3 1 4 22 5 20 6 19 7 17 8 16 9 15 10 14 11 6 12
REMARK SMILES IDX 7 13 8 14 9 15 13 16 11 17 10 18 12 20 4 22 21 24 18 26
REMARK H PARENT 10 19 12 21 4 23 21 25 18 27
REMARK Flexibility Score: inf
ROOT
ATOM      1  C   UNL     1      22.450 -46.317   7.089  1.00  0.00     0.180 A 
ATOM      2  C   UNL     1      23.111 -46.769   5.934  1.00  0.00     0.208 A 
ATOM      3  C   UNL     1      22.849 -48.065   5.462  1.00  0.00     0.238 A 
ATOM      4  O   UNL     1      23.387 -48.435   4.386  1.00  0.00    -0.285 OA
ATOM      5  C   UNL     1      21.974 -48.914   6.181  1.00  0.00     0.111 A 
ATOM      6  C   UNL     1      21.670 -50.262   5.821  1.00  0.00     0.134 A 
ATOM      7  C   UNL     1      20.707 -50.971   6.548  1.00  0.00     0.093 A 
ATOM      8  C   UNL     1      20.084 -50.405   7.662  1.00  0.00     0.123 A 
ATOM      9  C   UNL     1      20.413 -49.111   8.055  1.00  0.00     0.094 A 
ATOM     10  C   UNL     1      21.341 -48.363   7.326  1.00  0.00     0.146 A 
ATOM     11  O   UNL     1      21.610 -47.125   7.724  1.00  0.00    -0.452 OA
ENDROOT
BRANCH   1  12
ATOM     12  C   UNL     1      22.663 -44.959   7.639  1.00  0.00     0.025 A 
ATOM     13  C   UNL     1      23.952 -44.407   7.749  1.00  0.00     0.016 A 
ATOM     14  C   UNL     1      24.125 -43.114   8.247  1.00  0.00     0.051 A 
ATOM     15  C   UNL     1      23.021 -42.348   8.630  1.00  0.00     0.157 A 
ATOM     16  C   UNL     1      21.554 -44.179   8.003  1.00  0.00     0.062 A 
ATOM     17  C   UNL     1      21.726 -42.881   8.505  1.00  0.00     0.158 A 
BRANCH  15  18
ATOM     18  O   UNL     1      23.226 -41.061   9.125  1.00  0.00    -0.504 OA
ATOM     19  H   UNL     1      22.802 -40.246   8.698  1.00  0.00     0.293 HD
ENDBRANCH  15  18
BRANCH  17  20
ATOM     20  O   UNL     1      20.619 -42.121   8.878  1.00  0.00    -0.504 OA
ATOM     21  H   UNL     1      19.710 -42.543   9.022  1.00  0.00     0.293 HD
ENDBRANCH  17  20
ENDBRANCH   1  12
BRANCH   2  22
ATOM     22  O   UNL     1      24.030 -45.942   5.281  1.00  0.00    -0.502 OA
ATOM     23  H   UNL     1      24.613 -46.271   4.521  1.00  0.00     0.293 HD
ENDBRANCH   2  22
BRANCH   6  24
ATOM     24  O   UNL     1      22.299 -50.955   4.782  1.00  0.00    -0.507 OA
ATOM     25  H   UNL     1      21.827 -51.357   3.986  1.00  0.00     0.293 HD
ENDBRANCH   6  24
BRANCH   8  26
ATOM     26  O   UNL     1      19.139 -51.124   8.391  1.00  0.00    -0.508 OA
ATOM     27  H   UNL     1      18.426 -51.680   7.932  1.00  0.00     0.293 HD
ENDBRANCH   8  26
TORSDOF 6
ENDMDL
MODEL 2
REMARK VINA RESULT:    -3.075      1.209      2.829
REMARK INTER + INTRA:          -3.617
REMARK INTER:                  -3.956
REMARK INTRA:                   0.339
REMARK UNBOUND:                 0.087
REMARK SMILES O=c1c(O)c(-c2ccc(O)c(O)c2)oc2cc(O)cc(O)c12
REMARK SMILES IDX 5 1 3 2 2 3 1 4 22 5 20 6 19 7 17 8 16 9 15 10 14 11 6 12
REMARK SMILES IDX 7 13 8 14 9 15 13 16 11 17 10 18 12 20 4 22 21 24 18 26
REMARK H PARENT 10 19 12 21 4 23 21 25 18 27
REMARK Flexibility Score: inf
ROOT
ATOM      1  C   UNL     1      21.861 -46.189   7.703  1.00  0.00     0.180 A 
ATOM      2  C   UNL     1      20.695 -46.763   8.241  1.00  0.00     0.208 A 
ATOM      3  C   UNL     1      20.340 -48.067   7.860  1.00  0.00     0.238 A 
ATOM      4  O   UNL     1      19.338 -48.602   8.403  1.00  0.00    -0.285 OA
ATOM      5  C   UNL     1      21.121 -48.761   6.905  1.00  0.00     0.111 A 
ATOM      6  C   UNL     1      20.830 -50.069   6.411  1.00  0.00     0.134 A 
ATOM      7  C   UNL     1      21.734 -50.698   5.547  1.00  0.00     0.093 A 
ATOM      8  C   UNL     1      22.885 -50.042   5.106  1.00  0.00     0.123 A 
ATOM      9  C   UNL     1      23.150 -48.745   5.537  1.00  0.00     0.094 A 
ATOM     10  C   UNL     1      22.289 -48.105   6.431  1.00  0.00     0.146 A 
ATOM     11  O   UNL     1      22.591 -46.876   6.833  1.00  0.00    -0.452 OA
ENDROOT
BRANCH   1  12
ATOM     12  C   UNL     1      22.307 -44.825   8.066  1.00  0.00     0.025 A 
ATOM     13  C   UNL     1      23.664 -44.458   8.007  1.00  0.00     0.016 A 
ATOM     14  C   UNL     1      24.057 -43.158   8.330  1.00  0.00     0.051 A 
ATOM     15  C   UNL     1      23.108 -42.202   8.703  1.00  0.00     0.157 A 
ATOM     16  C   UNL     1      21.353 -43.857   8.420  1.00  0.00     0.062 A 
ATOM     17  C   UNL     1      21.747 -42.551   8.745  1.00  0.00     0.158 A 
BRANCH  15  18
ATOM     18  O   UNL     1      23.532 -40.913   9.021  1.00  0.00    -0.504 OA
ATOM     19  H   UNL     1      23.413 -40.521   9.948  1.00  0.00     0.293 HD
ENDBRANCH  15  18
BRANCH  17  20
ATOM     20  O   UNL     1      20.794 -41.602   9.109  1.00  0.00    -0.504 OA
ATOM     21  H   UNL     1      21.053 -40.648   9.332  1.00  0.00     0.293 HD
ENDBRANCH  17  20
ENDBRANCH   1  12
BRANCH   2  22
ATOM     22  O   UNL     1      19.895 -46.033   9.125  1.00  0.00    -0.502 OA
ATOM     23  H   UNL     1      19.058 -45.549   8.827  1.00  0.00     0.293 HD
ENDBRANCH   2  22
BRANCH   6  24
ATOM     24  O   UNL     1      19.665 -50.779   6.717  1.00  0.00    -0.507 OA
ATOM     25  H   UNL     1      19.640 -51.715   7.092  1.00  0.00     0.293 HD
ENDBRANCH   6  24
BRANCH   8  26
ATOM     26  O   UNL     1      23.771 -50.669   4.231  1.00  0.00    -0.508 OA
ATOM     27  H   UNL     1      24.727 -50.350   4.126  1.00  0.00     0.293 HD
ENDBRANCH   8  26
TORSDOF 6
ENDMDL
MODEL 3
REMARK VINA RESULT:    -1.505      3.450      5.317
REMARK INTER + INTRA:          -1.726
REMARK INTER:                  -1.551
REMARK INTRA:                  -0.175
REMARK UNBOUND:                 0.087
REMARK SMILES O=c1c(O)c(-c2ccc(O)c(O)c2)oc2cc(O)cc(O)c12
REMARK SMILES IDX 5 1 3 2 2 3 1 4 22 5 20 6 19 7 17 8 16 9 15 10 14 11 6 12
REMARK SMILES IDX 7 13 8 14 9 15 13 16 11 17 10 18 12 20 4 22 21 24 18 26
REMARK H PARENT 10 19 12 21 4 23 21 25 18 27
REMARK Flexibility Score: inf
ROOT
ATOM      1  C   UNL     1      18.888 -47.217   7.358  1.00  0.00     0.180 A 
ATOM      2  C   UNL     1      18.832 -48.584   7.680  1.00  0.00     0.208 A 
ATOM      3  C   UNL     1      19.842 -49.437   7.207  1.00  0.00     0.238 A 
ATOM      4  O   UNL     1      19.827 -50.644   7.561  1.00  0.00    -0.285 OA
ATOM      5  C   UNL     1      20.865 -48.925   6.372  1.00  0.00     0.111 A 
ATOM      6  C   UNL     1      21.914 -49.705   5.799  1.00  0.00     0.134 A 
ATOM      7  C   UNL     1      22.931 -49.071   5.076  1.00  0.00     0.093 A 
ATOM      8  C   UNL     1      22.903 -47.693   4.850  1.00  0.00     0.123 A 
ATOM      9  C   UNL     1      21.855 -46.930   5.358  1.00  0.00     0.094 A 
ATOM     10  C   UNL     1      20.846 -47.528   6.117  1.00  0.00     0.146 A 
ATOM     11  O   UNL     1      19.877 -46.759   6.600  1.00  0.00    -0.452 OA
ENDROOT
BRANCH   1  12
ATOM     12  C   UNL     1      17.868 -46.253   7.830  1.00  0.00     0.025 A 
ATOM     13  C   UNL     1      18.198 -45.210   8.714  1.00  0.00     0.016 A 
ATOM     14  C   UNL     1      17.223 -44.299   9.125  1.00  0.00     0.051 A 
ATOM     15  C   UNL     1      15.911 -44.403   8.653  1.00  0.00     0.157 A 
ATOM     16  C   UNL     1      16.555 -46.343   7.340  1.00  0.00     0.062 A 
ATOM     17  C   UNL     1      15.574 -45.429   7.753  1.00  0.00     0.158 A 
BRANCH  15  18
ATOM     18  O   UNL     1      14.960 -43.480   9.083  1.00  0.00    -0.504 OA
ATOM     19  H   UNL     1      15.117 -42.879   9.884  1.00  0.00     0.293 HD
ENDBRANCH  15  18
BRANCH  17  20
ATOM     20  O   UNL     1      14.271 -45.535   7.273  1.00  0.00    -0.504 OA
ATOM     21  H   UNL     1      13.600 -44.785   7.388  1.00  0.00     0.293 HD
ENDBRANCH  17  20
ENDBRANCH   1  12
BRANCH   2  22
ATOM     22  O   UNL     1      17.773 -49.084   8.442  1.00  0.00    -0.502 OA
ATOM     23  H   UNL     1      17.746 -49.010   9.451  1.00  0.00     0.293 HD
ENDBRANCH   2  22
BRANCH   6  24
ATOM     24  O   UNL     1      21.991 -51.099   5.888  1.00  0.00    -0.507 OA
ATOM     25  H   UNL     1      21.619 -51.651   6.645  1.00  0.00     0.293 HD
ENDBRANCH   6  24
BRANCH   8  26
ATOM     26  O   UNL     1      23.911 -47.072   4.114  1.00  0.00    -0.508 OA
ATOM     27  H   UNL     1      23.772 -46.806   3.146  1.00  0.00     0.293 HD
ENDBRANCH   8  26
TORSDOF 6
ENDMDL
MODEL 4
REMARK VINA RESULT:    -1.265      1.353      1.575
REMARK INTER + INTRA:          -1.437
REMARK INTER:                  -1.677
REMARK INTRA:                   0.240
REMARK UNBOUND:                 0.087
REMARK SMILES O=c1c(O)c(-c2ccc(O)c(O)c2)oc2cc(O)cc(O)c12
REMARK SMILES IDX 5 1 3 2 2 3 1 4 22 5 20 6 19 7 17 8 16 9 15 10 14 11 6 12
REMARK SMILES IDX 7 13 8 14 9 15 13 16 11 17 10 18 12 20 4 22 21 24 18 26
REMARK H PARENT 10 19 12 21 4 23 21 25 18 27
REMARK Flexibility Score: inf
ROOT
ATOM      1  C   UNL     1      21.197 -46.205   7.634  1.00  0.00     0.180 A 
ATOM      2  C   UNL     1      21.891 -46.911   6.636  1.00  0.00     0.208 A 
ATOM      3  C   UNL     1      21.472 -48.210   6.306  1.00  0.00     0.238 A 
ATOM      4  O   UNL     1      22.050 -48.807   5.360  1.00  0.00    -0.285 OA
ATOM      5  C   UNL     1      20.403 -48.809   7.014  1.00  0.00     0.111 A 
ATOM      6  C   UNL     1      19.924 -50.136   6.795  1.00  0.00     0.134 A 
ATOM      7  C   UNL     1      18.790 -50.583   7.483  1.00  0.00     0.093 A 
ATOM      8  C   UNL     1      18.156 -49.776   8.430  1.00  0.00     0.123 A 
ATOM      9  C   UNL     1      18.649 -48.501   8.692  1.00  0.00     0.094 A 
ATOM     10  C   UNL     1      19.755 -48.010   7.993  1.00  0.00     0.146 A 
ATOM     11  O   UNL     1      20.178 -46.780   8.259  1.00  0.00    -0.452 OA
ENDROOT
BRANCH   1  12
ATOM     12  C   UNL     1      21.570 -44.827   8.028  1.00  0.00     0.025 A 
ATOM     13  C   UNL     1      22.906 -44.389   7.985  1.00  0.00     0.016 A 
ATOM     14  C   UNL     1      23.229 -43.077   8.338  1.00  0.00     0.051 A 
ATOM     15  C   UNL     1      22.230 -42.179   8.723  1.00  0.00     0.157 A 
ATOM     16  C   UNL     1      20.565 -43.918   8.394  1.00  0.00     0.062 A 
ATOM     17  C   UNL     1      20.889 -42.600   8.749  1.00  0.00     0.158 A 
BRANCH  15  18
ATOM     18  O   UNL     1      22.584 -40.877   9.070  1.00  0.00    -0.504 OA
ATOM     19  H   UNL     1      21.975 -40.281   9.618  1.00  0.00     0.293 HD
ENDBRANCH  15  18
BRANCH  17  20
ATOM     20  O   UNL     1      19.885 -41.709   9.125  1.00  0.00    -0.504 OA
ATOM     21  H   UNL     1      19.906 -40.736   8.842  1.00  0.00     0.293 HD
ENDBRANCH  17  20
ENDBRANCH   1  12
BRANCH   2  22
ATOM     22  O   UNL     1      22.993 -46.332   6.001  1.00  0.00    -0.502 OA
ATOM     23  H   UNL     1      23.046 -46.225   4.995  1.00  0.00     0.293 HD
ENDBRANCH   2  22
BRANCH   6  24
ATOM     24  O   UNL     1      20.534 -51.057   5.938  1.00  0.00    -0.507 OA
ATOM     25  H   UNL     1      21.071 -50.816   5.119  1.00  0.00     0.293 HD
ENDBRANCH   6  24
BRANCH   8  26
ATOM     26  O   UNL     1      17.038 -50.236   9.124  1.00  0.00    -0.508 OA
ATOM     27  H   UNL     1      16.300 -49.606   9.417  1.00  0.00     0.293 HD
ENDBRANCH   8  26
TORSDOF 6
ENDMDL
MODEL 5
REMARK VINA RESULT:    -1.169      4.807      7.268
REMARK INTER + INTRA:          -1.321
REMARK INTER:                  -1.526
REMARK INTRA:                   0.205
REMARK UNBOUND:                 0.087
REMARK SMILES O=c1c(O)c(-c2ccc(O)c(O)c2)oc2cc(O)cc(O)c12
REMARK SMILES IDX 5 1 3 2 2 3 1 4 22 5 20 6 19 7 17 8 16 9 15 10 14 11 6 12
REMARK SMILES IDX 7 13 8 14 9 15 13 16 11 17 10 18 12 20 4 22 21 24 18 26
REMARK H PARENT 10 19 12 21 4 23 21 25 18 27
REMARK Flexibility Score: inf
ROOT
ATOM      1  C   UNL     1      17.482 -44.978   8.374  1.00  0.00     0.180 A 
ATOM      2  C   UNL     1      17.924 -46.286   8.641  1.00  0.00     0.208 A 
ATOM      3  C   UNL     1      19.300 -46.520   8.797  1.00  0.00     0.238 A 
ATOM      4  O   UNL     1      19.682 -47.678   9.111  1.00  0.00    -0.285 OA
ATOM      5  C   UNL     1      20.221 -45.458   8.628  1.00  0.00     0.111 A 
ATOM      6  C   UNL     1      21.640 -45.590   8.718  1.00  0.00     0.134 A 
ATOM      7  C   UNL     1      22.446 -44.449   8.638  1.00  0.00     0.093 A 
ATOM      8  C   UNL     1      21.890 -43.188   8.406  1.00  0.00     0.123 A 
ATOM      9  C   UNL     1      20.512 -43.057   8.261  1.00  0.00     0.094 A 
ATOM     10  C   UNL     1      19.677 -44.171   8.376  1.00  0.00     0.146 A 
ATOM     11  O   UNL     1      18.366 -43.996   8.252  1.00  0.00    -0.452 OA
ENDROOT
BRANCH   1  12
ATOM     12  C   UNL     1      16.048 -44.650   8.210  1.00  0.00     0.025 A 
ATOM     13  C   UNL     1      15.156 -45.548   7.597  1.00  0.00     0.016 A 
ATOM     14  C   UNL     1      13.802 -45.226   7.477  1.00  0.00     0.051 A 
ATOM     15  C   UNL     1      13.314 -44.015   7.977  1.00  0.00     0.157 A 
ATOM     16  C   UNL     1      15.552 -43.444   8.731  1.00  0.00     0.062 A 
ATOM     17  C   UNL     1      14.192 -43.119   8.611  1.00  0.00     0.158 A 
BRANCH  15  18
ATOM     18  O   UNL     1      11.959 -43.722   7.841  1.00  0.00    -0.504 OA
ATOM     19  H   UNL     1      11.537 -43.531   6.940  1.00  0.00     0.293 HD
ENDBRANCH  15  18
BRANCH  17  20
ATOM     20  O   UNL     1      13.713 -41.913   9.119  1.00  0.00    -0.504 OA
ATOM     21  H   UNL     1      13.989 -41.023   8.721  1.00  0.00     0.293 HD
ENDBRANCH  17  20
ENDBRANCH   1  12
BRANCH   2  22
ATOM     22  O   UNL     1      17.006 -47.335   8.729  1.00  0.00    -0.502 OA
ATOM     23  H   UNL     1      17.288 -48.307   8.722  1.00  0.00     0.293 HD
ENDBRANCH   2  22
BRANCH   6  24
ATOM     24  O   UNL     1      22.305 -46.812   8.860  1.00  0.00    -0.507 OA
ATOM     25  H   UNL     1      21.943 -47.705   8.563  1.00  0.00     0.293 HD
ENDBRANCH   6  24
BRANCH   8  26
ATOM     26  O   UNL     1      22.702 -42.059   8.311  1.00  0.00    -0.508 OA
ATOM     27  H   UNL     1      22.950 -41.660   7.413  1.00  0.00     0.293 HD
ENDBRANCH   8  26
TORSDOF 6
ENDMDL
