MODEL 1
REMARK VINA RESULT:    -5.875      0.000      0.000
REMARK INTER + INTRA:          -6.885
REMARK INTER:                  -6.734
REMARK INTRA:                  -0.151
REMARK UNBOUND:                -0.151
REMARK SMILES O=C([O-])C=Cc1ccc(O)cc1
REMARK SMILES IDX 6 1 7 2 12 3 8 4 11 5 9 6 5 7 4 8 2 9 1 10 3 11 10 12
REMARK H PARENT 10 13
REMARK Flexibility Score: inf
ROOT
ATOM      1  C   UNL     1      12.780 -13.102  28.400  1.00  0.00    -0.025 A 
ATOM      2  C   UNL     1      13.132 -12.485  29.614  1.00  0.00     0.012 A 
ATOM      3  C   UNL     1      11.615 -12.671  27.734  1.00  0.00     0.012 A 
ATOM      4  C   UNL     1      12.329 -11.481  30.161  1.00  0.00     0.047 A 
ATOM      5  C   UNL     1      10.814 -11.665  28.284  1.00  0.00     0.047 A 
ATOM      6  C   UNL     1      11.166 -11.070  29.498  1.00  0.00     0.115 A 
ENDROOT
BRANCH   1   7
ATOM      7  C   UNL     1      13.671 -14.156  27.855  1.00  0.00     0.010 C 
ATOM      8  C   UNL     1      14.475 -14.915  28.611  1.00  0.00     0.025 C 
BRANCH   8   9
ATOM      9  C   UNL     1      15.351 -15.942  28.025  1.00  0.00     0.064 C 
ATOM     10  O   UNL     1      15.776 -15.798  26.849  1.00  0.00    -0.545 OA
ATOM     11  O   UNL     1      15.718 -17.071  28.749  1.00  0.00    -0.545 OA
ENDBRANCH   8   9
ENDBRANCH   1   7
BRANCH   6  12
ATOM     12  O   UNL     1      10.357 -10.071  30.035  1.00  0.00    -0.508 OA
ATOM     13  H   UNL     1      10.163 -10.023  31.028  1.00  0.00     0.293 HD
ENDBRANCH   6  12
TORSDOF 3
ENDMDL
MODEL 2
REMARK VINA RESULT:    -5.847      0.083      1.399
REMARK INTER + INTRA:          -6.853
REMARK INTER:                  -6.710
REMARK INTRA:                  -0.143
REMARK UNBOUND:                -0.151
REMARK SMILES O=C([O-])C=Cc1ccc(O)cc1
REMARK SMILES IDX 6 1 7 2 12 3 8 4 11 5 9 6 5 7 4 8 2 9 1 10 3 11 10 12
REMARK H PARENT 10 13
REMARK Flexibility Score: inf
ROOT
ATOM      1  C   UNL     1      12.863 -13.038  28.485  1.00  0.00    -0.025 A 
ATOM      2  C   UNL     1      11.674 -12.705  27.811  1.00  0.00     0.012 A 
ATOM      3  C   UNL     1      13.169 -12.372  29.689  1.00  0.00     0.012 A 
ATOM      4  C   UNL     1      10.825 -11.715  28.313  1.00  0.00     0.047 A 
ATOM      5  C   UNL     1      12.316 -11.382  30.188  1.00  0.00     0.047 A 
ATOM      6  C   UNL     1      11.146 -11.049  29.502  1.00  0.00     0.115 A 
ENDROOT
BRANCH   1   7
ATOM      7  C   UNL     1      13.726 -14.104  27.918  1.00  0.00     0.010 C 
ATOM      8  C   UNL     1      14.523 -14.887  28.656  1.00  0.00     0.025 C 
BRANCH   8   9
ATOM      9  C   UNL     1      15.372 -15.924  28.048  1.00  0.00     0.064 C 
ATOM     10  O   UNL     1      15.782 -15.779  26.867  1.00  0.00    -0.545 OA
ATOM     11  O   UNL     1      15.731 -17.065  28.758  1.00  0.00    -0.545 OA
ENDBRANCH   8   9
ENDBRANCH   1   7
BRANCH   6  12
ATOM     12  O   UNL     1      10.307 -10.060  30.011  1.00  0.00    -0.508 OA
ATOM     13  H   UNL     1       9.304 -10.190  30.059  1.00  0.00     0.293 HD
ENDBRANCH   6  12
TORSDOF 3
ENDMDL
MODEL 3
REMARK VINA RESULT:    -5.777     12.791     14.632
REMARK INTER + INTRA:          -6.772
REMARK INTER:                  -6.620
REMARK INTRA:                  -0.152
REMARK UNBOUND:                -0.151
REMARK SMILES O=C([O-])C=Cc1ccc(O)cc1
REMARK SMILES IDX 6 1 7 2 12 3 8 4 11 5 9 6 5 7 4 8 2 9 1 10 3 11 10 12
REMARK H PARENT 10 13
REMARK Flexibility Score: inf
ROOT
ATOM      1  C   UNL     1      17.624  -0.935  26.690  1.00  0.00    -0.025 A 
ATOM      2  C   UNL     1      17.463  -1.065  28.081  1.00  0.00     0.012 A 
ATOM      3  C   UNL     1      18.680  -1.626  26.062  1.00  0.00     0.012 A 
ATOM      4  C   UNL     1      18.348  -1.844  28.830  1.00  0.00     0.047 A 
ATOM      5  C   UNL     1      19.564  -2.405  26.815  1.00  0.00     0.047 A 
ATOM      6  C   UNL     1      19.403  -2.514  28.199  1.00  0.00     0.115 A 
ENDROOT
BRANCH   1   7
ATOM      7  C   UNL     1      16.651  -0.105  25.937  1.00  0.00     0.010 C 
ATOM      8  C   UNL     1      15.923   0.874  26.490  1.00  0.00     0.025 C 
BRANCH   8   9
ATOM      9  C   UNL     1      14.961   1.665  25.706  1.00  0.00     0.064 C 
ATOM     10  O   UNL     1      14.518   1.206  24.621  1.00  0.00    -0.545 OA
ATOM     11  O   UNL     1      14.532   2.913  26.144  1.00  0.00    -0.545 OA
ENDBRANCH   8   9
ENDBRANCH   1   7
BRANCH   6  12
ATOM     12  O   UNL     1      20.292  -3.293  28.936  1.00  0.00    -0.508 OA
ATOM     13  H   UNL     1      20.211  -3.382  29.942  1.00  0.00     0.293 HD
ENDBRANCH   6  12
TORSDOF 3
ENDMDL
MODEL 4
REMARK VINA RESULT:    -5.616     12.698     14.631
REMARK INTER + INTRA:          -6.588
REMARK INTER:                  -6.446
REMARK INTRA:                  -0.141
REMARK UNBOUND:                -0.151
REMARK SMILES O=C([O-])C=Cc1ccc(O)cc1
REMARK SMILES IDX 6 1 7 2 12 3 8 4 11 5 9 6 5 7 4 8 2 9 1 10 3 11 10 12
REMARK H PARENT 10 13
REMARK Flexibility Score: inf
ROOT
ATOM      1  C   UNL     1      17.546  -0.965  26.778  1.00  0.00    -0.025 A 
ATOM      2  C   UNL     1      18.657  -1.533  26.128  1.00  0.00     0.012 A 
ATOM      3  C   UNL     1      17.378  -1.193  28.158  1.00  0.00     0.012 A 
ATOM      4  C   UNL     1      19.564  -2.328  26.835  1.00  0.00     0.047 A 
ATOM      5  C   UNL     1      18.288  -1.988  28.862  1.00  0.00     0.047 A 
ATOM      6  C   UNL     1      19.380  -2.560  28.203  1.00  0.00     0.115 A 
ENDROOT
BRANCH   1   7
ATOM      7  C   UNL     1      16.617  -0.120  25.987  1.00  0.00     0.010 C 
ATOM      8  C   UNL     1      15.901   0.885  26.506  1.00  0.00     0.025 C 
BRANCH   8   9
ATOM      9  C   UNL     1      14.982   1.690  25.685  1.00  0.00     0.064 C 
ATOM     10  O   UNL     1      14.614   2.823  26.094  1.00  0.00    -0.545 OA
ATOM     11  O   UNL     1      14.514   1.222  24.463  1.00  0.00    -0.545 OA
ENDBRANCH   8   9
ENDBRANCH   1   7
BRANCH   6  12
ATOM     12  O   UNL     1      20.278  -3.351  28.917  1.00  0.00    -0.508 OA
ATOM     13  H   UNL     1      20.632  -3.065  29.822  1.00  0.00     0.293 HD
ENDBRANCH   6  12
TORSDOF 3
ENDMDL
MODEL 5
REMARK VINA RESULT:    -5.595     12.461     13.540
REMARK INTER + INTRA:          -6.564
REMARK INTER:                  -6.425
REMARK INTRA:                  -0.139
REMARK UNBOUND:                -0.151
REMARK SMILES O=C([O-])C=Cc1ccc(O)cc1
REMARK SMILES IDX 6 1 7 2 12 3 8 4 11 5 9 6 5 7 4 8 2 9 1 10 3 11 10 12
REMARK H PARENT 10 13
REMARK Flexibility Score: inf
ROOT
ATOM      1  C   UNL     1      16.743  -0.697  27.010  1.00  0.00    -0.025 A 
ATOM      2  C   UNL     1      16.132   0.062  28.025  1.00  0.00     0.012 A 
ATOM      3  C   UNL     1      16.504  -0.348  25.666  1.00  0.00     0.012 A 
ATOM      4  C   UNL     1      15.286   1.127  27.705  1.00  0.00     0.047 A 
ATOM      5  C   UNL     1      15.656   0.719  25.350  1.00  0.00     0.047 A 
ATOM      6  C   UNL     1      15.043   1.456  26.366  1.00  0.00     0.115 A 
ENDROOT
BRANCH   1   7
ATOM      7  C   UNL     1      17.642  -1.811  27.400  1.00  0.00     0.010 C 
ATOM      8  C   UNL     1      18.788  -1.642  28.072  1.00  0.00     0.025 C 
BRANCH   8   9
ATOM      9  C   UNL     1      19.655  -2.777  28.428  1.00  0.00     0.064 C 
ATOM     10  O   UNL     1      19.225  -3.666  29.209  1.00  0.00    -0.545 OA
ATOM     11  O   UNL     1      20.943  -2.885  27.916  1.00  0.00    -0.545 OA
ENDBRANCH   8   9
ENDBRANCH   1   7
BRANCH   6  12
ATOM     12  O   UNL     1      14.201   2.515  26.036  1.00  0.00    -0.508 OA
ATOM     13  H   UNL     1      13.202   2.383  25.927  1.00  0.00     0.293 HD
ENDBRANCH   6  12
TORSDOF 3
ENDMDL
MODEL 6
REMARK VINA RESULT:    -5.471      1.126      5.738
REMARK INTER + INTRA:          -6.421
REMARK INTER:                  -6.282
REMARK INTRA:                  -0.139
REMARK UNBOUND:                -0.151
REMARK SMILES O=C([O-])C=Cc1ccc(O)cc1
REMARK SMILES IDX 6 1 7 2 12 3 8 4 11 5 9 6 5 7 4 8 2 9 1 10 3 11 10 12
REMARK H PARENT 10 13
REMARK Flexibility Score: inf
ROOT
ATOM      1  C   UNL     1      13.867 -13.329  28.646  1.00  0.00    -0.025 A 
ATOM      2  C   UNL     1      14.220 -14.174  29.713  1.00  0.00     0.012 A 
ATOM      3  C   UNL     1      14.227 -13.706  27.336  1.00  0.00     0.012 A 
ATOM      4  C   UNL     1      14.934 -15.353  29.482  1.00  0.00     0.047 A 
ATOM      5  C   UNL     1      14.941 -14.887  27.108  1.00  0.00     0.047 A 
ATOM      6  C   UNL     1      15.299 -15.711  28.179  1.00  0.00     0.115 A 
ENDROOT
BRANCH   1   7
ATOM      7  C   UNL     1      13.100 -12.094  28.941  1.00  0.00     0.010 C 
ATOM      8  C   UNL     1      11.826 -12.090  29.355  1.00  0.00     0.025 C 
BRANCH   8   9
ATOM      9  C   UNL     1      11.100 -10.839  29.625  1.00  0.00     0.064 C 
ATOM     10  O   UNL     1      11.672  -9.913  30.259  1.00  0.00    -0.545 OA
ATOM     11  O   UNL     1       9.792 -10.660  29.191  1.00  0.00    -0.545 OA
ENDBRANCH   8   9
ENDBRANCH   1   7
BRANCH   6  12
ATOM     12  O   UNL     1      16.011 -16.883  27.937  1.00  0.00    -0.508 OA
ATOM     13  H   UNL     1      15.681 -17.781  28.269  1.00  0.00     0.293 HD
ENDBRANCH   6  12
TORSDOF 3
ENDMDL
MODEL 7
REMARK VINA RESULT:    -5.417      0.673      1.763
REMARK INTER + INTRA:          -6.359
REMARK INTER:                  -6.222
REMARK INTRA:                  -0.137
REMARK UNBOUND:                -0.151
REMARK SMILES O=C([O-])C=Cc1ccc(O)cc1
REMARK SMILES IDX 6 1 7 2 12 3 8 4 11 5 9 6 5 7 4 8 2 9 1 10 3 11 10 12
REMARK H PARENT 10 13
REMARK Flexibility Score: inf
ROOT
ATOM      1  C   UNL     1      13.549 -12.917  28.735  1.00  0.00    -0.025 A 
ATOM      2  C   UNL     1      12.208 -12.951  28.312  1.00  0.00     0.012 A 
ATOM      3  C   UNL     1      13.953 -11.900  29.624  1.00  0.00     0.012 A 
ATOM      4  C   UNL     1      11.299 -11.982  28.747  1.00  0.00     0.047 A 
ATOM      5  C   UNL     1      13.041 -10.933  30.057  1.00  0.00     0.047 A 
ATOM      6  C   UNL     1      11.715 -10.968  29.618  1.00  0.00     0.115 A 
ENDROOT
BRANCH   1   7
ATOM      7  C   UNL     1      14.473 -13.974  28.255  1.00  0.00     0.010 C 
ATOM      8  C   UNL     1      14.492 -15.222  28.740  1.00  0.00     0.025 C 
BRANCH   8   9
ATOM      9  C   UNL     1      15.434 -16.236  28.240  1.00  0.00     0.064 C 
ATOM     10  O   UNL     1      15.863 -17.125  29.022  1.00  0.00    -0.545 OA
ATOM     11  O   UNL     1      15.860 -16.230  26.916  1.00  0.00    -0.545 OA
ENDBRANCH   8   9
ENDBRANCH   1   7
BRANCH   6  12
ATOM     12  O   UNL     1      10.818  -9.997  30.057  1.00  0.00    -0.508 OA
ATOM     13  H   UNL     1      10.944  -9.521  30.943  1.00  0.00     0.293 HD
ENDBRANCH   6  12
TORSDOF 3
ENDMDL
MODEL 8
REMARK VINA RESULT:    -4.726     12.112     13.018
REMARK INTER + INTRA:          -5.568
REMARK INTER:                  -5.423
REMARK INTRA:                  -0.145
REMARK UNBOUND:                -0.151
REMARK SMILES O=C([O-])C=Cc1ccc(O)cc1
REMARK SMILES IDX 6 1 7 2 12 3 8 4 11 5 9 6 5 7 4 8 2 9 1 10 3 11 10 12
REMARK H PARENT 10 13
REMARK Flexibility Score: inf
ROOT
ATOM      1  C   UNL     1      16.964  -1.591  26.554  1.00  0.00    -0.025 A 
ATOM      2  C   UNL     1      17.425  -0.595  25.675  1.00  0.00     0.012 A 
ATOM      3  C   UNL     1      15.574  -1.746  26.734  1.00  0.00     0.012 A 
ATOM      4  C   UNL     1      16.524   0.241  25.011  1.00  0.00     0.047 A 
ATOM      5  C   UNL     1      14.675  -0.907  26.067  1.00  0.00     0.047 A 
ATOM      6  C   UNL     1      15.146   0.089  25.208  1.00  0.00     0.115 A 
ENDROOT
BRANCH   1   7
ATOM      7  C   UNL     1      17.960  -2.461  27.228  1.00  0.00     0.010 C 
ATOM      8  C   UNL     1      19.133  -2.021  27.701  1.00  0.00     0.025 C 
BRANCH   8   9
ATOM      9  C   UNL     1      20.096  -2.923  28.352  1.00  0.00     0.064 C 
ATOM     10  O   UNL     1      21.297  -2.925  27.977  1.00  0.00    -0.545 OA
ATOM     11  O   UNL     1      19.701  -3.774  29.379  1.00  0.00    -0.545 OA
ENDBRANCH   8   9
ENDBRANCH   1   7
BRANCH   6  12
ATOM     12  O   UNL     1      14.239   0.917  24.551  1.00  0.00    -0.508 OA
ATOM     13  H   UNL     1      14.544   1.606  23.874  1.00  0.00     0.293 HD
ENDBRANCH   6  12
TORSDOF 3
ENDMDL
MODEL 9
REMARK VINA RESULT:    -3.670      9.990     10.963
REMARK INTER + INTRA:          -4.357
REMARK INTER:                  -4.208
REMARK INTRA:                  -0.149
REMARK UNBOUND:                -0.151
REMARK SMILES O=C([O-])C=Cc1ccc(O)cc1
REMARK SMILES IDX 6 1 7 2 12 3 8 4 11 5 9 6 5 7 4 8 2 9 1 10 3 11 10 12
REMARK H PARENT 10 13
REMARK Flexibility Score: inf
ROOT
ATOM      1  C   UNL     1      16.579  -2.966  27.408  1.00  0.00    -0.025 A 
ATOM      2  C   UNL     1      15.576  -2.155  26.849  1.00  0.00     0.012 A 
ATOM      3  C   UNL     1      17.253  -2.514  28.561  1.00  0.00     0.012 A 
ATOM      4  C   UNL     1      15.268  -0.913  27.412  1.00  0.00     0.047 A 
ATOM      5  C   UNL     1      16.941  -1.271  29.123  1.00  0.00     0.047 A 
ATOM      6  C   UNL     1      15.953  -0.467  28.549  1.00  0.00     0.115 A 
ENDROOT
BRANCH   1   7
ATOM      7  C   UNL     1      16.862  -4.280  26.780  1.00  0.00     0.010 C 
ATOM      8  C   UNL     1      15.920  -5.069  26.248  1.00  0.00     0.025 C 
BRANCH   8   9
ATOM      9  C   UNL     1      16.245  -6.371  25.644  1.00  0.00     0.064 C 
ATOM     10  O   UNL     1      17.303  -6.965  25.982  1.00  0.00    -0.545 OA
ATOM     11  O   UNL     1      15.403  -6.959  24.707  1.00  0.00    -0.545 OA
ENDBRANCH   8   9
ENDBRANCH   1   7
BRANCH   6  12
ATOM     12  O   UNL     1      15.655   0.769  29.119  1.00  0.00    -0.508 OA
ATOM     13  H   UNL     1      15.588   0.887  30.123  1.00  0.00     0.293 HD
ENDBRANCH   6  12
TORSDOF 3
ENDMDL
