MODEL 1
REMARK VINA RESULT:    -4.686      0.000      0.000
REMARK INTER + INTRA:          -9.758
REMARK INTER:                  -7.973
REMARK INTRA:                  -1.785
REMARK UNBOUND:                -1.785
REMARK SMILES CCCCCCCCCCCCCC(=O)[O-]
REMARK SMILES IDX 8 1 9 2 10 3 11 4 12 5 13 6 14 7 15 8 16 9 7 10 6 11 5 12
REMARK SMILES IDX 4 13 3 14 2 15 1 16
REMARK H PARENT
REMARK Flexibility Score: inf
ROOT
ATOM      1  C   UNL     1     160.056 167.744 160.021  1.00  0.00     0.000 C 
ENDROOT
BRANCH   1   2
ATOM      2  C   UNL     1     161.400 168.138 160.671  1.00  0.00     0.000 C 
BRANCH   2   3
ATOM      3  C   UNL     1     162.632 168.014 159.757  1.00  0.00     0.000 C 
BRANCH   3   4
ATOM      4  C   UNL     1     163.238 166.600 159.759  1.00  0.00     0.000 C 
BRANCH   4   5
ATOM      5  C   UNL     1     163.444 166.045 158.341  1.00  0.00     0.006 C 
BRANCH   5   6
ATOM      6  C   UNL     1     162.970 167.015 157.250  1.00  0.00     0.053 C 
BRANCH   6   7
ATOM      7  C   UNL     1     161.754 166.476 156.567  1.00  0.00     0.041 C 
ATOM      8  O   UNL     1     161.517 166.773 155.366  1.00  0.00    -0.550 OA
ATOM      9  O   UNL     1     160.854 165.686 157.270  1.00  0.00    -0.550 OA
ENDBRANCH   6   7
ENDBRANCH   5   6
ENDBRANCH   4   5
ENDBRANCH   3   4
ENDBRANCH   2   3
ENDBRANCH   1   2
BRANCH   1  10
ATOM     10  C   UNL     1     159.387 166.493 160.618  1.00  0.00     0.000 C 
BRANCH  10  11
ATOM     11  C   UNL     1     160.099 165.984 161.882  1.00  0.00    -0.000 C 
BRANCH  11  12
ATOM     12  C   UNL     1     160.797 164.633 161.662  1.00  0.00    -0.000 C 
BRANCH  12  13
ATOM     13  C   UNL     1     160.578 164.078 160.242  1.00  0.00    -0.000 C 
BRANCH  13  14
ATOM     14  C   UNL     1     161.675 163.073 159.835  1.00  0.00    -0.000 C 
BRANCH  14  15
ATOM     15  C   UNL     1     161.357 162.306 158.541  1.00  0.00    -0.003 C 
ATOM     16  C   UNL     1     159.885 162.387 158.144  1.00  0.00     0.004 C 
ENDBRANCH  14  15
ENDBRANCH  13  14
ENDBRANCH  12  13
ENDBRANCH  11  12
ENDBRANCH  10  11
ENDBRANCH   1  10
TORSDOF 12
ENDMDL
MODEL 2
REMARK VINA RESULT:    -4.577      2.042      4.445
REMARK INTER + INTRA:          -9.573
REMARK INTER:                  -7.891
REMARK INTRA:                  -1.682
REMARK UNBOUND:                -1.785
REMARK SMILES CCCCCCCCCCCCCC(=O)[O-]
REMARK SMILES IDX 8 1 9 2 10 3 11 4 12 5 13 6 14 7 15 8 16 9 7 10 6 11 5 12
REMARK SMILES IDX 4 13 3 14 2 15 1 16
REMARK H PARENT
REMARK Flexibility Score: inf
ROOT
ATOM      1  C   UNL     1     158.677 166.122 160.462  1.00  0.00     0.000 C 
ENDROOT
BRANCH   1   2
ATOM      2  C   UNL     1     158.641 164.589 160.639  1.00  0.00     0.000 C 
BRANCH   2   3
ATOM      3  C   UNL     1     157.783 163.829 159.612  1.00  0.00     0.000 C 
BRANCH   3   4
ATOM      4  C   UNL     1     158.624 162.975 158.648  1.00  0.00     0.000 C 
BRANCH   4   5
ATOM      5  C   UNL     1     160.008 162.630 159.220  1.00  0.00     0.006 C 
BRANCH   5   6
ATOM      6  C   UNL     1     161.154 163.028 158.279  1.00  0.00     0.053 C 
BRANCH   6   7
ATOM      7  C   UNL     1     162.414 162.319 158.664  1.00  0.00     0.041 C 
ATOM      8  O   UNL     1     162.375 161.349 159.467  1.00  0.00    -0.550 OA
ATOM      9  O   UNL     1     163.637 162.761 158.176  1.00  0.00    -0.550 OA
ENDBRANCH   6   7
ENDBRANCH   5   6
ENDBRANCH   4   5
ENDBRANCH   3   4
ENDBRANCH   2   3
ENDBRANCH   1   2
BRANCH   1  10
ATOM     10  C   UNL     1     160.083 166.728 160.313  1.00  0.00     0.000 C 
BRANCH  10  11
ATOM     11  C   UNL     1     161.149 165.960 161.113  1.00  0.00    -0.000 C 
BRANCH  11  12
ATOM     12  C   UNL     1     162.449 165.759 160.320  1.00  0.00    -0.000 C 
BRANCH  12  13
ATOM     13  C   UNL     1     162.745 166.925 159.360  1.00  0.00    -0.000 C 
BRANCH  13  14
ATOM     14  C   UNL     1     163.433 166.452 158.063  1.00  0.00    -0.000 C 
BRANCH  14  15
ATOM     15  C   UNL     1     162.672 166.840 156.785  1.00  0.00    -0.003 C 
ATOM     16  C   UNL     1     161.241 166.307 156.755  1.00  0.00     0.004 C 
ENDBRANCH  14  15
ENDBRANCH  13  14
ENDBRANCH  12  13
ENDBRANCH  11  12
ENDBRANCH  10  11
ENDBRANCH   1  10
TORSDOF 12
ENDMDL
MODEL 3
REMARK VINA RESULT:    -4.530      2.205      4.602
REMARK INTER + INTRA:          -9.493
REMARK INTER:                  -7.714
REMARK INTRA:                  -1.779
REMARK UNBOUND:                -1.785
REMARK SMILES CCCCCCCCCCCCCC(=O)[O-]
REMARK SMILES IDX 8 1 9 2 10 3 11 4 12 5 13 6 14 7 15 8 16 9 7 10 6 11 5 12
REMARK SMILES IDX 4 13 3 14 2 15 1 16
REMARK H PARENT
REMARK Flexibility Score: inf
ROOT
ATOM      1  C   UNL     1     163.937 165.632 158.958  1.00  0.00     0.000 C 
ENDROOT
BRANCH   1   2
ATOM      2  C   UNL     1     163.315 164.621 157.972  1.00  0.00     0.000 C 
BRANCH   2   3
ATOM      3  C   UNL     1     163.285 163.161 158.461  1.00  0.00     0.000 C 
BRANCH   3   4
ATOM      4  C   UNL     1     161.954 162.456 158.153  1.00  0.00     0.000 C 
BRANCH   4   5
ATOM      5  C   UNL     1     160.762 163.426 158.140  1.00  0.00     0.006 C 
BRANCH   5   6
ATOM      6  C   UNL     1     159.941 163.374 159.436  1.00  0.00     0.053 C 
BRANCH   6   7
ATOM      7  C   UNL     1     158.478 163.325 159.124  1.00  0.00     0.041 C 
ATOM      8  O   UNL     1     158.062 162.659 158.139  1.00  0.00    -0.550 OA
ATOM      9  O   UNL     1     157.579 164.054 159.891  1.00  0.00    -0.550 OA
ENDBRANCH   6   7
ENDBRANCH   5   6
ENDBRANCH   4   5
ENDBRANCH   3   4
ENDBRANCH   2   3
ENDBRANCH   1   2
BRANCH   1  10
ATOM     10  C   UNL     1     162.948 166.642 159.565  1.00  0.00     0.000 C 
BRANCH  10  11
ATOM     11  C   UNL     1     161.738 166.910 158.656  1.00  0.00    -0.000 C 
BRANCH  11  12
ATOM     12  C   UNL     1     160.423 167.029 159.443  1.00  0.00    -0.000 C 
BRANCH  12  13
ATOM     13  C   UNL     1     160.649 167.121 160.963  1.00  0.00    -0.000 C 
BRANCH  13  14
ATOM     14  C   UNL     1     159.610 166.304 161.757  1.00  0.00    -0.000 C 
BRANCH  14  15
ATOM     15  C   UNL     1     160.223 165.465 162.890  1.00  0.00    -0.003 C 
ATOM     16  C   UNL     1     161.402 164.610 162.431  1.00  0.00     0.004 C 
ENDBRANCH  14  15
ENDBRANCH  13  14
ENDBRANCH  12  13
ENDBRANCH  11  12
ENDBRANCH  10  11
ENDBRANCH   1  10
TORSDOF 12
ENDMDL
MODEL 4
REMARK VINA RESULT:    -4.524      1.799      4.168
REMARK INTER + INTRA:          -9.483
REMARK INTER:                  -8.188
REMARK INTRA:                  -1.295
REMARK UNBOUND:                -1.785
REMARK SMILES CCCCCCCCCCCCCC(=O)[O-]
REMARK SMILES IDX 8 1 9 2 10 3 11 4 12 5 13 6 14 7 15 8 16 9 7 10 6 11 5 12
REMARK SMILES IDX 4 13 3 14 2 15 1 16
REMARK H PARENT
REMARK Flexibility Score: inf
ROOT
ATOM      1  C   UNL     1     160.315 162.210 158.874  1.00  0.00     0.000 C 
ENDROOT
BRANCH   1   2
ATOM      2  C   UNL     1     161.729 162.523 159.405  1.00  0.00     0.000 C 
BRANCH   2   3
ATOM      3  C   UNL     1     162.888 161.981 158.548  1.00  0.00     0.000 C 
BRANCH   3   4
ATOM      4  C   UNL     1     163.860 163.082 158.092  1.00  0.00     0.000 C 
BRANCH   4   5
ATOM      5  C   UNL     1     163.168 164.443 157.918  1.00  0.00     0.006 C 
BRANCH   5   6
ATOM      6  C   UNL     1     164.013 165.609 158.451  1.00  0.00     0.053 C 
BRANCH   6   7
ATOM      7  C   UNL     1     163.162 166.548 159.246  1.00  0.00     0.041 C 
ATOM      8  O   UNL     1     163.442 166.794 160.448  1.00  0.00    -0.550 OA
ATOM      9  O   UNL     1     162.030 167.114 158.673  1.00  0.00    -0.550 OA
ENDBRANCH   6   7
ENDBRANCH   5   6
ENDBRANCH   4   5
ENDBRANCH   3   4
ENDBRANCH   2   3
ENDBRANCH   1   2
BRANCH   1  10
ATOM     10  C   UNL     1     159.214 163.179 159.342  1.00  0.00     0.000 C 
BRANCH  10  11
ATOM     11  C   UNL     1     159.708 164.631 159.454  1.00  0.00    -0.000 C 
BRANCH  11  12
ATOM     12  C   UNL     1     158.913 165.446 160.485  1.00  0.00    -0.000 C 
BRANCH  12  13
ATOM     13  C   UNL     1     159.819 166.291 161.399  1.00  0.00    -0.000 C 
BRANCH  13  14
ATOM     14  C   UNL     1     160.209 165.540 162.688  1.00  0.00    -0.000 C 
BRANCH  14  15
ATOM     15  C   UNL     1     161.437 164.630 162.523  1.00  0.00    -0.003 C 
ATOM     16  C   UNL     1     161.747 163.811 163.775  1.00  0.00     0.004 C 
ENDBRANCH  14  15
ENDBRANCH  13  14
ENDBRANCH  12  13
ENDBRANCH  11  12
ENDBRANCH  10  11
ENDBRANCH   1  10
TORSDOF 12
ENDMDL
MODEL 5
REMARK VINA RESULT:    -4.499      2.898      4.590
REMARK INTER + INTRA:          -9.441
REMARK INTER:                  -7.724
REMARK INTRA:                  -1.717
REMARK UNBOUND:                -1.785
REMARK SMILES CCCCCCCCCCCCCC(=O)[O-]
REMARK SMILES IDX 8 1 9 2 10 3 11 4 12 5 13 6 14 7 15 8 16 9 7 10 6 11 5 12
REMARK SMILES IDX 4 13 3 14 2 15 1 16
REMARK H PARENT
REMARK Flexibility Score: inf
ROOT
ATOM      1  C   UNL     1     163.140 166.114 157.432  1.00  0.00     0.000 C 
ENDROOT
BRANCH   1   2
ATOM      2  C   UNL     1     161.649 166.512 157.455  1.00  0.00     0.000 C 
BRANCH   2   3
ATOM      3  C   UNL     1     160.853 166.002 158.670  1.00  0.00     0.000 C 
BRANCH   3   4
ATOM      4  C   UNL     1     160.393 167.137 159.601  1.00  0.00     0.000 C 
BRANCH   4   5
ATOM      5  C   UNL     1     160.502 166.761 161.087  1.00  0.00     0.006 C 
BRANCH   5   6
ATOM      6  C   UNL     1     161.078 165.354 161.302  1.00  0.00     0.053 C 
BRANCH   6   7
ATOM      7  C   UNL     1     160.871 164.917 162.717  1.00  0.00     0.041 C 
ATOM      8  O   UNL     1     159.937 165.410 163.403  1.00  0.00    -0.550 OA
ATOM      9  O   UNL     1     161.739 163.999 163.295  1.00  0.00    -0.550 OA
ENDBRANCH   6   7
ENDBRANCH   5   6
ENDBRANCH   4   5
ENDBRANCH   3   4
ENDBRANCH   2   3
ENDBRANCH   1   2
BRANCH   1  10
ATOM     10  C   UNL     1     163.557 165.087 158.499  1.00  0.00     0.000 C 
BRANCH  10  11
ATOM     11  C   UNL     1     163.722 163.670 157.927  1.00  0.00    -0.000 C 
BRANCH  11  12
ATOM     12  C   UNL     1     162.829 162.640 158.635  1.00  0.00    -0.000 C 
BRANCH  12  13
ATOM     13  C   UNL     1     161.437 162.518 157.987  1.00  0.00    -0.000 C 
BRANCH  13  14
ATOM     14  C   UNL     1     160.330 162.258 159.030  1.00  0.00    -0.000 C 
BRANCH  14  15
ATOM     15  C   UNL     1     158.935 162.714 158.573  1.00  0.00    -0.003 C 
ATOM     16  C   UNL     1     158.246 163.633 159.580  1.00  0.00     0.004 C 
ENDBRANCH  14  15
ENDBRANCH  13  14
ENDBRANCH  12  13
ENDBRANCH  11  12
ENDBRANCH  10  11
ENDBRANCH   1  10
TORSDOF 12
ENDMDL
MODEL 6
REMARK VINA RESULT:    -4.440      2.490      5.365
REMARK INTER + INTRA:          -9.340
REMARK INTER:                  -7.578
REMARK INTRA:                  -1.762
REMARK UNBOUND:                -1.785
REMARK SMILES CCCCCCCCCCCCCC(=O)[O-]
REMARK SMILES IDX 8 1 9 2 10 3 11 4 12 5 13 6 14 7 15 8 16 9 7 10 6 11 5 12
REMARK SMILES IDX 4 13 3 14 2 15 1 16
REMARK H PARENT
REMARK Flexibility Score: inf
ROOT
ATOM      1  C   UNL     1     162.630 163.315 157.917  1.00  0.00     0.000 C 
ENDROOT
BRANCH   1   2
ATOM      2  C   UNL     1     162.013 162.225 158.819  1.00  0.00     0.000 C 
BRANCH   2   3
ATOM      3  C   UNL     1     160.479 162.262 158.940  1.00  0.00     0.000 C 
BRANCH   3   4
ATOM      4  C   UNL     1     159.883 163.627 158.555  1.00  0.00     0.000 C 
BRANCH   4   5
ATOM      5  C   UNL     1     159.140 164.296 159.722  1.00  0.00     0.006 C 
BRANCH   5   6
ATOM      6  C   UNL     1     159.944 165.438 160.360  1.00  0.00     0.053 C 
BRANCH   6   7
ATOM      7  C   UNL     1     160.443 165.033 161.711  1.00  0.00     0.041 C 
ATOM      8  O   UNL     1     159.935 165.531 162.749  1.00  0.00    -0.550 OA
ATOM      9  O   UNL     1     161.502 164.142 161.822  1.00  0.00    -0.550 OA
ENDBRANCH   6   7
ENDBRANCH   5   6
ENDBRANCH   4   5
ENDBRANCH   3   4
ENDBRANCH   2   3
ENDBRANCH   1   2
BRANCH   1  10
ATOM     10  C   UNL     1     164.129 163.576 158.143  1.00  0.00     0.000 C 
BRANCH  10  11
ATOM     11  C   UNL     1     164.452 165.067 158.334  1.00  0.00    -0.000 C 
BRANCH  11  12
ATOM     12  C   UNL     1     163.366 165.808 159.130  1.00  0.00    -0.000 C 
BRANCH  12  13
ATOM     13  C   UNL     1     162.909 167.106 158.440  1.00  0.00    -0.000 C 
BRANCH  13  14
ATOM     14  C   UNL     1     162.647 166.905 156.934  1.00  0.00    -0.000 C 
BRANCH  14  15
ATOM     15  C   UNL     1     161.214 166.450 156.613  1.00  0.00    -0.003 C 
ATOM     16  C   UNL     1     160.876 166.541 155.126  1.00  0.00     0.004 C 
ENDBRANCH  14  15
ENDBRANCH  13  14
ENDBRANCH  12  13
ENDBRANCH  11  12
ENDBRANCH  10  11
ENDBRANCH   1  10
TORSDOF 12
ENDMDL
MODEL 7
REMARK VINA RESULT:    -4.429      1.884      4.981
REMARK INTER + INTRA:          -9.322
REMARK INTER:                  -7.834
REMARK INTRA:                  -1.487
REMARK UNBOUND:                -1.785
REMARK SMILES CCCCCCCCCCCCCC(=O)[O-]
REMARK SMILES IDX 8 1 9 2 10 3 11 4 12 5 13 6 14 7 15 8 16 9 7 10 6 11 5 12
REMARK SMILES IDX 4 13 3 14 2 15 1 16
REMARK H PARENT
REMARK Flexibility Score: inf
ROOT
ATOM      1  C   UNL     1     161.482 162.137 158.222  1.00  0.00     0.000 C 
ENDROOT
BRANCH   1   2
ATOM      2  C   UNL     1     160.037 162.452 158.665  1.00  0.00     0.000 C 
BRANCH   2   3
ATOM      3  C   UNL     1     159.750 163.935 158.961  1.00  0.00     0.000 C 
BRANCH   3   4
ATOM      4  C   UNL     1     158.966 164.142 160.267  1.00  0.00     0.000 C 
BRANCH   4   5
ATOM      5  C   UNL     1     159.175 165.543 160.864  1.00  0.00     0.006 C 
BRANCH   5   6
ATOM      6  C   UNL     1     160.648 165.975 160.860  1.00  0.00     0.053 C 
BRANCH   6   7
ATOM      7  C   UNL     1     160.773 167.393 160.401  1.00  0.00     0.041 C 
ATOM      8  O   UNL     1     159.805 167.964 159.834  1.00  0.00    -0.550 OA
ATOM      9  O   UNL     1     161.977 168.069 160.554  1.00  0.00    -0.550 OA
ENDBRANCH   6   7
ENDBRANCH   5   6
ENDBRANCH   4   5
ENDBRANCH   3   4
ENDBRANCH   2   3
ENDBRANCH   1   2
BRANCH   1  10
ATOM     10  C   UNL     1     162.565 163.028 158.854  1.00  0.00     0.000 C 
BRANCH  10  11
ATOM     11  C   UNL     1     163.149 164.048 157.862  1.00  0.00    -0.000 C 
BRANCH  11  12
ATOM     12  C   UNL     1     163.529 165.375 158.536  1.00  0.00    -0.000 C 
BRANCH  12  13
ATOM     13  C   UNL     1     163.207 166.599 157.658  1.00  0.00    -0.000 C 
BRANCH  13  14
ATOM     14  C   UNL     1     161.809 166.502 157.014  1.00  0.00    -0.000 C 
BRANCH  14  15
ATOM     15  C   UNL     1     161.823 166.664 155.485  1.00  0.00    -0.003 C 
ATOM     16  C   UNL     1     160.433 166.565 154.860  1.00  0.00     0.004 C 
ENDBRANCH  14  15
ENDBRANCH  13  14
ENDBRANCH  12  13
ENDBRANCH  11  12
ENDBRANCH  10  11
ENDBRANCH   1  10
TORSDOF 12
ENDMDL
MODEL 8
REMARK VINA RESULT:    -4.369      2.200      5.356
REMARK INTER + INTRA:          -9.219
REMARK INTER:                  -7.879
REMARK INTRA:                  -1.341
REMARK UNBOUND:                -1.785
REMARK SMILES CCCCCCCCCCCCCC(=O)[O-]
REMARK SMILES IDX 8 1 9 2 10 3 11 4 12 5 13 6 14 7 15 8 16 9 7 10 6 11 5 12
REMARK SMILES IDX 4 13 3 14 2 15 1 16
REMARK H PARENT
REMARK Flexibility Score: inf
ROOT
ATOM      1  C   UNL     1     163.466 164.226 157.722  1.00  0.00     0.000 C 
ENDROOT
BRANCH   1   2
ATOM      2  C   UNL     1     163.026 162.966 158.498  1.00  0.00     0.000 C 
BRANCH   2   3
ATOM      3  C   UNL     1     161.796 163.150 159.405  1.00  0.00     0.000 C 
BRANCH   3   4
ATOM      4  C   UNL     1     160.467 163.055 158.636  1.00  0.00     0.000 C 
BRANCH   4   5
ATOM      5  C   UNL     1     159.407 164.032 159.168  1.00  0.00     0.006 C 
BRANCH   5   6
ATOM      6  C   UNL     1     159.937 164.920 160.303  1.00  0.00     0.053 C 
BRANCH   6   7
ATOM      7  C   UNL     1     159.219 166.233 160.315  1.00  0.00     0.041 C 
ATOM      8  O   UNL     1     157.972 166.271 160.483  1.00  0.00    -0.550 OA
ATOM      9  O   UNL     1     159.920 167.410 160.091  1.00  0.00    -0.550 OA
ENDBRANCH   6   7
ENDBRANCH   5   6
ENDBRANCH   4   5
ENDBRANCH   3   4
ENDBRANCH   2   3
ENDBRANCH   1   2
BRANCH   1  10
ATOM     10  C   UNL     1     163.751 165.461 158.594  1.00  0.00     0.000 C 
BRANCH  10  11
ATOM     11  C   UNL     1     162.876 166.669 158.220  1.00  0.00    -0.000 C 
BRANCH  11  12
ATOM     12  C   UNL     1     161.714 166.289 157.290  1.00  0.00    -0.000 C 
BRANCH  12  13
ATOM     13  C   UNL     1     161.887 166.848 155.866  1.00  0.00    -0.000 C 
BRANCH  13  14
ATOM     14  C   UNL     1     160.691 166.503 154.956  1.00  0.00    -0.000 C 
BRANCH  14  15
ATOM     15  C   UNL     1     161.042 166.481 153.459  1.00  0.00    -0.003 C 
ATOM     16  C   UNL     1     160.380 167.611 152.673  1.00  0.00     0.004 C 
ENDBRANCH  14  15
ENDBRANCH  13  14
ENDBRANCH  12  13
ENDBRANCH  11  12
ENDBRANCH  10  11
ENDBRANCH   1  10
TORSDOF 12
ENDMDL
MODEL 9
REMARK VINA RESULT:    -4.307      1.898      3.271
REMARK INTER + INTRA:          -9.114
REMARK INTER:                  -7.534
REMARK INTRA:                  -1.581
REMARK UNBOUND:                -1.785
REMARK SMILES CCCCCCCCCCCCCC(=O)[O-]
REMARK SMILES IDX 8 1 9 2 10 3 11 4 12 5 13 6 14 7 15 8 16 9 7 10 6 11 5 12
REMARK SMILES IDX 4 13 3 14 2 15 1 16
REMARK H PARENT
REMARK Flexibility Score: inf
ROOT
ATOM      1  C   UNL     1     158.655 164.270 160.248  1.00  0.00     0.000 C 
ENDROOT
BRANCH   1   2
ATOM      2  C   UNL     1     159.528 164.846 161.383  1.00  0.00     0.000 C 
BRANCH   2   3
ATOM      3  C   UNL     1     160.459 166.002 160.974  1.00  0.00     0.000 C 
BRANCH   3   4
ATOM      4  C   UNL     1     161.939 165.588 160.928  1.00  0.00     0.000 C 
BRANCH   4   5
ATOM      5  C   UNL     1     162.740 166.377 159.880  1.00  0.00     0.006 C 
BRANCH   5   6
ATOM      6  C   UNL     1     161.850 166.971 158.779  1.00  0.00     0.053 C 
BRANCH   6   7
ATOM      7  C   UNL     1     162.478 166.771 157.436  1.00  0.00     0.041 C 
ATOM      8  O   UNL     1     163.650 167.175 157.218  1.00  0.00    -0.550 OA
ATOM      9  O   UNL     1     161.751 166.181 156.410  1.00  0.00    -0.550 OA
ENDBRANCH   6   7
ENDBRANCH   5   6
ENDBRANCH   4   5
ENDBRANCH   3   4
ENDBRANCH   2   3
ENDBRANCH   1   2
BRANCH   1  10
ATOM     10  C   UNL     1     159.420 163.894 158.967  1.00  0.00     0.000 C 
BRANCH  10  11
ATOM     11  C   UNL     1     159.837 162.414 158.935  1.00  0.00    -0.000 C 
BRANCH  11  12
ATOM     12  C   UNL     1     161.329 162.216 159.241  1.00  0.00    -0.000 C 
BRANCH  12  13
ATOM     13  C   UNL     1     162.237 163.080 158.347  1.00  0.00    -0.000 C 
BRANCH  13  14
ATOM     14  C   UNL     1     163.645 162.470 158.184  1.00  0.00    -0.000 C 
BRANCH  14  15
ATOM     15  C   UNL     1     164.732 163.509 157.863  1.00  0.00    -0.003 C 
ATOM     16  C   UNL     1     166.136 163.042 158.245  1.00  0.00     0.004 C 
ENDBRANCH  14  15
ENDBRANCH  13  14
ENDBRANCH  12  13
ENDBRANCH  11  12
ENDBRANCH  10  11
ENDBRANCH   1  10
TORSDOF 12
ENDMDL
