MODEL 1
REMARK VINA RESULT:    -2.994      0.000      0.000
REMARK INTER + INTRA:          -5.741
REMARK INTER:                  -5.094
REMARK INTRA:                  -0.647
REMARK UNBOUND:                -0.647
REMARK SMILES CCCCCCCCCCCCCC(=O)[O-]
REMARK SMILES IDX 8 1 9 2 10 3 11 4 12 5 13 6 14 7 15 8 16 9 7 10 6 11 5 12
REMARK SMILES IDX 4 13 3 14 2 15 1 16
REMARK H PARENT
REMARK Flexibility Score: inf
ROOT
ATOM      1  C   UNL     1      -3.317  15.755   9.325  1.00  0.00     0.000 C 
ENDROOT
BRANCH   1   2
ATOM      2  C   UNL     1      -3.608  14.801   8.153  1.00  0.00     0.000 C 
BRANCH   2   3
ATOM      3  C   UNL     1      -4.761  13.803   8.389  1.00  0.00     0.000 C 
BRANCH   3   4
ATOM      4  C   UNL     1      -4.616  12.917   9.643  1.00  0.00     0.000 C 
BRANCH   4   5
ATOM      5  C   UNL     1      -3.420  11.949   9.618  1.00  0.00     0.006 C 
BRANCH   5   6
ATOM      6  C   UNL     1      -2.688  11.874  10.963  1.00  0.00     0.053 C 
BRANCH   6   7
ATOM      7  C   UNL     1      -1.273  12.338  10.814  1.00  0.00     0.041 C 
ATOM      8  O   UNL     1      -0.353  11.505  10.598  1.00  0.00    -0.550 OA
ATOM      9  O   UNL     1      -0.976  13.693  10.864  1.00  0.00    -0.550 OA
ENDBRANCH   6   7
ENDBRANCH   5   6
ENDBRANCH   4   5
ENDBRANCH   3   4
ENDBRANCH   2   3
ENDBRANCH   1   2
BRANCH   1  10
ATOM     10  C   UNL     1      -4.016  17.117   9.174  1.00  0.00     0.000 C 
BRANCH  10  11
ATOM     11  C   UNL     1      -4.898  17.477  10.384  1.00  0.00    -0.000 C 
BRANCH  11  12
ATOM     12  C   UNL     1      -4.696  18.898  10.943  1.00  0.00    -0.000 C 
BRANCH  12  13
ATOM     13  C   UNL     1      -4.840  18.969  12.471  1.00  0.00    -0.000 C 
BRANCH  13  14
ATOM     14  C   UNL     1      -4.873  20.424  12.953  1.00  0.00    -0.000 C 
BRANCH  14  15
ATOM     15  C   UNL     1      -3.755  20.693  13.967  1.00  0.00    -0.003 C 
ATOM     16  C   UNL     1      -4.309  20.782  15.386  1.00  0.00     0.004 C 
ENDBRANCH  14  15
ENDBRANCH  13  14
ENDBRANCH  12  13
ENDBRANCH  11  12
ENDBRANCH  10  11
ENDBRANCH   1  10
TORSDOF 12
ENDMDL
MODEL 2
REMARK VINA RESULT:    -2.757     23.190     24.811
REMARK INTER + INTRA:          -5.337
REMARK INTER:                  -4.544
REMARK INTRA:                  -0.793
REMARK UNBOUND:                -0.647
REMARK SMILES CCCCCCCCCCCCCC(=O)[O-]
REMARK SMILES IDX 8 1 9 2 10 3 11 4 12 5 13 6 14 7 15 8 16 9 7 10 6 11 5 12
REMARK SMILES IDX 4 13 3 14 2 15 1 16
REMARK H PARENT
REMARK Flexibility Score: inf
ROOT
ATOM      1  C   UNL     1      13.920  26.800  21.974  1.00  0.00     0.000 C 
ENDROOT
BRANCH   1   2
ATOM      2  C   UNL     1      14.392  27.310  20.600  1.00  0.00     0.000 C 
BRANCH   2   3
ATOM      3  C   UNL     1      14.450  28.844  20.453  1.00  0.00     0.000 C 
BRANCH   3   4
ATOM      4  C   UNL     1      13.120  29.580  20.710  1.00  0.00     0.000 C 
BRANCH   4   5
ATOM      5  C   UNL     1      12.463  30.187  19.458  1.00  0.00     0.006 C 
BRANCH   5   6
ATOM      6  C   UNL     1      13.485  30.740  18.458  1.00  0.00     0.053 C 
BRANCH   6   7
ATOM      7  C   UNL     1      13.337  30.064  17.131  1.00  0.00     0.041 C 
ATOM      8  O   UNL     1      12.717  30.635  16.196  1.00  0.00    -0.550 OA
ATOM      9  O   UNL     1      13.928  28.827  16.912  1.00  0.00    -0.550 OA
ENDBRANCH   6   7
ENDBRANCH   5   6
ENDBRANCH   4   5
ENDBRANCH   3   4
ENDBRANCH   2   3
ENDBRANCH   1   2
BRANCH   1  10
ATOM     10  C   UNL     1      15.072  26.649  22.982  1.00  0.00     0.000 C 
BRANCH  10  11
ATOM     11  C   UNL     1      15.085  27.759  24.049  1.00  0.00    -0.000 C 
BRANCH  11  12
ATOM     12  C   UNL     1      14.106  27.554  25.221  1.00  0.00    -0.000 C 
BRANCH  12  13
ATOM     13  C   UNL     1      13.079  28.689  25.352  1.00  0.00    -0.000 C 
BRANCH  13  14
ATOM     14  C   UNL     1      13.533  29.724  26.388  1.00  0.00    -0.000 C 
BRANCH  14  15
ATOM     15  C   UNL     1      13.101  29.314  27.801  1.00  0.00    -0.003 C 
ATOM     16  C   UNL     1      11.635  29.658  28.050  1.00  0.00     0.004 C 
ENDBRANCH  14  15
ENDBRANCH  13  14
ENDBRANCH  12  13
ENDBRANCH  11  12
ENDBRANCH  10  11
ENDBRANCH   1  10
TORSDOF 12
ENDMDL
MODEL 3
REMARK VINA RESULT:    -2.693     23.376     24.883
REMARK INTER + INTRA:          -5.229
REMARK INTER:                  -3.965
REMARK INTRA:                  -1.264
REMARK UNBOUND:                -0.647
REMARK SMILES CCCCCCCCCCCCCC(=O)[O-]
REMARK SMILES IDX 8 1 9 2 10 3 11 4 12 5 13 6 14 7 15 8 16 9 7 10 6 11 5 12
REMARK SMILES IDX 4 13 3 14 2 15 1 16
REMARK H PARENT
REMARK Flexibility Score: inf
ROOT
ATOM      1  C   UNL     1      14.839  26.928  22.640  1.00  0.00     0.000 C 
ENDROOT
BRANCH   1   2
ATOM      2  C   UNL     1      14.675  27.121  21.121  1.00  0.00     0.000 C 
BRANCH   2   3
ATOM      3  C   UNL     1      14.632  28.589  20.646  1.00  0.00     0.000 C 
BRANCH   3   4
ATOM      4  C   UNL     1      13.220  29.190  20.496  1.00  0.00     0.000 C 
BRANCH   4   5
ATOM      5  C   UNL     1      13.172  30.571  19.819  1.00  0.00     0.006 C 
BRANCH   5   6
ATOM      6  C   UNL     1      14.113  30.675  18.613  1.00  0.00     0.053 C 
BRANCH   6   7
ATOM      7  C   UNL     1      13.516  29.987  17.425  1.00  0.00     0.041 C 
ATOM      8  O   UNL     1      12.543  30.505  16.817  1.00  0.00    -0.550 OA
ATOM      9  O   UNL     1      14.067  28.800  16.960  1.00  0.00    -0.550 OA
ENDBRANCH   6   7
ENDBRANCH   5   6
ENDBRANCH   4   5
ENDBRANCH   3   4
ENDBRANCH   2   3
ENDBRANCH   1   2
BRANCH   1  10
ATOM     10  C   UNL     1      13.637  26.216  23.284  1.00  0.00     0.000 C 
BRANCH  10  11
ATOM     11  C   UNL     1      13.607  26.358  24.817  1.00  0.00    -0.000 C 
BRANCH  11  12
ATOM     12  C   UNL     1      14.723  27.233  25.417  1.00  0.00    -0.000 C 
BRANCH  12  13
ATOM     13  C   UNL     1      14.186  28.468  26.157  1.00  0.00    -0.000 C 
BRANCH  13  14
ATOM     14  C   UNL     1      13.114  29.183  25.327  1.00  0.00    -0.000 C 
BRANCH  14  15
ATOM     15  C   UNL     1      13.746  29.971  24.174  1.00  0.00    -0.003 C 
ATOM     16  C   UNL     1      14.775  30.973  24.690  1.00  0.00     0.004 C 
ENDBRANCH  14  15
ENDBRANCH  13  14
ENDBRANCH  12  13
ENDBRANCH  11  12
ENDBRANCH  10  11
ENDBRANCH   1  10
TORSDOF 12
ENDMDL
MODEL 4
REMARK VINA RESULT:    -1.283      1.073      2.103
REMARK INTER + INTRA:          -2.829
REMARK INTER:                  -2.542
REMARK INTRA:                  -0.287
REMARK UNBOUND:                -0.647
REMARK SMILES CCCCCCCCCCCCCC(=O)[O-]
REMARK SMILES IDX 8 1 9 2 10 3 11 4 12 5 13 6 14 7 15 8 16 9 7 10 6 11 5 12
REMARK SMILES IDX 4 13 3 14 2 15 1 16
REMARK H PARENT
REMARK Flexibility Score: inf
ROOT
ATOM      1  C   UNL     1      -3.780  17.672  10.437  1.00  0.00     0.000 C 
ENDROOT
BRANCH   1   2
ATOM      2  C   UNL     1      -4.644  17.066   9.316  1.00  0.00     0.000 C 
BRANCH   2   3
ATOM      3  C   UNL     1      -3.983  15.921   8.522  1.00  0.00     0.000 C 
BRANCH   3   4
ATOM      4  C   UNL     1      -3.936  14.561   9.247  1.00  0.00     0.000 C 
BRANCH   4   5
ATOM      5  C   UNL     1      -2.829  13.607   8.765  1.00  0.00     0.006 C 
BRANCH   5   6
ATOM      6  C   UNL     1      -2.809  12.282   9.536  1.00  0.00     0.053 C 
BRANCH   6   7
ATOM      7  C   UNL     1      -1.419  11.964   9.993  1.00  0.00     0.041 C 
ATOM      8  O   UNL     1      -0.919  12.577  10.973  1.00  0.00    -0.550 OA
ATOM      9  O   UNL     1      -0.695  10.957   9.368  1.00  0.00    -0.550 OA
ENDBRANCH   6   7
ENDBRANCH   5   6
ENDBRANCH   4   5
ENDBRANCH   3   4
ENDBRANCH   2   3
ENDBRANCH   1   2
BRANCH   1  10
ATOM     10  C   UNL     1      -4.421  18.914  11.080  1.00  0.00     0.000 C 
BRANCH  10  11
ATOM     11  C   UNL     1      -5.118  18.606  12.417  1.00  0.00    -0.000 C 
BRANCH  11  12
ATOM     12  C   UNL     1      -5.124  19.761  13.436  1.00  0.00    -0.000 C 
BRANCH  12  13
ATOM     13  C   UNL     1      -4.355  20.998  12.946  1.00  0.00    -0.000 C 
BRANCH  13  14
ATOM     14  C   UNL     1      -3.275  21.408  13.955  1.00  0.00    -0.000 C 
BRANCH  14  15
ATOM     15  C   UNL     1      -3.340  20.536  15.214  1.00  0.00    -0.003 C 
ATOM     16  C   UNL     1      -4.292  21.132  16.248  1.00  0.00     0.004 C 
ENDBRANCH  14  15
ENDBRANCH  13  14
ENDBRANCH  12  13
ENDBRANCH  11  12
ENDBRANCH  10  11
ENDBRANCH   1  10
TORSDOF 12
ENDMDL
MODEL 5
REMARK VINA RESULT:    -0.987     14.536     15.777
REMARK INTER + INTRA:          -2.326
REMARK INTER:                  -2.111
REMARK INTRA:                  -0.216
REMARK UNBOUND:                -0.647
REMARK SMILES CCCCCCCCCCCCCC(=O)[O-]
REMARK SMILES IDX 8 1 9 2 10 3 11 4 12 5 13 6 14 7 15 8 16 9 7 10 6 11 5 12
REMARK SMILES IDX 4 13 3 14 2 15 1 16
REMARK H PARENT
REMARK Flexibility Score: inf
ROOT
ATOM      1  C   UNL     1      -3.581  13.846  24.415  1.00  0.00     0.000 C 
ENDROOT
BRANCH   1   2
ATOM      2  C   UNL     1      -3.611  12.354  24.038  1.00  0.00     0.000 C 
BRANCH   2   3
ATOM      3  C   UNL     1      -4.914  11.611  24.400  1.00  0.00     0.000 C 
BRANCH   3   4
ATOM      4  C   UNL     1      -5.039  11.183  25.876  1.00  0.00     0.000 C 
BRANCH   4   5
ATOM      5  C   UNL     1      -3.704  10.877  26.577  1.00  0.00     0.006 C 
BRANCH   5   6
ATOM      6  C   UNL     1      -3.623  11.473  27.987  1.00  0.00     0.053 C 
BRANCH   6   7
ATOM      7  C   UNL     1      -3.912  12.941  27.952  1.00  0.00     0.041 C 
ATOM      8  O   UNL     1      -5.096  13.349  27.820  1.00  0.00    -0.550 OA
ATOM      9  O   UNL     1      -2.881  13.857  28.114  1.00  0.00    -0.550 OA
ENDBRANCH   6   7
ENDBRANCH   5   6
ENDBRANCH   4   5
ENDBRANCH   3   4
ENDBRANCH   2   3
ENDBRANCH   1   2
BRANCH   1  10
ATOM     10  C   UNL     1      -4.987  14.458  24.545  1.00  0.00     0.000 C 
BRANCH  10  11
ATOM     11  C   UNL     1      -5.125  15.394  25.759  1.00  0.00    -0.000 C 
BRANCH  11  12
ATOM     12  C   UNL     1      -4.991  16.897  25.447  1.00  0.00    -0.000 C 
BRANCH  12  13
ATOM     13  C   UNL     1      -5.028  17.778  26.704  1.00  0.00    -0.000 C 
BRANCH  13  14
ATOM     14  C   UNL     1      -3.725  17.653  27.502  1.00  0.00    -0.000 C 
BRANCH  14  15
ATOM     15  C   UNL     1      -2.841  18.891  27.308  1.00  0.00    -0.003 C 
ATOM     16  C   UNL     1      -3.556  20.156  27.774  1.00  0.00     0.004 C 
ENDBRANCH  14  15
ENDBRANCH  13  14
ENDBRANCH  12  13
ENDBRANCH  11  12
ENDBRANCH  10  11
ENDBRANCH   1  10
TORSDOF 12
ENDMDL
MODEL 6
REMARK VINA RESULT:    -0.812     23.352     25.161
REMARK INTER + INTRA:          -2.029
REMARK INTER:                  -1.392
REMARK INTRA:                  -0.636
REMARK UNBOUND:                -0.647
REMARK SMILES CCCCCCCCCCCCCC(=O)[O-]
REMARK SMILES IDX 8 1 9 2 10 3 11 4 12 5 13 6 14 7 15 8 16 9 7 10 6 11 5 12
REMARK SMILES IDX 4 13 3 14 2 15 1 16
REMARK H PARENT
REMARK Flexibility Score: inf
ROOT
ATOM      1  C   UNL     1      13.572  28.669  21.181  1.00  0.00     0.000 C 
ENDROOT
BRANCH   1   2
ATOM      2  C   UNL     1      14.850  28.031  20.607  1.00  0.00     0.000 C 
BRANCH   2   3
ATOM      3  C   UNL     1      14.692  27.380  19.217  1.00  0.00     0.000 C 
BRANCH   3   4
ATOM      4  C   UNL     1      15.069  28.279  18.024  1.00  0.00     0.000 C 
BRANCH   4   5
ATOM      5  C   UNL     1      13.938  29.191  17.515  1.00  0.00     0.006 C 
BRANCH   5   6
ATOM      6  C   UNL     1      14.423  30.602  17.166  1.00  0.00     0.053 C 
BRANCH   6   7
ATOM      7  C   UNL     1      14.089  30.932  15.745  1.00  0.00     0.041 C 
ATOM      8  O   UNL     1      12.890  31.107  15.401  1.00  0.00    -0.550 OA
ATOM      9  O   UNL     1      15.104  31.096  14.811  1.00  0.00    -0.550 OA
ENDBRANCH   6   7
ENDBRANCH   5   6
ENDBRANCH   4   5
ENDBRANCH   3   4
ENDBRANCH   2   3
ENDBRANCH   1   2
BRANCH   1  10
ATOM     10  C   UNL     1      13.862  29.675  22.309  1.00  0.00     0.000 C 
BRANCH  10  11
ATOM     11  C   UNL     1      14.884  29.150  23.334  1.00  0.00    -0.000 C 
BRANCH  11  12
ATOM     12  C   UNL     1      15.125  30.067  24.548  1.00  0.00    -0.000 C 
BRANCH  12  13
ATOM     13  C   UNL     1      14.928  29.349  25.892  1.00  0.00    -0.000 C 
BRANCH  13  14
ATOM     14  C   UNL     1      13.516  28.762  26.000  1.00  0.00    -0.000 C 
BRANCH  14  15
ATOM     15  C   UNL     1      12.943  28.966  27.407  1.00  0.00    -0.003 C 
ATOM     16  C   UNL     1      13.082  30.419  27.853  1.00  0.00     0.004 C 
ENDBRANCH  14  15
ENDBRANCH  13  14
ENDBRANCH  12  13
ENDBRANCH  11  12
ENDBRANCH  10  11
ENDBRANCH   1  10
TORSDOF 12
ENDMDL
MODEL 7
REMARK VINA RESULT:    -0.071     20.420     22.416
REMARK INTER + INTRA:          -0.767
REMARK INTER:                  -1.474
REMARK INTRA:                   0.707
REMARK UNBOUND:                -0.647
REMARK SMILES CCCCCCCCCCCCCC(=O)[O-]
REMARK SMILES IDX 8 1 9 2 10 3 11 4 12 5 13 6 14 7 15 8 16 9 7 10 6 11 5 12
REMARK SMILES IDX 4 13 3 14 2 15 1 16
REMARK H PARENT
REMARK Flexibility Score: inf
ROOT
ATOM      1  C   UNL     1      13.708  28.018  10.469  1.00  0.00     0.000 C 
ENDROOT
BRANCH   1   2
ATOM      2  C   UNL     1      15.024  28.743  10.138  1.00  0.00     0.000 C 
BRANCH   2   3
ATOM      3  C   UNL     1      15.123  30.194  10.654  1.00  0.00     0.000 C 
BRANCH   3   4
ATOM      4  C   UNL     1      14.296  30.498  11.919  1.00  0.00     0.000 C 
BRANCH   4   5
ATOM      5  C   UNL     1      15.091  31.125  13.078  1.00  0.00     0.006 C 
BRANCH   5   6
ATOM      6  C   UNL     1      15.103  30.246  14.334  1.00  0.00     0.053 C 
BRANCH   6   7
ATOM      7  C   UNL     1      14.042  30.690  15.292  1.00  0.00     0.041 C 
ATOM      8  O   UNL     1      14.296  30.772  16.523  1.00  0.00    -0.550 OA
ATOM      9  O   UNL     1      12.790  31.060  14.821  1.00  0.00    -0.550 OA
ENDBRANCH   6   7
ENDBRANCH   5   6
ENDBRANCH   4   5
ENDBRANCH   3   4
ENDBRANCH   2   3
ENDBRANCH   1   2
BRANCH   1  10
ATOM     10  C   UNL     1      13.798  26.495  10.267  1.00  0.00     0.000 C 
BRANCH  10  11
ATOM     11  C   UNL     1      13.237  26.035   8.909  1.00  0.00    -0.000 C 
BRANCH  11  12
ATOM     12  C   UNL     1      12.453  27.106   8.127  1.00  0.00    -0.000 C 
BRANCH  12  13
ATOM     13  C   UNL     1      11.813  28.166   9.036  1.00  0.00    -0.000 C 
BRANCH  13  14
ATOM     14  C   UNL     1      11.353  29.382   8.223  1.00  0.00    -0.000 C 
BRANCH  14  15
ATOM     15  C   UNL     1      10.372  30.243   9.028  1.00  0.00    -0.003 C 
ATOM     16  C   UNL     1      11.096  31.025  10.121  1.00  0.00     0.004 C 
ENDBRANCH  14  15
ENDBRANCH  13  14
ENDBRANCH  12  13
ENDBRANCH  11  12
ENDBRANCH  10  11
ENDBRANCH   1  10
TORSDOF 12
ENDMDL
