MODEL 1
REMARK VINA RESULT:    -3.347      0.000      0.000
REMARK INTER + INTRA:          -8.942
REMARK INTER:                  -7.652
REMARK INTRA:                  -1.290
REMARK UNBOUND:                -1.290
REMARK SMILES CCCCCCCCCCCCCCCCCCCCCCCC(=O)[O-]
REMARK SMILES IDX 13 1 14 2 15 3 16 4 17 5 18 6 19 7 20 8 21 9 22 10 23 11
REMARK SMILES IDX 24 12 25 13 26 14 12 15 11 16 10 17 9 18 8 19 7 20 6 21 5 22
REMARK SMILES IDX 4 23 3 24 2 25 1 26
REMARK H PARENT
REMARK Flexibility Score: inf
ROOT
ATOM      1  C   UNL     1      16.647  23.057   5.288  1.00  0.00     0.000 C 
ENDROOT
BRANCH   1   2
ATOM      2  C   UNL     1      17.909  23.168   4.414  1.00  0.00     0.000 C 
BRANCH   2   3
ATOM      3  C   UNL     1      18.907  24.214   4.938  1.00  0.00     0.000 C 
BRANCH   3   4
ATOM      4  C   UNL     1      19.448  25.138   3.831  1.00  0.00     0.000 C 
BRANCH   4   5
ATOM      5  C   UNL     1      20.076  24.418   2.624  1.00  0.00     0.000 C 
BRANCH   5   6
ATOM      6  C   UNL     1      19.433  24.812   1.286  1.00  0.00     0.000 C 
BRANCH   6   7
ATOM      7  C   UNL     1      18.807  26.212   1.368  1.00  0.00     0.000 C 
BRANCH   7   8
ATOM      8  C   UNL     1      18.530  26.826  -0.014  1.00  0.00     0.000 C 
BRANCH   8   9
ATOM      9  C   UNL     1      18.791  25.858  -1.188  1.00  0.00     0.000 C 
BRANCH   9  10
ATOM     10  C   UNL     1      17.585  24.944  -1.469  1.00  0.00     0.006 C 
BRANCH  10  11
ATOM     11  C   UNL     1      16.252  25.613  -1.110  1.00  0.00     0.053 C 
BRANCH  11  12
ATOM     12  C   UNL     1      15.136  25.134  -1.988  1.00  0.00     0.041 C 
ATOM     13  O   UNL     1      14.201  24.441  -1.506  1.00  0.00    -0.550 OA
ATOM     14  O   UNL     1      15.146  25.427  -3.346  1.00  0.00    -0.550 OA
ENDBRANCH  11  12
ENDBRANCH  10  11
ENDBRANCH   9  10
ENDBRANCH   8   9
ENDBRANCH   7   8
ENDBRANCH   6   7
ENDBRANCH   5   6
ENDBRANCH   4   5
ENDBRANCH   3   4
ENDBRANCH   2   3
ENDBRANCH   1   2
BRANCH   1  15
ATOM     15  C   UNL     1      16.023  21.648   5.370  1.00  0.00     0.000 C 
BRANCH  15  16
ATOM     16  C   UNL     1      15.469  21.257   6.753  1.00  0.00     0.000 C 
BRANCH  16  17
ATOM     17  C   UNL     1      16.531  20.615   7.658  1.00  0.00     0.000 C 
BRANCH  17  18
ATOM     18  C   UNL     1      16.955  21.577   8.775  1.00  0.00    -0.000 C 
BRANCH  18  19
ATOM     19  C   UNL     1      16.538  21.038  10.149  1.00  0.00    -0.000 C 
BRANCH  19  20
ATOM     20  C   UNL     1      15.827  22.121  10.974  1.00  0.00    -0.000 C 
BRANCH  20  21
ATOM     21  C   UNL     1      16.652  22.582  12.189  1.00  0.00    -0.000 C 
BRANCH  21  22
ATOM     22  C   UNL     1      16.610  24.098  12.472  1.00  0.00    -0.000 C 
BRANCH  22  23
ATOM     23  C   UNL     1      17.519  24.953  11.570  1.00  0.00    -0.000 C 
BRANCH  23  24
ATOM     24  C   UNL     1      18.544  24.110  10.791  1.00  0.00    -0.000 C 
BRANCH  24  25
ATOM     25  C   UNL     1      19.813  24.904  10.445  1.00  0.00    -0.003 C 
ATOM     26  C   UNL     1      21.096  24.157  10.815  1.00  0.00     0.004 C 
ENDBRANCH  24  25
ENDBRANCH  23  24
ENDBRANCH  22  23
ENDBRANCH  21  22
ENDBRANCH  20  21
ENDBRANCH  19  20
ENDBRANCH  18  19
ENDBRANCH  17  18
ENDBRANCH  16  17
ENDBRANCH  15  16
ENDBRANCH   1  15
TORSDOF 22
ENDMDL
MODEL 2
REMARK VINA RESULT:    -3.004      4.692     11.069
REMARK INTER + INTRA:          -8.158
REMARK INTER:                  -6.937
REMARK INTRA:                  -1.221
REMARK UNBOUND:                -1.290
REMARK SMILES CCCCCCCCCCCCCCCCCCCCCCCC(=O)[O-]
REMARK SMILES IDX 13 1 14 2 15 3 16 4 17 5 18 6 19 7 20 8 21 9 22 10 23 11
REMARK SMILES IDX 24 12 25 13 26 14 12 15 11 16 10 17 9 18 8 19 7 20 6 21 5 22
REMARK SMILES IDX 4 23 3 24 2 25 1 26
REMARK H PARENT
REMARK Flexibility Score: inf
ROOT
ATOM      1  C   UNL     1      16.741  22.705   4.853  1.00  0.00     0.000 C 
ENDROOT
BRANCH   1   2
ATOM      2  C   UNL     1      15.276  22.727   5.326  1.00  0.00     0.000 C 
BRANCH   2   3
ATOM      3  C   UNL     1      14.840  21.403   5.977  1.00  0.00     0.000 C 
BRANCH   3   4
ATOM      4  C   UNL     1      15.975  20.715   6.758  1.00  0.00     0.000 C 
BRANCH   4   5
ATOM      5  C   UNL     1      16.179  21.216   8.199  1.00  0.00     0.000 C 
BRANCH   5   6
ATOM      6  C   UNL     1      17.620  21.667   8.481  1.00  0.00     0.000 C 
BRANCH   6   7
ATOM      7  C   UNL     1      17.717  22.382   9.836  1.00  0.00     0.000 C 
BRANCH   7   8
ATOM      8  C   UNL     1      18.787  23.486   9.857  1.00  0.00     0.000 C 
BRANCH   8   9
ATOM      9  C   UNL     1      18.691  24.420  11.083  1.00  0.00     0.000 C 
BRANCH   9  10
ATOM     10  C   UNL     1      17.250  24.548  11.606  1.00  0.00     0.006 C 
BRANCH  10  11
ATOM     11  C   UNL     1      16.962  23.580  12.760  1.00  0.00     0.053 C 
BRANCH  11  12
ATOM     12  C   UNL     1      16.557  24.306  14.007  1.00  0.00     0.041 C 
ATOM     13  O   UNL     1      16.913  23.878  15.136  1.00  0.00    -0.550 OA
ATOM     14  O   UNL     1      15.757  25.439  13.922  1.00  0.00    -0.550 OA
ENDBRANCH  11  12
ENDBRANCH  10  11
ENDBRANCH   9  10
ENDBRANCH   8   9
ENDBRANCH   7   8
ENDBRANCH   6   7
ENDBRANCH   5   6
ENDBRANCH   4   5
ENDBRANCH   3   4
ENDBRANCH   2   3
ENDBRANCH   1   2
BRANCH   1  15
ATOM     15  C   UNL     1      17.692  23.658   5.607  1.00  0.00     0.000 C 
BRANCH  15  16
ATOM     16  C   UNL     1      18.631  24.488   4.713  1.00  0.00     0.000 C 
BRANCH  16  17
ATOM     17  C   UNL     1      19.650  23.623   3.957  1.00  0.00     0.000 C 
BRANCH  17  18
ATOM     18  C   UNL     1      20.240  24.385   2.763  1.00  0.00    -0.000 C 
BRANCH  18  19
ATOM     19  C   UNL     1      19.232  25.401   2.211  1.00  0.00    -0.000 C 
BRANCH  19  20
ATOM     20  C   UNL     1      19.133  25.306   0.681  1.00  0.00    -0.000 C 
BRANCH  20  21
ATOM     21  C   UNL     1      18.891  26.672   0.014  1.00  0.00    -0.000 C 
BRANCH  21  22
ATOM     22  C   UNL     1      17.475  26.876  -0.564  1.00  0.00    -0.000 C 
BRANCH  22  23
ATOM     23  C   UNL     1      16.981  25.748  -1.488  1.00  0.00    -0.000 C 
BRANCH  23  24
ATOM     24  C   UNL     1      15.654  25.131  -1.013  1.00  0.00    -0.000 C 
BRANCH  24  25
ATOM     25  C   UNL     1      14.687  24.855  -2.176  1.00  0.00    -0.003 C 
ATOM     26  C   UNL     1      15.086  25.583  -3.461  1.00  0.00     0.004 C 
ENDBRANCH  24  25
ENDBRANCH  23  24
ENDBRANCH  22  23
ENDBRANCH  21  22
ENDBRANCH  20  21
ENDBRANCH  19  20
ENDBRANCH  18  19
ENDBRANCH  17  18
ENDBRANCH  16  17
ENDBRANCH  15  16
ENDBRANCH   1  15
TORSDOF 22
ENDMDL
MODEL 3
REMARK VINA RESULT:    -2.927      0.967      2.228
REMARK INTER + INTRA:          -7.981
REMARK INTER:                  -6.460
REMARK INTRA:                  -1.521
REMARK UNBOUND:                -1.290
REMARK SMILES CCCCCCCCCCCCCCCCCCCCCCCC(=O)[O-]
REMARK SMILES IDX 13 1 14 2 15 3 16 4 17 5 18 6 19 7 20 8 21 9 22 10 23 11
REMARK SMILES IDX 24 12 25 13 26 14 12 15 11 16 10 17 9 18 8 19 7 20 6 21 5 22
REMARK SMILES IDX 4 23 3 24 2 25 1 26
REMARK H PARENT
REMARK Flexibility Score: inf
ROOT
ATOM      1  C   UNL     1      17.058  23.216   5.647  1.00  0.00     0.000 C 
ENDROOT
BRANCH   1   2
ATOM      2  C   UNL     1      18.152  23.424   4.585  1.00  0.00     0.000 C 
BRANCH   2   3
ATOM      3  C   UNL     1      18.836  24.797   4.694  1.00  0.00     0.000 C 
BRANCH   3   4
ATOM      4  C   UNL     1      19.456  25.269   3.367  1.00  0.00     0.000 C 
BRANCH   4   5
ATOM      5  C   UNL     1      20.588  24.380   2.818  1.00  0.00     0.000 C 
BRANCH   5   6
ATOM      6  C   UNL     1      20.271  23.783   1.440  1.00  0.00     0.000 C 
BRANCH   6   7
ATOM      7  C   UNL     1      18.945  24.331   0.895  1.00  0.00     0.000 C 
BRANCH   7   8
ATOM      8  C   UNL     1      19.128  25.229  -0.340  1.00  0.00     0.000 C 
BRANCH   8   9
ATOM      9  C   UNL     1      18.396  26.585  -0.235  1.00  0.00     0.000 C 
BRANCH   9  10
ATOM     10  C   UNL     1      16.950  26.507  -0.753  1.00  0.00     0.006 C 
BRANCH  10  11
ATOM     11  C   UNL     1      16.803  25.529  -1.926  1.00  0.00     0.053 C 
BRANCH  11  12
ATOM     12  C   UNL     1      15.367  25.328  -2.306  1.00  0.00     0.041 C 
ATOM     13  O   UNL     1      15.016  25.382  -3.514  1.00  0.00    -0.550 OA
ATOM     14  O   UNL     1      14.412  25.115  -1.320  1.00  0.00    -0.550 OA
ENDBRANCH  11  12
ENDBRANCH  10  11
ENDBRANCH   9  10
ENDBRANCH   8   9
ENDBRANCH   7   8
ENDBRANCH   6   7
ENDBRANCH   5   6
ENDBRANCH   4   5
ENDBRANCH   3   4
ENDBRANCH   2   3
ENDBRANCH   1   2
BRANCH   1  15
ATOM     15  C   UNL     1      15.957  22.202   5.271  1.00  0.00     0.000 C 
BRANCH  15  16
ATOM     16  C   UNL     1      15.560  21.221   6.390  1.00  0.00     0.000 C 
BRANCH  16  17
ATOM     17  C   UNL     1      16.752  20.802   7.263  1.00  0.00     0.000 C 
BRANCH  17  18
ATOM     18  C   UNL     1      16.766  21.580   8.585  1.00  0.00    -0.000 C 
BRANCH  18  19
ATOM     19  C   UNL     1      18.203  21.892   9.020  1.00  0.00    -0.000 C 
BRANCH  19  20
ATOM     20  C   UNL     1      18.488  23.400   8.943  1.00  0.00    -0.000 C 
BRANCH  20  21
ATOM     21  C   UNL     1      19.371  23.899  10.102  1.00  0.00    -0.000 C 
BRANCH  21  22
ATOM     22  C   UNL     1      18.625  24.161  11.427  1.00  0.00    -0.000 C 
BRANCH  22  23
ATOM     23  C   UNL     1      17.098  23.971  11.362  1.00  0.00    -0.000 C 
BRANCH  23  24
ATOM     24  C   UNL     1      16.568  23.052  12.476  1.00  0.00    -0.000 C 
BRANCH  24  25
ATOM     25  C   UNL     1      16.742  23.665  13.874  1.00  0.00    -0.003 C 
ATOM     26  C   UNL     1      16.291  25.125  13.939  1.00  0.00     0.004 C 
ENDBRANCH  24  25
ENDBRANCH  23  24
ENDBRANCH  22  23
ENDBRANCH  21  22
ENDBRANCH  20  21
ENDBRANCH  19  20
ENDBRANCH  18  19
ENDBRANCH  17  18
ENDBRANCH  16  17
ENDBRANCH  15  16
ENDBRANCH   1  15
TORSDOF 22
ENDMDL
MODEL 4
REMARK VINA RESULT:    -2.891      4.474      7.047
REMARK INTER + INTRA:          -7.898
REMARK INTER:                  -6.191
REMARK INTRA:                  -1.707
REMARK UNBOUND:                -1.290
REMARK SMILES CCCCCCCCCCCCCCCCCCCCCCCC(=O)[O-]
REMARK SMILES IDX 13 1 14 2 15 3 16 4 17 5 18 6 19 7 20 8 21 9 22 10 23 11
REMARK SMILES IDX 24 12 25 13 26 14 12 15 11 16 10 17 9 18 8 19 7 20 6 21 5 22
REMARK SMILES IDX 4 23 3 24 2 25 1 26
REMARK H PARENT
REMARK Flexibility Score: inf
ROOT
ATOM      1  C   UNL     1      18.901  24.411   1.694  1.00  0.00     0.000 C 
ENDROOT
BRANCH   1   2
ATOM      2  C   UNL     1      19.636  24.077   0.383  1.00  0.00     0.000 C 
BRANCH   2   3
ATOM      3  C   UNL     1      18.682  23.923  -0.813  1.00  0.00     0.000 C 
BRANCH   3   4
ATOM      4  C   UNL     1      17.198  23.932  -0.404  1.00  0.00     0.000 C 
BRANCH   4   5
ATOM      5  C   UNL     1      16.266  24.735  -1.330  1.00  0.00     0.000 C 
BRANCH   5   6
ATOM      6  C   UNL     1      16.792  26.144  -1.640  1.00  0.00     0.000 C 
BRANCH   6   7
ATOM      7  C   UNL     1      17.236  26.860  -0.357  1.00  0.00     0.000 C 
BRANCH   7   8
ATOM      8  C   UNL     1      18.692  27.349  -0.416  1.00  0.00     0.000 C 
BRANCH   8   9
ATOM      9  C   UNL     1      19.058  28.344   0.707  1.00  0.00     0.000 C 
BRANCH   9  10
ATOM     10  C   UNL     1      20.003  29.455   0.216  1.00  0.00     0.006 C 
BRANCH  10  11
ATOM     11  C   UNL     1      20.080  30.630   1.199  1.00  0.00     0.053 C 
BRANCH  11  12
ATOM     12  C   UNL     1      21.145  31.610   0.810  1.00  0.00     0.041 C 
ATOM     13  O   UNL     1      20.838  32.790   0.492  1.00  0.00    -0.550 OA
ATOM     14  O   UNL     1      22.475  31.210   0.768  1.00  0.00    -0.550 OA
ENDBRANCH  11  12
ENDBRANCH  10  11
ENDBRANCH   9  10
ENDBRANCH   8   9
ENDBRANCH   7   8
ENDBRANCH   6   7
ENDBRANCH   5   6
ENDBRANCH   4   5
ENDBRANCH   3   4
ENDBRANCH   2   3
ENDBRANCH   1   2
BRANCH   1  15
ATOM     15  C   UNL     1      19.633  25.395   2.630  1.00  0.00     0.000 C 
BRANCH  15  16
ATOM     16  C   UNL     1      19.324  25.225   4.129  1.00  0.00     0.000 C 
BRANCH  16  17
ATOM     17  C   UNL     1      18.994  23.775   4.507  1.00  0.00     0.000 C 
BRANCH  17  18
ATOM     18  C   UNL     1      17.693  23.700   5.316  1.00  0.00    -0.000 C 
BRANCH  18  19
ATOM     19  C   UNL     1      16.828  22.522   4.852  1.00  0.00    -0.000 C 
BRANCH  19  20
ATOM     20  C   UNL     1      16.268  21.742   6.052  1.00  0.00    -0.000 C 
BRANCH  20  21
ATOM     21  C   UNL     1      14.735  21.601   6.008  1.00  0.00    -0.000 C 
BRANCH  21  22
ATOM     22  C   UNL     1      14.068  22.104   4.711  1.00  0.00    -0.000 C 
BRANCH  22  23
ATOM     23  C   UNL     1      13.275  23.416   4.854  1.00  0.00    -0.000 C 
BRANCH  23  24
ATOM     24  C   UNL     1      12.110  23.516   3.854  1.00  0.00    -0.000 C 
BRANCH  24  25
ATOM     25  C   UNL     1      11.879  22.203   3.090  1.00  0.00    -0.003 C 
ATOM     26  C   UNL     1      11.054  22.398   1.817  1.00  0.00     0.004 C 
ENDBRANCH  24  25
ENDBRANCH  23  24
ENDBRANCH  22  23
ENDBRANCH  21  22
ENDBRANCH  20  21
ENDBRANCH  19  20
ENDBRANCH  18  19
ENDBRANCH  17  18
ENDBRANCH  16  17
ENDBRANCH  15  16
ENDBRANCH   1  15
TORSDOF 22
ENDMDL
MODEL 5
REMARK VINA RESULT:    -2.738      3.622     10.703
REMARK INTER + INTRA:          -7.549
REMARK INTER:                  -6.090
REMARK INTRA:                  -1.459
REMARK UNBOUND:                -1.290
REMARK SMILES CCCCCCCCCCCCCCCCCCCCCCCC(=O)[O-]
REMARK SMILES IDX 13 1 14 2 15 3 16 4 17 5 18 6 19 7 20 8 21 9 22 10 23 11
REMARK SMILES IDX 24 12 25 13 26 14 12 15 11 16 10 17 9 18 8 19 7 20 6 21 5 22
REMARK SMILES IDX 4 23 3 24 2 25 1 26
REMARK H PARENT
REMARK Flexibility Score: inf
ROOT
ATOM      1  C   UNL     1      17.283  23.164   5.950  1.00  0.00     0.000 C 
ENDROOT
BRANCH   1   2
ATOM      2  C   UNL     1      16.023  22.698   5.198  1.00  0.00     0.000 C 
BRANCH   2   3
ATOM      3  C   UNL     1      15.352  21.482   5.858  1.00  0.00     0.000 C 
BRANCH   3   4
ATOM      4  C   UNL     1      16.273  20.752   6.853  1.00  0.00     0.000 C 
BRANCH   4   5
ATOM      5  C   UNL     1      15.878  20.890   8.335  1.00  0.00     0.000 C 
BRANCH   5   6
ATOM      6  C   UNL     1      17.020  21.415   9.217  1.00  0.00     0.000 C 
BRANCH   6   7
ATOM      7  C   UNL     1      16.668  21.293  10.705  1.00  0.00     0.000 C 
BRANCH   7   8
ATOM      8  C   UNL     1      15.628  22.329  11.163  1.00  0.00     0.000 C 
BRANCH   8   9
ATOM      9  C   UNL     1      16.151  23.297  12.247  1.00  0.00     0.000 C 
BRANCH   9  10
ATOM     10  C   UNL     1      17.676  23.485  12.172  1.00  0.00     0.006 C 
BRANCH  10  11
ATOM     11  C   UNL     1      18.080  24.585  11.182  1.00  0.00     0.053 C 
BRANCH  11  12
ATOM     12  C   UNL     1      19.247  24.171  10.337  1.00  0.00     0.041 C 
ATOM     13  O   UNL     1      20.421  24.285  10.777  1.00  0.00    -0.550 OA
ATOM     14  O   UNL     1      19.037  23.691   9.050  1.00  0.00    -0.550 OA
ENDBRANCH  11  12
ENDBRANCH  10  11
ENDBRANCH   9  10
ENDBRANCH   8   9
ENDBRANCH   7   8
ENDBRANCH   6   7
ENDBRANCH   5   6
ENDBRANCH   4   5
ENDBRANCH   3   4
ENDBRANCH   2   3
ENDBRANCH   1   2
BRANCH   1  15
ATOM     15  C   UNL     1      18.184  24.151   5.178  1.00  0.00     0.000 C 
BRANCH  15  16
ATOM     16  C   UNL     1      19.101  23.509   4.120  1.00  0.00     0.000 C 
BRANCH  16  17
ATOM     17  C   UNL     1      20.277  24.413   3.725  1.00  0.00     0.000 C 
BRANCH  17  18
ATOM     18  C   UNL     1      20.507  24.387   2.209  1.00  0.00    -0.000 C 
BRANCH  18  19
ATOM     19  C   UNL     1      19.254  24.855   1.458  1.00  0.00    -0.000 C 
BRANCH  19  20
ATOM     20  C   UNL     1      18.968  26.339   1.733  1.00  0.00    -0.000 C 
BRANCH  20  21
ATOM     21  C   UNL     1      18.810  27.165   0.442  1.00  0.00    -0.000 C 
BRANCH  21  22
ATOM     22  C   UNL     1      18.477  26.346  -0.821  1.00  0.00    -0.000 C 
BRANCH  22  23
ATOM     23  C   UNL     1      16.995  26.364  -1.236  1.00  0.00    -0.000 C 
BRANCH  23  24
ATOM     24  C   UNL     1      16.366  24.959  -1.251  1.00  0.00    -0.000 C 
BRANCH  24  25
ATOM     25  C   UNL     1      14.927  24.967  -1.788  1.00  0.00    -0.003 C 
ATOM     26  C   UNL     1      14.851  25.351  -3.267  1.00  0.00     0.004 C 
ENDBRANCH  24  25
ENDBRANCH  23  24
ENDBRANCH  22  23
ENDBRANCH  21  22
ENDBRANCH  20  21
ENDBRANCH  19  20
ENDBRANCH  18  19
ENDBRANCH  17  18
ENDBRANCH  16  17
ENDBRANCH  15  16
ENDBRANCH   1  15
TORSDOF 22
ENDMDL
MODEL 6
REMARK VINA RESULT:    -2.415      1.010      2.165
REMARK INTER + INTRA:          -6.811
REMARK INTER:                  -6.855
REMARK INTRA:                   0.044
REMARK UNBOUND:                -1.290
REMARK SMILES CCCCCCCCCCCCCCCCCCCCCCCC(=O)[O-]
REMARK SMILES IDX 13 1 14 2 15 3 16 4 17 5 18 6 19 7 20 8 21 9 22 10 23 11
REMARK SMILES IDX 24 12 25 13 26 14 12 15 11 16 10 17 9 18 8 19 7 20 6 21 5 22
REMARK SMILES IDX 4 23 3 24 2 25 1 26
REMARK H PARENT
REMARK Flexibility Score: inf
ROOT
ATOM      1  C   UNL     1      18.281  23.352   4.372  1.00  0.00     0.000 C 
ENDROOT
BRANCH   1   2
ATOM      2  C   UNL     1      18.988  24.705   4.170  1.00  0.00     0.000 C 
BRANCH   2   3
ATOM      3  C   UNL     1      20.463  24.551   3.764  1.00  0.00     0.000 C 
BRANCH   3   4
ATOM      4  C   UNL     1      20.641  24.077   2.310  1.00  0.00     0.000 C 
BRANCH   4   5
ATOM      5  C   UNL     1      19.587  24.597   1.316  1.00  0.00     0.000 C 
BRANCH   5   6
ATOM      6  C   UNL     1      18.860  25.855   1.813  1.00  0.00     0.000 C 
BRANCH   6   7
ATOM      7  C   UNL     1      19.178  27.063   0.921  1.00  0.00     0.000 C 
BRANCH   7   8
ATOM      8  C   UNL     1      18.434  27.031  -0.423  1.00  0.00     0.000 C 
BRANCH   8   9
ATOM      9  C   UNL     1      18.790  25.810  -1.300  1.00  0.00     0.000 C 
BRANCH   9  10
ATOM     10  C   UNL     1      17.579  24.892  -1.540  1.00  0.00     0.006 C 
BRANCH  10  11
ATOM     11  C   UNL     1      16.256  25.555  -1.134  1.00  0.00     0.053 C 
BRANCH  11  12
ATOM     12  C   UNL     1      15.129  25.142  -2.032  1.00  0.00     0.041 C 
ATOM     13  O   UNL     1      14.154  24.492  -1.569  1.00  0.00    -0.550 OA
ATOM     14  O   UNL     1      15.173  25.446  -3.387  1.00  0.00    -0.550 OA
ENDBRANCH  11  12
ENDBRANCH  10  11
ENDBRANCH   9  10
ENDBRANCH   8   9
ENDBRANCH   7   8
ENDBRANCH   6   7
ENDBRANCH   5   6
ENDBRANCH   4   5
ENDBRANCH   3   4
ENDBRANCH   2   3
ENDBRANCH   1   2
BRANCH   1  15
ATOM     15  C   UNL     1      17.339  23.275   5.591  1.00  0.00     0.000 C 
BRANCH  15  16
ATOM     16  C   UNL     1      16.023  22.511   5.354  1.00  0.00     0.000 C 
BRANCH  16  17
ATOM     17  C   UNL     1      16.021  21.118   5.998  1.00  0.00     0.000 C 
BRANCH  17  18
ATOM     18  C   UNL     1      15.898  21.217   7.524  1.00  0.00    -0.000 C 
BRANCH  18  19
ATOM     19  C   UNL     1      17.257  20.987   8.197  1.00  0.00    -0.000 C 
BRANCH  19  20
ATOM     20  C   UNL     1      17.461  21.954   9.373  1.00  0.00    -0.000 C 
BRANCH  20  21
ATOM     21  C   UNL     1      18.668  22.889   9.173  1.00  0.00    -0.000 C 
BRANCH  21  22
ATOM     22  C   UNL     1      18.703  24.120  10.102  1.00  0.00    -0.000 C 
BRANCH  22  23
ATOM     23  C   UNL     1      18.144  23.883  11.517  1.00  0.00    -0.000 C 
BRANCH  23  24
ATOM     24  C   UNL     1      17.089  24.928  11.920  1.00  0.00    -0.000 C 
BRANCH  24  25
ATOM     25  C   UNL     1      16.367  24.559  13.225  1.00  0.00    -0.003 C 
ATOM     26  C   UNL     1      16.761  23.176  13.747  1.00  0.00     0.004 C 
ENDBRANCH  24  25
ENDBRANCH  23  24
ENDBRANCH  22  23
ENDBRANCH  21  22
ENDBRANCH  20  21
ENDBRANCH  19  20
ENDBRANCH  18  19
ENDBRANCH  17  18
ENDBRANCH  16  17
ENDBRANCH  15  16
ENDBRANCH   1  15
TORSDOF 22
ENDMDL
MODEL 7
REMARK VINA RESULT:    -2.214      9.255     13.371
REMARK INTER + INTRA:          -6.352
REMARK INTER:                  -4.901
REMARK INTRA:                  -1.450
REMARK UNBOUND:                -1.290
REMARK SMILES CCCCCCCCCCCCCCCCCCCCCCCC(=O)[O-]
REMARK SMILES IDX 13 1 14 2 15 3 16 4 17 5 18 6 19 7 20 8 21 9 22 10 23 11
REMARK SMILES IDX 24 12 25 13 26 14 12 15 11 16 10 17 9 18 8 19 7 20 6 21 5 22
REMARK SMILES IDX 4 23 3 24 2 25 1 26
REMARK H PARENT
REMARK Flexibility Score: inf
ROOT
ATOM      1  C   UNL     1      19.719  34.164  11.187  1.00  0.00     0.000 C 
ENDROOT
BRANCH   1   2
ATOM      2  C   UNL     1      18.215  33.945  10.941  1.00  0.00     0.000 C 
BRANCH   2   3
ATOM      3  C   UNL     1      17.927  32.711  10.070  1.00  0.00     0.000 C 
BRANCH   3   4
ATOM      4  C   UNL     1      16.768  31.852  10.608  1.00  0.00     0.000 C 
BRANCH   4   5
ATOM      5  C   UNL     1      16.917  30.335  10.391  1.00  0.00     0.000 C 
BRANCH   5   6
ATOM      6  C   UNL     1      15.729  29.529  10.935  1.00  0.00     0.000 C 
BRANCH   6   7
ATOM      7  C   UNL     1      15.927  28.026  10.693  1.00  0.00     0.000 C 
BRANCH   7   8
ATOM      8  C   UNL     1      16.256  27.250  11.979  1.00  0.00     0.000 C 
BRANCH   8   9
ATOM      9  C   UNL     1      16.667  25.782  11.729  1.00  0.00     0.000 C 
BRANCH   9  10
ATOM     10  C   UNL     1      16.367  24.880  12.938  1.00  0.00     0.006 C 
BRANCH  10  11
ATOM     11  C   UNL     1      17.013  23.495  12.806  1.00  0.00     0.053 C 
BRANCH  11  12
ATOM     12  C   UNL     1      16.825  22.923  11.433  1.00  0.00     0.041 C 
ATOM     13  O   UNL     1      15.767  22.304  11.143  1.00  0.00    -0.550 OA
ATOM     14  O   UNL     1      17.833  23.046  10.485  1.00  0.00    -0.550 OA
ENDBRANCH  11  12
ENDBRANCH  10  11
ENDBRANCH   9  10
ENDBRANCH   8   9
ENDBRANCH   7   8
ENDBRANCH   6   7
ENDBRANCH   5   6
ENDBRANCH   4   5
ENDBRANCH   3   4
ENDBRANCH   2   3
ENDBRANCH   1   2
BRANCH   1  15
ATOM     15  C   UNL     1      20.125  34.358  12.663  1.00  0.00     0.000 C 
BRANCH  15  16
ATOM     16  C   UNL     1      21.632  34.564  12.906  1.00  0.00     0.000 C 
BRANCH  16  17
ATOM     17  C   UNL     1      21.934  35.174  14.282  1.00  0.00     0.000 C 
BRANCH  17  18
ATOM     18  C   UNL     1      21.332  34.321  15.406  1.00  0.00    -0.000 C 
BRANCH  18  19
ATOM     19  C   UNL     1      22.334  33.264  15.886  1.00  0.00    -0.000 C 
BRANCH  19  20
ATOM     20  C   UNL     1      23.759  33.837  15.937  1.00  0.00    -0.000 C 
BRANCH  20  21
ATOM     21  C   UNL     1      24.793  32.922  15.255  1.00  0.00    -0.000 C 
BRANCH  21  22
ATOM     22  C   UNL     1      26.253  33.414  15.330  1.00  0.00    -0.000 C 
BRANCH  22  23
ATOM     23  C   UNL     1      26.649  34.441  14.253  1.00  0.00    -0.000 C 
BRANCH  23  24
ATOM     24  C   UNL     1      25.565  34.617  13.175  1.00  0.00    -0.000 C 
BRANCH  24  25
ATOM     25  C   UNL     1      25.209  36.093  12.939  1.00  0.00    -0.003 C 
ATOM     26  C   UNL     1      25.177  36.908  14.233  1.00  0.00     0.004 C 
ENDBRANCH  24  25
ENDBRANCH  23  24
ENDBRANCH  22  23
ENDBRANCH  21  22
ENDBRANCH  20  21
ENDBRANCH  19  20
ENDBRANCH  18  19
ENDBRANCH  17  18
ENDBRANCH  16  17
ENDBRANCH  15  16
ENDBRANCH   1  15
TORSDOF 22
ENDMDL
MODEL 8
REMARK VINA RESULT:    -2.199     10.097     14.212
REMARK INTER + INTRA:          -6.317
REMARK INTER:                  -4.456
REMARK INTRA:                  -1.862
REMARK UNBOUND:                -1.290
REMARK SMILES CCCCCCCCCCCCCCCCCCCCCCCC(=O)[O-]
REMARK SMILES IDX 13 1 14 2 15 3 16 4 17 5 18 6 19 7 20 8 21 9 22 10 23 11
REMARK SMILES IDX 24 12 25 13 26 14 12 15 11 16 10 17 9 18 8 19 7 20 6 21 5 22
REMARK SMILES IDX 4 23 3 24 2 25 1 26
REMARK H PARENT
REMARK Flexibility Score: inf
ROOT
ATOM      1  C   UNL     1      21.024  34.751  12.571  1.00  0.00     0.000 C 
ENDROOT
BRANCH   1   2
ATOM      2  C   UNL     1      19.655  34.071  12.387  1.00  0.00     0.000 C 
BRANCH   2   3
ATOM      3  C   UNL     1      19.166  34.100  10.930  1.00  0.00     0.000 C 
BRANCH   3   4
ATOM      4  C   UNL     1      17.743  33.537  10.761  1.00  0.00     0.000 C 
BRANCH   4   5
ATOM      5  C   UNL     1      17.660  32.139  10.123  1.00  0.00     0.000 C 
BRANCH   5   6
ATOM      6  C   UNL     1      16.600  31.240  10.776  1.00  0.00     0.000 C 
BRANCH   6   7
ATOM      7  C   UNL     1      16.707  29.798  10.260  1.00  0.00     0.000 C 
BRANCH   7   8
ATOM      8  C   UNL     1      15.641  28.866  10.858  1.00  0.00     0.000 C 
BRANCH   8   9
ATOM      9  C   UNL     1      16.207  27.841  11.865  1.00  0.00     0.000 C 
BRANCH   9  10
ATOM     10  C   UNL     1      16.678  26.548  11.177  1.00  0.00     0.006 C 
BRANCH  10  11
ATOM     11  C   UNL     1      16.696  25.351  12.137  1.00  0.00     0.053 C 
BRANCH  11  12
ATOM     12  C   UNL     1      17.390  24.167  11.535  1.00  0.00     0.041 C 
ATOM     13  O   UNL     1      18.564  24.277  11.092  1.00  0.00    -0.550 OA
ATOM     14  O   UNL     1      16.728  22.950  11.436  1.00  0.00    -0.550 OA
ENDBRANCH  11  12
ENDBRANCH  10  11
ENDBRANCH   9  10
ENDBRANCH   8   9
ENDBRANCH   7   8
ENDBRANCH   6   7
ENDBRANCH   5   6
ENDBRANCH   4   5
ENDBRANCH   3   4
ENDBRANCH   2   3
ENDBRANCH   1   2
BRANCH   1  15
ATOM     15  C   UNL     1      21.441  35.012  14.033  1.00  0.00     0.000 C 
BRANCH  15  16
ATOM     16  C   UNL     1      22.555  36.058  14.220  1.00  0.00     0.000 C 
BRANCH  16  17
ATOM     17  C   UNL     1      23.188  36.010  15.618  1.00  0.00     0.000 C 
BRANCH  17  18
ATOM     18  C   UNL     1      24.700  36.256  15.546  1.00  0.00    -0.000 C 
BRANCH  18  19
ATOM     19  C   UNL     1      25.008  37.552  14.787  1.00  0.00    -0.000 C 
BRANCH  19  20
ATOM     20  C   UNL     1      26.283  37.409  13.943  1.00  0.00    -0.000 C 
BRANCH  20  21
ATOM     21  C   UNL     1      26.021  36.761  12.571  1.00  0.00    -0.000 C 
BRANCH  21  22
ATOM     22  C   UNL     1      26.778  35.443  12.314  1.00  0.00    -0.000 C 
BRANCH  22  23
ATOM     23  C   UNL     1      26.316  34.249  13.170  1.00  0.00    -0.000 C 
BRANCH  23  24
ATOM     24  C   UNL     1      25.498  33.225  12.365  1.00  0.00    -0.000 C 
BRANCH  24  25
ATOM     25  C   UNL     1      24.159  32.884  13.038  1.00  0.00    -0.003 C 
ATOM     26  C   UNL     1      24.290  32.700  14.551  1.00  0.00     0.004 C 
ENDBRANCH  24  25
ENDBRANCH  23  24
ENDBRANCH  22  23
ENDBRANCH  21  22
ENDBRANCH  20  21
ENDBRANCH  19  20
ENDBRANCH  18  19
ENDBRANCH  17  18
ENDBRANCH  16  17
ENDBRANCH  15  16
ENDBRANCH   1  15
TORSDOF 22
ENDMDL
MODEL 9
REMARK VINA RESULT:    -2.055     10.576     14.688
REMARK INTER + INTRA:          -5.989
REMARK INTER:                  -4.616
REMARK INTRA:                  -1.373
REMARK UNBOUND:                -1.290
REMARK SMILES CCCCCCCCCCCCCCCCCCCCCCCC(=O)[O-]
REMARK SMILES IDX 13 1 14 2 15 3 16 4 17 5 18 6 19 7 20 8 21 9 22 10 23 11
REMARK SMILES IDX 24 12 25 13 26 14 12 15 11 16 10 17 9 18 8 19 7 20 6 21 5 22
REMARK SMILES IDX 4 23 3 24 2 25 1 26
REMARK H PARENT
REMARK Flexibility Score: inf
ROOT
ATOM      1  C   UNL     1      20.811  34.780  12.481  1.00  0.00     0.000 C 
ENDROOT
BRANCH   1   2
ATOM      2  C   UNL     1      20.687  34.015  13.811  1.00  0.00     0.000 C 
BRANCH   2   3
ATOM      3  C   UNL     1      21.461  34.685  14.958  1.00  0.00     0.000 C 
BRANCH   3   4
ATOM      4  C   UNL     1      22.455  33.734  15.651  1.00  0.00     0.000 C 
BRANCH   4   5
ATOM      5  C   UNL     1      22.933  32.547  14.795  1.00  0.00     0.000 C 
BRANCH   5   6
ATOM      6  C   UNL     1      24.395  32.680  14.343  1.00  0.00     0.000 C 
BRANCH   6   7
ATOM      7  C   UNL     1      25.290  33.132  15.505  1.00  0.00     0.000 C 
BRANCH   7   8
ATOM      8  C   UNL     1      26.702  33.537  15.053  1.00  0.00     0.000 C 
BRANCH   8   9
ATOM      9  C   UNL     1      26.877  35.058  14.846  1.00  0.00     0.000 C 
BRANCH   9  10
ATOM     10  C   UNL     1      25.548  35.820  14.987  1.00  0.00     0.006 C 
BRANCH  10  11
ATOM     11  C   UNL     1      24.907  36.128  13.628  1.00  0.00     0.053 C 
BRANCH  11  12
ATOM     12  C   UNL     1      25.926  36.562  12.618  1.00  0.00     0.041 C 
ATOM     13  O   UNL     1      26.439  37.711  12.686  1.00  0.00    -0.550 OA
ATOM     14  O   UNL     1      26.285  35.708  11.583  1.00  0.00    -0.550 OA
ENDBRANCH  11  12
ENDBRANCH  10  11
ENDBRANCH   9  10
ENDBRANCH   8   9
ENDBRANCH   7   8
ENDBRANCH   6   7
ENDBRANCH   5   6
ENDBRANCH   4   5
ENDBRANCH   3   4
ENDBRANCH   2   3
ENDBRANCH   1   2
BRANCH   1  15
ATOM     15  C   UNL     1      20.204  34.070  11.253  1.00  0.00     0.000 C 
BRANCH  15  16
ATOM     16  C   UNL     1      18.665  34.075  11.187  1.00  0.00     0.000 C 
BRANCH  16  17
ATOM     17  C   UNL     1      18.111  33.080  10.158  1.00  0.00     0.000 C 
BRANCH  17  18
ATOM     18  C   UNL     1      16.973  32.244  10.758  1.00  0.00    -0.000 C 
BRANCH  18  19
ATOM     19  C   UNL     1      17.004  30.810  10.216  1.00  0.00    -0.000 C 
BRANCH  19  20
ATOM     20  C   UNL     1      15.937  29.939  10.897  1.00  0.00    -0.000 C 
BRANCH  20  21
ATOM     21  C   UNL     1      16.193  28.432  10.715  1.00  0.00    -0.000 C 
BRANCH  21  22
ATOM     22  C   UNL     1      15.987  27.575  11.981  1.00  0.00    -0.000 C 
BRANCH  22  23
ATOM     23  C   UNL     1      16.620  26.172  11.928  1.00  0.00    -0.000 C 
BRANCH  23  24
ATOM     24  C   UNL     1      16.433  25.388  13.238  1.00  0.00    -0.000 C 
BRANCH  24  25
ATOM     25  C   UNL     1      16.560  23.870  13.035  1.00  0.00    -0.003 C 
ATOM     26  C   UNL     1      16.991  23.498  11.615  1.00  0.00     0.004 C 
ENDBRANCH  24  25
ENDBRANCH  23  24
ENDBRANCH  22  23
ENDBRANCH  21  22
ENDBRANCH  20  21
ENDBRANCH  19  20
ENDBRANCH  18  19
ENDBRANCH  17  18
ENDBRANCH  16  17
ENDBRANCH  15  16
ENDBRANCH   1  15
TORSDOF 22
ENDMDL
