MODEL 1
REMARK VINA RESULT:    -4.289      0.000      0.000
REMARK INTER + INTRA:         -10.017
REMARK INTER:                  -8.051
REMARK INTRA:                  -1.966
REMARK UNBOUND:                -1.966
REMARK SMILES CCCCCCCCC=CCCCCCCCC(=O)[O-]
REMARK SMILES IDX 10 1 9 2 11 3 12 4 13 5 14 6 15 7 16 8 17 9 18 10 19 11
REMARK SMILES IDX 20 12 8 13 7 14 6 15 5 16 4 17 3 18 2 19 1 20
REMARK H PARENT
REMARK Flexibility Score: inf
ROOT
ATOM      1  C   UNL     1      -1.093   2.168   9.047  1.00  0.00    -0.031 C 
ATOM      2  C   UNL     1       0.155   2.674   9.046  1.00  0.00    -0.031 C 
ENDROOT
BRANCH   1   3
ATOM      3  C   UNL     1      -1.961   1.976   7.826  1.00  0.00     0.027 C 
BRANCH   3   4
ATOM      4  C   UNL     1      -2.322   0.504   7.564  1.00  0.00     0.004 C 
BRANCH   4   5
ATOM      5  C   UNL     1      -1.427  -0.477   8.339  1.00  0.00     0.000 C 
BRANCH   5   6
ATOM      6  C   UNL     1      -0.531  -1.271   7.377  1.00  0.00     0.000 C 
BRANCH   6   7
ATOM      7  C   UNL     1       0.668  -0.453   6.875  1.00  0.00     0.000 C 
BRANCH   7   8
ATOM      8  C   UNL     1       0.662  -0.270   5.347  1.00  0.00     0.006 C 
BRANCH   8   9
ATOM      9  C   UNL     1       1.293   1.062   4.921  1.00  0.00     0.053 C 
BRANCH   9  10
ATOM     10  C   UNL     1       0.296   1.965   4.261  1.00  0.00     0.041 C 
ATOM     11  O   UNL     1      -0.881   2.040   4.702  1.00  0.00    -0.550 OA
ATOM     12  O   UNL     1       0.656   2.693   3.135  1.00  0.00    -0.550 OA
ENDBRANCH   9  10
ENDBRANCH   8   9
ENDBRANCH   7   8
ENDBRANCH   6   7
ENDBRANCH   5   6
ENDBRANCH   4   5
ENDBRANCH   3   4
ENDBRANCH   1   3
BRANCH   2  13
ATOM     13  C   UNL     1       0.929   3.100   7.821  1.00  0.00     0.027 C 
BRANCH  13  14
ATOM     14  C   UNL     1       2.003   4.139   8.176  1.00  0.00     0.004 C 
BRANCH  14  15
ATOM     15  C   UNL     1       1.570   5.046   9.338  1.00  0.00     0.000 C 
BRANCH  15  16
ATOM     16  C   UNL     1       2.026   6.492   9.111  1.00  0.00     0.000 C 
BRANCH  16  17
ATOM     17  C   UNL     1       2.950   6.586   7.887  1.00  0.00    -0.000 C 
BRANCH  17  18
ATOM     18  C   UNL     1       4.251   7.346   8.184  1.00  0.00    -0.000 C 
BRANCH  18  19
ATOM     19  C   UNL     1       4.987   6.802   9.416  1.00  0.00    -0.003 C 
ATOM     20  C   UNL     1       5.391   5.344   9.216  1.00  0.00     0.004 C 
ENDBRANCH  18  19
ENDBRANCH  17  18
ENDBRANCH  16  17
ENDBRANCH  15  16
ENDBRANCH  14  15
ENDBRANCH  13  14
ENDBRANCH   2  13
TORSDOF 15
ENDMDL
MODEL 2
REMARK VINA RESULT:    -4.286     16.744     19.337
REMARK INTER + INTRA:         -10.011
REMARK INTER:                  -9.125
REMARK INTRA:                  -0.886
REMARK UNBOUND:                -1.966
REMARK SMILES CCCCCCCCC=CCCCCCCCC(=O)[O-]
REMARK SMILES IDX 10 1 9 2 11 3 12 4 13 5 14 6 15 7 16 8 17 9 18 10 19 11
REMARK SMILES IDX 20 12 8 13 7 14 6 15 5 16 4 17 3 18 2 19 1 20
REMARK H PARENT
REMARK Flexibility Score: inf
ROOT
ATOM      1  C   UNL     1      -6.407  -5.189  -9.379  1.00  0.00    -0.031 C 
ATOM      2  C   UNL     1      -6.217  -6.510  -9.201  1.00  0.00    -0.031 C 
ENDROOT
BRANCH   1   3
ATOM      3  C   UNL     1      -6.436  -4.152  -8.282  1.00  0.00     0.027 C 
BRANCH   3   4
ATOM      4  C   UNL     1      -6.780  -2.742  -8.789  1.00  0.00     0.004 C 
BRANCH   4   5
ATOM      5  C   UNL     1      -5.641  -2.106  -9.603  1.00  0.00     0.000 C 
BRANCH   5   6
ATOM      6  C   UNL     1      -5.076  -0.876  -8.880  1.00  0.00     0.000 C 
BRANCH   6   7
ATOM      7  C   UNL     1      -3.903  -0.233  -9.636  1.00  0.00     0.000 C 
BRANCH   7   8
ATOM      8  C   UNL     1      -4.173   1.234 -10.010  1.00  0.00     0.006 C 
BRANCH   8   9
ATOM      9  C   UNL     1      -2.881   2.057 -10.096  1.00  0.00     0.053 C 
BRANCH   9  10
ATOM     10  C   UNL     1      -3.064   3.440  -9.549  1.00  0.00     0.041 C 
ATOM     11  O   UNL     1      -3.947   4.199 -10.028  1.00  0.00    -0.550 OA
ATOM     12  O   UNL     1      -2.233   3.903  -8.537  1.00  0.00    -0.550 OA
ENDBRANCH   9  10
ENDBRANCH   8   9
ENDBRANCH   7   8
ENDBRANCH   6   7
ENDBRANCH   5   6
ENDBRANCH   4   5
ENDBRANCH   3   4
ENDBRANCH   1   3
BRANCH   2  13
ATOM     13  C   UNL     1      -5.955  -7.188  -7.877  1.00  0.00     0.027 C 
BRANCH  13  14
ATOM     14  C   UNL     1      -6.484  -8.630  -7.879  1.00  0.00     0.004 C 
BRANCH  14  15
ATOM     15  C   UNL     1      -7.301  -8.950  -6.618  1.00  0.00     0.000 C 
BRANCH  15  16
ATOM     16  C   UNL     1      -8.169  -7.756  -6.203  1.00  0.00     0.000 C 
BRANCH  16  17
ATOM     17  C   UNL     1      -8.425  -7.771  -4.688  1.00  0.00    -0.000 C 
BRANCH  17  18
ATOM     18  C   UNL     1      -7.217  -7.278  -3.878  1.00  0.00    -0.000 C 
BRANCH  18  19
ATOM     19  C   UNL     1      -6.667  -8.349  -2.925  1.00  0.00    -0.003 C 
ATOM     20  C   UNL     1      -7.796  -9.043  -2.168  1.00  0.00     0.004 C 
ENDBRANCH  18  19
ENDBRANCH  17  18
ENDBRANCH  16  17
ENDBRANCH  15  16
ENDBRANCH  14  15
ENDBRANCH  13  14
ENDBRANCH   2  13
TORSDOF 15
ENDMDL
MODEL 3
REMARK VINA RESULT:    -4.284      2.350      3.758
REMARK INTER + INTRA:         -10.006
REMARK INTER:                  -8.371
REMARK INTRA:                  -1.635
REMARK UNBOUND:                -1.966
REMARK SMILES CCCCCCCCC=CCCCCCCCC(=O)[O-]
REMARK SMILES IDX 10 1 9 2 11 3 12 4 13 5 14 6 15 7 16 8 17 9 18 10 19 11
REMARK SMILES IDX 20 12 8 13 7 14 6 15 5 16 4 17 3 18 2 19 1 20
REMARK H PARENT
REMARK Flexibility Score: inf
ROOT
ATOM      1  C   UNL     1       1.017   1.780   5.373  1.00  0.00    -0.031 C 
ATOM      2  C   UNL     1       1.382   2.594   6.381  1.00  0.00    -0.031 C 
ENDROOT
BRANCH   1   3
ATOM      3  C   UNL     1       0.015   0.655   5.474  1.00  0.00     0.027 C 
BRANCH   3   4
ATOM      4  C   UNL     1      -1.376   1.031   4.937  1.00  0.00     0.004 C 
BRANCH   4   5
ATOM      5  C   UNL     1      -2.462   1.007   6.025  1.00  0.00     0.000 C 
BRANCH   5   6
ATOM      6  C   UNL     1      -2.148  -0.060   7.083  1.00  0.00     0.000 C 
BRANCH   6   7
ATOM      7  C   UNL     1      -2.208   0.493   8.515  1.00  0.00     0.000 C 
BRANCH   7   8
ATOM      8  C   UNL     1      -1.451  -0.390   9.523  1.00  0.00     0.006 C 
BRANCH   8   9
ATOM      9  C   UNL     1      -1.034  -1.735   8.914  1.00  0.00     0.053 C 
BRANCH   9  10
ATOM     10  C   UNL     1       0.455  -1.899   8.894  1.00  0.00     0.041 C 
ATOM     11  O   UNL     1       1.177  -1.060   8.294  1.00  0.00    -0.550 OA
ATOM     12  O   UNL     1       1.042  -3.000   9.506  1.00  0.00    -0.550 OA
ENDBRANCH   9  10
ENDBRANCH   8   9
ENDBRANCH   7   8
ENDBRANCH   6   7
ENDBRANCH   5   6
ENDBRANCH   4   5
ENDBRANCH   3   4
ENDBRANCH   1   3
BRANCH   2  13
ATOM     13  C   UNL     1       0.824   2.557   7.784  1.00  0.00     0.027 C 
BRANCH  13  14
ATOM     14  C   UNL     1       1.340   3.740   8.617  1.00  0.00     0.004 C 
BRANCH  14  15
ATOM     15  C   UNL     1       2.437   4.529   7.887  1.00  0.00     0.000 C 
BRANCH  15  16
ATOM     16  C   UNL     1       2.849   5.773   8.683  1.00  0.00     0.000 C 
BRANCH  16  17
ATOM     17  C   UNL     1       3.880   5.411   9.762  1.00  0.00    -0.000 C 
BRANCH  17  18
ATOM     18  C   UNL     1       5.327   5.646   9.302  1.00  0.00    -0.000 C 
BRANCH  18  19
ATOM     19  C   UNL     1       5.594   7.107   8.914  1.00  0.00    -0.003 C 
ATOM     20  C   UNL     1       6.492   7.193   7.682  1.00  0.00     0.004 C 
ENDBRANCH  18  19
ENDBRANCH  17  18
ENDBRANCH  16  17
ENDBRANCH  15  16
ENDBRANCH  14  15
ENDBRANCH  13  14
ENDBRANCH   2  13
TORSDOF 15
ENDMDL
MODEL 4
REMARK VINA RESULT:    -4.151      1.117      1.877
REMARK INTER + INTRA:          -9.757
REMARK INTER:                  -7.909
REMARK INTRA:                  -1.848
REMARK UNBOUND:                -1.966
REMARK SMILES CCCCCCCCC=CCCCCCCCC(=O)[O-]
REMARK SMILES IDX 10 1 9 2 11 3 12 4 13 5 14 6 15 7 16 8 17 9 18 10 19 11
REMARK SMILES IDX 20 12 8 13 7 14 6 15 5 16 4 17 3 18 2 19 1 20
REMARK H PARENT
REMARK Flexibility Score: inf
ROOT
ATOM      1  C   UNL     1      -2.372   1.743   8.900  1.00  0.00    -0.031 C 
ATOM      2  C   UNL     1      -1.363   2.633   8.837  1.00  0.00    -0.031 C 
ENDROOT
BRANCH   1   3
ATOM      3  C   UNL     1      -2.565   0.714   9.988  1.00  0.00     0.027 C 
BRANCH   3   4
ATOM      4  C   UNL     1      -2.445  -0.733   9.482  1.00  0.00     0.004 C 
BRANCH   4   5
ATOM      5  C   UNL     1      -1.020  -1.091   9.030  1.00  0.00     0.000 C 
BRANCH   5   6
ATOM      6  C   UNL     1      -1.000  -1.469   7.542  1.00  0.00     0.000 C 
BRANCH   6   7
ATOM      7  C   UNL     1       0.317  -1.083   6.852  1.00  0.00     0.000 C 
BRANCH   7   8
ATOM      8  C   UNL     1       0.541   0.439   6.814  1.00  0.00     0.006 C 
BRANCH   8   9
ATOM      9  C   UNL     1       0.914   0.934   5.410  1.00  0.00     0.053 C 
BRANCH   9  10
ATOM     10  C   UNL     1      -0.146   1.818   4.831  1.00  0.00     0.041 C 
ATOM     11  O   UNL     1      -1.294   1.854   5.348  1.00  0.00    -0.550 OA
ATOM     12  O   UNL     1       0.121   2.575   3.697  1.00  0.00    -0.550 OA
ENDBRANCH   9  10
ENDBRANCH   8   9
ENDBRANCH   7   8
ENDBRANCH   6   7
ENDBRANCH   5   6
ENDBRANCH   4   5
ENDBRANCH   3   4
ENDBRANCH   1   3
BRANCH   2  13
ATOM     13  C   UNL     1      -0.269   2.793   9.865  1.00  0.00     0.027 C 
BRANCH  13  14
ATOM     14  C   UNL     1       0.746   3.863   9.432  1.00  0.00     0.004 C 
BRANCH  14  15
ATOM     15  C   UNL     1       1.347   3.567   8.050  1.00  0.00     0.000 C 
BRANCH  15  16
ATOM     16  C   UNL     1       2.554   4.468   7.765  1.00  0.00     0.000 C 
BRANCH  16  17
ATOM     17  C   UNL     1       2.964   5.242   9.027  1.00  0.00    -0.000 C 
BRANCH  17  18
ATOM     18  C   UNL     1       3.969   6.366   8.733  1.00  0.00    -0.000 C 
BRANCH  18  19
ATOM     19  C   UNL     1       3.644   7.125   7.439  1.00  0.00    -0.003 C 
ATOM     20  C   UNL     1       2.523   8.137   7.661  1.00  0.00     0.004 C 
ENDBRANCH  18  19
ENDBRANCH  17  18
ENDBRANCH  16  17
ENDBRANCH  15  16
ENDBRANCH  14  15
ENDBRANCH  13  14
ENDBRANCH   2  13
TORSDOF 15
ENDMDL
MODEL 5
REMARK VINA RESULT:    -4.106      2.865      4.039
REMARK INTER + INTRA:          -9.673
REMARK INTER:                  -7.879
REMARK INTRA:                  -1.794
REMARK UNBOUND:                -1.966
REMARK SMILES CCCCCCCCC=CCCCCCCCC(=O)[O-]
REMARK SMILES IDX 10 1 9 2 11 3 12 4 13 5 14 6 15 7 16 8 17 9 18 10 19 11
REMARK SMILES IDX 20 12 8 13 7 14 6 15 5 16 4 17 3 18 2 19 1 20
REMARK H PARENT
REMARK Flexibility Score: inf
ROOT
ATOM      1  C   UNL     1      -2.132   1.101   8.469  1.00  0.00    -0.031 C 
ATOM      2  C   UNL     1      -1.409   1.592   9.493  1.00  0.00    -0.031 C 
ENDROOT
BRANCH   1   3
ATOM      3  C   UNL     1      -2.371   1.800   7.152  1.00  0.00     0.027 C 
BRANCH   3   4
ATOM      4  C   UNL     1      -1.954   0.959   5.934  1.00  0.00     0.004 C 
BRANCH   4   5
ATOM      5  C   UNL     1      -0.657   1.460   5.278  1.00  0.00     0.000 C 
BRANCH   5   6
ATOM      6  C   UNL     1       0.539   0.599   5.709  1.00  0.00     0.000 C 
BRANCH   6   7
ATOM      7  C   UNL     1       0.110  -0.694   6.420  1.00  0.00     0.000 C 
BRANCH   7   8
ATOM      8  C   UNL     1       0.849  -0.910   7.752  1.00  0.00     0.006 C 
BRANCH   8   9
ATOM      9  C   UNL     1       0.066  -1.820   8.707  1.00  0.00     0.053 C 
BRANCH   9  10
ATOM     10  C   UNL     1       0.977  -2.682   9.527  1.00  0.00     0.041 C 
ATOM     11  O   UNL     1       2.104  -2.252   9.885  1.00  0.00    -0.550 OA
ATOM     12  O   UNL     1       0.596  -3.975   9.862  1.00  0.00    -0.550 OA
ENDBRANCH   9  10
ENDBRANCH   8   9
ENDBRANCH   7   8
ENDBRANCH   6   7
ENDBRANCH   5   6
ENDBRANCH   4   5
ENDBRANCH   3   4
ENDBRANCH   1   3
BRANCH   2  13
ATOM     13  C   UNL     1      -0.670   2.909   9.494  1.00  0.00     0.027 C 
BRANCH  13  14
ATOM     14  C   UNL     1       0.604   2.831   8.640  1.00  0.00     0.004 C 
BRANCH  14  15
ATOM     15  C   UNL     1       1.499   4.067   8.819  1.00  0.00     0.000 C 
BRANCH  15  16
ATOM     16  C   UNL     1       2.332   4.334   7.560  1.00  0.00     0.000 C 
BRANCH  16  17
ATOM     17  C   UNL     1       3.031   5.700   7.651  1.00  0.00    -0.000 C 
BRANCH  17  18
ATOM     18  C   UNL     1       2.099   6.810   8.160  1.00  0.00    -0.000 C 
BRANCH  18  19
ATOM     19  C   UNL     1       2.418   8.179   7.544  1.00  0.00    -0.003 C 
ATOM     20  C   UNL     1       1.145   8.986   7.309  1.00  0.00     0.004 C 
ENDBRANCH  18  19
ENDBRANCH  17  18
ENDBRANCH  16  17
ENDBRANCH  15  16
ENDBRANCH  14  15
ENDBRANCH  13  14
ENDBRANCH   2  13
TORSDOF 15
ENDMDL
MODEL 6
REMARK VINA RESULT:    -4.098      3.043      7.697
REMARK INTER + INTRA:          -9.659
REMARK INTER:                  -8.464
REMARK INTRA:                  -1.194
REMARK UNBOUND:                -1.966
REMARK SMILES CCCCCCCCC=CCCCCCCCC(=O)[O-]
REMARK SMILES IDX 10 1 9 2 11 3 12 4 13 5 14 6 15 7 16 8 17 9 18 10 19 11
REMARK SMILES IDX 20 12 8 13 7 14 6 15 5 16 4 17 3 18 2 19 1 20
REMARK H PARENT
REMARK Flexibility Score: inf
ROOT
ATOM      1  C   UNL     1       2.014   3.932   7.488  1.00  0.00    -0.031 C 
ATOM      2  C   UNL     1       1.124   2.959   7.760  1.00  0.00    -0.031 C 
ENDROOT
BRANCH   1   3
ATOM      3  C   UNL     1       2.236   5.173   8.319  1.00  0.00     0.027 C 
BRANCH   3   4
ATOM      4  C   UNL     1       3.597   5.841   8.061  1.00  0.00     0.004 C 
BRANCH   4   5
ATOM      5  C   UNL     1       4.711   5.293   8.968  1.00  0.00     0.000 C 
BRANCH   5   6
ATOM      6  C   UNL     1       5.699   6.406   9.349  1.00  0.00     0.000 C 
BRANCH   6   7
ATOM      7  C   UNL     1       5.692   7.570   8.346  1.00  0.00     0.000 C 
BRANCH   7   8
ATOM      8  C   UNL     1       6.870   7.508   7.358  1.00  0.00     0.006 C 
BRANCH   8   9
ATOM      9  C   UNL     1       6.864   8.687   6.376  1.00  0.00     0.053 C 
BRANCH   9  10
ATOM     10  C   UNL     1       6.782   8.226   4.954  1.00  0.00     0.041 C 
ATOM     11  O   UNL     1       5.699   7.777   4.494  1.00  0.00    -0.550 OA
ATOM     12  O   UNL     1       7.911   8.255   4.146  1.00  0.00    -0.550 OA
ENDBRANCH   9  10
ENDBRANCH   8   9
ENDBRANCH   7   8
ENDBRANCH   6   7
ENDBRANCH   5   6
ENDBRANCH   4   5
ENDBRANCH   3   4
ENDBRANCH   1   3
BRANCH   2  13
ATOM     13  C   UNL     1       0.219   2.910   8.968  1.00  0.00     0.027 C 
BRANCH  13  14
ATOM     14  C   UNL     1      -1.061   2.114   8.669  1.00  0.00     0.004 C 
BRANCH  14  15
ATOM     15  C   UNL     1      -1.273   1.899   7.163  1.00  0.00     0.000 C 
BRANCH  15  16
ATOM     16  C   UNL     1      -1.840   0.504   6.876  1.00  0.00     0.000 C 
BRANCH  16  17
ATOM     17  C   UNL     1      -0.720  -0.547   6.863  1.00  0.00    -0.000 C 
BRANCH  17  18
ATOM     18  C   UNL     1       0.597  -0.001   6.292  1.00  0.00    -0.000 C 
BRANCH  18  19
ATOM     19  C   UNL     1       0.566   0.141   4.763  1.00  0.00    -0.003 C 
ATOM     20  C   UNL     1       1.000   1.540   4.332  1.00  0.00     0.004 C 
ENDBRANCH  18  19
ENDBRANCH  17  18
ENDBRANCH  16  17
ENDBRANCH  15  16
ENDBRANCH  14  15
ENDBRANCH  13  14
ENDBRANCH   2  13
TORSDOF 15
ENDMDL
MODEL 7
REMARK VINA RESULT:    -4.076      2.889      7.457
REMARK INTER + INTRA:          -9.617
REMARK INTER:                  -7.925
REMARK INTRA:                  -1.693
REMARK UNBOUND:                -1.966
REMARK SMILES CCCCCCCCC=CCCCCCCCC(=O)[O-]
REMARK SMILES IDX 10 1 9 2 11 3 12 4 13 5 14 6 15 7 16 8 17 9 18 10 19 11
REMARK SMILES IDX 20 12 8 13 7 14 6 15 5 16 4 17 3 18 2 19 1 20
REMARK H PARENT
REMARK Flexibility Score: inf
ROOT
ATOM      1  C   UNL     1      -0.944   1.450   5.249  1.00  0.00    -0.031 C 
ATOM      2  C   UNL     1      -2.070   0.923   5.766  1.00  0.00    -0.031 C 
ENDROOT
BRANCH   1   3
ATOM      3  C   UNL     1       0.462   1.098   5.671  1.00  0.00     0.027 C 
BRANCH   3   4
ATOM      4  C   UNL     1       1.195   2.257   6.368  1.00  0.00     0.004 C 
BRANCH   4   5
ATOM      5  C   UNL     1       0.701   2.496   7.804  1.00  0.00     0.000 C 
BRANCH   5   6
ATOM      6  C   UNL     1       1.387   3.726   8.417  1.00  0.00     0.000 C 
BRANCH   6   7
ATOM      7  C   UNL     1       2.439   4.342   7.482  1.00  0.00     0.000 C 
BRANCH   7   8
ATOM      8  C   UNL     1       3.470   5.200   8.236  1.00  0.00     0.006 C 
BRANCH   8   9
ATOM      9  C   UNL     1       3.412   6.675   7.818  1.00  0.00     0.053 C 
BRANCH   9  10
ATOM     10  C   UNL     1       2.078   7.287   8.117  1.00  0.00     0.041 C 
ATOM     11  O   UNL     1       1.421   7.852   7.204  1.00  0.00    -0.550 OA
ATOM     12  O   UNL     1       1.577   7.266   9.413  1.00  0.00    -0.550 OA
ENDBRANCH   9  10
ENDBRANCH   8   9
ENDBRANCH   7   8
ENDBRANCH   6   7
ENDBRANCH   5   6
ENDBRANCH   4   5
ENDBRANCH   3   4
ENDBRANCH   1   3
BRANCH   2  13
ATOM     13  C   UNL     1      -2.130  -0.147   6.830  1.00  0.00     0.027 C 
BRANCH  13  14
ATOM     14  C   UNL     1      -2.153   0.470   8.237  1.00  0.00     0.004 C 
BRANCH  14  15
ATOM     15  C   UNL     1      -1.209  -0.258   9.205  1.00  0.00     0.000 C 
BRANCH  15  16
ATOM     16  C   UNL     1      -0.480  -1.411   8.507  1.00  0.00     0.000 C 
BRANCH  16  17
ATOM     17  C   UNL     1      -0.124  -2.517   9.512  1.00  0.00    -0.000 C 
BRANCH  17  18
ATOM     18  C   UNL     1      -1.326  -3.408   9.862  1.00  0.00    -0.000 C 
BRANCH  18  19
ATOM     19  C   UNL     1      -2.320  -3.544   8.701  1.00  0.00    -0.003 C 
ATOM     20  C   UNL     1      -3.471  -4.477   9.068  1.00  0.00     0.004 C 
ENDBRANCH  18  19
ENDBRANCH  17  18
ENDBRANCH  16  17
ENDBRANCH  15  16
ENDBRANCH  14  15
ENDBRANCH  13  14
ENDBRANCH   2  13
TORSDOF 15
ENDMDL
MODEL 8
REMARK VINA RESULT:    -4.050      2.200      3.698
REMARK INTER + INTRA:          -9.568
REMARK INTER:                  -8.328
REMARK INTRA:                  -1.240
REMARK UNBOUND:                -1.966
REMARK SMILES CCCCCCCCC=CCCCCCCCC(=O)[O-]
REMARK SMILES IDX 10 1 9 2 11 3 12 4 13 5 14 6 15 7 16 8 17 9 18 10 19 11
REMARK SMILES IDX 20 12 8 13 7 14 6 15 5 16 4 17 3 18 2 19 1 20
REMARK H PARENT
REMARK Flexibility Score: inf
ROOT
ATOM      1  C   UNL     1       1.602   3.078   6.908  1.00  0.00    -0.031 C 
ATOM      2  C   UNL     1       2.175   4.098   7.575  1.00  0.00    -0.031 C 
ENDROOT
BRANCH   1   3
ATOM      3  C   UNL     1       0.425   2.266   7.393  1.00  0.00     0.027 C 
BRANCH   3   4
ATOM      4  C   UNL     1      -0.557   1.891   6.271  1.00  0.00     0.004 C 
BRANCH   4   5
ATOM      5  C   UNL     1      -1.948   1.507   6.801  1.00  0.00     0.000 C 
BRANCH   5   6
ATOM      6  C   UNL     1      -2.012   1.662   8.327  1.00  0.00     0.000 C 
BRANCH   6   7
ATOM      7  C   UNL     1      -2.255   0.326   9.047  1.00  0.00     0.000 C 
BRANCH   7   8
ATOM      8  C   UNL     1      -2.175  -0.881   8.096  1.00  0.00     0.006 C 
BRANCH   8   9
ATOM      9  C   UNL     1      -1.110  -1.894   8.536  1.00  0.00     0.053 C 
BRANCH   9  10
ATOM     10  C   UNL     1       0.252  -1.521   8.036  1.00  0.00     0.041 C 
ATOM     11  O   UNL     1       1.221  -1.439   8.837  1.00  0.00    -0.550 OA
ATOM     12  O   UNL     1       0.444  -1.226   6.692  1.00  0.00    -0.550 OA
ENDBRANCH   9  10
ENDBRANCH   8   9
ENDBRANCH   7   8
ENDBRANCH   6   7
ENDBRANCH   5   6
ENDBRANCH   4   5
ENDBRANCH   3   4
ENDBRANCH   1   3
BRANCH   2  13
ATOM     13  C   UNL     1       1.718   4.643   8.907  1.00  0.00     0.027 C 
BRANCH  13  14
ATOM     14  C   UNL     1       2.892   5.249   9.690  1.00  0.00     0.004 C 
BRANCH  14  15
ATOM     15  C   UNL     1       4.176   5.318   8.851  1.00  0.00     0.000 C 
BRANCH  15  16
ATOM     16  C   UNL     1       4.716   6.750   8.778  1.00  0.00     0.000 C 
BRANCH  16  17
ATOM     17  C   UNL     1       6.149   6.764   8.224  1.00  0.00    -0.000 C 
BRANCH  17  18
ATOM     18  C   UNL     1       6.546   8.129   7.642  1.00  0.00    -0.000 C 
BRANCH  18  19
ATOM     19  C   UNL     1       6.577   8.132   6.107  1.00  0.00    -0.003 C 
ATOM     20  C   UNL     1       5.165   8.117   5.528  1.00  0.00     0.004 C 
ENDBRANCH  18  19
ENDBRANCH  17  18
ENDBRANCH  16  17
ENDBRANCH  15  16
ENDBRANCH  14  15
ENDBRANCH  13  14
ENDBRANCH   2  13
TORSDOF 15
ENDMDL
MODEL 9
REMARK VINA RESULT:    -3.974      2.776      7.057
REMARK INTER + INTRA:          -9.425
REMARK INTER:                  -7.698
REMARK INTRA:                  -1.728
REMARK UNBOUND:                -1.966
REMARK SMILES CCCCCCCCC=CCCCCCCCC(=O)[O-]
REMARK SMILES IDX 10 1 9 2 11 3 12 4 13 5 14 6 15 7 16 8 17 9 18 10 19 11
REMARK SMILES IDX 20 12 8 13 7 14 6 15 5 16 4 17 3 18 2 19 1 20
REMARK H PARENT
REMARK Flexibility Score: inf
ROOT
ATOM      1  C   UNL     1      -1.660   2.606   9.121  1.00  0.00    -0.031 C 
ATOM      2  C   UNL     1      -2.406   1.501   9.315  1.00  0.00    -0.031 C 
ENDROOT
BRANCH   1   3
ATOM      3  C   UNL     1      -0.153   2.668   9.190  1.00  0.00     0.027 C 
BRANCH   3   4
ATOM      4  C   UNL     1       0.368   3.842  10.036  1.00  0.00     0.004 C 
BRANCH   4   5
ATOM      5  C   UNL     1       1.617   4.505   9.433  1.00  0.00     0.000 C 
BRANCH   5   6
ATOM      6  C   UNL     1       1.465   6.033   9.412  1.00  0.00     0.000 C 
BRANCH   6   7
ATOM      7  C   UNL     1       2.808   6.757   9.231  1.00  0.00     0.000 C 
BRANCH   7   8
ATOM      8  C   UNL     1       3.287   6.759   7.769  1.00  0.00     0.006 C 
BRANCH   8   9
ATOM      9  C   UNL     1       4.022   8.056   7.403  1.00  0.00     0.053 C 
BRANCH   9  10
ATOM     10  C   UNL     1       5.198   7.796   6.513  1.00  0.00     0.041 C 
ATOM     11  O   UNL     1       5.067   7.839   5.261  1.00  0.00    -0.550 OA
ATOM     12  O   UNL     1       6.430   7.469   7.064  1.00  0.00    -0.550 OA
ENDBRANCH   9  10
ENDBRANCH   8   9
ENDBRANCH   7   8
ENDBRANCH   6   7
ENDBRANCH   5   6
ENDBRANCH   4   5
ENDBRANCH   3   4
ENDBRANCH   1   3
BRANCH   2  13
ATOM     13  C   UNL     1      -1.869   0.117   9.591  1.00  0.00     0.027 C 
BRANCH  13  14
ATOM     14  C   UNL     1      -2.376  -0.893   8.551  1.00  0.00     0.004 C 
BRANCH  14  15
ATOM     15  C   UNL     1      -1.244  -1.765   7.989  1.00  0.00     0.000 C 
BRANCH  15  16
ATOM     16  C   UNL     1       0.057  -0.966   7.852  1.00  0.00     0.000 C 
BRANCH  16  17
ATOM     17  C   UNL     1       0.302  -0.573   6.387  1.00  0.00    -0.000 C 
BRANCH  17  18
ATOM     18  C   UNL     1       0.337   0.949   6.180  1.00  0.00    -0.000 C 
BRANCH  18  19
ATOM     19  C   UNL     1      -0.687   1.428   5.142  1.00  0.00    -0.003 C 
ATOM     20  C   UNL     1      -2.108   1.064   5.563  1.00  0.00     0.004 C 
ENDBRANCH  18  19
ENDBRANCH  17  18
ENDBRANCH  16  17
ENDBRANCH  15  16
ENDBRANCH  14  15
ENDBRANCH  13  14
ENDBRANCH   2  13
TORSDOF 15
ENDMDL
