MODEL 1
REMARK VINA RESULT:    -6.225      0.000      0.000
REMARK INTER + INTRA:          -7.901
REMARK INTER:                  -7.498
REMARK INTRA:                  -0.403
REMARK UNBOUND:                -0.403
REMARK SMILES O=c1c(O)c(-c2ccc(O)cc2O)oc2cc(O)cc(O)c12
REMARK SMILES IDX 5 1 3 2 2 3 1 4 22 5 20 6 19 7 17 8 16 9 15 10 14 11 6 12
REMARK SMILES IDX 8 13 7 14 9 15 11 16 12 17 10 18 13 20 4 22 21 24 18 26
REMARK H PARENT 10 19 13 21 4 23 21 25 18 27
REMARK Flexibility Score: inf
ROOT
ATOM      1  C   UNL     1      69.489  48.681   8.627  1.00  0.00     0.184 A 
ATOM      2  C   UNL     1      68.789  49.821   9.057  1.00  0.00     0.208 A 
ATOM      3  C   UNL     1      67.394  49.750   9.200  1.00  0.00     0.238 A 
ATOM      4  O   UNL     1      66.780  50.757   9.639  1.00  0.00    -0.285 OA
ATOM      5  C   UNL     1      66.714  48.547   8.890  1.00  0.00     0.111 A 
ATOM      6  C   UNL     1      65.299  48.375   8.960  1.00  0.00     0.134 A 
ATOM      7  C   UNL     1      64.747  47.104   8.754  1.00  0.00     0.093 A 
ATOM      8  C   UNL     1      65.555  46.014   8.418  1.00  0.00     0.123 A 
ATOM      9  C   UNL     1      66.930  46.186   8.290  1.00  0.00     0.094 A 
ATOM     10  C   UNL     1      67.515  47.432   8.524  1.00  0.00     0.146 A 
ATOM     11  O   UNL     1      68.831  47.550   8.402  1.00  0.00    -0.451 OA
ENDROOT
BRANCH   1  12
ATOM     12  C   UNL     1      70.958  48.693   8.432  1.00  0.00     0.063 A 
ATOM     13  C   UNL     1      73.206  48.865   9.349  1.00  0.00     0.047 A 
ATOM     14  C   UNL     1      71.822  48.826   9.534  1.00  0.00     0.020 A 
ATOM     15  C   UNL     1      73.746  48.782   8.061  1.00  0.00     0.119 A 
ATOM     16  C   UNL     1      72.896  48.664   6.958  1.00  0.00     0.093 A 
ATOM     17  C   UNL     1      71.504  48.622   7.134  1.00  0.00     0.130 A 
BRANCH  15  18
ATOM     18  O   UNL     1      75.125  48.820   7.865  1.00  0.00    -0.508 OA
ATOM     19  H   UNL     1      75.665  47.973   7.741  1.00  0.00     0.293 HD
ENDBRANCH  15  18
BRANCH  17  20
ATOM     20  O   UNL     1      70.668  48.497   6.024  1.00  0.00    -0.507 OA
ATOM     21  H   UNL     1      71.038  48.439   5.083  1.00  0.00     0.293 HD
ENDBRANCH  17  20
ENDBRANCH   1  12
BRANCH   2  22
ATOM     22  O   UNL     1      69.484  50.993   9.369  1.00  0.00    -0.502 OA
ATOM     23  H   UNL     1      70.494  51.054   9.325  1.00  0.00     0.293 HD
ENDBRANCH   2  22
BRANCH   6  24
ATOM     24  O   UNL     1      64.397  49.415   9.198  1.00  0.00    -0.507 OA
ATOM     25  H   UNL     1      63.418  49.291   9.409  1.00  0.00     0.293 HD
ENDBRANCH   6  24
BRANCH   8  26
ATOM     26  O   UNL     1      64.995  44.757   8.199  1.00  0.00    -0.508 OA
ATOM     27  H   UNL     1      64.633  44.488   7.293  1.00  0.00     0.293 HD
ENDBRANCH   8  26
TORSDOF 6
ENDMDL
MODEL 2
REMARK VINA RESULT:    -6.155      1.995      6.962
REMARK INTER + INTRA:          -7.817
REMARK INTER:                  -7.416
REMARK INTRA:                  -0.401
REMARK UNBOUND:                -0.403
REMARK SMILES O=c1c(O)c(-c2ccc(O)cc2O)oc2cc(O)cc(O)c12
REMARK SMILES IDX 5 1 3 2 2 3 1 4 22 5 20 6 19 7 17 8 16 9 15 10 14 11 6 12
REMARK SMILES IDX 8 13 7 14 9 15 11 16 12 17 10 18 13 20 4 22 21 24 18 26
REMARK H PARENT 10 19 13 21 4 23 21 25 18 27
REMARK Flexibility Score: inf
ROOT
ATOM      1  C   UNL     1      65.576  47.580   8.953  1.00  0.00     0.184 A 
ATOM      2  C   UNL     1      65.545  48.880   9.484  1.00  0.00     0.208 A 
ATOM      3  C   UNL     1      66.698  49.677   9.403  1.00  0.00     0.238 A 
ATOM      4  O   UNL     1      66.646  50.860   9.830  1.00  0.00    -0.285 OA
ATOM      5  C   UNL     1      67.874  49.157   8.810  1.00  0.00     0.111 A 
ATOM      6  C   UNL     1      69.112  49.860   8.710  1.00  0.00     0.134 A 
ATOM      7  C   UNL     1      70.171  49.295   7.990  1.00  0.00     0.093 A 
ATOM      8  C   UNL     1      70.059  48.023   7.422  1.00  0.00     0.123 A 
ATOM      9  C   UNL     1      68.875  47.305   7.565  1.00  0.00     0.094 A 
ATOM     10  C   UNL     1      67.788  47.856   8.246  1.00  0.00     0.146 A 
ATOM     11  O   UNL     1      66.674  47.142   8.350  1.00  0.00    -0.451 OA
ENDROOT
BRANCH   1  12
ATOM     12  C   UNL     1      64.403  46.677   9.026  1.00  0.00     0.063 A 
ATOM     13  C   UNL     1      63.198  44.871  10.125  1.00  0.00     0.047 A 
ATOM     14  C   UNL     1      64.289  45.741  10.070  1.00  0.00     0.020 A 
ATOM     15  C   UNL     1      62.211  44.915   9.133  1.00  0.00     0.119 A 
ATOM     16  C   UNL     1      62.323  45.832   8.084  1.00  0.00     0.093 A 
ATOM     17  C   UNL     1      63.415  46.712   8.021  1.00  0.00     0.130 A 
BRANCH  15  18
ATOM     18  O   UNL     1      61.119  44.052   9.178  1.00  0.00    -0.508 OA
ATOM     19  H   UNL     1      61.094  43.263   9.813  1.00  0.00     0.293 HD
ENDBRANCH  15  18
BRANCH  17  20
ATOM     20  O   UNL     1      63.509  47.626   6.972  1.00  0.00    -0.507 OA
ATOM     21  H   UNL     1      63.416  48.623   7.124  1.00  0.00     0.293 HD
ENDBRANCH  17  20
ENDBRANCH   1  12
BRANCH   2  22
ATOM     22  O   UNL     1      64.368  49.377  10.052  1.00  0.00    -0.502 OA
ATOM     23  H   UNL     1      64.235  49.444  11.054  1.00  0.00     0.293 HD
ENDBRANCH   2  22
BRANCH   6  24
ATOM     24  O   UNL     1      69.359  51.095   9.318  1.00  0.00    -0.507 OA
ATOM     25  H   UNL     1      69.220  51.292  10.298  1.00  0.00     0.293 HD
ENDBRANCH   6  24
BRANCH   8  26
ATOM     26  O   UNL     1      71.124  47.463   6.721  1.00  0.00    -0.508 OA
ATOM     27  H   UNL     1      71.856  48.037   6.321  1.00  0.00     0.293 HD
ENDBRANCH   8  26
TORSDOF 6
ENDMDL
MODEL 3
REMARK VINA RESULT:    -6.118      2.356      7.520
REMARK INTER + INTRA:          -7.773
REMARK INTER:                  -7.373
REMARK INTRA:                  -0.399
REMARK UNBOUND:                -0.403
REMARK SMILES O=c1c(O)c(-c2ccc(O)cc2O)oc2cc(O)cc(O)c12
REMARK SMILES IDX 5 1 3 2 2 3 1 4 22 5 20 6 19 7 17 8 16 9 15 10 14 11 6 12
REMARK SMILES IDX 8 13 7 14 9 15 11 16 12 17 10 18 13 20 4 22 21 24 18 26
REMARK H PARENT 10 19 13 21 4 23 21 25 18 27
REMARK Flexibility Score: inf
ROOT
ATOM      1  C   UNL     1      65.564  46.894   8.884  1.00  0.00     0.184 A 
ATOM      2  C   UNL     1      66.706  46.177   8.488  1.00  0.00     0.208 A 
ATOM      3  C   UNL     1      67.928  46.857   8.367  1.00  0.00     0.238 A 
ATOM      4  O   UNL     1      68.958  46.198   8.067  1.00  0.00    -0.285 OA
ATOM      5  C   UNL     1      67.990  48.248   8.622  1.00  0.00     0.111 A 
ATOM      6  C   UNL     1      69.166  49.046   8.491  1.00  0.00     0.134 A 
ATOM      7  C   UNL     1      69.139  50.387   8.894  1.00  0.00     0.093 A 
ATOM      8  C   UNL     1      67.961  50.976   9.361  1.00  0.00     0.123 A 
ATOM      9  C   UNL     1      66.794  50.221   9.437  1.00  0.00     0.094 A 
ATOM     10  C   UNL     1      66.797  48.871   9.077  1.00  0.00     0.146 A 
ATOM     11  O   UNL     1      65.665  48.185   9.175  1.00  0.00    -0.451 OA
ENDROOT
BRANCH   1  12
ATOM     12  C   UNL     1      64.238  46.244   9.008  1.00  0.00     0.063 A 
ATOM     13  C   UNL     1      62.764  44.654  10.114  1.00  0.00     0.047 A 
ATOM     14  C   UNL     1      64.005  45.287  10.013  1.00  0.00     0.020 A 
ATOM     15  C   UNL     1      61.742  44.960   9.209  1.00  0.00     0.119 A 
ATOM     16  C   UNL     1      61.968  45.900   8.199  1.00  0.00     0.093 A 
ATOM     17  C   UNL     1      63.211  46.542   8.090  1.00  0.00     0.130 A 
BRANCH  15  18
ATOM     18  O   UNL     1      60.500  44.334   9.301  1.00  0.00    -0.508 OA
ATOM     19  H   UNL     1      60.301  43.478   8.799  1.00  0.00     0.293 HD
ENDBRANCH  15  18
BRANCH  17  20
ATOM     20  O   UNL     1      63.419  47.483   7.081  1.00  0.00    -0.507 OA
ATOM     21  H   UNL     1      63.349  48.478   7.258  1.00  0.00     0.293 HD
ENDBRANCH  17  20
ENDBRANCH   1  12
BRANCH   2  22
ATOM     22  O   UNL     1      66.623  44.802   8.254  1.00  0.00    -0.502 OA
ATOM     23  H   UNL     1      67.237  44.136   8.708  1.00  0.00     0.293 HD
ENDBRANCH   2  22
BRANCH   6  24
ATOM     24  O   UNL     1      70.368  48.581   7.951  1.00  0.00    -0.507 OA
ATOM     25  H   UNL     1      70.714  47.638   8.043  1.00  0.00     0.293 HD
ENDBRANCH   6  24
BRANCH   8  26
ATOM     26  O   UNL     1      67.940  52.315   9.744  1.00  0.00    -0.508 OA
ATOM     27  H   UNL     1      67.074  52.834   9.811  1.00  0.00     0.293 HD
ENDBRANCH   8  26
TORSDOF 6
ENDMDL
MODEL 4
REMARK VINA RESULT:    -5.993      1.659      6.353
REMARK INTER + INTRA:          -7.622
REMARK INTER:                  -7.162
REMARK INTRA:                  -0.459
REMARK UNBOUND:                -0.403
REMARK SMILES O=c1c(O)c(-c2ccc(O)cc2O)oc2cc(O)cc(O)c12
REMARK SMILES IDX 5 1 3 2 2 3 1 4 22 5 20 6 19 7 17 8 16 9 15 10 14 11 6 12
REMARK SMILES IDX 8 13 7 14 9 15 11 16 12 17 10 18 13 20 4 22 21 24 18 26
REMARK H PARENT 10 19 13 21 4 23 21 25 18 27
REMARK Flexibility Score: inf
ROOT
ATOM      1  C   UNL     1      68.610  48.493   8.483  1.00  0.00     0.184 A 
ATOM      2  C   UNL     1      69.180  49.721   8.860  1.00  0.00     0.208 A 
ATOM      3  C   UNL     1      70.559  49.914   8.683  1.00  0.00     0.238 A 
ATOM      4  O   UNL     1      71.053  51.036   8.971  1.00  0.00    -0.285 OA
ATOM      5  C   UNL     1      71.355  48.872   8.151  1.00  0.00     0.111 A 
ATOM      6  C   UNL     1      72.768  48.943   7.966  1.00  0.00     0.134 A 
ATOM      7  C   UNL     1      73.433  47.898   7.313  1.00  0.00     0.093 A 
ATOM      8  C   UNL     1      72.744  46.755   6.896  1.00  0.00     0.123 A 
ATOM      9  C   UNL     1      71.376  46.651   7.125  1.00  0.00     0.094 A 
ATOM     10  C   UNL     1      70.678  47.692   7.741  1.00  0.00     0.146 A 
ATOM     11  O   UNL     1      69.371  47.557   7.931  1.00  0.00    -0.451 OA
ENDROOT
BRANCH   1  12
ATOM     12  C   UNL     1      67.166  48.213   8.664  1.00  0.00     0.063 A 
ATOM     13  C   UNL     1      65.271  47.767  10.125  1.00  0.00     0.047 A 
ATOM     14  C   UNL     1      66.626  48.059   9.954  1.00  0.00     0.020 A 
ATOM     15  C   UNL     1      64.438  47.615   9.011  1.00  0.00     0.119 A 
ATOM     16  C   UNL     1      64.967  47.752   7.725  1.00  0.00     0.093 A 
ATOM     17  C   UNL     1      66.327  48.047   7.543  1.00  0.00     0.130 A 
BRANCH  15  18
ATOM     18  O   UNL     1      63.085  47.324   9.171  1.00  0.00    -0.508 OA
ATOM     19  H   UNL     1      62.740  46.373   9.129  1.00  0.00     0.293 HD
ENDBRANCH  15  18
BRANCH  17  20
ATOM     20  O   UNL     1      66.840  48.188   6.253  1.00  0.00    -0.507 OA
ATOM     21  H   UNL     1      66.874  47.410   5.605  1.00  0.00     0.293 HD
ENDBRANCH  17  20
ENDBRANCH   1  12
BRANCH   2  22
ATOM     22  O   UNL     1      68.372  50.740   9.371  1.00  0.00    -0.502 OA
ATOM     23  H   UNL     1      68.735  51.658   9.601  1.00  0.00     0.293 HD
ENDBRANCH   2  22
BRANCH   6  24
ATOM     24  O   UNL     1      73.563  49.996   8.426  1.00  0.00    -0.507 OA
ATOM     25  H   UNL     1      74.495  49.894   8.798  1.00  0.00     0.293 HD
ENDBRANCH   6  24
BRANCH   8  26
ATOM     26  O   UNL     1      73.418  45.714   6.260  1.00  0.00    -0.508 OA
ATOM     27  H   UNL     1      72.922  45.006   5.733  1.00  0.00     0.293 HD
ENDBRANCH   8  26
TORSDOF 6
ENDMDL
MODEL 5
REMARK VINA RESULT:    -5.909      2.007      7.014
REMARK INTER + INTRA:          -7.521
REMARK INTER:                  -7.129
REMARK INTRA:                  -0.392
REMARK UNBOUND:                -0.403
REMARK SMILES O=c1c(O)c(-c2ccc(O)cc2O)oc2cc(O)cc(O)c12
REMARK SMILES IDX 5 1 3 2 2 3 1 4 22 5 20 6 19 7 17 8 16 9 15 10 14 11 6 12
REMARK SMILES IDX 8 13 7 14 9 15 11 16 12 17 10 18 13 20 4 22 21 24 18 26
REMARK H PARENT 10 19 13 21 4 23 21 25 18 27
REMARK Flexibility Score: inf
ROOT
ATOM      1  C   UNL     1      68.749  47.177   8.202  1.00  0.00     0.184 A 
ATOM      2  C   UNL     1      69.168  45.947   7.670  1.00  0.00     0.208 A 
ATOM      3  C   UNL     1      70.528  45.761   7.372  1.00  0.00     0.238 A 
ATOM      4  O   UNL     1      70.906  44.637   6.948  1.00  0.00    -0.285 OA
ATOM      5  C   UNL     1      71.448  46.815   7.590  1.00  0.00     0.111 A 
ATOM      6  C   UNL     1      72.841  46.752   7.286  1.00  0.00     0.134 A 
ATOM      7  C   UNL     1      73.678  47.810   7.663  1.00  0.00     0.093 A 
ATOM      8  C   UNL     1      73.161  48.955   8.274  1.00  0.00     0.123 A 
ATOM      9  C   UNL     1      71.795  49.051   8.521  1.00  0.00     0.094 A 
ATOM     10  C   UNL     1      70.939  47.998   8.190  1.00  0.00     0.146 A 
ATOM     11  O   UNL     1      69.644  48.125   8.452  1.00  0.00    -0.451 OA
ENDROOT
BRANCH   1  12
ATOM     12  C   UNL     1      67.327  47.449   8.517  1.00  0.00     0.063 A 
ATOM     13  C   UNL     1      65.480  47.446  10.102  1.00  0.00     0.047 A 
ATOM     14  C   UNL     1      66.827  47.216   9.811  1.00  0.00     0.020 A 
ATOM     15  C   UNL     1      64.612  47.901   9.104  1.00  0.00     0.119 A 
ATOM     16  C   UNL     1      65.096  48.122   7.811  1.00  0.00     0.093 A 
ATOM     17  C   UNL     1      66.448  47.895   7.510  1.00  0.00     0.130 A 
BRANCH  15  18
ATOM     18  O   UNL     1      63.267  48.133   9.383  1.00  0.00    -0.508 OA
ATOM     19  H   UNL     1      62.976  48.601  10.232  1.00  0.00     0.293 HD
ENDBRANCH  15  18
BRANCH  17  20
ATOM     20  O   UNL     1      66.918  48.127   6.217  1.00  0.00    -0.507 OA
ATOM     21  H   UNL     1      67.023  49.065   5.849  1.00  0.00     0.293 HD
ENDBRANCH  17  20
ENDBRANCH   1  12
BRANCH   2  22
ATOM     22  O   UNL     1      68.244  44.916   7.475  1.00  0.00    -0.502 OA
ATOM     23  H   UNL     1      68.207  44.100   8.074  1.00  0.00     0.293 HD
ENDBRANCH   2  22
BRANCH   6  24
ATOM     24  O   UNL     1      73.442  45.695   6.598  1.00  0.00    -0.507 OA
ATOM     25  H   UNL     1      73.435  44.733   6.901  1.00  0.00     0.293 HD
ENDBRANCH   6  24
BRANCH   8  26
ATOM     26  O   UNL     1      74.001  50.009   8.631  1.00  0.00    -0.508 OA
ATOM     27  H   UNL     1      73.778  50.968   8.394  1.00  0.00     0.293 HD
ENDBRANCH   8  26
TORSDOF 6
ENDMDL
MODEL 6
REMARK VINA RESULT:    -5.903      2.078      6.533
REMARK INTER + INTRA:          -7.513
REMARK INTER:                  -7.027
REMARK INTRA:                  -0.486
REMARK UNBOUND:                -0.403
REMARK SMILES O=c1c(O)c(-c2ccc(O)cc2O)oc2cc(O)cc(O)c12
REMARK SMILES IDX 5 1 3 2 2 3 1 4 22 5 20 6 19 7 17 8 16 9 15 10 14 11 6 12
REMARK SMILES IDX 8 13 7 14 9 15 11 16 12 17 10 18 13 20 4 22 21 24 18 26
REMARK H PARENT 10 19 13 21 4 23 21 25 18 27
REMARK Flexibility Score: inf
ROOT
ATOM      1  C   UNL     1      69.944  47.951   8.122  1.00  0.00     0.184 A 
ATOM      2  C   UNL     1      70.795  48.917   8.684  1.00  0.00     0.208 A 
ATOM      3  C   UNL     1      72.182  48.782   8.517  1.00  0.00     0.238 A 
ATOM      4  O   UNL     1      72.936  49.681   8.975  1.00  0.00    -0.285 OA
ATOM      5  C   UNL     1      72.703  47.672   7.810  1.00  0.00     0.111 A 
ATOM      6  C   UNL     1      74.093  47.414   7.615  1.00  0.00     0.134 A 
ATOM      7  C   UNL     1      74.490  46.355   6.789  1.00  0.00     0.093 A 
ATOM      8  C   UNL     1      73.547  45.505   6.204  1.00  0.00     0.123 A 
ATOM      9  C   UNL     1      72.190  45.714   6.436  1.00  0.00     0.094 A 
ATOM     10  C   UNL     1      71.762  46.784   7.225  1.00  0.00     0.146 A 
ATOM     11  O   UNL     1      70.458  46.954   7.412  1.00  0.00    -0.451 OA
ENDROOT
BRANCH   1  12
ATOM     12  C   UNL     1      68.472  48.018   8.279  1.00  0.00     0.063 A 
ATOM     13  C   UNL     1      66.476  47.652   9.623  1.00  0.00     0.047 A 
ATOM     14  C   UNL     1      67.865  47.615   9.483  1.00  0.00     0.020 A 
ATOM     15  C   UNL     1      65.673  48.082   8.560  1.00  0.00     0.119 A 
ATOM     16  C   UNL     1      66.266  48.471   7.356  1.00  0.00     0.093 A 
ATOM     17  C   UNL     1      67.660  48.439   7.206  1.00  0.00     0.130 A 
BRANCH  15  18
ATOM     18  O   UNL     1      64.286  48.122   8.689  1.00  0.00    -0.508 OA
ATOM     19  H   UNL     1      63.808  47.610   9.420  1.00  0.00     0.293 HD
ENDBRANCH  15  18
BRANCH  17  20
ATOM     20  O   UNL     1      68.238  48.837   6.001  1.00  0.00    -0.507 OA
ATOM     21  H   UNL     1      68.956  49.550   5.964  1.00  0.00     0.293 HD
ENDBRANCH  17  20
ENDBRANCH   1  12
BRANCH   2  22
ATOM     22  O   UNL     1      70.257  50.011   9.367  1.00  0.00    -0.502 OA
ATOM     23  H   UNL     1      69.793  50.775   8.890  1.00  0.00     0.293 HD
ENDBRANCH   2  22
BRANCH   6  24
ATOM     24  O   UNL     1      75.116  48.144   8.226  1.00  0.00    -0.507 OA
ATOM     25  H   UNL     1      76.045  48.260   7.850  1.00  0.00     0.293 HD
ENDBRANCH   6  24
BRANCH   8  26
ATOM     26  O   UNL     1      73.952  44.445   5.396  1.00  0.00    -0.508 OA
ATOM     27  H   UNL     1      73.282  43.871   4.899  1.00  0.00     0.293 HD
ENDBRANCH   8  26
TORSDOF 6
ENDMDL
MODEL 7
REMARK VINA RESULT:    -5.898      4.179      7.896
REMARK INTER + INTRA:          -7.508
REMARK INTER:                  -7.083
REMARK INTRA:                  -0.424
REMARK UNBOUND:                -0.403
REMARK SMILES O=c1c(O)c(-c2ccc(O)cc2O)oc2cc(O)cc(O)c12
REMARK SMILES IDX 5 1 3 2 2 3 1 4 22 5 20 6 19 7 17 8 16 9 15 10 14 11 6 12
REMARK SMILES IDX 8 13 7 14 9 15 11 16 12 17 10 18 13 20 4 22 21 24 18 26
REMARK H PARENT 10 19 13 21 4 23 21 25 18 27
REMARK Flexibility Score: inf
ROOT
ATOM      1  C   UNL     1      71.451  44.663   6.794  1.00  0.00     0.184 A 
ATOM      2  C   UNL     1      71.979  44.709   5.493  1.00  0.00     0.208 A 
ATOM      3  C   UNL     1      72.819  45.777   5.137  1.00  0.00     0.238 A 
ATOM      4  O   UNL     1      73.334  45.782   3.988  1.00  0.00    -0.285 OA
ATOM      5  C   UNL     1      73.103  46.795   6.078  1.00  0.00     0.111 A 
ATOM      6  C   UNL     1      73.907  47.943   5.814  1.00  0.00     0.134 A 
ATOM      7  C   UNL     1      74.226  48.820   6.859  1.00  0.00     0.093 A 
ATOM      8  C   UNL     1      73.713  48.624   8.144  1.00  0.00     0.123 A 
ATOM      9  C   UNL     1      72.879  47.539   8.398  1.00  0.00     0.094 A 
ATOM     10  C   UNL     1      72.573  46.627   7.386  1.00  0.00     0.146 A 
ATOM     11  O   UNL     1      71.783  45.599   7.673  1.00  0.00    -0.451 OA
ENDROOT
BRANCH   1  12
ATOM     12  C   UNL     1      70.539  43.578   7.229  1.00  0.00     0.063 A 
ATOM     13  C   UNL     1      70.185  41.272   7.922  1.00  0.00     0.047 A 
ATOM     14  C   UNL     1      71.046  42.303   7.539  1.00  0.00     0.020 A 
ATOM     15  C   UNL     1      68.806  41.497   7.993  1.00  0.00     0.119 A 
ATOM     16  C   UNL     1      68.291  42.757   7.674  1.00  0.00     0.093 A 
ATOM     17  C   UNL     1      69.148  43.799   7.289  1.00  0.00     0.130 A 
BRANCH  15  18
ATOM     18  O   UNL     1      67.938  40.476   8.374  1.00  0.00    -0.508 OA
ATOM     19  H   UNL     1      68.218  39.763   9.036  1.00  0.00     0.293 HD
ENDBRANCH  15  18
BRANCH  17  20
ATOM     20  O   UNL     1      68.621  45.053   6.980  1.00  0.00    -0.507 OA
ATOM     21  H   UNL     1      69.046  45.908   7.319  1.00  0.00     0.293 HD
ENDBRANCH  17  20
ENDBRANCH   1  12
BRANCH   2  22
ATOM     22  O   UNL     1      71.695  43.686   4.585  1.00  0.00    -0.502 OA
ATOM     23  H   UNL     1      70.788  43.236   4.538  1.00  0.00     0.293 HD
ENDBRANCH   2  22
BRANCH   6  24
ATOM     24  O   UNL     1      74.393  48.281   4.547  1.00  0.00    -0.507 OA
ATOM     25  H   UNL     1      74.781  49.179   4.300  1.00  0.00     0.293 HD
ENDBRANCH   6  24
BRANCH   8  26
ATOM     26  O   UNL     1      74.023  49.510   9.174  1.00  0.00    -0.508 OA
ATOM     27  H   UNL     1      74.792  50.164   9.098  1.00  0.00     0.293 HD
ENDBRANCH   8  26
TORSDOF 6
ENDMDL
MODEL 8
REMARK VINA RESULT:    -5.572      2.112      3.070
REMARK INTER + INTRA:          -7.115
REMARK INTER:                  -6.633
REMARK INTRA:                  -0.482
REMARK UNBOUND:                -0.403
REMARK SMILES O=c1c(O)c(-c2ccc(O)cc2O)oc2cc(O)cc(O)c12
REMARK SMILES IDX 5 1 3 2 2 3 1 4 22 5 20 6 19 7 17 8 16 9 15 10 14 11 6 12
REMARK SMILES IDX 8 13 7 14 9 15 11 16 12 17 10 18 13 20 4 22 21 24 18 26
REMARK H PARENT 10 19 13 21 4 23 21 25 18 27
REMARK Flexibility Score: inf
ROOT
ATOM      1  C   UNL     1      70.805  48.328   7.267  1.00  0.00     0.184 A 
ATOM      2  C   UNL     1      70.997  49.456   8.083  1.00  0.00     0.208 A 
ATOM      3  C   UNL     1      69.873  50.135   8.580  1.00  0.00     0.238 A 
ATOM      4  O   UNL     1      70.052  51.111   9.356  1.00  0.00    -0.285 OA
ATOM      5  C   UNL     1      68.573  49.693   8.238  1.00  0.00     0.111 A 
ATOM      6  C   UNL     1      67.364  50.329   8.651  1.00  0.00     0.134 A 
ATOM      7  C   UNL     1      66.133  49.729   8.360  1.00  0.00     0.093 A 
ATOM      8  C   UNL     1      66.065  48.549   7.613  1.00  0.00     0.123 A 
ATOM      9  C   UNL     1      67.237  47.953   7.155  1.00  0.00     0.094 A 
ATOM     10  C   UNL     1      68.482  48.507   7.461  1.00  0.00     0.146 A 
ATOM     11  O   UNL     1      69.575  47.901   7.014  1.00  0.00    -0.451 OA
ENDROOT
BRANCH   1  12
ATOM     12  C   UNL     1      71.945  47.578   6.690  1.00  0.00     0.063 A 
ATOM     13  C   UNL     1      73.702  47.370   5.018  1.00  0.00     0.047 A 
ATOM     14  C   UNL     1      72.645  48.088   5.581  1.00  0.00     0.020 A 
ATOM     15  C   UNL     1      74.069  46.127   5.548  1.00  0.00     0.119 A 
ATOM     16  C   UNL     1      73.371  45.605   6.641  1.00  0.00     0.093 A 
ATOM     17  C   UNL     1      72.309  46.321   7.213  1.00  0.00     0.130 A 
BRANCH  15  18
ATOM     18  O   UNL     1      75.122  45.402   4.994  1.00  0.00    -0.508 OA
ATOM     19  H   UNL     1      75.200  44.401   5.123  1.00  0.00     0.293 HD
ENDBRANCH  15  18
BRANCH  17  20
ATOM     20  O   UNL     1      71.626  45.791   8.308  1.00  0.00    -0.507 OA
ATOM     21  H   UNL     1      72.059  45.717   9.221  1.00  0.00     0.293 HD
ENDBRANCH  17  20
ENDBRANCH   1  12
BRANCH   2  22
ATOM     22  O   UNL     1      72.290  49.867   8.418  1.00  0.00    -0.502 OA
ATOM     23  H   UNL     1      73.089  49.246   8.363  1.00  0.00     0.293 HD
ENDBRANCH   2  22
BRANCH   6  24
ATOM     24  O   UNL     1      67.317  51.554   9.322  1.00  0.00    -0.507 OA
ATOM     25  H   UNL     1      68.126  52.088   9.602  1.00  0.00     0.293 HD
ENDBRANCH   6  24
BRANCH   8  26
ATOM     26  O   UNL     1      64.835  47.968   7.314  1.00  0.00    -0.508 OA
ATOM     27  H   UNL     1      64.396  48.091   6.410  1.00  0.00     0.293 HD
ENDBRANCH   8  26
TORSDOF 6
ENDMDL
