MODEL 1
REMARK VINA RESULT:     4.614      0.000      0.000
REMARK INTER + INTRA:           5.591
REMARK INTER:                   5.558
REMARK INTRA:                   0.033
REMARK UNBOUND:                 0.033
REMARK SMILES O=c1c(O)c(-c2ccc(O)c(O)c2)oc2cc(O)cc(O)c12
REMARK SMILES IDX 5 1 3 2 2 3 1 4 22 5 20 6 19 7 17 8 16 9 15 10 14 11 6 12
REMARK SMILES IDX 7 13 8 14 9 15 13 16 11 17 10 18 12 20 4 22 21 24 18 26
REMARK H PARENT 10 19 12 21 4 23 21 25 18 27
REMARK Flexibility Score: inf
ROOT
ATOM      1  C   UNL     1       0.453  60.000  -3.186  1.00  0.00     0.180 A 
ATOM      2  C   UNL     1      -0.766  59.623  -3.777  1.00  0.00     0.208 A 
ATOM      3  C   UNL     1      -0.788  59.296  -5.143  1.00  0.00     0.238 A 
ATOM      4  O   UNL     1      -1.871  58.907  -5.653  1.00  0.00    -0.285 OA
ATOM      5  C   UNL     1       0.404  59.365  -5.903  1.00  0.00     0.111 A 
ATOM      6  C   UNL     1       0.489  59.094  -7.302  1.00  0.00     0.134 A 
ATOM      7  C   UNL     1       1.743  59.067  -7.924  1.00  0.00     0.093 A 
ATOM      8  C   UNL     1       2.906  59.364  -7.215  1.00  0.00     0.123 A 
ATOM      9  C   UNL     1       2.827  59.687  -5.860  1.00  0.00     0.094 A 
ATOM     10  C   UNL     1       1.596  59.688  -5.203  1.00  0.00     0.146 A 
ATOM     11  O   UNL     1       1.565  59.991  -3.911  1.00  0.00    -0.452 OA
ENDROOT
BRANCH   1  12
ATOM     12  C   UNL     1       0.551  60.383  -1.759  1.00  0.00     0.025 A 
ATOM     13  C   UNL     1       0.023  59.531  -0.777  1.00  0.00     0.016 A 
ATOM     14  C   UNL     1       0.124  59.862   0.576  1.00  0.00     0.051 A 
ATOM     15  C   UNL     1       0.768  61.043   0.969  1.00  0.00     0.157 A 
ATOM     16  C   UNL     1       1.215  61.557  -1.360  1.00  0.00     0.062 A 
ATOM     17  C   UNL     1       1.320  61.892  -0.005  1.00  0.00     0.158 A 
BRANCH  15  18
ATOM     18  O   UNL     1       0.865  61.372   2.320  1.00  0.00    -0.504 OA
ATOM     19  H   UNL     1       1.002  60.662   3.030  1.00  0.00     0.293 HD
ENDBRANCH  15  18
BRANCH  17  20
ATOM     20  O   UNL     1       1.979  63.067   0.353  1.00  0.00    -0.504 OA
ATOM     21  H   UNL     1       2.877  63.057   0.824  1.00  0.00     0.293 HD
ENDBRANCH  17  20
ENDBRANCH   1  12
BRANCH   2  22
ATOM     22  O   UNL     1      -1.927  59.540  -3.003  1.00  0.00    -0.502 OA
ATOM     23  H   UNL     1      -1.918  59.653  -1.996  1.00  0.00     0.293 HD
ENDBRANCH   2  22
BRANCH   6  24
ATOM     24  O   UNL     1      -0.620  58.875  -8.124  1.00  0.00    -0.507 OA
ATOM     25  H   UNL     1      -0.709  59.215  -9.070  1.00  0.00     0.293 HD
ENDBRANCH   6  24
BRANCH   8  26
ATOM     26  O   UNL     1       4.136  59.342  -7.870  1.00  0.00    -0.508 OA
ATOM     27  H   UNL     1       4.204  59.464  -8.873  1.00  0.00     0.293 HD
ENDBRANCH   8  26
TORSDOF 6
ENDMDL
MODEL 2
REMARK VINA RESULT:     6.897      1.534      3.402
REMARK INTER + INTRA:           8.341
REMARK INTER:                   8.324
REMARK INTRA:                   0.017
REMARK UNBOUND:                 0.033
REMARK SMILES O=c1c(O)c(-c2ccc(O)c(O)c2)oc2cc(O)cc(O)c12
REMARK SMILES IDX 5 1 3 2 2 3 1 4 22 5 20 6 19 7 17 8 16 9 15 10 14 11 6 12
REMARK SMILES IDX 7 13 8 14 9 15 13 16 11 17 10 18 12 20 4 22 21 24 18 26
REMARK H PARENT 10 19 12 21 4 23 21 25 18 27
REMARK Flexibility Score: inf
ROOT
ATOM      1  C   UNL     1      -0.164  60.117  -3.027  1.00  0.00     0.180 A 
ATOM      2  C   UNL     1       0.806  60.108  -4.045  1.00  0.00     0.208 A 
ATOM      3  C   UNL     1       0.411  59.801  -5.357  1.00  0.00     0.238 A 
ATOM      4  O   UNL     1       1.273  59.848  -6.273  1.00  0.00    -0.285 OA
ATOM      5  C   UNL     1      -0.943  59.493  -5.632  1.00  0.00     0.111 A 
ATOM      6  C   UNL     1      -1.446  59.130  -6.917  1.00  0.00     0.134 A 
ATOM      7  C   UNL     1      -2.826  58.973  -7.099  1.00  0.00     0.093 A 
ATOM      8  C   UNL     1      -3.713  59.103  -6.031  1.00  0.00     0.123 A 
ATOM      9  C   UNL     1      -3.225  59.400  -4.758  1.00  0.00     0.094 A 
ATOM     10  C   UNL     1      -1.858  59.597  -4.552  1.00  0.00     0.146 A 
ATOM     11  O   UNL     1      -1.436  59.889  -3.328  1.00  0.00    -0.452 OA
ENDROOT
BRANCH   1  12
ATOM     12  C   UNL     1       0.179  60.406  -1.615  1.00  0.00     0.025 A 
ATOM     13  C   UNL     1      -0.204  59.503  -0.612  1.00  0.00     0.016 A 
ATOM     14  C   UNL     1       0.127  59.745   0.723  1.00  0.00     0.051 A 
ATOM     15  C   UNL     1       0.861  60.886   1.074  1.00  0.00     0.157 A 
ATOM     16  C   UNL     1       0.934  61.539  -1.263  1.00  0.00     0.062 A 
ATOM     17  C   UNL     1       1.270  61.786   0.074  1.00  0.00     0.158 A 
BRANCH  15  18
ATOM     18  O   UNL     1       1.189  61.127   2.407  1.00  0.00    -0.504 OA
ATOM     19  H   UNL     1       0.483  61.374   3.090  1.00  0.00     0.293 HD
ENDBRANCH  15  18
BRANCH  17  20
ATOM     20  O   UNL     1       2.013  62.923   0.388  1.00  0.00    -0.504 OA
ATOM     21  H   UNL     1       1.788  63.834   0.006  1.00  0.00     0.293 HD
ENDBRANCH  17  20
ENDBRANCH   1  12
BRANCH   2  22
ATOM     22  O   UNL     1       2.133  60.436  -3.755  1.00  0.00    -0.502 OA
ATOM     23  H   UNL     1       2.917  59.966  -4.191  1.00  0.00     0.293 HD
ENDBRANCH   2  22
BRANCH   6  24
ATOM     24  O   UNL     1      -0.638  58.885  -8.032  1.00  0.00    -0.507 OA
ATOM     25  H   UNL     1      -0.058  59.576  -8.483  1.00  0.00     0.293 HD
ENDBRANCH   6  24
BRANCH   8  26
ATOM     26  O   UNL     1      -5.078  58.925  -6.246  1.00  0.00    -0.508 OA
ATOM     27  H   UNL     1      -5.700  59.713  -6.383  1.00  0.00     0.293 HD
ENDBRANCH   8  26
TORSDOF 6
ENDMDL
