MODEL 1
REMARK VINA RESULT:    -3.553      0.000      0.000
REMARK INTER + INTRA:          -7.921
REMARK INTER:                  -6.461
REMARK INTRA:                  -1.459
REMARK UNBOUND:                -1.459
REMARK SMILES CCCCCCCCCCCCCCCC(=O)[O-]
REMARK SMILES IDX 9 1 10 2 11 3 12 4 13 5 14 6 15 7 16 8 17 9 18 10 8 11 7 12
REMARK SMILES IDX 6 13 5 14 4 15 3 16 2 17 1 18
REMARK H PARENT
REMARK Flexibility Score: inf
ROOT
ATOM      1  C   UNL     1      31.246   9.478  22.861  1.00  0.00     0.000 C 
ENDROOT
BRANCH   1   2
ATOM      2  C   UNL     1      31.922   8.596  21.795  1.00  0.00     0.000 C 
BRANCH   2   3
ATOM      3  C   UNL     1      31.126   7.317  21.494  1.00  0.00     0.000 C 
BRANCH   3   4
ATOM      4  C   UNL     1      31.835   6.406  20.476  1.00  0.00     0.000 C 
BRANCH   4   5
ATOM      5  C   UNL     1      33.086   5.730  21.061  1.00  0.00     0.000 C 
BRANCH   5   6
ATOM      6  C   UNL     1      32.746   4.518  21.947  1.00  0.00     0.006 C 
BRANCH   6   7
ATOM      7  C   UNL     1      31.974   3.438  21.179  1.00  0.00     0.053 C 
BRANCH   7   8
ATOM      8  C   UNL     1      32.803   2.209  20.966  1.00  0.00     0.041 C 
ATOM      9  O   UNL     1      32.286   1.067  21.088  1.00  0.00    -0.550 OA
ATOM     10  O   UNL     1      34.154   2.326  20.668  1.00  0.00    -0.550 OA
ENDBRANCH   7   8
ENDBRANCH   6   7
ENDBRANCH   5   6
ENDBRANCH   4   5
ENDBRANCH   3   4
ENDBRANCH   2   3
ENDBRANCH   1   2
BRANCH   1  11
ATOM     11  C   UNL     1      32.167  10.601  23.364  1.00  0.00     0.000 C 
BRANCH  11  12
ATOM     12  C   UNL     1      32.480  11.640  22.273  1.00  0.00    -0.000 C 
BRANCH  12  13
ATOM     13  C   UNL     1      33.984  11.938  22.156  1.00  0.00    -0.000 C 
BRANCH  13  14
ATOM     14  C   UNL     1      34.788  11.392  23.345  1.00  0.00    -0.000 C 
BRANCH  14  15
ATOM     15  C   UNL     1      35.791  10.324  22.885  1.00  0.00    -0.000 C 
BRANCH  15  16
ATOM     16  C   UNL     1      35.600   9.918  21.413  1.00  0.00    -0.000 C 
BRANCH  16  17
ATOM     17  C   UNL     1      35.567   8.391  21.191  1.00  0.00    -0.003 C 
ATOM     18  C   UNL     1      36.787   7.690  21.789  1.00  0.00     0.004 C 
ENDBRANCH  16  17
ENDBRANCH  15  16
ENDBRANCH  14  15
ENDBRANCH  13  14
ENDBRANCH  12  13
ENDBRANCH  11  12
ENDBRANCH   1  11
TORSDOF 14
ENDMDL
MODEL 2
REMARK VINA RESULT:    -3.534      1.575      2.998
REMARK INTER + INTRA:          -7.885
REMARK INTER:                  -5.654
REMARK INTRA:                  -2.231
REMARK UNBOUND:                -1.459
REMARK SMILES CCCCCCCCCCCCCCCC(=O)[O-]
REMARK SMILES IDX 9 1 10 2 11 3 12 4 13 5 14 6 15 7 16 8 17 9 18 10 8 11 7 12
REMARK SMILES IDX 6 13 5 14 4 15 3 16 2 17 1 18
REMARK H PARENT
REMARK Flexibility Score: inf
ROOT
ATOM      1  C   UNL     1      32.698  11.420  22.045  1.00  0.00     0.000 C 
ENDROOT
BRANCH   1   2
ATOM      2  C   UNL     1      32.009  10.867  23.306  1.00  0.00     0.000 C 
BRANCH   2   3
ATOM      3  C   UNL     1      31.235   9.568  23.037  1.00  0.00     0.000 C 
BRANCH   3   4
ATOM      4  C   UNL     1      31.863   8.729  21.911  1.00  0.00     0.000 C 
BRANCH   4   5
ATOM      5  C   UNL     1      31.002   7.514  21.529  1.00  0.00     0.000 C 
BRANCH   5   6
ATOM      6  C   UNL     1      31.732   6.542  20.585  1.00  0.00     0.006 C 
BRANCH   6   7
ATOM      7  C   UNL     1      33.210   6.374  20.958  1.00  0.00     0.053 C 
BRANCH   7   8
ATOM      8  C   UNL     1      33.525   4.962  21.349  1.00  0.00     0.041 C 
ATOM      9  O   UNL     1      34.511   4.368  20.838  1.00  0.00    -0.550 OA
ATOM     10  O   UNL     1      32.709   4.293  22.252  1.00  0.00    -0.550 OA
ENDBRANCH   7   8
ENDBRANCH   6   7
ENDBRANCH   5   6
ENDBRANCH   4   5
ENDBRANCH   3   4
ENDBRANCH   2   3
ENDBRANCH   1   2
BRANCH   1  11
ATOM     11  C   UNL     1      34.066  12.050  22.352  1.00  0.00     0.000 C 
BRANCH  11  12
ATOM     12  C   UNL     1      34.943  11.152  23.241  1.00  0.00    -0.000 C 
BRANCH  12  13
ATOM     13  C   UNL     1      36.034  10.418  22.445  1.00  0.00    -0.000 C 
BRANCH  13  14
ATOM     14  C   UNL     1      35.508   9.155  21.747  1.00  0.00    -0.000 C 
BRANCH  14  15
ATOM     15  C   UNL     1      35.945   9.118  20.276  1.00  0.00    -0.000 C 
BRANCH  15  16
ATOM     16  C   UNL     1      35.146  10.089  19.390  1.00  0.00    -0.000 C 
BRANCH  16  17
ATOM     17  C   UNL     1      33.739   9.574  19.017  1.00  0.00    -0.003 C 
ATOM     18  C   UNL     1      33.781   8.505  17.925  1.00  0.00     0.004 C 
ENDBRANCH  16  17
ENDBRANCH  15  16
ENDBRANCH  14  15
ENDBRANCH  13  14
ENDBRANCH  12  13
ENDBRANCH  11  12
ENDBRANCH   1  11
TORSDOF 14
ENDMDL
MODEL 3
REMARK VINA RESULT:    -3.434      2.301      5.508
REMARK INTER + INTRA:          -7.704
REMARK INTER:                  -5.998
REMARK INTRA:                  -1.706
REMARK UNBOUND:                -1.459
REMARK SMILES CCCCCCCCCCCCCCCC(=O)[O-]
REMARK SMILES IDX 9 1 10 2 11 3 12 4 13 5 14 6 15 7 16 8 17 9 18 10 8 11 7 12
REMARK SMILES IDX 6 13 5 14 4 15 3 16 2 17 1 18
REMARK H PARENT
REMARK Flexibility Score: inf
ROOT
ATOM      1  C   UNL     1      32.171  10.646  23.371  1.00  0.00     0.000 C 
ENDROOT
BRANCH   1   2
ATOM      2  C   UNL     1      32.566  11.589  22.219  1.00  0.00     0.000 C 
BRANCH   2   3
ATOM      3  C   UNL     1      34.064  11.930  22.220  1.00  0.00     0.000 C 
BRANCH   3   4
ATOM      4  C   UNL     1      34.828  11.232  23.358  1.00  0.00     0.000 C 
BRANCH   4   5
ATOM      5  C   UNL     1      35.922  10.284  22.840  1.00  0.00     0.000 C 
BRANCH   5   6
ATOM      6  C   UNL     1      35.700   9.865  21.375  1.00  0.00     0.006 C 
BRANCH   6   7
ATOM      7  C   UNL     1      35.554   8.346  21.224  1.00  0.00     0.053 C 
BRANCH   7   8
ATOM      8  C   UNL     1      36.826   7.630  21.563  1.00  0.00     0.041 C 
ATOM      9  O   UNL     1      36.836   6.747  22.461  1.00  0.00    -0.550 OA
ATOM     10  O   UNL     1      38.005   7.964  20.911  1.00  0.00    -0.550 OA
ENDBRANCH   7   8
ENDBRANCH   6   7
ENDBRANCH   5   6
ENDBRANCH   4   5
ENDBRANCH   3   4
ENDBRANCH   2   3
ENDBRANCH   1   2
BRANCH   1  11
ATOM     11  C   UNL     1      31.229   9.522  22.912  1.00  0.00     0.000 C 
BRANCH  11  12
ATOM     12  C   UNL     1      31.873   8.607  21.856  1.00  0.00    -0.000 C 
BRANCH  12  13
ATOM     13  C   UNL     1      30.966   7.429  21.464  1.00  0.00    -0.000 C 
BRANCH  13  14
ATOM     14  C   UNL     1      31.565   6.573  20.338  1.00  0.00    -0.000 C 
BRANCH  14  15
ATOM     15  C   UNL     1      31.450   5.078  20.666  1.00  0.00    -0.000 C 
BRANCH  15  16
ATOM     16  C   UNL     1      32.433   4.628  21.760  1.00  0.00    -0.000 C 
BRANCH  16  17
ATOM     17  C   UNL     1      33.908   4.955  21.441  1.00  0.00    -0.003 C 
ATOM     18  C   UNL     1      34.475   4.065  20.335  1.00  0.00     0.004 C 
ENDBRANCH  16  17
ENDBRANCH  15  16
ENDBRANCH  14  15
ENDBRANCH  13  14
ENDBRANCH  12  13
ENDBRANCH  11  12
ENDBRANCH   1  11
TORSDOF 14
ENDMDL
MODEL 4
REMARK VINA RESULT:    -3.398      2.587      5.425
REMARK INTER + INTRA:          -7.639
REMARK INTER:                  -6.034
REMARK INTRA:                  -1.604
REMARK UNBOUND:                -1.459
REMARK SMILES CCCCCCCCCCCCCCCC(=O)[O-]
REMARK SMILES IDX 9 1 10 2 11 3 12 4 13 5 14 6 15 7 16 8 17 9 18 10 8 11 7 12
REMARK SMILES IDX 6 13 5 14 4 15 3 16 2 17 1 18
REMARK H PARENT
REMARK Flexibility Score: inf
ROOT
ATOM      1  C   UNL     1      32.483  11.387  22.095  1.00  0.00     0.000 C 
ENDROOT
BRANCH   1   2
ATOM      2  C   UNL     1      33.771  12.105  22.538  1.00  0.00     0.000 C 
BRANCH   2   3
ATOM      3  C   UNL     1      34.612  11.267  23.512  1.00  0.00     0.000 C 
BRANCH   3   4
ATOM      4  C   UNL     1      35.921  10.763  22.879  1.00  0.00     0.000 C 
BRANCH   4   5
ATOM      5  C   UNL     1      35.722   9.480  22.054  1.00  0.00     0.000 C 
BRANCH   5   6
ATOM      6  C   UNL     1      37.002   8.632  21.958  1.00  0.00     0.006 C 
BRANCH   6   7
ATOM      7  C   UNL     1      37.832   8.688  23.247  1.00  0.00     0.053 C 
BRANCH   7   8
ATOM      8  C   UNL     1      37.959   7.337  23.883  1.00  0.00     0.041 C 
ATOM      9  O   UNL     1      37.334   6.352  23.409  1.00  0.00    -0.550 OA
ATOM     10  O   UNL     1      38.740   7.175  25.020  1.00  0.00    -0.550 OA
ENDBRANCH   7   8
ENDBRANCH   6   7
ENDBRANCH   5   6
ENDBRANCH   4   5
ENDBRANCH   3   4
ENDBRANCH   2   3
ENDBRANCH   1   2
BRANCH   1  11
ATOM     11  C   UNL     1      31.774  10.681  23.262  1.00  0.00     0.000 C 
BRANCH  11  12
ATOM     12  C   UNL     1      31.231   9.296  22.871  1.00  0.00    -0.000 C 
BRANCH  12  13
ATOM     13  C   UNL     1      31.976   8.687  21.672  1.00  0.00    -0.000 C 
BRANCH  13  14
ATOM     14  C   UNL     1      31.502   7.263  21.344  1.00  0.00    -0.000 C 
BRANCH  14  15
ATOM     15  C   UNL     1      32.488   6.560  20.401  1.00  0.00    -0.000 C 
BRANCH  15  16
ATOM     16  C   UNL     1      33.407   5.565  21.130  1.00  0.00    -0.000 C 
BRANCH  16  17
ATOM     17  C   UNL     1      34.866   5.584  20.626  1.00  0.00    -0.003 C 
ATOM     18  C   UNL     1      35.072   6.571  19.477  1.00  0.00     0.004 C 
ENDBRANCH  16  17
ENDBRANCH  15  16
ENDBRANCH  14  15
ENDBRANCH  13  14
ENDBRANCH  12  13
ENDBRANCH  11  12
ENDBRANCH   1  11
TORSDOF 14
ENDMDL
MODEL 5
REMARK VINA RESULT:    -3.374      1.965      4.088
REMARK INTER + INTRA:          -7.594
REMARK INTER:                  -5.894
REMARK INTRA:                  -1.700
REMARK UNBOUND:                -1.459
REMARK SMILES CCCCCCCCCCCCCCCC(=O)[O-]
REMARK SMILES IDX 9 1 10 2 11 3 12 4 13 5 14 6 15 7 16 8 17 9 18 10 8 11 7 12
REMARK SMILES IDX 6 13 5 14 4 15 3 16 2 17 1 18
REMARK H PARENT
REMARK Flexibility Score: inf
ROOT
ATOM      1  C   UNL     1      34.874  10.372  22.402  1.00  0.00     0.000 C 
ENDROOT
BRANCH   1   2
ATOM      2  C   UNL     1      34.027  11.651  22.261  1.00  0.00     0.000 C 
BRANCH   2   3
ATOM      3  C   UNL     1      32.529  11.354  22.096  1.00  0.00     0.000 C 
BRANCH   3   4
ATOM      4  C   UNL     1      31.948  10.573  23.288  1.00  0.00     0.000 C 
BRANCH   4   5
ATOM      5  C   UNL     1      31.113   9.359  22.847  1.00  0.00     0.000 C 
BRANCH   5   6
ATOM      6  C   UNL     1      31.829   8.498  21.792  1.00  0.00     0.006 C 
BRANCH   6   7
ATOM      7  C   UNL     1      30.993   7.282  21.374  1.00  0.00     0.053 C 
BRANCH   7   8
ATOM      8  C   UNL     1      31.857   6.120  20.989  1.00  0.00     0.041 C 
ATOM      9  O   UNL     1      32.190   5.265  21.851  1.00  0.00    -0.550 OA
ATOM     10  O   UNL     1      32.323   6.003  19.686  1.00  0.00    -0.550 OA
ENDBRANCH   7   8
ENDBRANCH   6   7
ENDBRANCH   5   6
ENDBRANCH   4   5
ENDBRANCH   3   4
ENDBRANCH   2   3
ENDBRANCH   1   2
BRANCH   1  11
ATOM     11  C   UNL     1      36.142  10.598  23.240  1.00  0.00     0.000 C 
BRANCH  11  12
ATOM     12  C   UNL     1      37.432  10.383  22.429  1.00  0.00    -0.000 C 
BRANCH  12  13
ATOM     13  C   UNL     1      38.451   9.496  23.163  1.00  0.00    -0.000 C 
BRANCH  13  14
ATOM     14  C   UNL     1      37.933   8.068  23.391  1.00  0.00    -0.000 C 
BRANCH  14  15
ATOM     15  C   UNL     1      37.877   7.287  22.071  1.00  0.00    -0.000 C 
BRANCH  15  16
ATOM     16  C   UNL     1      36.628   6.398  21.954  1.00  0.00    -0.000 C 
BRANCH  16  17
ATOM     17  C   UNL     1      35.579   6.929  20.953  1.00  0.00    -0.003 C 
ATOM     18  C   UNL     1      36.168   7.953  19.982  1.00  0.00     0.004 C 
ENDBRANCH  16  17
ENDBRANCH  15  16
ENDBRANCH  14  15
ENDBRANCH  13  14
ENDBRANCH  12  13
ENDBRANCH  11  12
ENDBRANCH   1  11
TORSDOF 14
ENDMDL
MODEL 6
REMARK VINA RESULT:    -3.364      1.449      2.062
REMARK INTER + INTRA:          -7.576
REMARK INTER:                  -6.037
REMARK INTRA:                  -1.539
REMARK UNBOUND:                -1.459
REMARK SMILES CCCCCCCCCCCCCCCC(=O)[O-]
REMARK SMILES IDX 9 1 10 2 11 3 12 4 13 5 14 6 15 7 16 8 17 9 18 10 8 11 7 12
REMARK SMILES IDX 6 13 5 14 4 15 3 16 2 17 1 18
REMARK H PARENT
REMARK Flexibility Score: inf
ROOT
ATOM      1  C   UNL     1      32.068   8.768  21.793  1.00  0.00     0.000 C 
ENDROOT
BRANCH   1   2
ATOM      2  C   UNL     1      31.354   7.458  21.409  1.00  0.00     0.000 C 
BRANCH   2   3
ATOM      3  C   UNL     1      31.963   6.795  20.164  1.00  0.00     0.000 C 
BRANCH   3   4
ATOM      4  C   UNL     1      31.701   5.280  20.115  1.00  0.00     0.000 C 
BRANCH   4   5
ATOM      5  C   UNL     1      31.783   4.622  21.502  1.00  0.00     0.000 C 
BRANCH   5   6
ATOM      6  C   UNL     1      33.212   4.176  21.864  1.00  0.00     0.006 C 
BRANCH   6   7
ATOM      7  C   UNL     1      33.885   3.408  20.719  1.00  0.00     0.053 C 
BRANCH   7   8
ATOM      8  C   UNL     1      35.202   4.014  20.344  1.00  0.00     0.041 C 
ATOM      9  O   UNL     1      36.246   3.309  20.338  1.00  0.00    -0.550 OA
ATOM     10  O   UNL     1      35.281   5.366  20.035  1.00  0.00    -0.550 OA
ENDBRANCH   7   8
ENDBRANCH   6   7
ENDBRANCH   5   6
ENDBRANCH   4   5
ENDBRANCH   3   4
ENDBRANCH   2   3
ENDBRANCH   1   2
BRANCH   1  11
ATOM     11  C   UNL     1      31.333   9.533  22.904  1.00  0.00     0.000 C 
BRANCH  11  12
ATOM     12  C   UNL     1      32.137  10.738  23.422  1.00  0.00    -0.000 C 
BRANCH  12  13
ATOM     13  C   UNL     1      32.593  11.674  22.291  1.00  0.00    -0.000 C 
BRANCH  13  14
ATOM     14  C   UNL     1      34.070  12.075  22.415  1.00  0.00    -0.000 C 
BRANCH  14  15
ATOM     15  C   UNL     1      34.774  11.245  23.499  1.00  0.00    -0.000 C 
BRANCH  15  16
ATOM     16  C   UNL     1      36.056  10.563  22.992  1.00  0.00    -0.000 C 
BRANCH  16  17
ATOM     17  C   UNL     1      35.987  10.137  21.510  1.00  0.00    -0.003 C 
ATOM     18  C   UNL     1      35.624   8.661  21.345  1.00  0.00     0.004 C 
ENDBRANCH  16  17
ENDBRANCH  15  16
ENDBRANCH  14  15
ENDBRANCH  13  14
ENDBRANCH  12  13
ENDBRANCH  11  12
ENDBRANCH   1  11
TORSDOF 14
ENDMDL
MODEL 7
REMARK VINA RESULT:    -3.311      1.557      2.778
REMARK INTER + INTRA:          -7.479
REMARK INTER:                  -6.008
REMARK INTRA:                  -1.471
REMARK UNBOUND:                -1.459
REMARK SMILES CCCCCCCCCCCCCCCC(=O)[O-]
REMARK SMILES IDX 9 1 10 2 11 3 12 4 13 5 14 6 15 7 16 8 17 9 18 10 8 11 7 12
REMARK SMILES IDX 6 13 5 14 4 15 3 16 2 17 1 18
REMARK H PARENT
REMARK Flexibility Score: inf
ROOT
ATOM      1  C   UNL     1      33.139  11.213  22.590  1.00  0.00     0.000 C 
ENDROOT
BRANCH   1   2
ATOM      2  C   UNL     1      32.050  10.661  23.528  1.00  0.00     0.000 C 
BRANCH   2   3
ATOM      3  C   UNL     1      31.232   9.530  22.885  1.00  0.00     0.000 C 
BRANCH   3   4
ATOM      4  C   UNL     1      32.023   8.770  21.807  1.00  0.00     0.000 C 
BRANCH   4   5
ATOM      5  C   UNL     1      31.383   7.418  21.449  1.00  0.00     0.000 C 
BRANCH   5   6
ATOM      6  C   UNL     1      32.365   6.463  20.748  1.00  0.00     0.006 C 
BRANCH   6   7
ATOM      7  C   UNL     1      31.707   5.128  20.376  1.00  0.00     0.053 C 
BRANCH   7   8
ATOM      8  C   UNL     1      32.130   4.025  21.299  1.00  0.00     0.041 C 
ATOM      9  O   UNL     1      31.663   2.865  21.156  1.00  0.00    -0.550 OA
ATOM     10  O   UNL     1      33.012   4.290  22.339  1.00  0.00    -0.550 OA
ENDBRANCH   7   8
ENDBRANCH   6   7
ENDBRANCH   5   6
ENDBRANCH   4   5
ENDBRANCH   3   4
ENDBRANCH   2   3
ENDBRANCH   1   2
BRANCH   1  11
ATOM     11  C   UNL     1      34.546  11.110  23.199  1.00  0.00     0.000 C 
BRANCH  11  12
ATOM     12  C   UNL     1      35.658  11.260  22.145  1.00  0.00    -0.000 C 
BRANCH  12  13
ATOM     13  C   UNL     1      35.616  10.151  21.081  1.00  0.00    -0.000 C 
BRANCH  13  14
ATOM     14  C   UNL     1      35.739   8.746  21.689  1.00  0.00    -0.000 C 
BRANCH  14  15
ATOM     15  C   UNL     1      37.210   8.319  21.791  1.00  0.00    -0.000 C 
BRANCH  15  16
ATOM     16  C   UNL     1      37.789   8.502  23.204  1.00  0.00    -0.000 C 
BRANCH  16  17
ATOM     17  C   UNL     1      38.981   9.481  23.264  1.00  0.00    -0.003 C 
ATOM     18  C   UNL     1      39.259  10.143  21.914  1.00  0.00     0.004 C 
ENDBRANCH  16  17
ENDBRANCH  15  16
ENDBRANCH  14  15
ENDBRANCH  13  14
ENDBRANCH  12  13
ENDBRANCH  11  12
ENDBRANCH   1  11
TORSDOF 14
ENDMDL
MODEL 8
REMARK VINA RESULT:    -3.289      3.736      4.791
REMARK INTER + INTRA:          -7.440
REMARK INTER:                  -5.547
REMARK INTRA:                  -1.893
REMARK UNBOUND:                -1.459
REMARK SMILES CCCCCCCCCCCCCCCC(=O)[O-]
REMARK SMILES IDX 9 1 10 2 11 3 12 4 13 5 14 6 15 7 16 8 17 9 18 10 8 11 7 12
REMARK SMILES IDX 6 13 5 14 4 15 3 16 2 17 1 18
REMARK H PARENT
REMARK Flexibility Score: inf
ROOT
ATOM      1  C   UNL     1      32.011   8.733  21.793  1.00  0.00     0.000 C 
ENDROOT
BRANCH   1   2
ATOM      2  C   UNL     1      31.331   7.395  21.448  1.00  0.00     0.000 C 
BRANCH   2   3
ATOM      3  C   UNL     1      32.012   6.668  20.279  1.00  0.00     0.000 C 
BRANCH   3   4
ATOM      4  C   UNL     1      33.535   6.883  20.257  1.00  0.00     0.000 C 
BRANCH   4   5
ATOM      5  C   UNL     1      34.060   7.247  18.859  1.00  0.00     0.000 C 
BRANCH   5   6
ATOM      6  C   UNL     1      34.615   8.681  18.788  1.00  0.00     0.006 C 
BRANCH   6   7
ATOM      7  C   UNL     1      33.504   9.722  18.598  1.00  0.00     0.053 C 
BRANCH   7   8
ATOM      8  C   UNL     1      33.969  11.100  18.959  1.00  0.00     0.041 C 
ATOM      9  O   UNL     1      35.194  11.327  19.148  1.00  0.00    -0.550 OA
ATOM     10  O   UNL     1      33.046  12.125  19.120  1.00  0.00    -0.550 OA
ENDBRANCH   7   8
ENDBRANCH   6   7
ENDBRANCH   5   6
ENDBRANCH   4   5
ENDBRANCH   3   4
ENDBRANCH   2   3
ENDBRANCH   1   2
BRANCH   1  11
ATOM     11  C   UNL     1      31.290   9.485  22.922  1.00  0.00     0.000 C 
BRANCH  11  12
ATOM     12  C   UNL     1      32.077  10.714  23.409  1.00  0.00    -0.000 C 
BRANCH  12  13
ATOM     13  C   UNL     1      33.368  10.944  22.607  1.00  0.00    -0.000 C 
BRANCH  13  14
ATOM     14  C   UNL     1      34.565  11.295  23.504  1.00  0.00    -0.000 C 
BRANCH  14  15
ATOM     15  C   UNL     1      35.876  10.779  22.896  1.00  0.00    -0.000 C 
BRANCH  15  16
ATOM     16  C   UNL     1      35.690   9.491  22.076  1.00  0.00    -0.000 C 
BRANCH  16  17
ATOM     17  C   UNL     1      36.933   8.575  22.070  1.00  0.00    -0.003 C 
ATOM     18  C   UNL     1      37.783   8.739  23.330  1.00  0.00     0.004 C 
ENDBRANCH  16  17
ENDBRANCH  15  16
ENDBRANCH  14  15
ENDBRANCH  13  14
ENDBRANCH  12  13
ENDBRANCH  11  12
ENDBRANCH   1  11
TORSDOF 14
ENDMDL
