MODEL 1
REMARK VINA RESULT:    -6.250      0.000      0.000
REMARK INTER + INTRA:          -6.433
REMARK INTER:                  -6.433
REMARK INTRA:                   0.000
REMARK UNBOUND:                 0.000
REMARK SMILES O=c1ccc2ccc(O)cc2o1
REMARK SMILES IDX 6 1 7 2 8 3 10 4 11 5 5 6 4 7 3 8 2 9 1 10 12 11 9 12
REMARK H PARENT 9 13
REMARK Flexibility Score: inf
ROOT
ATOM      1  C   UNL     1     -30.026  -3.043 -18.774  1.00  0.00     0.016 A 
ATOM      2  C   UNL     1     -29.926  -2.486 -20.054  1.00  0.00     0.047 A 
ATOM      3  C   UNL     1     -31.084  -2.203 -20.794  1.00  0.00     0.119 A 
ATOM      4  C   UNL     1     -32.344  -2.479 -20.251  1.00  0.00     0.094 A 
ATOM      5  C   UNL     1     -32.453  -3.036 -18.972  1.00  0.00     0.142 A 
ATOM      6  C   UNL     1     -31.287  -3.320 -18.228  1.00  0.00     0.018 A 
ATOM      7  C   UNL     1     -31.428  -3.876 -16.953  1.00  0.00     0.019 A 
ATOM      8  C   UNL     1     -32.705  -4.132 -16.456  1.00  0.00     0.094 A 
ATOM      9  C   UNL     1     -33.816  -3.825 -17.249  1.00  0.00     0.336 A 
ATOM     10  O   UNL     1     -34.977  -4.048 -16.817  1.00  0.00    -0.246 OA
ATOM     11  O   UNL     1     -33.654  -3.296 -18.460  1.00  0.00    -0.423 OA
ENDROOT
BRANCH   3  12
ATOM     12  O   UNL     1     -30.992  -1.649 -22.069  1.00  0.00    -0.508 OA
ATOM     13  H   UNL     1     -30.534  -0.760 -22.228  1.00  0.00     0.293 HD
ENDBRANCH   3  12
TORSDOF 1
ENDMDL
MODEL 2
REMARK VINA RESULT:    -6.104      1.359      1.582
REMARK INTER + INTRA:          -6.282
REMARK INTER:                  -6.282
REMARK INTRA:                   0.000
REMARK UNBOUND:                 0.000
REMARK SMILES O=c1ccc2ccc(O)cc2o1
REMARK SMILES IDX 6 1 7 2 8 3 10 4 11 5 5 6 4 7 3 8 2 9 1 10 12 11 9 12
REMARK H PARENT 9 13
REMARK Flexibility Score: inf
ROOT
ATOM      1  C   UNL     1     -31.368  -2.670 -18.117  1.00  0.00     0.016 A 
ATOM      2  C   UNL     1     -31.509  -2.026 -19.350  1.00  0.00     0.047 A 
ATOM      3  C   UNL     1     -32.628  -2.282 -20.157  1.00  0.00     0.119 A 
ATOM      4  C   UNL     1     -33.607  -3.185 -19.729  1.00  0.00     0.094 A 
ATOM      5  C   UNL     1     -33.474  -3.834 -18.496  1.00  0.00     0.142 A 
ATOM      6  C   UNL     1     -32.347  -3.575 -17.684  1.00  0.00     0.018 A 
ATOM      7  C   UNL     1     -32.242  -4.239 -16.458  1.00  0.00     0.019 A 
ATOM      8  C   UNL     1     -33.244  -5.130 -16.074  1.00  0.00     0.094 A 
ATOM      9  C   UNL     1     -34.331  -5.337 -16.930  1.00  0.00     0.336 A 
ATOM     10  O   UNL     1     -35.246  -6.137 -16.600  1.00  0.00    -0.246 OA
ATOM     11  O   UNL     1     -34.408  -4.692 -18.092  1.00  0.00    -0.423 OA
ENDROOT
BRANCH   3  12
ATOM     12  O   UNL     1     -32.775  -1.644 -21.387  1.00  0.00    -0.508 OA
ATOM     13  H   UNL     1     -33.689  -1.465 -21.785  1.00  0.00     0.293 HD
ENDBRANCH   3  12
TORSDOF 1
ENDMDL
MODEL 3
REMARK VINA RESULT:    -6.040      7.716     10.044
REMARK INTER + INTRA:          -6.216
REMARK INTER:                  -6.216
REMARK INTRA:                   0.000
REMARK UNBOUND:                 0.000
REMARK SMILES O=c1ccc2ccc(O)cc2o1
REMARK SMILES IDX 6 1 7 2 8 3 10 4 11 5 5 6 4 7 3 8 2 9 1 10 12 11 9 12
REMARK H PARENT 9 13
REMARK Flexibility Score: inf
ROOT
ATOM      1  C   UNL     1     -38.923  -8.841 -13.748  1.00  0.00     0.016 A 
ATOM      2  C   UNL     1     -40.321  -8.805 -13.735  1.00  0.00     0.047 A 
ATOM      3  C   UNL     1     -40.995  -7.584 -13.578  1.00  0.00     0.119 A 
ATOM      4  C   UNL     1     -40.267  -6.398 -13.434  1.00  0.00     0.094 A 
ATOM      5  C   UNL     1     -38.868  -6.425 -13.445  1.00  0.00     0.142 A 
ATOM      6  C   UNL     1     -38.191  -7.654 -13.604  1.00  0.00     0.018 A 
ATOM      7  C   UNL     1     -36.793  -7.649 -13.612  1.00  0.00     0.019 A 
ATOM      8  C   UNL     1     -36.112  -6.441 -13.465  1.00  0.00     0.094 A 
ATOM      9  C   UNL     1     -36.849  -5.262 -13.312  1.00  0.00     0.336 A 
ATOM     10  O   UNL     1     -36.252  -4.161 -13.179  1.00  0.00    -0.246 OA
ATOM     11  O   UNL     1     -38.180  -5.294 -13.308  1.00  0.00    -0.423 OA
ENDROOT
BRANCH   3  12
ATOM     12  O   UNL     1     -42.388  -7.541 -13.564  1.00  0.00    -0.508 OA
ATOM     13  H   UNL     1     -42.945  -8.321 -13.891  1.00  0.00     0.293 HD
ENDBRANCH   3  12
TORSDOF 1
ENDMDL
MODEL 4
REMARK VINA RESULT:    -5.705      1.628      2.403
REMARK INTER + INTRA:          -5.872
REMARK INTER:                  -5.872
REMARK INTRA:                   0.000
REMARK UNBOUND:                 0.000
REMARK SMILES O=c1ccc2ccc(O)cc2o1
REMARK SMILES IDX 6 1 7 2 8 3 10 4 11 5 5 6 4 7 3 8 2 9 1 10 12 11 9 12
REMARK H PARENT 9 13
REMARK Flexibility Score: inf
ROOT
ATOM      1  C   UNL     1     -31.940  -2.013 -20.944  1.00  0.00     0.016 A 
ATOM      2  C   UNL     1     -30.698  -1.720 -21.516  1.00  0.00     0.047 A 
ATOM      3  C   UNL     1     -29.514  -2.044 -20.837  1.00  0.00     0.119 A 
ATOM      4  C   UNL     1     -29.573  -2.664 -19.584  1.00  0.00     0.094 A 
ATOM      5  C   UNL     1     -30.812  -2.962 -19.005  1.00  0.00     0.142 A 
ATOM      6  C   UNL     1     -32.004  -2.634 -19.689  1.00  0.00     0.018 A 
ATOM      7  C   UNL     1     -33.226  -2.944 -19.085  1.00  0.00     0.019 A 
ATOM      8  C   UNL     1     -33.235  -3.562 -17.835  1.00  0.00     0.094 A 
ATOM      9  C   UNL     1     -32.015  -3.857 -17.216  1.00  0.00     0.336 A 
ATOM     10  O   UNL     1     -32.002  -4.416 -16.088  1.00  0.00    -0.246 OA
ATOM     11  O   UNL     1     -30.865  -3.552 -17.813  1.00  0.00    -0.423 OA
ENDROOT
BRANCH   3  12
ATOM     12  O   UNL     1     -28.272  -1.754 -21.400  1.00  0.00    -0.508 OA
ATOM     13  H   UNL     1     -27.701  -0.991 -21.058  1.00  0.00     0.293 HD
ENDBRANCH   3  12
TORSDOF 1
ENDMDL
MODEL 5
REMARK VINA RESULT:    -5.602      7.294      8.928
REMARK INTER + INTRA:          -5.766
REMARK INTER:                  -5.766
REMARK INTRA:                   0.000
REMARK UNBOUND:                 0.000
REMARK SMILES O=c1ccc2ccc(O)cc2o1
REMARK SMILES IDX 6 1 7 2 8 3 10 4 11 5 5 6 4 7 3 8 2 9 1 10 12 11 9 12
REMARK H PARENT 9 13
REMARK Flexibility Score: inf
ROOT
ATOM      1  C   UNL     1     -36.078  -6.350 -13.747  1.00  0.00     0.016 A 
ATOM      2  C   UNL     1     -36.056  -4.956 -13.631  1.00  0.00     0.047 A 
ATOM      3  C   UNL     1     -37.250  -4.244 -13.439  1.00  0.00     0.119 A 
ATOM      4  C   UNL     1     -38.468  -4.929 -13.363  1.00  0.00     0.094 A 
ATOM      5  C   UNL     1     -38.499  -6.324 -13.477  1.00  0.00     0.142 A 
ATOM      6  C   UNL     1     -37.296  -7.039 -13.670  1.00  0.00     0.018 A 
ATOM      7  C   UNL     1     -37.359  -8.432 -13.781  1.00  0.00     0.019 A 
ATOM      8  C   UNL     1     -38.597  -9.070 -13.698  1.00  0.00     0.094 A 
ATOM      9  C   UNL     1     -39.747  -8.296 -13.506  1.00  0.00     0.336 A 
ATOM     10  O   UNL     1     -40.873  -8.854 -13.428  1.00  0.00    -0.246 OA
ATOM     11  O   UNL     1     -39.659  -6.972 -13.403  1.00  0.00    -0.423 OA
ENDROOT
BRANCH   3  12
ATOM     12  O   UNL     1     -37.236  -2.856 -13.324  1.00  0.00    -0.508 OA
ATOM     13  H   UNL     1     -37.808  -2.269 -13.920  1.00  0.00     0.293 HD
ENDBRANCH   3  12
TORSDOF 1
ENDMDL
MODEL 6
REMARK VINA RESULT:    -5.533      2.636      3.617
REMARK INTER + INTRA:          -5.695
REMARK INTER:                  -5.695
REMARK INTRA:                   0.000
REMARK UNBOUND:                 0.000
REMARK SMILES O=c1ccc2ccc(O)cc2o1
REMARK SMILES IDX 6 1 7 2 8 3 10 4 11 5 5 6 4 7 3 8 2 9 1 10 12 11 9 12
REMARK H PARENT 9 13
REMARK Flexibility Score: inf
ROOT
ATOM      1  C   UNL     1     -31.800  -2.990 -18.086  1.00  0.00     0.016 A 
ATOM      2  C   UNL     1     -30.784  -3.731 -17.475  1.00  0.00     0.047 A 
ATOM      3  C   UNL     1     -31.065  -4.987 -16.915  1.00  0.00     0.119 A 
ATOM      4  C   UNL     1     -32.366  -5.501 -16.968  1.00  0.00     0.094 A 
ATOM      5  C   UNL     1     -33.388  -4.766 -17.578  1.00  0.00     0.142 A 
ATOM      6  C   UNL     1     -33.104  -3.502 -18.141  1.00  0.00     0.018 A 
ATOM      7  C   UNL     1     -34.146  -2.791 -18.744  1.00  0.00     0.019 A 
ATOM      8  C   UNL     1     -35.426  -3.345 -18.772  1.00  0.00     0.094 A 
ATOM      9  C   UNL     1     -35.633  -4.602 -18.194  1.00  0.00     0.336 A 
ATOM     10  O   UNL     1     -36.781  -5.119 -18.211  1.00  0.00    -0.246 OA
ATOM     11  O   UNL     1     -34.624  -5.258 -17.627  1.00  0.00    -0.423 OA
ENDROOT
BRANCH   3  12
ATOM     12  O   UNL     1     -30.058  -5.731 -16.303  1.00  0.00    -0.508 OA
ATOM     13  H   UNL     1     -29.810  -5.588 -15.331  1.00  0.00     0.293 HD
ENDBRANCH   3  12
TORSDOF 1
ENDMDL
MODEL 7
REMARK VINA RESULT:    -5.497      1.006      4.220
REMARK INTER + INTRA:          -5.658
REMARK INTER:                  -5.658
REMARK INTRA:                   0.000
REMARK UNBOUND:                 0.000
REMARK SMILES O=c1ccc2ccc(O)cc2o1
REMARK SMILES IDX 6 1 7 2 8 3 10 4 11 5 5 6 4 7 3 8 2 9 1 10 12 11 9 12
REMARK H PARENT 9 13
REMARK Flexibility Score: inf
ROOT
ATOM      1  C   UNL     1     -32.215  -4.073 -16.707  1.00  0.00     0.016 A 
ATOM      2  C   UNL     1     -33.584  -4.259 -16.484  1.00  0.00     0.047 A 
ATOM      3  C   UNL     1     -34.518  -3.860 -17.452  1.00  0.00     0.119 A 
ATOM      4  C   UNL     1     -34.081  -3.274 -18.645  1.00  0.00     0.094 A 
ATOM      5  C   UNL     1     -32.714  -3.084 -18.876  1.00  0.00     0.142 A 
ATOM      6  C   UNL     1     -31.774  -3.486 -17.901  1.00  0.00     0.018 A 
ATOM      7  C   UNL     1     -30.416  -3.284 -18.161  1.00  0.00     0.019 A 
ATOM      8  C   UNL     1     -30.029  -2.696 -19.365  1.00  0.00     0.094 A 
ATOM      9  C   UNL     1     -31.015  -2.323 -20.285  1.00  0.00     0.336 A 
ATOM     10  O   UNL     1     -30.686  -1.792 -21.378  1.00  0.00    -0.246 OA
ATOM     11  O   UNL     1     -32.303  -2.527 -20.013  1.00  0.00    -0.423 OA
ENDROOT
BRANCH   3  12
ATOM     12  O   UNL     1     -35.882  -4.041 -17.236  1.00  0.00    -0.508 OA
ATOM     13  H   UNL     1     -36.545  -3.288 -17.379  1.00  0.00     0.293 HD
ENDBRANCH   3  12
TORSDOF 1
ENDMDL
MODEL 8
REMARK VINA RESULT:    -5.482      8.384      9.767
REMARK INTER + INTRA:          -5.642
REMARK INTER:                  -5.642
REMARK INTRA:                   0.000
REMARK UNBOUND:                 0.000
REMARK SMILES O=c1ccc2ccc(O)cc2o1
REMARK SMILES IDX 6 1 7 2 8 3 10 4 11 5 5 6 4 7 3 8 2 9 1 10 12 11 9 12
REMARK H PARENT 9 13
REMARK Flexibility Score: inf
ROOT
ATOM      1  C   UNL     1     -39.703  -8.398 -13.557  1.00  0.00     0.016 A 
ATOM      2  C   UNL     1     -38.677  -9.056 -14.242  1.00  0.00     0.047 A 
ATOM      3  C   UNL     1     -37.494  -8.376 -14.567  1.00  0.00     0.119 A 
ATOM      4  C   UNL     1     -37.338  -7.033 -14.205  1.00  0.00     0.094 A 
ATOM      5  C   UNL     1     -38.359  -6.366 -13.519  1.00  0.00     0.142 A 
ATOM      6  C   UNL     1     -39.550  -7.052 -13.193  1.00  0.00     0.018 A 
ATOM      7  C   UNL     1     -40.552  -6.360 -12.507  1.00  0.00     0.019 A 
ATOM      8  C   UNL     1     -40.350  -5.022 -12.168  1.00  0.00     0.094 A 
ATOM      9  C   UNL     1     -39.145  -4.407 -12.524  1.00  0.00     0.336 A 
ATOM     10  O   UNL     1     -38.944  -3.200 -12.226  1.00  0.00    -0.246 OA
ATOM     11  O   UNL     1     -38.207  -5.089 -13.177  1.00  0.00    -0.423 OA
ENDROOT
BRANCH   3  12
ATOM     12  O   UNL     1     -36.468  -9.026 -15.249  1.00  0.00    -0.508 OA
ATOM     13  H   UNL     1     -35.678  -9.430 -14.759  1.00  0.00     0.293 HD
ENDBRANCH   3  12
TORSDOF 1
ENDMDL
