MODEL 1
REMARK VINA RESULT:    -6.328      0.000      0.000
REMARK INTER + INTRA:          -7.868
REMARK INTER:                  -7.623
REMARK INTRA:                  -0.245
REMARK UNBOUND:                -0.245
REMARK SMILES O=c1c(O)c(-c2ccc(O)c(O)c2)oc2cc(O)cc(O)c12
REMARK SMILES IDX 5 1 3 2 2 3 1 4 22 5 20 6 19 7 17 8 16 9 15 10 14 11 6 12
REMARK SMILES IDX 7 13 8 14 9 15 13 16 11 17 10 18 12 20 4 22 21 24 18 26
REMARK H PARENT 10 19 12 21 4 23 21 25 18 27
REMARK Flexibility Score: inf
ROOT
ATOM      1  C   UNL     1      -1.064  26.811  -8.219  1.00  0.00     0.180 A 
ATOM      2  C   UNL     1      -0.289  27.079  -7.077  1.00  0.00     0.208 A 
ATOM      3  C   UNL     1       0.876  26.328  -6.852  1.00  0.00     0.238 A 
ATOM      4  O   UNL     1       1.593  26.610  -5.857  1.00  0.00    -0.285 OA
ATOM      5  C   UNL     1       1.242  25.307  -7.761  1.00  0.00     0.111 A 
ATOM      6  C   UNL     1       2.379  24.457  -7.610  1.00  0.00     0.134 A 
ATOM      7  C   UNL     1       2.719  23.569  -8.638  1.00  0.00     0.093 A 
ATOM      8  C   UNL     1       1.928  23.452  -9.779  1.00  0.00     0.123 A 
ATOM      9  C   UNL     1       0.780  24.236  -9.911  1.00  0.00     0.094 A 
ATOM     10  C   UNL     1       0.436  25.157  -8.919  1.00  0.00     0.146 A 
ATOM     11  O   UNL     1      -0.658  25.891  -9.087  1.00  0.00    -0.452 OA
ENDROOT
BRANCH   1  12
ATOM     12  C   UNL     1      -2.317  27.542  -8.511  1.00  0.00     0.025 A 
ATOM     13  C   UNL     1      -3.461  27.290  -7.735  1.00  0.00     0.016 A 
ATOM     14  C   UNL     1      -4.648  27.984  -7.980  1.00  0.00     0.051 A 
ATOM     15  C   UNL     1      -4.708  28.950  -8.993  1.00  0.00     0.157 A 
ATOM     16  C   UNL     1      -2.375  28.527  -9.513  1.00  0.00     0.062 A 
ATOM     17  C   UNL     1      -3.563  29.226  -9.760  1.00  0.00     0.158 A 
BRANCH  15  18
ATOM     18  O   UNL     1      -5.895  29.639  -9.237  1.00  0.00    -0.504 OA
ATOM     19  H   UNL     1      -6.043  30.155 -10.096  1.00  0.00     0.293 HD
ENDBRANCH  15  18
BRANCH  17  20
ATOM     20  O   UNL     1      -3.584  30.190 -10.766  1.00  0.00    -0.504 OA
ATOM     21  H   UNL     1      -2.923  30.181 -11.534  1.00  0.00     0.293 HD
ENDBRANCH  17  20
ENDBRANCH   1  12
BRANCH   2  22
ATOM     22  O   UNL     1      -0.658  28.107  -6.204  1.00  0.00    -0.502 OA
ATOM     23  H   UNL     1      -1.348  27.977  -5.474  1.00  0.00     0.293 HD
ENDBRANCH   2  22
BRANCH   6  24
ATOM     24  O   UNL     1       3.185  24.428  -6.468  1.00  0.00    -0.507 OA
ATOM     25  H   UNL     1       3.091  23.763  -5.716  1.00  0.00     0.293 HD
ENDBRANCH   6  24
BRANCH   8  26
ATOM     26  O   UNL     1       2.287  22.546 -10.775  1.00  0.00    -0.508 OA
ATOM     27  H   UNL     1       2.957  21.806 -10.600  1.00  0.00     0.293 HD
ENDBRANCH   8  26
TORSDOF 6
ENDMDL
MODEL 2
REMARK VINA RESULT:    -6.221      1.233      1.431
REMARK INTER + INTRA:          -7.740
REMARK INTER:                  -7.418
REMARK INTRA:                  -0.321
REMARK UNBOUND:                -0.245
REMARK SMILES O=c1c(O)c(-c2ccc(O)c(O)c2)oc2cc(O)cc(O)c12
REMARK SMILES IDX 5 1 3 2 2 3 1 4 22 5 20 6 19 7 17 8 16 9 15 10 14 11 6 12
REMARK SMILES IDX 7 13 8 14 9 15 13 16 11 17 10 18 12 20 4 22 21 24 18 26
REMARK H PARENT 10 19 12 21 4 23 21 25 18 27
REMARK Flexibility Score: inf
ROOT
ATOM      1  C   UNL     1      -1.949  27.500  -8.084  1.00  0.00     0.180 A 
ATOM      2  C   UNL     1      -1.116  28.158  -7.162  1.00  0.00     0.208 A 
ATOM      3  C   UNL     1       0.036  27.504  -6.698  1.00  0.00     0.238 A 
ATOM      4  O   UNL     1       0.805  28.120  -5.915  1.00  0.00    -0.285 OA
ATOM      5  C   UNL     1       0.331  26.194  -7.146  1.00  0.00     0.111 A 
ATOM      6  C   UNL     1       1.448  25.421  -6.710  1.00  0.00     0.134 A 
ATOM      7  C   UNL     1       1.716  24.188  -7.318  1.00  0.00     0.093 A 
ATOM      8  C   UNL     1       0.870  23.671  -8.297  1.00  0.00     0.123 A 
ATOM      9  C   UNL     1      -0.259  24.391  -8.690  1.00  0.00     0.094 A 
ATOM     10  C   UNL     1      -0.531  25.640  -8.127  1.00  0.00     0.146 A 
ATOM     11  O   UNL     1      -1.610  26.298  -8.535  1.00  0.00    -0.452 OA
ENDROOT
BRANCH   1  12
ATOM     12  C   UNL     1      -3.193  28.115  -8.600  1.00  0.00     0.025 A 
ATOM     13  C   UNL     1      -4.386  27.978  -7.871  1.00  0.00     0.016 A 
ATOM     14  C   UNL     1      -5.567  28.567  -8.329  1.00  0.00     0.051 A 
ATOM     15  C   UNL     1      -5.572  29.313  -9.514  1.00  0.00     0.157 A 
ATOM     16  C   UNL     1      -3.198  28.882  -9.778  1.00  0.00     0.062 A 
ATOM     17  C   UNL     1      -4.380  29.476 -10.239  1.00  0.00     0.158 A 
BRANCH  15  18
ATOM     18  O   UNL     1      -6.753  29.898  -9.970  1.00  0.00    -0.504 OA
ATOM     19  H   UNL     1      -6.875  30.903  -9.989  1.00  0.00     0.293 HD
ENDBRANCH  15  18
BRANCH  17  20
ATOM     20  O   UNL     1      -4.347  30.224 -11.415  1.00  0.00    -0.504 OA
ATOM     21  H   UNL     1      -3.487  30.617 -11.779  1.00  0.00     0.293 HD
ENDBRANCH  17  20
ENDBRANCH   1  12
BRANCH   2  22
ATOM     22  O   UNL     1      -1.416  29.460  -6.751  1.00  0.00    -0.502 OA
ATOM     23  H   UNL     1      -1.315  30.260  -7.364  1.00  0.00     0.293 HD
ENDBRANCH   2  22
BRANCH   6  24
ATOM     24  O   UNL     1       2.305  25.804  -5.672  1.00  0.00    -0.507 OA
ATOM     25  H   UNL     1       2.009  26.015  -4.732  1.00  0.00     0.293 HD
ENDBRANCH   6  24
BRANCH   8  26
ATOM     26  O   UNL     1       1.158  22.433  -8.870  1.00  0.00    -0.508 OA
ATOM     27  H   UNL     1       1.005  22.258  -9.856  1.00  0.00     0.293 HD
ENDBRANCH   8  26
TORSDOF 6
ENDMDL
MODEL 3
REMARK VINA RESULT:    -6.200      1.430      2.124
REMARK INTER + INTRA:          -7.714
REMARK INTER:                  -7.387
REMARK INTRA:                  -0.327
REMARK UNBOUND:                -0.245
REMARK SMILES O=c1c(O)c(-c2ccc(O)c(O)c2)oc2cc(O)cc(O)c12
REMARK SMILES IDX 5 1 3 2 2 3 1 4 22 5 20 6 19 7 17 8 16 9 15 10 14 11 6 12
REMARK SMILES IDX 7 13 8 14 9 15 13 16 11 17 10 18 12 20 4 22 21 24 18 26
REMARK H PARENT 10 19 12 21 4 23 21 25 18 27
REMARK Flexibility Score: inf
ROOT
ATOM      1  C   UNL     1      -2.176  27.658  -8.373  1.00  0.00     0.180 A 
ATOM      2  C   UNL     1      -1.346  28.222  -7.389  1.00  0.00     0.208 A 
ATOM      3  C   UNL     1      -0.248  27.484  -6.919  1.00  0.00     0.238 A 
ATOM      4  O   UNL     1       0.522  28.017  -6.079  1.00  0.00    -0.285 OA
ATOM      5  C   UNL     1      -0.004  26.185  -7.424  1.00  0.00     0.111 A 
ATOM      6  C   UNL     1       1.054  25.332  -6.990  1.00  0.00     0.134 A 
ATOM      7  C   UNL     1       1.280  24.119  -7.652  1.00  0.00     0.093 A 
ATOM      8  C   UNL     1       0.447  23.697  -8.687  1.00  0.00     0.123 A 
ATOM      9  C   UNL     1      -0.628  24.497  -9.081  1.00  0.00     0.094 A 
ATOM     10  C   UNL     1      -0.856  25.729  -8.463  1.00  0.00     0.146 A 
ATOM     11  O   UNL     1      -1.883  26.463  -8.874  1.00  0.00    -0.452 OA
ENDROOT
BRANCH   1  12
ATOM     12  C   UNL     1      -3.366  28.363  -8.900  1.00  0.00     0.025 A 
ATOM     13  C   UNL     1      -3.275  29.057 -10.118  1.00  0.00     0.016 A 
ATOM     14  C   UNL     1      -4.391  29.713 -10.644  1.00  0.00     0.051 A 
ATOM     15  C   UNL     1      -5.618  29.673  -9.969  1.00  0.00     0.157 A 
ATOM     16  C   UNL     1      -4.605  28.308  -8.236  1.00  0.00     0.062 A 
ATOM     17  C   UNL     1      -5.726  28.962  -8.762  1.00  0.00     0.158 A 
BRANCH  15  18
ATOM     18  O   UNL     1      -6.729  30.330 -10.495  1.00  0.00    -0.504 OA
ATOM     19  H   UNL     1      -6.973  30.259 -11.476  1.00  0.00     0.293 HD
ENDBRANCH  15  18
BRANCH  17  20
ATOM     20  O   UNL     1      -6.936  28.891  -8.073  1.00  0.00    -0.504 OA
ATOM     21  H   UNL     1      -7.305  29.678  -7.553  1.00  0.00     0.293 HD
ENDBRANCH  17  20
ENDBRANCH   1  12
BRANCH   2  22
ATOM     22  O   UNL     1      -1.593  29.516  -6.921  1.00  0.00    -0.502 OA
ATOM     23  H   UNL     1      -2.482  29.787  -6.518  1.00  0.00     0.293 HD
ENDBRANCH   2  22
BRANCH   6  24
ATOM     24  O   UNL     1       1.889  25.615  -5.904  1.00  0.00    -0.507 OA
ATOM     25  H   UNL     1       1.569  25.902  -4.993  1.00  0.00     0.293 HD
ENDBRANCH   6  24
BRANCH   8  26
ATOM     26  O   UNL     1       0.691  22.477  -9.313  1.00  0.00    -0.508 OA
ATOM     27  H   UNL     1       1.608  22.243  -9.677  1.00  0.00     0.293 HD
ENDBRANCH   8  26
TORSDOF 6
ENDMDL
MODEL 4
REMARK VINA RESULT:    -6.143      1.420      2.953
REMARK INTER + INTRA:          -7.645
REMARK INTER:                  -7.317
REMARK INTRA:                  -0.328
REMARK UNBOUND:                -0.245
REMARK SMILES O=c1c(O)c(-c2ccc(O)c(O)c2)oc2cc(O)cc(O)c12
REMARK SMILES IDX 5 1 3 2 2 3 1 4 22 5 20 6 19 7 17 8 16 9 15 10 14 11 6 12
REMARK SMILES IDX 7 13 8 14 9 15 13 16 11 17 10 18 12 20 4 22 21 24 18 26
REMARK H PARENT 10 19 12 21 4 23 21 25 18 27
REMARK Flexibility Score: inf
ROOT
ATOM      1  C   UNL     1      -0.664  25.969  -8.344  1.00  0.00     0.180 A 
ATOM      2  C   UNL     1      -0.543  24.759  -9.049  1.00  0.00     0.208 A 
ATOM      3  C   UNL     1       0.571  23.939  -8.809  1.00  0.00     0.238 A 
ATOM      4  O   UNL     1       0.645  22.832  -9.403  1.00  0.00    -0.285 OA
ATOM      5  C   UNL     1       1.559  24.348  -7.882  1.00  0.00     0.111 A 
ATOM      6  C   UNL     1       2.750  23.616  -7.591  1.00  0.00     0.134 A 
ATOM      7  C   UNL     1       3.593  24.049  -6.560  1.00  0.00     0.093 A 
ATOM      8  C   UNL     1       3.324  25.221  -5.856  1.00  0.00     0.123 A 
ATOM      9  C   UNL     1       2.194  25.977  -6.171  1.00  0.00     0.094 A 
ATOM     10  C   UNL     1       1.315  25.551  -7.170  1.00  0.00     0.146 A 
ATOM     11  O   UNL     1       0.246  26.293  -7.432  1.00  0.00    -0.452 OA
ENDROOT
BRANCH   1  12
ATOM     12  C   UNL     1      -1.797  26.897  -8.560  1.00  0.00     0.025 A 
ATOM     13  C   UNL     1      -2.955  26.770  -7.775  1.00  0.00     0.016 A 
ATOM     14  C   UNL     1      -4.028  27.648  -7.948  1.00  0.00     0.051 A 
ATOM     15  C   UNL     1      -3.954  28.676  -8.898  1.00  0.00     0.157 A 
ATOM     16  C   UNL     1      -1.720  27.943  -9.497  1.00  0.00     0.062 A 
ATOM     17  C   UNL     1      -2.792  28.826  -9.672  1.00  0.00     0.158 A 
BRANCH  15  18
ATOM     18  O   UNL     1      -5.027  29.549  -9.070  1.00  0.00    -0.504 OA
ATOM     19  H   UNL     1      -5.834  29.295  -9.627  1.00  0.00     0.293 HD
ENDBRANCH  15  18
BRANCH  17  20
ATOM     20  O   UNL     1      -2.681  29.847 -10.616  1.00  0.00    -0.504 OA
ATOM     21  H   UNL     1      -3.274  30.667 -10.592  1.00  0.00     0.293 HD
ENDBRANCH  17  20
ENDBRANCH   1  12
BRANCH   2  22
ATOM     22  O   UNL     1      -1.543  24.365  -9.943  1.00  0.00    -0.502 OA
ATOM     23  H   UNL     1      -1.879  24.970 -10.683  1.00  0.00     0.293 HD
ENDBRANCH   2  22
BRANCH   6  24
ATOM     24  O   UNL     1       3.160  22.481  -8.298  1.00  0.00    -0.507 OA
ATOM     25  H   UNL     1       4.119  22.191  -8.412  1.00  0.00     0.293 HD
ENDBRANCH   6  24
BRANCH   8  26
ATOM     26  O   UNL     1       4.194  25.631  -4.847  1.00  0.00    -0.508 OA
ATOM     27  H   UNL     1       4.816  24.977  -4.386  1.00  0.00     0.293 HD
ENDBRANCH   8  26
TORSDOF 6
ENDMDL
MODEL 5
REMARK VINA RESULT:    -6.081      1.911      7.091
REMARK INTER + INTRA:          -7.571
REMARK INTER:                  -7.526
REMARK INTRA:                  -0.044
REMARK UNBOUND:                -0.245
REMARK SMILES O=c1c(O)c(-c2ccc(O)c(O)c2)oc2cc(O)cc(O)c12
REMARK SMILES IDX 5 1 3 2 2 3 1 4 22 5 20 6 19 7 17 8 16 9 15 10 14 11 6 12
REMARK SMILES IDX 7 13 8 14 9 15 13 16 11 17 10 18 12 20 4 22 21 24 18 26
REMARK H PARENT 10 19 12 21 4 23 21 25 18 27
REMARK Flexibility Score: inf
ROOT
ATOM      1  C   UNL     1      -0.094  26.164  -8.035  1.00  0.00     0.180 A 
ATOM      2  C   UNL     1      -1.273  26.108  -8.799  1.00  0.00     0.208 A 
ATOM      3  C   UNL     1      -2.263  27.083  -8.598  1.00  0.00     0.238 A 
ATOM      4  O   UNL     1      -3.290  27.058  -9.323  1.00  0.00    -0.285 OA
ATOM      5  C   UNL     1      -2.070  28.091  -7.623  1.00  0.00     0.111 A 
ATOM      6  C   UNL     1      -3.023  29.105  -7.307  1.00  0.00     0.134 A 
ATOM      7  C   UNL     1      -2.674  30.130  -6.419  1.00  0.00     0.093 A 
ATOM      8  C   UNL     1      -1.432  30.141  -5.786  1.00  0.00     0.123 A 
ATOM      9  C   UNL     1      -0.513  29.122  -6.042  1.00  0.00     0.094 A 
ATOM     10  C   UNL     1      -0.820  28.106  -6.951  1.00  0.00     0.146 A 
ATOM     11  O   UNL     1       0.085  27.161  -7.175  1.00  0.00    -0.452 OA
ENDROOT
BRANCH   1  12
ATOM     12  C   UNL     1       0.983  25.158  -8.171  1.00  0.00     0.025 A 
ATOM     13  C   UNL     1       1.384  24.418  -7.047  1.00  0.00     0.016 A 
ATOM     14  C   UNL     1       2.385  23.449  -7.158  1.00  0.00     0.051 A 
ATOM     15  C   UNL     1       2.989  23.194  -8.396  1.00  0.00     0.157 A 
ATOM     16  C   UNL     1       1.578  24.885  -9.416  1.00  0.00     0.062 A 
ATOM     17  C   UNL     1       2.579  23.913  -9.531  1.00  0.00     0.158 A 
BRANCH  15  18
ATOM     18  O   UNL     1       3.989  22.229  -8.503  1.00  0.00    -0.504 OA
ATOM     19  H   UNL     1       4.115  21.687  -9.349  1.00  0.00     0.293 HD
ENDBRANCH  15  18
BRANCH  17  20
ATOM     20  O   UNL     1       3.150  23.674 -10.781  1.00  0.00    -0.504 OA
ATOM     21  H   UNL     1       3.439  22.748 -11.072  1.00  0.00     0.293 HD
ENDBRANCH  17  20
ENDBRANCH   1  12
BRANCH   2  22
ATOM     22  O   UNL     1      -1.431  25.116  -9.771  1.00  0.00    -0.502 OA
ATOM     23  H   UNL     1      -0.681  24.487 -10.033  1.00  0.00     0.293 HD
ENDBRANCH   2  22
BRANCH   6  24
ATOM     24  O   UNL     1      -4.327  29.136  -7.814  1.00  0.00    -0.507 OA
ATOM     25  H   UNL     1      -5.028  29.812  -7.555  1.00  0.00     0.293 HD
ENDBRANCH   6  24
BRANCH   8  26
ATOM     26  O   UNL     1      -1.124  31.167  -4.895  1.00  0.00    -0.508 OA
ATOM     27  H   UNL     1      -0.752  32.053  -5.217  1.00  0.00     0.293 HD
ENDBRANCH   8  26
TORSDOF 6
ENDMDL
MODEL 6
REMARK VINA RESULT:    -5.908      2.402      7.897
REMARK INTER + INTRA:          -7.362
REMARK INTER:                  -7.182
REMARK INTRA:                  -0.181
REMARK UNBOUND:                -0.245
REMARK SMILES O=c1c(O)c(-c2ccc(O)c(O)c2)oc2cc(O)cc(O)c12
REMARK SMILES IDX 5 1 3 2 2 3 1 4 22 5 20 6 19 7 17 8 16 9 15 10 14 11 6 12
REMARK SMILES IDX 7 13 8 14 9 15 13 16 11 17 10 18 12 20 4 22 21 24 18 26
REMARK H PARENT 10 19 12 21 4 23 21 25 18 27
REMARK Flexibility Score: inf
ROOT
ATOM      1  C   UNL     1       2.145  23.993  -8.534  1.00  0.00     0.180 A 
ATOM      2  C   UNL     1       1.041  23.740  -9.366  1.00  0.00     0.208 A 
ATOM      3  C   UNL     1      -0.084  24.576  -9.279  1.00  0.00     0.238 A 
ATOM      4  O   UNL     1      -1.046  24.377 -10.064  1.00  0.00    -0.285 OA
ATOM      5  C   UNL     1      -0.096  25.645  -8.350  1.00  0.00     0.111 A 
ATOM      6  C   UNL     1      -1.197  26.530  -8.149  1.00  0.00     0.134 A 
ATOM      7  C   UNL     1      -1.051  27.632  -7.297  1.00  0.00     0.093 A 
ATOM      8  C   UNL     1       0.131  27.843  -6.590  1.00  0.00     0.123 A 
ATOM      9  C   UNL     1       1.195  26.950  -6.734  1.00  0.00     0.094 A 
ATOM     10  C   UNL     1       1.091  25.862  -7.604  1.00  0.00     0.146 A 
ATOM     11  O   UNL     1       2.129  25.042  -7.721  1.00  0.00    -0.452 OA
ENDROOT
BRANCH   1  12
ATOM     12  C   UNL     1       3.355  23.140  -8.550  1.00  0.00     0.025 A 
ATOM     13  C   UNL     1       3.641  22.326  -7.442  1.00  0.00     0.016 A 
ATOM     14  C   UNL     1       4.767  21.498  -7.444  1.00  0.00     0.051 A 
ATOM     15  C   UNL     1       5.616  21.460  -8.558  1.00  0.00     0.157 A 
ATOM     16  C   UNL     1       4.198  23.084  -9.674  1.00  0.00     0.062 A 
ATOM     17  C   UNL     1       5.326  22.254  -9.680  1.00  0.00     0.158 A 
BRANCH  15  18
ATOM     18  O   UNL     1       6.739  20.635  -8.555  1.00  0.00    -0.504 OA
ATOM     19  H   UNL     1       7.283  20.476  -9.395  1.00  0.00     0.293 HD
ENDBRANCH  15  18
BRANCH  17  20
ATOM     20  O   UNL     1       6.142  22.229 -10.811  1.00  0.00    -0.504 OA
ATOM     21  H   UNL     1       6.659  23.044 -11.118  1.00  0.00     0.293 HD
ENDBRANCH  17  20
ENDBRANCH   1  12
BRANCH   2  22
ATOM     22  O   UNL     1       1.084  22.693 -10.291  1.00  0.00    -0.502 OA
ATOM     23  H   UNL     1       1.760  22.662 -11.045  1.00  0.00     0.293 HD
ENDBRANCH   2  22
BRANCH   6  24
ATOM     24  O   UNL     1      -2.455  26.358  -8.736  1.00  0.00    -0.507 OA
ATOM     25  H   UNL     1      -2.979  27.086  -9.195  1.00  0.00     0.293 HD
ENDBRANCH   6  24
BRANCH   8  26
ATOM     26  O   UNL     1       0.236  28.941  -5.739  1.00  0.00    -0.508 OA
ATOM     27  H   UNL     1      -0.158  28.927  -4.805  1.00  0.00     0.293 HD
ENDBRANCH   8  26
TORSDOF 6
ENDMDL
MODEL 7
REMARK VINA RESULT:    -5.894      1.542      3.247
REMARK INTER + INTRA:          -7.345
REMARK INTER:                  -7.025
REMARK INTRA:                  -0.320
REMARK UNBOUND:                -0.245
REMARK SMILES O=c1c(O)c(-c2ccc(O)c(O)c2)oc2cc(O)cc(O)c12
REMARK SMILES IDX 5 1 3 2 2 3 1 4 22 5 20 6 19 7 17 8 16 9 15 10 14 11 6 12
REMARK SMILES IDX 7 13 8 14 9 15 13 16 11 17 10 18 12 20 4 22 21 24 18 26
REMARK H PARENT 10 19 12 21 4 23 21 25 18 27
REMARK Flexibility Score: inf
ROOT
ATOM      1  C   UNL     1      -0.591  26.177  -8.361  1.00  0.00     0.180 A 
ATOM      2  C   UNL     1      -0.561  24.942  -9.032  1.00  0.00     0.208 A 
ATOM      3  C   UNL     1       0.463  24.029  -8.735  1.00  0.00     0.238 A 
ATOM      4  O   UNL     1       0.452  22.905  -9.300  1.00  0.00    -0.285 OA
ATOM      5  C   UNL     1       1.455  24.369  -7.784  1.00  0.00     0.111 A 
ATOM      6  C   UNL     1       2.562  23.538  -7.436  1.00  0.00     0.134 A 
ATOM      7  C   UNL     1       3.408  23.918  -6.387  1.00  0.00     0.093 A 
ATOM      8  C   UNL     1       3.229  25.129  -5.720  1.00  0.00     0.123 A 
ATOM      9  C   UNL     1       2.184  25.977  -6.092  1.00  0.00     0.094 A 
ATOM     10  C   UNL     1       1.302  25.608  -7.110  1.00  0.00     0.146 A 
ATOM     11  O   UNL     1       0.316  26.439  -7.427  1.00  0.00    -0.452 OA
ENDROOT
BRANCH   1  12
ATOM     12  C   UNL     1      -1.624  27.200  -8.638  1.00  0.00     0.025 A 
ATOM     13  C   UNL     1      -1.441  28.096  -9.704  1.00  0.00     0.016 A 
ATOM     14  C   UNL     1      -2.413  29.056  -9.996  1.00  0.00     0.051 A 
ATOM     15  C   UNL     1      -3.588  29.127  -9.237  1.00  0.00     0.157 A 
ATOM     16  C   UNL     1      -2.814  27.261  -7.892  1.00  0.00     0.062 A 
ATOM     17  C   UNL     1      -3.791  28.221  -8.183  1.00  0.00     0.158 A 
BRANCH  15  18
ATOM     18  O   UNL     1      -4.555  30.088  -9.530  1.00  0.00    -0.504 OA
ATOM     19  H   UNL     1      -4.597  30.968  -9.029  1.00  0.00     0.293 HD
ENDBRANCH  15  18
BRANCH  17  20
ATOM     20  O   UNL     1      -4.956  28.255  -7.417  1.00  0.00    -0.504 OA
ATOM     21  H   UNL     1      -5.195  27.514  -6.770  1.00  0.00     0.293 HD
ENDBRANCH  17  20
ENDBRANCH   1  12
BRANCH   2  22
ATOM     22  O   UNL     1      -1.564  24.619  -9.951  1.00  0.00    -0.502 OA
ATOM     23  H   UNL     1      -2.530  24.486  -9.677  1.00  0.00     0.293 HD
ENDBRANCH   2  22
BRANCH   6  24
ATOM     24  O   UNL     1       2.887  22.352  -8.101  1.00  0.00    -0.507 OA
ATOM     25  H   UNL     1       2.348  21.948  -8.851  1.00  0.00     0.293 HD
ENDBRANCH   6  24
BRANCH   8  26
ATOM     26  O   UNL     1       4.100  25.483  -4.692  1.00  0.00    -0.508 OA
ATOM     27  H   UNL     1       3.942  26.308  -4.124  1.00  0.00     0.293 HD
ENDBRANCH   8  26
TORSDOF 6
ENDMDL
MODEL 8
REMARK VINA RESULT:    -5.780      2.705      3.341
REMARK INTER + INTRA:          -7.209
REMARK INTER:                  -6.899
REMARK INTRA:                  -0.310
REMARK UNBOUND:                -0.245
REMARK SMILES O=c1c(O)c(-c2ccc(O)c(O)c2)oc2cc(O)cc(O)c12
REMARK SMILES IDX 5 1 3 2 2 3 1 4 22 5 20 6 19 7 17 8 16 9 15 10 14 11 6 12
REMARK SMILES IDX 7 13 8 14 9 15 13 16 11 17 10 18 12 20 4 22 21 24 18 26
REMARK H PARENT 10 19 12 21 4 23 21 25 18 27
REMARK Flexibility Score: inf
ROOT
ATOM      1  C   UNL     1       0.394  27.201  -8.119  1.00  0.00     0.180 A 
ATOM      2  C   UNL     1       1.778  26.969  -8.057  1.00  0.00     0.208 A 
ATOM      3  C   UNL     1       2.279  25.722  -8.466  1.00  0.00     0.238 A 
ATOM      4  O   UNL     1       3.524  25.541  -8.458  1.00  0.00    -0.285 OA
ATOM      5  C   UNL     1       1.388  24.719  -8.915  1.00  0.00     0.111 A 
ATOM      6  C   UNL     1       1.781  23.406  -9.315  1.00  0.00     0.134 A 
ATOM      7  C   UNL     1       0.831  22.538  -9.867  1.00  0.00     0.093 A 
ATOM      8  C   UNL     1      -0.508  22.910  -9.971  1.00  0.00     0.123 A 
ATOM      9  C   UNL     1      -0.915  24.170  -9.529  1.00  0.00     0.094 A 
ATOM     10  C   UNL     1       0.017  25.071  -9.008  1.00  0.00     0.146 A 
ATOM     11  O   UNL     1      -0.409  26.263  -8.608  1.00  0.00    -0.452 OA
ENDROOT
BRANCH   1  12
ATOM     12  C   UNL     1      -0.212  28.480  -7.682  1.00  0.00     0.025 A 
ATOM     13  C   UNL     1      -0.273  29.558  -8.581  1.00  0.00     0.016 A 
ATOM     14  C   UNL     1      -0.858  30.767  -8.196  1.00  0.00     0.051 A 
ATOM     15  C   UNL     1      -1.404  30.912  -6.914  1.00  0.00     0.157 A 
ATOM     16  C   UNL     1      -0.779  28.623  -6.404  1.00  0.00     0.062 A 
ATOM     17  C   UNL     1      -1.369  29.832  -6.016  1.00  0.00     0.158 A 
BRANCH  15  18
ATOM     18  O   UNL     1      -1.985  32.120  -6.532  1.00  0.00    -0.504 OA
ATOM     19  H   UNL     1      -2.924  32.372  -6.818  1.00  0.00     0.293 HD
ENDBRANCH  15  18
BRANCH  17  20
ATOM     20  O   UNL     1      -1.915  29.939  -4.737  1.00  0.00    -0.504 OA
ATOM     21  H   UNL     1      -2.284  30.813  -4.382  1.00  0.00     0.293 HD
ENDBRANCH  17  20
ENDBRANCH   1  12
BRANCH   2  22
ATOM     22  O   UNL     1       2.641  27.982  -7.630  1.00  0.00    -0.502 OA
ATOM     23  H   UNL     1       3.044  28.658  -8.269  1.00  0.00     0.293 HD
ENDBRANCH   2  22
BRANCH   6  24
ATOM     24  O   UNL     1       3.077  22.901  -9.167  1.00  0.00    -0.507 OA
ATOM     25  H   UNL     1       3.668  22.604  -9.928  1.00  0.00     0.293 HD
ENDBRANCH   6  24
BRANCH   8  26
ATOM     26  O   UNL     1      -1.429  22.015 -10.511  1.00  0.00    -0.508 OA
ATOM     27  H   UNL     1      -2.313  22.331 -10.894  1.00  0.00     0.293 HD
ENDBRANCH   8  26
TORSDOF 6
ENDMDL
MODEL 9
REMARK VINA RESULT:    -5.775      2.460      3.688
REMARK INTER + INTRA:          -7.202
REMARK INTER:                  -6.917
REMARK INTRA:                  -0.285
REMARK UNBOUND:                -0.245
REMARK SMILES O=c1c(O)c(-c2ccc(O)c(O)c2)oc2cc(O)cc(O)c12
REMARK SMILES IDX 5 1 3 2 2 3 1 4 22 5 20 6 19 7 17 8 16 9 15 10 14 11 6 12
REMARK SMILES IDX 7 13 8 14 9 15 13 16 11 17 10 18 12 20 4 22 21 24 18 26
REMARK H PARENT 10 19 12 21 4 23 21 25 18 27
REMARK Flexibility Score: inf
ROOT
ATOM      1  C   UNL     1      -0.183  27.113  -7.602  1.00  0.00     0.180 A 
ATOM      2  C   UNL     1      -0.940  26.246  -8.408  1.00  0.00     0.208 A 
ATOM      3  C   UNL     1      -0.452  24.955  -8.667  1.00  0.00     0.238 A 
ATOM      4  O   UNL     1      -1.161  24.166  -9.344  1.00  0.00    -0.285 OA
ATOM      5  C   UNL     1       0.796  24.554  -8.131  1.00  0.00     0.111 A 
ATOM      6  C   UNL     1       1.406  23.284  -8.363  1.00  0.00     0.134 A 
ATOM      7  C   UNL     1       2.578  22.946  -7.676  1.00  0.00     0.093 A 
ATOM      8  C   UNL     1       3.198  23.854  -6.820  1.00  0.00     0.123 A 
ATOM      9  C   UNL     1       2.642  25.120  -6.631  1.00  0.00     0.094 A 
ATOM     10  C   UNL     1       1.453  25.473  -7.274  1.00  0.00     0.146 A 
ATOM     11  O   UNL     1       0.952  26.684  -7.060  1.00  0.00    -0.452 OA
ENDROOT
BRANCH   1  12
ATOM     12  C   UNL     1      -0.619  28.496  -7.305  1.00  0.00     0.025 A 
ATOM     13  C   UNL     1      -0.464  29.494  -8.282  1.00  0.00     0.016 A 
ATOM     14  C   UNL     1      -0.888  30.801  -8.030  1.00  0.00     0.051 A 
ATOM     15  C   UNL     1      -1.485  31.129  -6.806  1.00  0.00     0.157 A 
ATOM     16  C   UNL     1      -1.237  28.824  -6.085  1.00  0.00     0.062 A 
ATOM     17  C   UNL     1      -1.665  30.133  -5.831  1.00  0.00     0.158 A 
BRANCH  15  18
ATOM     18  O   UNL     1      -1.904  32.434  -6.557  1.00  0.00    -0.504 OA
ATOM     19  H   UNL     1      -2.072  32.768  -5.616  1.00  0.00     0.293 HD
ENDBRANCH  15  18
BRANCH  17  20
ATOM     20  O   UNL     1      -2.268  30.422  -4.608  1.00  0.00    -0.504 OA
ATOM     21  H   UNL     1      -3.203  30.808  -4.547  1.00  0.00     0.293 HD
ENDBRANCH  17  20
ENDBRANCH   1  12
BRANCH   2  22
ATOM     22  O   UNL     1      -2.179  26.656  -8.908  1.00  0.00    -0.502 OA
ATOM     23  H   UNL     1      -2.707  26.103  -9.573  1.00  0.00     0.293 HD
ENDBRANCH   2  22
BRANCH   6  24
ATOM     24  O   UNL     1       0.919  22.338  -9.270  1.00  0.00    -0.507 OA
ATOM     25  H   UNL     1       0.344  22.552 -10.070  1.00  0.00     0.293 HD
ENDBRANCH   6  24
BRANCH   8  26
ATOM     26  O   UNL     1       4.373  23.489  -6.165  1.00  0.00    -0.508 OA
ATOM     27  H   UNL     1       4.430  22.640  -5.614  1.00  0.00     0.293 HD
ENDBRANCH   8  26
TORSDOF 6
ENDMDL
