MODEL 1
REMARK VINA RESULT:    -1.206      0.000      0.000
REMARK INTER + INTRA:          -0.979
REMARK INTER:                  -1.453
REMARK INTRA:                   0.474
REMARK UNBOUND:                 0.474
REMARK SMILES O=c1c(O)c(-c2ccc(O)c(O)c2)oc2cc(O)cc(O)c12
REMARK SMILES IDX 5 1 3 2 2 3 1 4 22 5 20 6 19 7 17 8 16 9 15 10 14 11 6 12
REMARK SMILES IDX 7 13 8 14 9 15 13 16 11 17 10 18 12 20 4 22 21 24 18 26
REMARK H PARENT 10 19 12 21 4 23 21 25 18 27
REMARK Flexibility Score: inf
ROOT
ATOM      1  C   UNL     1      -2.563 -15.070  -7.905  1.00  0.00     0.180 A 
ATOM      2  C   UNL     1      -3.839 -15.048  -7.315  1.00  0.00     0.208 A 
ATOM      3  C   UNL     1      -3.941 -14.993  -5.916  1.00  0.00     0.238 A 
ATOM      4  O   UNL     1      -5.084 -15.029  -5.391  1.00  0.00    -0.285 OA
ATOM      5  C   UNL     1      -2.767 -14.943  -5.126  1.00  0.00     0.111 A 
ATOM      6  C   UNL     1      -2.752 -14.845  -3.702  1.00  0.00     0.134 A 
ATOM      7  C   UNL     1      -1.535 -14.935  -3.015  1.00  0.00     0.093 A 
ATOM      8  C   UNL     1      -0.328 -15.054  -3.703  1.00  0.00     0.123 A 
ATOM      9  C   UNL     1      -0.325 -15.091  -5.099  1.00  0.00     0.094 A 
ATOM     10  C   UNL     1      -1.527 -15.040  -5.809  1.00  0.00     0.146 A 
ATOM     11  O   UNL     1      -1.483 -15.088  -7.135  1.00  0.00    -0.452 OA
ENDROOT
BRANCH   1  12
ATOM     12  C   UNL     1      -2.376 -15.102  -9.374  1.00  0.00     0.025 A 
ATOM     13  C   UNL     1      -1.076 -15.082  -9.905  1.00  0.00     0.016 A 
ATOM     14  C   UNL     1      -0.876 -15.090 -11.288  1.00  0.00     0.051 A 
ATOM     15  C   UNL     1      -1.972 -15.103 -12.160  1.00  0.00     0.157 A 
ATOM     16  C   UNL     1      -3.473 -15.095 -10.254  1.00  0.00     0.062 A 
ATOM     17  C   UNL     1      -3.276 -15.100 -11.639  1.00  0.00     0.158 A 
BRANCH  15  18
ATOM     18  O   UNL     1      -1.769 -15.114 -13.540  1.00  0.00    -0.504 OA
ATOM     19  H   UNL     1      -1.593 -14.261 -14.057  1.00  0.00     0.293 HD
ENDBRANCH  15  18
BRANCH  17  20
ATOM     20  O   UNL     1      -4.388 -15.099 -12.482  1.00  0.00    -0.504 OA
ATOM     21  H   UNL     1      -4.317 -14.872 -13.466  1.00  0.00     0.293 HD
ENDBRANCH  17  20
ENDBRANCH   1  12
BRANCH   2  22
ATOM     22  O   UNL     1      -4.984 -15.120  -8.113  1.00  0.00    -0.502 OA
ATOM     23  H   UNL     1      -5.726 -15.788  -7.941  1.00  0.00     0.293 HD
ENDBRANCH   2  22
BRANCH   6  24
ATOM     24  O   UNL     1      -3.894 -14.633  -2.923  1.00  0.00    -0.507 OA
ATOM     25  H   UNL     1      -4.501 -15.363  -2.583  1.00  0.00     0.293 HD
ENDBRANCH   6  24
BRANCH   8  26
ATOM     26  O   UNL     1       0.866 -15.125  -2.989  1.00  0.00    -0.508 OA
ATOM     27  H   UNL     1       1.720 -14.706  -3.341  1.00  0.00     0.293 HD
ENDBRANCH   8  26
TORSDOF 6
ENDMDL
MODEL 2
REMARK VINA RESULT:    -0.027      1.293      3.142
REMARK INTER + INTRA:           0.442
REMARK INTER:                  -0.032
REMARK INTRA:                   0.474
REMARK UNBOUND:                 0.474
REMARK SMILES O=c1c(O)c(-c2ccc(O)c(O)c2)oc2cc(O)cc(O)c12
REMARK SMILES IDX 5 1 3 2 2 3 1 4 22 5 20 6 19 7 17 8 16 9 15 10 14 11 6 12
REMARK SMILES IDX 7 13 8 14 9 15 13 16 11 17 10 18 12 20 4 22 21 24 18 26
REMARK H PARENT 10 19 12 21 4 23 21 25 18 27
REMARK Flexibility Score: inf
ROOT
ATOM      1  C   UNL     1      -2.522 -14.913  -8.533  1.00  0.00     0.180 A 
ATOM      2  C   UNL     1      -1.203 -14.905  -8.047  1.00  0.00     0.208 A 
ATOM      3  C   UNL     1      -0.988 -14.898  -6.660  1.00  0.00     0.238 A 
ATOM      4  O   UNL     1       0.193 -14.835  -6.232  1.00  0.00    -0.285 OA
ATOM      5  C   UNL     1      -2.095 -14.916  -5.776  1.00  0.00     0.111 A 
ATOM      6  C   UNL     1      -1.994 -14.951  -4.353  1.00  0.00     0.134 A 
ATOM      7  C   UNL     1      -3.152 -14.834  -3.575  1.00  0.00     0.093 A 
ATOM      8  C   UNL     1      -4.412 -14.750  -4.168  1.00  0.00     0.123 A 
ATOM      9  C   UNL     1      -4.527 -14.775  -5.559  1.00  0.00     0.094 A 
ATOM     10  C   UNL     1      -3.386 -14.854  -6.361  1.00  0.00     0.146 A 
ATOM     11  O   UNL     1      -3.538 -14.864  -7.680  1.00  0.00    -0.452 OA
ENDROOT
BRANCH   1  12
ATOM     12  C   UNL     1      -2.828 -14.947  -9.983  1.00  0.00     0.025 A 
ATOM     13  C   UNL     1      -4.163 -15.051 -10.404  1.00  0.00     0.016 A 
ATOM     14  C   UNL     1      -4.473 -15.106 -11.766  1.00  0.00     0.051 A 
ATOM     15  C   UNL     1      -3.452 -15.073 -12.725  1.00  0.00     0.157 A 
ATOM     16  C   UNL     1      -1.805 -14.934 -10.948  1.00  0.00     0.062 A 
ATOM     17  C   UNL     1      -2.112 -14.991 -12.312  1.00  0.00     0.158 A 
BRANCH  15  18
ATOM     18  O   UNL     1      -3.765 -15.125 -14.082  1.00  0.00    -0.504 OA
ATOM     19  H   UNL     1      -3.857 -16.007 -14.572  1.00  0.00     0.293 HD
ENDBRANCH  15  18
BRANCH  17  20
ATOM     20  O   UNL     1      -1.072 -14.970 -13.242  1.00  0.00    -0.504 OA
ATOM     21  H   UNL     1      -0.285 -15.604 -13.183  1.00  0.00     0.293 HD
ENDBRANCH  17  20
ENDBRANCH   1  12
BRANCH   2  22
ATOM     22  O   UNL     1      -0.127 -14.865  -8.938  1.00  0.00    -0.502 OA
ATOM     23  H   UNL     1       0.672 -14.257  -8.799  1.00  0.00     0.293 HD
ENDBRANCH   2  22
BRANCH   6  24
ATOM     24  O   UNL     1      -0.792 -15.125  -3.660  1.00  0.00    -0.507 OA
ATOM     25  H   UNL     1       0.024 -14.542  -3.769  1.00  0.00     0.293 HD
ENDBRANCH   6  24
BRANCH   8  26
ATOM     26  O   UNL     1      -5.545 -14.651  -3.363  1.00  0.00    -0.508 OA
ATOM     27  H   UNL     1      -5.494 -14.285  -2.420  1.00  0.00     0.293 HD
ENDBRANCH   8  26
TORSDOF 6
ENDMDL
MODEL 3
REMARK VINA RESULT:     0.832      1.590      3.351
REMARK INTER + INTRA:           1.476
REMARK INTER:                   0.925
REMARK INTRA:                   0.551
REMARK UNBOUND:                 0.474
REMARK SMILES O=c1c(O)c(-c2ccc(O)c(O)c2)oc2cc(O)cc(O)c12
REMARK SMILES IDX 5 1 3 2 2 3 1 4 22 5 20 6 19 7 17 8 16 9 15 10 14 11 6 12
REMARK SMILES IDX 7 13 8 14 9 15 13 16 11 17 10 18 12 20 4 22 21 24 18 26
REMARK H PARENT 10 19 12 21 4 23 21 25 18 27
REMARK Flexibility Score: inf
ROOT
ATOM      1  C   UNL     1      -2.681 -14.991  -9.682  1.00  0.00     0.180 A 
ATOM      2  C   UNL     1      -1.383 -14.953  -9.144  1.00  0.00     0.208 A 
ATOM      3  C   UNL     1      -1.223 -14.929  -7.750  1.00  0.00     0.238 A 
ATOM      4  O   UNL     1      -0.061 -14.841  -7.276  1.00  0.00    -0.285 OA
ATOM      5  C   UNL     1      -2.363 -14.960  -6.910  1.00  0.00     0.111 A 
ATOM      6  C   UNL     1      -2.318 -14.980  -5.484  1.00  0.00     0.134 A 
ATOM      7  C   UNL     1      -3.509 -14.877  -4.754  1.00  0.00     0.093 A 
ATOM      8  C   UNL     1      -4.745 -14.822  -5.397  1.00  0.00     0.123 A 
ATOM      9  C   UNL     1      -4.804 -14.862  -6.791  1.00  0.00     0.094 A 
ATOM     10  C   UNL     1      -3.632 -14.927  -7.546  1.00  0.00     0.146 A 
ATOM     11  O   UNL     1      -3.730 -14.952  -8.870  1.00  0.00    -0.452 OA
ENDROOT
BRANCH   1  12
ATOM     12  C   UNL     1      -2.928 -15.044 -11.142  1.00  0.00     0.025 A 
ATOM     13  C   UNL     1      -1.839 -15.012 -12.028  1.00  0.00     0.016 A 
ATOM     14  C   UNL     1      -2.049 -15.040 -13.409  1.00  0.00     0.051 A 
ATOM     15  C   UNL     1      -3.351 -15.085 -13.925  1.00  0.00     0.157 A 
ATOM     16  C   UNL     1      -4.233 -15.069 -11.664  1.00  0.00     0.062 A 
ATOM     17  C   UNL     1      -4.447 -15.095 -13.047  1.00  0.00     0.158 A 
BRANCH  15  18
ATOM     18  O   UNL     1      -3.557 -15.115 -15.303  1.00  0.00    -0.504 OA
ATOM     19  H   UNL     1      -2.792 -15.259 -15.951  1.00  0.00     0.293 HD
ENDBRANCH  15  18
BRANCH  17  20
ATOM     20  O   UNL     1      -5.756 -15.125 -13.529  1.00  0.00    -0.504 OA
ATOM     21  H   UNL     1      -6.311 -15.971 -13.526  1.00  0.00     0.293 HD
ENDBRANCH  17  20
ENDBRANCH   1  12
BRANCH   2  22
ATOM     22  O   UNL     1      -0.272 -14.902  -9.992  1.00  0.00    -0.502 OA
ATOM     23  H   UNL     1       0.679 -14.959  -9.647  1.00  0.00     0.293 HD
ENDBRANCH   2  22
BRANCH   6  24
ATOM     24  O   UNL     1      -1.142 -15.125  -4.742  1.00  0.00    -0.507 OA
ATOM     25  H   UNL     1      -0.372 -14.474  -4.753  1.00  0.00     0.293 HD
ENDBRANCH   6  24
BRANCH   8  26
ATOM     26  O   UNL     1      -5.911 -14.736  -4.638  1.00  0.00    -0.508 OA
ATOM     27  H   UNL     1      -6.460 -15.559  -4.417  1.00  0.00     0.293 HD
ENDBRANCH   8  26
TORSDOF 6
ENDMDL
