MODEL 1
REMARK VINA RESULT:    -5.526      0.000      0.000
REMARK INTER + INTRA:          -6.735
REMARK INTER:                  -6.657
REMARK INTRA:                  -0.078
REMARK UNBOUND:                -0.078
REMARK SMILES O=c1c(O)c(-c2ccc(O)c(O)c2)oc2cc(O)cc(O)c12
REMARK SMILES IDX 5 1 3 2 2 3 1 4 22 5 20 6 19 7 17 8 16 9 15 10 14 11 6 12
REMARK SMILES IDX 7 13 8 14 9 15 13 16 11 17 10 18 12 20 4 22 21 24 18 26
REMARK H PARENT 10 19 12 21 4 23 21 25 18 27
REMARK Flexibility Score: inf
ROOT
ATOM      1  C   UNL     1      43.056 -41.712  31.436  1.00  0.00     0.180 A 
ATOM      2  C   UNL     1      42.425 -42.008  32.655  1.00  0.00     0.208 A 
ATOM      3  C   UNL     1      41.642 -43.170  32.754  1.00  0.00     0.238 A 
ATOM      4  O   UNL     1      41.124 -43.457  33.865  1.00  0.00    -0.285 OA
ATOM      5  C   UNL     1      41.486 -44.012  31.626  1.00  0.00     0.111 A 
ATOM      6  C   UNL     1      40.684 -45.192  31.602  1.00  0.00     0.134 A 
ATOM      7  C   UNL     1      40.707 -46.019  30.472  1.00  0.00     0.093 A 
ATOM      8  C   UNL     1      41.454 -45.674  29.342  1.00  0.00     0.123 A 
ATOM      9  C   UNL     1      42.193 -44.494  29.336  1.00  0.00     0.094 A 
ATOM     10  C   UNL     1      42.218 -43.667  30.461  1.00  0.00     0.146 A 
ATOM     11  O   UNL     1      42.944 -42.556  30.416  1.00  0.00    -0.452 OA
ENDROOT
BRANCH   1  12
ATOM     12  C   UNL     1      43.877 -40.495  31.247  1.00  0.00     0.025 A 
ATOM     13  C   UNL     1      43.310 -39.234  31.491  1.00  0.00     0.016 A 
ATOM     14  C   UNL     1      44.072 -38.073  31.339  1.00  0.00     0.051 A 
ATOM     15  C   UNL     1      45.417 -38.157  30.958  1.00  0.00     0.157 A 
ATOM     16  C   UNL     1      45.234 -40.575  30.885  1.00  0.00     0.062 A 
ATOM     17  C   UNL     1      46.001 -39.410  30.734  1.00  0.00     0.158 A 
BRANCH  15  18
ATOM     18  O   UNL     1      46.181 -37.001  30.804  1.00  0.00    -0.504 OA
ATOM     19  H   UNL     1      46.991 -36.819  31.385  1.00  0.00     0.293 HD
ENDBRANCH  15  18
BRANCH  17  20
ATOM     20  O   UNL     1      47.343 -39.492  30.368  1.00  0.00    -0.504 OA
ATOM     21  H   UNL     1      47.807 -40.385  30.251  1.00  0.00     0.293 HD
ENDBRANCH  17  20
ENDBRANCH   1  12
BRANCH   2  22
ATOM     22  O   UNL     1      42.609 -41.174  33.763  1.00  0.00    -0.502 OA
ATOM     23  H   UNL     1      43.259 -41.396  34.508  1.00  0.00     0.293 HD
ENDBRANCH   2  22
BRANCH   6  24
ATOM     24  O   UNL     1      39.832 -45.578  32.641  1.00  0.00    -0.507 OA
ATOM     25  H   UNL     1      40.129 -46.031  33.490  1.00  0.00     0.293 HD
ENDBRANCH   6  24
BRANCH   8  26
ATOM     26  O   UNL     1      41.458 -46.495  28.217  1.00  0.00    -0.508 OA
ATOM     27  H   UNL     1      42.186 -46.429  27.514  1.00  0.00     0.293 HD
ENDBRANCH   8  26
TORSDOF 6
ENDMDL
MODEL 2
REMARK VINA RESULT:    -5.468      1.368      6.576
REMARK INTER + INTRA:          -6.664
REMARK INTER:                  -6.348
REMARK INTRA:                  -0.316
REMARK UNBOUND:                -0.078
REMARK SMILES O=c1c(O)c(-c2ccc(O)c(O)c2)oc2cc(O)cc(O)c12
REMARK SMILES IDX 5 1 3 2 2 3 1 4 22 5 20 6 19 7 17 8 16 9 15 10 14 11 6 12
REMARK SMILES IDX 7 13 8 14 9 15 13 16 11 17 10 18 12 20 4 22 21 24 18 26
REMARK H PARENT 10 19 12 21 4 23 21 25 18 27
REMARK Flexibility Score: inf
ROOT
ATOM      1  C   UNL     1      42.671 -42.770  31.121  1.00  0.00     0.180 A 
ATOM      2  C   UNL     1      41.975 -42.314  32.253  1.00  0.00     0.208 A 
ATOM      3  C   UNL     1      42.374 -41.113  32.862  1.00  0.00     0.238 A 
ATOM      4  O   UNL     1      41.713 -40.682  33.842  1.00  0.00    -0.285 OA
ATOM      5  C   UNL     1      43.477 -40.393  32.342  1.00  0.00     0.111 A 
ATOM      6  C   UNL     1      43.994 -39.186  32.902  1.00  0.00     0.134 A 
ATOM      7  C   UNL     1      45.004 -38.490  32.229  1.00  0.00     0.093 A 
ATOM      8  C   UNL     1      45.562 -38.991  31.049  1.00  0.00     0.123 A 
ATOM      9  C   UNL     1      45.104 -40.197  30.526  1.00  0.00     0.094 A 
ATOM     10  C   UNL     1      44.072 -40.897  31.156  1.00  0.00     0.146 A 
ATOM     11  O   UNL     1      43.658 -42.038  30.618  1.00  0.00    -0.452 OA
ENDROOT
BRANCH   1  12
ATOM     12  C   UNL     1      42.324 -44.038  30.440  1.00  0.00     0.025 A 
ATOM     13  C   UNL     1      41.577 -44.002  29.252  1.00  0.00     0.016 A 
ATOM     14  C   UNL     1      41.256 -45.185  28.582  1.00  0.00     0.051 A 
ATOM     15  C   UNL     1      41.693 -46.419  29.080  1.00  0.00     0.157 A 
ATOM     16  C   UNL     1      42.778 -45.278  30.925  1.00  0.00     0.062 A 
ATOM     17  C   UNL     1      42.458 -46.466  30.252  1.00  0.00     0.158 A 
BRANCH  15  18
ATOM     18  O   UNL     1      41.373 -47.602  28.416  1.00  0.00    -0.504 OA
ATOM     19  H   UNL     1      41.243 -48.474  28.916  1.00  0.00     0.293 HD
ENDBRANCH  15  18
BRANCH  17  20
ATOM     20  O   UNL     1      42.903 -47.694  30.738  1.00  0.00    -0.504 OA
ATOM     21  H   UNL     1      43.680 -47.759  31.385  1.00  0.00     0.293 HD
ENDBRANCH  17  20
ENDBRANCH   1  12
BRANCH   2  22
ATOM     22  O   UNL     1      40.875 -43.030  32.737  1.00  0.00    -0.502 OA
ATOM     23  H   UNL     1      40.094 -43.292  32.148  1.00  0.00     0.293 HD
ENDBRANCH   2  22
BRANCH   6  24
ATOM     24  O   UNL     1      43.572 -38.650  34.123  1.00  0.00    -0.507 OA
ATOM     25  H   UNL     1      43.389 -37.673  34.289  1.00  0.00     0.293 HD
ENDBRANCH   6  24
BRANCH   8  26
ATOM     26  O   UNL     1      46.578 -38.298  30.395  1.00  0.00    -0.508 OA
ATOM     27  H   UNL     1      46.408 -37.799  29.529  1.00  0.00     0.293 HD
ENDBRANCH   8  26
TORSDOF 6
ENDMDL
MODEL 3
REMARK VINA RESULT:    -5.349      5.622      8.584
REMARK INTER + INTRA:          -6.521
REMARK INTER:                  -6.206
REMARK INTRA:                  -0.316
REMARK UNBOUND:                -0.078
REMARK SMILES O=c1c(O)c(-c2ccc(O)c(O)c2)oc2cc(O)cc(O)c12
REMARK SMILES IDX 5 1 3 2 2 3 1 4 22 5 20 6 19 7 17 8 16 9 15 10 14 11 6 12
REMARK SMILES IDX 7 13 8 14 9 15 13 16 11 17 10 18 12 20 4 22 21 24 18 26
REMARK H PARENT 10 19 12 21 4 23 21 25 18 27
REMARK Flexibility Score: inf
ROOT
ATOM      1  C   UNL     1      38.246 -44.318  26.944  1.00  0.00     0.180 A 
ATOM      2  C   UNL     1      37.990 -42.956  26.717  1.00  0.00     0.208 A 
ATOM      3  C   UNL     1      37.593 -42.540  25.435  1.00  0.00     0.238 A 
ATOM      4  O   UNL     1      37.313 -41.327  25.252  1.00  0.00    -0.285 OA
ATOM      5  C   UNL     1      37.475 -43.491  24.392  1.00  0.00     0.111 A 
ATOM      6  C   UNL     1      37.119 -43.177  23.046  1.00  0.00     0.134 A 
ATOM      7  C   UNL     1      36.904 -44.213  22.129  1.00  0.00     0.093 A 
ATOM      8  C   UNL     1      37.095 -45.549  22.493  1.00  0.00     0.123 A 
ATOM      9  C   UNL     1      37.498 -45.861  23.789  1.00  0.00     0.094 A 
ATOM     10  C   UNL     1      37.686 -44.852  24.736  1.00  0.00     0.146 A 
ATOM     11  O   UNL     1      38.061 -45.194  25.963  1.00  0.00    -0.452 OA
ENDROOT
BRANCH   1  12
ATOM     12  C   UNL     1      38.691 -44.828  28.260  1.00  0.00     0.025 A 
ATOM     13  C   UNL     1      37.734 -45.161  29.232  1.00  0.00     0.016 A 
ATOM     14  C   UNL     1      38.132 -45.663  30.474  1.00  0.00     0.051 A 
ATOM     15  C   UNL     1      39.490 -45.856  30.755  1.00  0.00     0.157 A 
ATOM     16  C   UNL     1      40.053 -45.043  28.540  1.00  0.00     0.062 A 
ATOM     17  C   UNL     1      40.453 -45.549  29.786  1.00  0.00     0.158 A 
BRANCH  15  18
ATOM     18  O   UNL     1      39.891 -46.355  31.994  1.00  0.00    -0.504 OA
ATOM     19  H   UNL     1      40.655 -47.015  32.078  1.00  0.00     0.293 HD
ENDBRANCH  15  18
BRANCH  17  20
ATOM     20  O   UNL     1      41.803 -45.753  30.063  1.00  0.00    -0.504 OA
ATOM     21  H   UNL     1      42.523 -45.533  29.386  1.00  0.00     0.293 HD
ENDBRANCH  17  20
ENDBRANCH   1  12
BRANCH   2  22
ATOM     22  O   UNL     1      38.092 -42.037  27.766  1.00  0.00    -0.502 OA
ATOM     23  H   UNL     1      37.914 -41.047  27.641  1.00  0.00     0.293 HD
ENDBRANCH   2  22
BRANCH   6  24
ATOM     24  O   UNL     1      36.994 -41.873  22.556  1.00  0.00    -0.507 OA
ATOM     25  H   UNL     1      36.518 -41.622  21.705  1.00  0.00     0.293 HD
ENDBRANCH   6  24
BRANCH   8  26
ATOM     26  O   UNL     1      36.893 -46.572  21.570  1.00  0.00    -0.508 OA
ATOM     27  H   UNL     1      36.418 -47.430  21.823  1.00  0.00     0.293 HD
ENDBRANCH   8  26
TORSDOF 6
ENDMDL
MODEL 4
REMARK VINA RESULT:    -4.910      1.720      7.164
REMARK INTER + INTRA:          -5.992
REMARK INTER:                  -6.098
REMARK INTRA:                   0.106
REMARK UNBOUND:                -0.078
REMARK SMILES O=c1c(O)c(-c2ccc(O)c(O)c2)oc2cc(O)cc(O)c12
REMARK SMILES IDX 5 1 3 2 2 3 1 4 22 5 20 6 19 7 17 8 16 9 15 10 14 11 6 12
REMARK SMILES IDX 7 13 8 14 9 15 13 16 11 17 10 18 12 20 4 22 21 24 18 26
REMARK H PARENT 10 19 12 21 4 23 21 25 18 27
REMARK Flexibility Score: inf
ROOT
ATOM      1  C   UNL     1      42.139 -42.951  31.802  1.00  0.00     0.180 A 
ATOM      2  C   UNL     1      43.126 -43.481  30.954  1.00  0.00     0.208 A 
ATOM      3  C   UNL     1      44.183 -42.656  30.538  1.00  0.00     0.238 A 
ATOM      4  O   UNL     1      45.092 -43.151  29.823  1.00  0.00    -0.285 OA
ATOM      5  C   UNL     1      44.231 -41.305  30.961  1.00  0.00     0.111 A 
ATOM      6  C   UNL     1      45.233 -40.368  30.569  1.00  0.00     0.134 A 
ATOM      7  C   UNL     1      45.255 -39.096  31.153  1.00  0.00     0.093 A 
ATOM      8  C   UNL     1      44.272 -38.705  32.066  1.00  0.00     0.123 A 
ATOM      9  C   UNL     1      43.256 -39.593  32.411  1.00  0.00     0.094 A 
ATOM     10  C   UNL     1      43.228 -40.882  31.872  1.00  0.00     0.146 A 
ATOM     11  O   UNL     1      42.248 -41.700  32.235  1.00  0.00    -0.452 OA
ENDROOT
BRANCH   1  12
ATOM     12  C   UNL     1      40.982 -43.752  32.263  1.00  0.00     0.025 A 
ATOM     13  C   UNL     1      40.509 -43.592  33.575  1.00  0.00     0.016 A 
ATOM     14  C   UNL     1      39.407 -44.322  34.024  1.00  0.00     0.051 A 
ATOM     15  C   UNL     1      38.750 -45.210  33.162  1.00  0.00     0.157 A 
ATOM     16  C   UNL     1      40.307 -44.630  31.395  1.00  0.00     0.062 A 
ATOM     17  C   UNL     1      39.199 -45.362  31.845  1.00  0.00     0.158 A 
BRANCH  15  18
ATOM     18  O   UNL     1      37.650 -45.943  33.607  1.00  0.00    -0.504 OA
ATOM     19  H   UNL     1      36.751 -45.882  33.144  1.00  0.00     0.293 HD
ENDBRANCH  15  18
BRANCH  17  20
ATOM     20  O   UNL     1      38.536 -46.237  30.986  1.00  0.00    -0.504 OA
ATOM     21  H   UNL     1      38.911 -46.471  30.074  1.00  0.00     0.293 HD
ENDBRANCH  17  20
ENDBRANCH   1  12
BRANCH   2  22
ATOM     22  O   UNL     1      43.071 -44.823  30.565  1.00  0.00    -0.502 OA
ATOM     23  H   UNL     1      42.212 -45.269  30.268  1.00  0.00     0.293 HD
ENDBRANCH   2  22
BRANCH   6  24
ATOM     24  O   UNL     1      46.204 -40.626  29.597  1.00  0.00    -0.507 OA
ATOM     25  H   UNL     1      46.653 -39.923  29.032  1.00  0.00     0.293 HD
ENDBRANCH   6  24
BRANCH   8  26
ATOM     26  O   UNL     1      44.293 -37.432  32.630  1.00  0.00    -0.508 OA
ATOM     27  H   UNL     1      45.159 -36.997  32.928  1.00  0.00     0.293 HD
ENDBRANCH   8  26
TORSDOF 6
ENDMDL
MODEL 5
REMARK VINA RESULT:    -4.796      2.671      7.168
REMARK INTER + INTRA:          -5.855
REMARK INTER:                  -5.521
REMARK INTRA:                  -0.334
REMARK UNBOUND:                -0.078
REMARK SMILES O=c1c(O)c(-c2ccc(O)c(O)c2)oc2cc(O)cc(O)c12
REMARK SMILES IDX 5 1 3 2 2 3 1 4 22 5 20 6 19 7 17 8 16 9 15 10 14 11 6 12
REMARK SMILES IDX 7 13 8 14 9 15 13 16 11 17 10 18 12 20 4 22 21 24 18 26
REMARK H PARENT 10 19 12 21 4 23 21 25 18 27
REMARK Flexibility Score: inf
ROOT
ATOM      1  C   UNL     1      41.037 -43.700  31.051  1.00  0.00     0.180 A 
ATOM      2  C   UNL     1      42.394 -44.012  31.236  1.00  0.00     0.208 A 
ATOM      3  C   UNL     1      43.208 -43.119  31.952  1.00  0.00     0.238 A 
ATOM      4  O   UNL     1      44.409 -43.431  32.162  1.00  0.00    -0.285 OA
ATOM      5  C   UNL     1      42.657 -41.917  32.459  1.00  0.00     0.111 A 
ATOM      6  C   UNL     1      43.398 -40.921  33.164  1.00  0.00     0.134 A 
ATOM      7  C   UNL     1      42.725 -39.834  33.733  1.00  0.00     0.093 A 
ATOM      8  C   UNL     1      41.346 -39.673  33.567  1.00  0.00     0.123 A 
ATOM      9  C   UNL     1      40.625 -40.609  32.830  1.00  0.00     0.094 A 
ATOM     10  C   UNL     1      41.263 -41.723  32.281  1.00  0.00     0.146 A 
ATOM     11  O   UNL     1      40.536 -42.597  31.595  1.00  0.00    -0.452 OA
ENDROOT
BRANCH   1  12
ATOM     12  C   UNL     1      40.123 -44.579  30.287  1.00  0.00     0.025 A 
ATOM     13  C   UNL     1      39.346 -45.529  30.969  1.00  0.00     0.016 A 
ATOM     14  C   UNL     1      38.462 -46.354  30.270  1.00  0.00     0.051 A 
ATOM     15  C   UNL     1      38.329 -46.230  28.881  1.00  0.00     0.157 A 
ATOM     16  C   UNL     1      39.970 -44.443  28.895  1.00  0.00     0.062 A 
ATOM     17  C   UNL     1      39.081 -45.271  28.192  1.00  0.00     0.158 A 
BRANCH  15  18
ATOM     18  O   UNL     1      37.449 -47.053  28.180  1.00  0.00    -0.504 OA
ATOM     19  H   UNL     1      37.761 -47.620  27.400  1.00  0.00     0.293 HD
ENDBRANCH  15  18
BRANCH  17  20
ATOM     20  O   UNL     1      38.937 -45.140  26.813  1.00  0.00    -0.504 OA
ATOM     21  H   UNL     1      38.806 -44.235  26.376  1.00  0.00     0.293 HD
ENDBRANCH  17  20
ENDBRANCH   1  12
BRANCH   2  22
ATOM     22  O   UNL     1      42.912 -45.215  30.746  1.00  0.00    -0.502 OA
ATOM     23  H   UNL     1      42.327 -45.927  30.323  1.00  0.00     0.293 HD
ENDBRANCH   2  22
BRANCH   6  24
ATOM     24  O   UNL     1      44.789 -40.939  33.307  1.00  0.00    -0.507 OA
ATOM     25  H   UNL     1      45.446 -40.779  32.560  1.00  0.00     0.293 HD
ENDBRANCH   6  24
BRANCH   8  26
ATOM     26  O   UNL     1      40.688 -38.579  34.123  1.00  0.00    -0.508 OA
ATOM     27  H   UNL     1      41.146 -37.682  34.232  1.00  0.00     0.293 HD
ENDBRANCH   8  26
TORSDOF 6
ENDMDL
MODEL 6
REMARK VINA RESULT:    -4.681      2.158      3.346
REMARK INTER + INTRA:          -5.716
REMARK INTER:                  -5.509
REMARK INTRA:                  -0.207
REMARK UNBOUND:                -0.078
REMARK SMILES O=c1c(O)c(-c2ccc(O)c(O)c2)oc2cc(O)cc(O)c12
REMARK SMILES IDX 5 1 3 2 2 3 1 4 22 5 20 6 19 7 17 8 16 9 15 10 14 11 6 12
REMARK SMILES IDX 7 13 8 14 9 15 13 16 11 17 10 18 12 20 4 22 21 24 18 26
REMARK H PARENT 10 19 12 21 4 23 21 25 18 27
REMARK Flexibility Score: inf
ROOT
ATOM      1  C   UNL     1      41.019 -43.474  31.310  1.00  0.00     0.180 A 
ATOM      2  C   UNL     1      40.459 -44.208  32.369  1.00  0.00     0.208 A 
ATOM      3  C   UNL     1      39.440 -45.135  32.092  1.00  0.00     0.238 A 
ATOM      4  O   UNL     1      38.980 -45.828  33.036  1.00  0.00    -0.285 OA
ATOM      5  C   UNL     1      38.982 -45.301  30.763  1.00  0.00     0.111 A 
ATOM      6  C   UNL     1      37.927 -46.181  30.374  1.00  0.00     0.134 A 
ATOM      7  C   UNL     1      37.646 -46.362  29.014  1.00  0.00     0.093 A 
ATOM      8  C   UNL     1      38.338 -45.646  28.033  1.00  0.00     0.123 A 
ATOM      9  C   UNL     1      39.329 -44.742  28.407  1.00  0.00     0.094 A 
ATOM     10  C   UNL     1      39.656 -44.566  29.754  1.00  0.00     0.146 A 
ATOM     11  O   UNL     1      40.614 -43.701  30.066  1.00  0.00    -0.452 OA
ENDROOT
BRANCH   1  12
ATOM     12  C   UNL     1      42.080 -42.464  31.526  1.00  0.00     0.025 A 
ATOM     13  C   UNL     1      43.349 -42.662  30.960  1.00  0.00     0.016 A 
ATOM     14  C   UNL     1      44.358 -41.712  31.134  1.00  0.00     0.051 A 
ATOM     15  C   UNL     1      44.107 -40.541  31.861  1.00  0.00     0.157 A 
ATOM     16  C   UNL     1      41.826 -41.277  32.237  1.00  0.00     0.062 A 
ATOM     17  C   UNL     1      42.838 -40.321  32.411  1.00  0.00     0.158 A 
BRANCH  15  18
ATOM     18  O   UNL     1      45.112 -39.591  32.039  1.00  0.00    -0.504 OA
ATOM     19  H   UNL     1      44.943 -38.605  31.877  1.00  0.00     0.293 HD
ENDBRANCH  15  18
BRANCH  17  20
ATOM     20  O   UNL     1      42.587 -39.150  33.122  1.00  0.00    -0.504 OA
ATOM     21  H   UNL     1      41.826 -38.529  32.871  1.00  0.00     0.293 HD
ENDBRANCH  17  20
ENDBRANCH   1  12
BRANCH   2  22
ATOM     22  O   UNL     1      40.941 -44.044  33.671  1.00  0.00    -0.502 OA
ATOM     23  H   UNL     1      41.455 -43.220  33.961  1.00  0.00     0.293 HD
ENDBRANCH   2  22
BRANCH   6  24
ATOM     24  O   UNL     1      37.115 -46.872  31.278  1.00  0.00    -0.507 OA
ATOM     25  H   UNL     1      37.071 -46.688  32.268  1.00  0.00     0.293 HD
ENDBRANCH   6  24
BRANCH   8  26
ATOM     26  O   UNL     1      38.040 -45.822  26.684  1.00  0.00    -0.508 OA
ATOM     27  H   UNL     1      37.096 -46.015  26.369  1.00  0.00     0.293 HD
ENDBRANCH   8  26
TORSDOF 6
ENDMDL
MODEL 7
REMARK VINA RESULT:    -4.616      2.587      4.836
REMARK INTER + INTRA:          -5.638
REMARK INTER:                  -5.384
REMARK INTRA:                  -0.253
REMARK UNBOUND:                -0.078
REMARK SMILES O=c1c(O)c(-c2ccc(O)c(O)c2)oc2cc(O)cc(O)c12
REMARK SMILES IDX 5 1 3 2 2 3 1 4 22 5 20 6 19 7 17 8 16 9 15 10 14 11 6 12
REMARK SMILES IDX 7 13 8 14 9 15 13 16 11 17 10 18 12 20 4 22 21 24 18 26
REMARK H PARENT 10 19 12 21 4 23 21 25 18 27
REMARK Flexibility Score: inf
ROOT
ATOM      1  C   UNL     1      40.509 -44.182  30.696  1.00  0.00     0.180 A 
ATOM      2  C   UNL     1      40.037 -44.206  29.373  1.00  0.00     0.208 A 
ATOM      3  C   UNL     1      39.010 -45.102  29.031  1.00  0.00     0.238 A 
ATOM      4  O   UNL     1      38.554 -45.081  27.858  1.00  0.00    -0.285 OA
ATOM      5  C   UNL     1      38.481 -45.974  30.014  1.00  0.00     0.111 A 
ATOM      6  C   UNL     1      37.467 -46.949  29.770  1.00  0.00     0.134 A 
ATOM      7  C   UNL     1      36.927 -47.666  30.843  1.00  0.00     0.093 A 
ATOM      8  C   UNL     1      37.409 -47.490  32.143  1.00  0.00     0.123 A 
ATOM      9  C   UNL     1      38.438 -46.583  32.382  1.00  0.00     0.094 A 
ATOM     10  C   UNL     1      38.973 -45.826  31.336  1.00  0.00     0.146 A 
ATOM     11  O   UNL     1      39.946 -44.965  31.609  1.00  0.00    -0.452 OA
ENDROOT
BRANCH   1  12
ATOM     12  C   UNL     1      41.604 -43.284  31.126  1.00  0.00     0.025 A 
ATOM     13  C   UNL     1      42.922 -43.562  30.730  1.00  0.00     0.016 A 
ATOM     14  C   UNL     1      43.968 -42.717  31.108  1.00  0.00     0.051 A 
ATOM     15  C   UNL     1      43.709 -41.571  31.872  1.00  0.00     0.157 A 
ATOM     16  C   UNL     1      41.346 -42.121  31.875  1.00  0.00     0.062 A 
ATOM     17  C   UNL     1      42.396 -41.271  32.253  1.00  0.00     0.158 A 
BRANCH  15  18
ATOM     18  O   UNL     1      44.750 -40.726  32.252  1.00  0.00    -0.504 OA
ATOM     19  H   UNL     1      45.681 -40.823  31.863  1.00  0.00     0.293 HD
ENDBRANCH  15  18
BRANCH  17  20
ATOM     20  O   UNL     1      42.139 -40.124  33.001  1.00  0.00    -0.504 OA
ATOM     21  H   UNL     1      42.626 -39.253  32.823  1.00  0.00     0.293 HD
ENDBRANCH  17  20
ENDBRANCH   1  12
BRANCH   2  22
ATOM     22  O   UNL     1      40.558 -43.322  28.424  1.00  0.00    -0.502 OA
ATOM     23  H   UNL     1      41.280 -43.593  27.766  1.00  0.00     0.293 HD
ENDBRANCH   2  22
BRANCH   6  24
ATOM     24  O   UNL     1      36.982 -47.268  28.498  1.00  0.00    -0.507 OA
ATOM     25  H   UNL     1      37.367 -46.924  27.632  1.00  0.00     0.293 HD
ENDBRANCH   6  24
BRANCH   8  26
ATOM     26  O   UNL     1      36.876 -48.220  33.203  1.00  0.00    -0.508 OA
ATOM     27  H   UNL     1      36.078 -47.885  33.730  1.00  0.00     0.293 HD
ENDBRANCH   8  26
TORSDOF 6
ENDMDL
MODEL 8
REMARK VINA RESULT:    -4.514      2.085      2.612
REMARK INTER + INTRA:          -5.515
REMARK INTER:                  -5.191
REMARK INTRA:                  -0.324
REMARK UNBOUND:                -0.078
REMARK SMILES O=c1c(O)c(-c2ccc(O)c(O)c2)oc2cc(O)cc(O)c12
REMARK SMILES IDX 5 1 3 2 2 3 1 4 22 5 20 6 19 7 17 8 16 9 15 10 14 11 6 12
REMARK SMILES IDX 7 13 8 14 9 15 13 16 11 17 10 18 12 20 4 22 21 24 18 26
REMARK H PARENT 10 19 12 21 4 23 21 25 18 27
REMARK Flexibility Score: inf
ROOT
ATOM      1  C   UNL     1      41.506 -42.046  31.878  1.00  0.00     0.180 A 
ATOM      2  C   UNL     1      40.127 -41.974  32.138  1.00  0.00     0.208 A 
ATOM      3  C   UNL     1      39.270 -42.916  31.544  1.00  0.00     0.238 A 
ATOM      4  O   UNL     1      38.044 -42.879  31.825  1.00  0.00    -0.285 OA
ATOM      5  C   UNL     1      39.802 -43.906  30.683  1.00  0.00     0.111 A 
ATOM      6  C   UNL     1      39.022 -44.885  29.996  1.00  0.00     0.134 A 
ATOM      7  C   UNL     1      39.666 -45.897  29.275  1.00  0.00     0.093 A 
ATOM      8  C   UNL     1      41.059 -45.928  29.162  1.00  0.00     0.123 A 
ATOM      9  C   UNL     1      41.824 -44.944  29.781  1.00  0.00     0.094 A 
ATOM     10  C   UNL     1      41.213 -43.941  30.537  1.00  0.00     0.146 A 
ATOM     11  O   UNL     1      41.981 -43.028  31.119  1.00  0.00    -0.452 OA
ENDROOT
BRANCH   1  12
ATOM     12  C   UNL     1      42.468 -41.076  32.447  1.00  0.00     0.025 A 
ATOM     13  C   UNL     1      43.214 -41.427  33.583  1.00  0.00     0.016 A 
ATOM     14  C   UNL     1      44.142 -40.534  34.125  1.00  0.00     0.051 A 
ATOM     15  C   UNL     1      44.349 -39.284  33.528  1.00  0.00     0.157 A 
ATOM     16  C   UNL     1      42.695 -39.827  31.839  1.00  0.00     0.062 A 
ATOM     17  C   UNL     1      43.627 -38.931  32.382  1.00  0.00     0.158 A 
BRANCH  15  18
ATOM     18  O   UNL     1      45.273 -38.389  34.067  1.00  0.00    -0.504 OA
ATOM     19  H   UNL     1      46.261 -38.611  34.113  1.00  0.00     0.293 HD
ENDBRANCH  15  18
BRANCH  17  20
ATOM     20  O   UNL     1      43.845 -37.692  31.783  1.00  0.00    -0.504 OA
ATOM     21  H   UNL     1      44.075 -37.611  30.799  1.00  0.00     0.293 HD
ENDBRANCH  17  20
ENDBRANCH   1  12
BRANCH   2  22
ATOM     22  O   UNL     1      39.626 -41.001  33.008  1.00  0.00    -0.502 OA
ATOM     23  H   UNL     1      39.581 -40.020  32.760  1.00  0.00     0.293 HD
ENDBRANCH   2  22
BRANCH   6  24
ATOM     24  O   UNL     1      37.625 -44.889  29.968  1.00  0.00    -0.507 OA
ATOM     25  H   UNL     1      37.067 -45.020  29.139  1.00  0.00     0.293 HD
ENDBRANCH   6  24
BRANCH   8  26
ATOM     26  O   UNL     1      41.689 -46.931  28.429  1.00  0.00    -0.508 OA
ATOM     27  H   UNL     1      41.836 -47.857  28.812  1.00  0.00     0.293 HD
ENDBRANCH   8  26
TORSDOF 6
ENDMDL
