MODEL 1
REMARK VINA RESULT:    -6.629      0.000      0.000
REMARK INTER + INTRA:         -11.679
REMARK INTER:                  -9.729
REMARK INTRA:                  -1.950
REMARK UNBOUND:                -1.950
REMARK SMILES O=c1c(O[C@@H]2O[C@@H](CO)[C@@H](O)[C@H](O)[C@@H]2O)c(-c2ccc(O)c(O)c2)oc2cc(O)cc(O)c12
REMARK SMILES IDX 4 1 3 2 16 3 25 4 2 5 26 6 1 7 33 8 27 9 31 10 28 11 30 12
REMARK SMILES IDX 17 13 18 14 19 15 20 16 24 17 22 18 21 19 23 21 32 23 29 25
REMARK SMILES IDX 5 27 14 28 6 29 12 30 7 31 10 32 15 33 13 35 8 37 9 38 11 40
REMARK H PARENT 21 20 23 22 32 24 29 26 15 34 13 36 9 39 11 41
REMARK Flexibility Score: inf
ROOT
ATOM      1  O   UNL     1      16.878  -3.218 -14.612  1.00  0.00    -0.454 OA
ENDROOT
BRANCH   1   2
ATOM      2  C   UNL     1      17.632  -2.888 -15.760  1.00  0.00     0.214 A 
ATOM      3  C   UNL     1      17.882  -3.906 -16.703  1.00  0.00     0.180 A 
ATOM      4  O   UNL     1      18.523  -3.633 -17.834  1.00  0.00    -0.452 OA
ATOM      5  C   UNL     1      18.125  -1.591 -16.034  1.00  0.00     0.239 A 
ATOM      6  C   UNL     1      18.988  -2.428 -18.135  1.00  0.00     0.146 A 
ATOM      7  O   UNL     1      17.949  -0.652 -15.213  1.00  0.00    -0.285 OA
ATOM      8  C   UNL     1      18.817  -1.347 -17.241  1.00  0.00     0.111 A 
ATOM      9  C   UNL     1      19.656  -2.243 -19.349  1.00  0.00     0.094 A 
ATOM     10  C   UNL     1      19.339  -0.077 -17.592  1.00  0.00     0.134 A 
ATOM     11  C   UNL     1      20.166  -0.991 -19.692  1.00  0.00     0.123 A 
ATOM     12  C   UNL     1      20.008   0.088 -18.814  1.00  0.00     0.093 A 
BRANCH   3  13
ATOM     13  C   UNL     1      17.431  -5.295 -16.484  1.00  0.00     0.025 A 
ATOM     14  C   UNL     1      18.337  -6.297 -16.103  1.00  0.00     0.016 A 
ATOM     15  C   UNL     1      17.900  -7.611 -15.918  1.00  0.00     0.051 A 
ATOM     16  C   UNL     1      16.555  -7.943 -16.126  1.00  0.00     0.157 A 
ATOM     17  C   UNL     1      16.089  -5.635 -16.716  1.00  0.00     0.062 A 
ATOM     18  C   UNL     1      15.646  -6.950 -16.531  1.00  0.00     0.158 A 
BRANCH  16  19
ATOM     19  O   UNL     1      16.120  -9.254 -15.937  1.00  0.00    -0.504 OA
ATOM     20  H   UNL     1      16.517  -9.847 -15.217  1.00  0.00     0.293 HD
ENDBRANCH  16  19
BRANCH  18  21
ATOM     21  O   UNL     1      14.304  -7.251 -16.756  1.00  0.00    -0.504 OA
ATOM     22  H   UNL     1      14.016  -8.064 -17.287  1.00  0.00     0.293 HD
ENDBRANCH  18  21
ENDBRANCH   3  13
BRANCH  10  23
ATOM     23  O   UNL     1      19.198   1.020 -16.740  1.00  0.00    -0.507 OA
ATOM     24  H   UNL     1      19.960   1.343 -16.156  1.00  0.00     0.293 HD
ENDBRANCH  10  23
BRANCH  11  25
ATOM     25  O   UNL     1      20.829  -0.827 -20.906  1.00  0.00    -0.508 OA
ATOM     26  H   UNL     1      21.592  -0.169 -21.007  1.00  0.00     0.293 HD
ENDBRANCH  11  25
ENDBRANCH   1   2
BRANCH   1  27
ATOM     27  C   UNL     1      17.379  -3.680 -13.352  1.00  0.00     0.339 C 
ATOM     28  C   UNL     1      16.965  -2.724 -12.212  1.00  0.00     0.214 C 
ATOM     29  O   UNL     1      16.963  -5.012 -13.083  1.00  0.00    -0.332 OA
ATOM     30  C   UNL     1      15.457  -2.826 -11.909  1.00  0.00     0.180 C 
ATOM     31  C   UNL     1      15.551  -5.105 -12.980  1.00  0.00     0.179 C 
ATOM     32  C   UNL     1      15.043  -4.298 -11.761  1.00  0.00     0.177 C 
BRANCH  28  33
ATOM     33  O   UNL     1      17.300  -1.398 -12.536  1.00  0.00    -0.384 OA
ATOM     34  H   UNL     1      17.940  -1.087 -11.844  1.00  0.00     0.211 HD
ENDBRANCH  28  33
BRANCH  30  35
ATOM     35  O   UNL     1      14.702  -2.232 -12.934  1.00  0.00    -0.387 OA
ATOM     36  H   UNL     1      15.287  -1.564 -13.379  1.00  0.00     0.211 HD
ENDBRANCH  30  35
BRANCH  31  37
ATOM     37  C   UNL     1      15.169  -6.590 -12.889  1.00  0.00     0.191 C 
BRANCH  37  38
ATOM     38  O   UNL     1      13.907  -6.745 -12.298  1.00  0.00    -0.394 OA
ATOM     39  H   UNL     1      13.929  -6.253 -11.435  1.00  0.00     0.210 HD
ENDBRANCH  37  38
ENDBRANCH  31  37
BRANCH  32  40
ATOM     40  O   UNL     1      15.590  -4.812 -10.570  1.00  0.00    -0.387 OA
ATOM     41  H   UNL     1      15.813  -5.764 -10.737  1.00  0.00     0.211 HD
ENDBRANCH  32  40
ENDBRANCH   1  27
TORSDOF 12
ENDMDL
MODEL 2
REMARK VINA RESULT:    -6.394      3.684      9.232
REMARK INTER + INTRA:         -11.334
REMARK INTER:                  -9.353
REMARK INTRA:                  -1.981
REMARK UNBOUND:                -1.950
REMARK SMILES O=c1c(O[C@@H]2O[C@@H](CO)[C@@H](O)[C@H](O)[C@@H]2O)c(-c2ccc(O)c(O)c2)oc2cc(O)cc(O)c12
REMARK SMILES IDX 4 1 3 2 16 3 25 4 2 5 26 6 1 7 33 8 27 9 31 10 28 11 30 12
REMARK SMILES IDX 17 13 18 14 19 15 20 16 24 17 22 18 21 19 23 21 32 23 29 25
REMARK SMILES IDX 5 27 14 28 6 29 12 30 7 31 10 32 15 33 13 35 8 37 9 38 11 40
REMARK H PARENT 21 20 23 22 32 24 29 26 15 34 13 36 9 39 11 41
REMARK Flexibility Score: inf
ROOT
ATOM      1  O   UNL     1      15.019  -6.196 -12.900  1.00  0.00    -0.454 OA
ENDROOT
BRANCH   1   2
ATOM      2  C   UNL     1      14.085  -6.340 -11.851  1.00  0.00     0.214 A 
ATOM      3  C   UNL     1      14.051  -5.344 -10.853  1.00  0.00     0.180 A 
ATOM      4  O   UNL     1      13.144  -5.393  -9.884  1.00  0.00    -0.452 OA
ATOM      5  C   UNL     1      13.162  -7.408 -11.756  1.00  0.00     0.239 A 
ATOM      6  C   UNL     1      12.253  -6.368  -9.769  1.00  0.00     0.146 A 
ATOM      7  O   UNL     1      13.167  -8.335 -12.609  1.00  0.00    -0.285 OA
ATOM      8  C   UNL     1      12.225  -7.431 -10.700  1.00  0.00     0.111 A 
ATOM      9  C   UNL     1      11.342  -6.334  -8.709  1.00  0.00     0.094 A 
ATOM     10  C   UNL     1      11.266  -8.462 -10.537  1.00  0.00     0.134 A 
ATOM     11  C   UNL     1      10.399  -7.349  -8.553  1.00  0.00     0.123 A 
ATOM     12  C   UNL     1      10.363  -8.410  -9.466  1.00  0.00     0.093 A 
BRANCH   3  13
ATOM     13  C   UNL     1      14.997  -4.211 -10.855  1.00  0.00     0.025 A 
ATOM     14  C   UNL     1      14.828  -3.131 -11.736  1.00  0.00     0.016 A 
ATOM     15  C   UNL     1      15.740  -2.074 -11.742  1.00  0.00     0.051 A 
ATOM     16  C   UNL     1      16.843  -2.089 -10.878  1.00  0.00     0.157 A 
ATOM     17  C   UNL     1      16.115  -4.235 -10.008  1.00  0.00     0.062 A 
ATOM     18  C   UNL     1      17.033  -3.178 -10.009  1.00  0.00     0.158 A 
BRANCH  16  19
ATOM     19  O   UNL     1      17.752  -1.031 -10.882  1.00  0.00    -0.504 OA
ATOM     20  H   UNL     1      18.336  -0.836 -11.687  1.00  0.00     0.293 HD
ENDBRANCH  16  19
BRANCH  18  21
ATOM     21  O   UNL     1      18.125  -3.228  -9.145  1.00  0.00    -0.504 OA
ATOM     22  H   UNL     1      18.121  -2.761  -8.245  1.00  0.00     0.293 HD
ENDBRANCH  18  21
ENDBRANCH   3  13
BRANCH  10  23
ATOM     23  O   UNL     1      11.203  -9.534 -11.429  1.00  0.00    -0.507 OA
ATOM     24  H   UNL     1      12.038  -9.958 -11.814  1.00  0.00     0.293 HD
ENDBRANCH  10  23
BRANCH  11  25
ATOM     25  O   UNL     1       9.501  -7.297  -7.489  1.00  0.00    -0.508 OA
ATOM     26  H   UNL     1       8.680  -7.890  -7.459  1.00  0.00     0.293 HD
ENDBRANCH  11  25
ENDBRANCH   1   2
BRANCH   1  27
ATOM     27  C   UNL     1      16.229  -6.938 -13.089  1.00  0.00     0.339 C 
ATOM     28  C   UNL     1      16.319  -7.486 -14.529  1.00  0.00     0.214 C 
ATOM     29  O   UNL     1      17.373  -6.160 -12.761  1.00  0.00    -0.332 OA
ATOM     30  C   UNL     1      16.583  -6.359 -15.547  1.00  0.00     0.180 C 
ATOM     31  C   UNL     1      17.494  -5.030 -13.609  1.00  0.00     0.179 C 
ATOM     32  C   UNL     1      17.745  -5.473 -15.071  1.00  0.00     0.177 C 
BRANCH  28  33
ATOM     33  O   UNL     1      15.141  -8.172 -14.870  1.00  0.00    -0.384 OA
ATOM     34  H   UNL     1      14.400  -7.729 -14.381  1.00  0.00     0.211 HD
ENDBRANCH  28  33
BRANCH  30  35
ATOM     35  O   UNL     1      15.436  -5.566 -15.721  1.00  0.00    -0.387 OA
ATOM     36  H   UNL     1      15.375  -4.963 -14.934  1.00  0.00     0.211 HD
ENDBRANCH  30  35
BRANCH  31  37
ATOM     37  C   UNL     1      18.625  -4.141 -13.073  1.00  0.00     0.191 C 
BRANCH  37  38
ATOM     38  O   UNL     1      19.560  -4.903 -12.357  1.00  0.00    -0.394 OA
ATOM     39  H   UNL     1      19.050  -5.447 -11.701  1.00  0.00     0.210 HD
ENDBRANCH  37  38
ENDBRANCH  31  37
BRANCH  32  40
ATOM     40  O   UNL     1      18.946  -6.201 -15.163  1.00  0.00    -0.387 OA
ATOM     41  H   UNL     1      19.110  -6.610 -14.274  1.00  0.00     0.211 HD
ENDBRANCH  32  40
ENDBRANCH   1  27
TORSDOF 12
ENDMDL
MODEL 3
REMARK VINA RESULT:    -6.108      1.088      2.226
REMARK INTER + INTRA:         -10.914
REMARK INTER:                  -9.273
REMARK INTRA:                  -1.641
REMARK UNBOUND:                -1.950
REMARK SMILES O=c1c(O[C@@H]2O[C@@H](CO)[C@@H](O)[C@H](O)[C@@H]2O)c(-c2ccc(O)c(O)c2)oc2cc(O)cc(O)c12
REMARK SMILES IDX 4 1 3 2 16 3 25 4 2 5 26 6 1 7 33 8 27 9 31 10 28 11 30 12
REMARK SMILES IDX 17 13 18 14 19 15 20 16 24 17 22 18 21 19 23 21 32 23 29 25
REMARK SMILES IDX 5 27 14 28 6 29 12 30 7 31 10 32 15 33 13 35 8 37 9 38 11 40
REMARK H PARENT 21 20 23 22 32 24 29 26 15 34 13 36 9 39 11 41
REMARK Flexibility Score: inf
ROOT
ATOM      1  O   UNL     1      17.254  -4.100 -14.241  1.00  0.00    -0.454 OA
ENDROOT
BRANCH   1   2
ATOM      2  C   UNL     1      17.774  -3.535 -15.427  1.00  0.00     0.214 A 
ATOM      3  C   UNL     1      17.927  -4.375 -16.549  1.00  0.00     0.180 A 
ATOM      4  O   UNL     1      18.342  -3.879 -17.709  1.00  0.00    -0.452 OA
ATOM      5  C   UNL     1      18.120  -2.170 -15.565  1.00  0.00     0.239 A 
ATOM      6  C   UNL     1      18.663  -2.605 -17.884  1.00  0.00     0.146 A 
ATOM      7  O   UNL     1      18.023  -1.383 -14.587  1.00  0.00    -0.285 OA
ATOM      8  C   UNL     1      18.574  -1.688 -16.812  1.00  0.00     0.111 A 
ATOM      9  C   UNL     1      19.096  -2.181 -19.143  1.00  0.00     0.094 A 
ATOM     10  C   UNL     1      18.938  -0.336 -17.034  1.00  0.00     0.134 A 
ATOM     11  C   UNL     1      19.450  -0.849 -19.358  1.00  0.00     0.123 A 
ATOM     12  C   UNL     1      19.371   0.070 -18.305  1.00  0.00     0.093 A 
BRANCH   3  13
ATOM     13  C   UNL     1      17.619  -5.818 -16.486  1.00  0.00     0.025 A 
ATOM     14  C   UNL     1      18.601  -6.751 -16.119  1.00  0.00     0.016 A 
ATOM     15  C   UNL     1      18.301  -8.115 -16.082  1.00  0.00     0.051 A 
ATOM     16  C   UNL     1      17.020  -8.565 -16.426  1.00  0.00     0.157 A 
ATOM     17  C   UNL     1      16.343  -6.273 -16.854  1.00  0.00     0.062 A 
ATOM     18  C   UNL     1      16.037  -7.639 -16.818  1.00  0.00     0.158 A 
BRANCH  16  19
ATOM     19  O   UNL     1      16.721  -9.926 -16.385  1.00  0.00    -0.504 OA
ATOM     20  H   UNL     1      15.897 -10.303 -16.839  1.00  0.00     0.293 HD
ENDBRANCH  16  19
BRANCH  18  21
ATOM     21  O   UNL     1      14.756  -8.055 -17.176  1.00  0.00    -0.504 OA
ATOM     22  H   UNL     1      13.943  -7.845 -16.608  1.00  0.00     0.293 HD
ENDBRANCH  18  21
ENDBRANCH   3  13
BRANCH  10  23
ATOM     23  O   UNL     1      18.870   0.606 -16.006  1.00  0.00    -0.507 OA
ATOM     24  H   UNL     1      19.209   1.553 -16.127  1.00  0.00     0.293 HD
ENDBRANCH  10  23
BRANCH  11  25
ATOM     25  O   UNL     1      19.881  -0.447 -20.620  1.00  0.00    -0.508 OA
ATOM     26  H   UNL     1      19.447   0.329 -21.105  1.00  0.00     0.293 HD
ENDBRANCH  11  25
ENDBRANCH   1   2
BRANCH   1  27
ATOM     27  C   UNL     1      15.874  -4.242 -13.884  1.00  0.00     0.339 C 
ATOM     28  C   UNL     1      15.677  -5.426 -12.913  1.00  0.00     0.214 C 
ATOM     29  O   UNL     1      15.349  -3.038 -13.342  1.00  0.00    -0.332 OA
ATOM     30  C   UNL     1      16.242  -5.108 -11.514  1.00  0.00     0.180 C 
ATOM     31  C   UNL     1      16.009  -2.678 -12.139  1.00  0.00     0.179 C 
ATOM     32  C   UNL     1      15.745  -3.734 -11.039  1.00  0.00     0.177 C 
BRANCH  28  33
ATOM     33  O   UNL     1      16.284  -6.587 -13.421  1.00  0.00    -0.384 OA
ATOM     34  H   UNL     1      16.526  -6.395 -14.364  1.00  0.00     0.211 HD
ENDBRANCH  28  33
BRANCH  30  35
ATOM     35  O   UNL     1      17.647  -5.113 -11.532  1.00  0.00    -0.387 OA
ATOM     36  H   UNL     1      17.929  -5.853 -12.130  1.00  0.00     0.211 HD
ENDBRANCH  30  35
BRANCH  31  37
ATOM     37  C   UNL     1      15.530  -1.279 -11.725  1.00  0.00     0.191 C 
BRANCH  37  38
ATOM     38  O   UNL     1      15.468  -1.167 -10.328  1.00  0.00    -0.394 OA
ATOM     39  H   UNL     1      16.387  -1.321  -9.984  1.00  0.00     0.210 HD
ENDBRANCH  37  38
ENDBRANCH  31  37
BRANCH  32  40
ATOM     40  O   UNL     1      14.368  -3.815 -10.759  1.00  0.00    -0.387 OA
ATOM     41  H   UNL     1      14.225  -3.404  -9.867  1.00  0.00     0.211 HD
ENDBRANCH  32  40
ENDBRANCH   1  27
TORSDOF 12
ENDMDL
MODEL 4
REMARK VINA RESULT:    -5.924      3.144      8.641
REMARK INTER + INTRA:         -10.644
REMARK INTER:                  -9.037
REMARK INTRA:                  -1.607
REMARK UNBOUND:                -1.950
REMARK SMILES O=c1c(O[C@@H]2O[C@@H](CO)[C@@H](O)[C@H](O)[C@@H]2O)c(-c2ccc(O)c(O)c2)oc2cc(O)cc(O)c12
REMARK SMILES IDX 4 1 3 2 16 3 25 4 2 5 26 6 1 7 33 8 27 9 31 10 28 11 30 12
REMARK SMILES IDX 17 13 18 14 19 15 20 16 24 17 22 18 21 19 23 21 32 23 29 25
REMARK SMILES IDX 5 27 14 28 6 29 12 30 7 31 10 32 15 33 13 35 8 37 9 38 11 40
REMARK H PARENT 21 20 23 22 32 24 29 26 15 34 13 36 9 39 11 41
REMARK Flexibility Score: inf
ROOT
ATOM      1  O   UNL     1      16.219  -5.433 -13.172  1.00  0.00    -0.454 OA
ENDROOT
BRANCH   1   2
ATOM      2  C   UNL     1      15.163  -5.705 -12.274  1.00  0.00     0.214 A 
ATOM      3  C   UNL     1      14.944  -4.798 -11.217  1.00  0.00     0.180 A 
ATOM      4  O   UNL     1      13.921  -4.966 -10.387  1.00  0.00    -0.452 OA
ATOM      5  C   UNL     1      14.295  -6.815 -12.389  1.00  0.00     0.239 A 
ATOM      6  C   UNL     1      13.076  -5.984 -10.470  1.00  0.00     0.146 A 
ATOM      7  O   UNL     1      14.462  -7.667 -13.302  1.00  0.00    -0.285 OA
ATOM      8  C   UNL     1      13.229  -6.966 -11.475  1.00  0.00     0.111 A 
ATOM      9  C   UNL     1      12.033  -6.077  -9.544  1.00  0.00     0.094 A 
ATOM     10  C   UNL     1      12.314  -8.047 -11.523  1.00  0.00     0.134 A 
ATOM     11  C   UNL     1      11.133  -7.142  -9.597  1.00  0.00     0.123 A 
ATOM     12  C   UNL     1      11.275  -8.124 -10.584  1.00  0.00     0.093 A 
BRANCH   3  13
ATOM     13  C   UNL     1      15.820  -3.628 -11.003  1.00  0.00     0.025 A 
ATOM     14  C   UNL     1      15.524  -2.388 -11.591  1.00  0.00     0.016 A 
ATOM     15  C   UNL     1      16.371  -1.294 -11.397  1.00  0.00     0.051 A 
ATOM     16  C   UNL     1      17.533  -1.429 -10.625  1.00  0.00     0.157 A 
ATOM     17  C   UNL     1      16.996  -3.768 -10.252  1.00  0.00     0.062 A 
ATOM     18  C   UNL     1      17.849  -2.674 -10.054  1.00  0.00     0.158 A 
BRANCH  16  19
ATOM     19  O   UNL     1      18.376  -0.336 -10.430  1.00  0.00    -0.504 OA
ATOM     20  H   UNL     1      18.414   0.430 -11.092  1.00  0.00     0.293 HD
ENDBRANCH  16  19
BRANCH  18  21
ATOM     21  O   UNL     1      19.002  -2.845  -9.289  1.00  0.00    -0.504 OA
ATOM     22  H   UNL     1      19.122  -3.633  -8.664  1.00  0.00     0.293 HD
ENDBRANCH  18  21
ENDBRANCH   3  13
BRANCH  10  23
ATOM     23  O   UNL     1      12.426  -9.043 -12.496  1.00  0.00    -0.507 OA
ATOM     24  H   UNL     1      12.782  -8.844 -13.424  1.00  0.00     0.293 HD
ENDBRANCH  10  23
BRANCH  11  25
ATOM     25  O   UNL     1      10.101  -7.217  -8.664  1.00  0.00    -0.508 OA
ATOM     26  H   UNL     1       9.317  -6.575  -8.689  1.00  0.00     0.293 HD
ENDBRANCH  11  25
ENDBRANCH   1   2
BRANCH   1  27
ATOM     27  C   UNL     1      16.168  -4.606 -14.341  1.00  0.00     0.339 C 
ATOM     28  C   UNL     1      17.574  -4.085 -14.708  1.00  0.00     0.214 C 
ATOM     29  O   UNL     1      15.569  -5.287 -15.436  1.00  0.00    -0.332 OA
ATOM     30  C   UNL     1      18.466  -5.212 -15.266  1.00  0.00     0.180 C 
ATOM     31  C   UNL     1      16.326  -6.425 -15.817  1.00  0.00     0.179 C 
ATOM     32  C   UNL     1      17.715  -5.997 -16.352  1.00  0.00     0.177 C 
BRANCH  28  33
ATOM     33  O   UNL     1      18.189  -3.497 -13.590  1.00  0.00    -0.384 OA
ATOM     34  H   UNL     1      19.062  -3.139 -13.897  1.00  0.00     0.211 HD
ENDBRANCH  28  33
BRANCH  30  35
ATOM     35  O   UNL     1      18.854  -6.093 -14.242  1.00  0.00    -0.387 OA
ATOM     36  H   UNL     1      19.620  -6.623 -14.587  1.00  0.00     0.211 HD
ENDBRANCH  30  35
BRANCH  31  37
ATOM     37  C   UNL     1      15.522  -7.213 -16.861  1.00  0.00     0.191 C 
BRANCH  37  38
ATOM     38  O   UNL     1      15.183  -6.396 -17.950  1.00  0.00    -0.394 OA
ATOM     39  H   UNL     1      14.251  -6.088 -17.802  1.00  0.00     0.210 HD
ENDBRANCH  37  38
ENDBRANCH  31  37
BRANCH  32  40
ATOM     40  O   UNL     1      17.570  -5.182 -17.491  1.00  0.00    -0.387 OA
ATOM     41  H   UNL     1      17.536  -5.783 -18.280  1.00  0.00     0.211 HD
ENDBRANCH  32  40
ENDBRANCH   1  27
TORSDOF 12
ENDMDL
MODEL 5
REMARK VINA RESULT:    -5.913      1.634      4.544
REMARK INTER + INTRA:         -10.628
REMARK INTER:                  -8.590
REMARK INTRA:                  -2.038
REMARK UNBOUND:                -1.950
REMARK SMILES O=c1c(O[C@@H]2O[C@@H](CO)[C@@H](O)[C@H](O)[C@@H]2O)c(-c2ccc(O)c(O)c2)oc2cc(O)cc(O)c12
REMARK SMILES IDX 4 1 3 2 16 3 25 4 2 5 26 6 1 7 33 8 27 9 31 10 28 11 30 12
REMARK SMILES IDX 17 13 18 14 19 15 20 16 24 17 22 18 21 19 23 21 32 23 29 25
REMARK SMILES IDX 5 27 14 28 6 29 12 30 7 31 10 32 15 33 13 35 8 37 9 38 11 40
REMARK H PARENT 21 20 23 22 32 24 29 26 15 34 13 36 9 39 11 41
REMARK Flexibility Score: inf
ROOT
ATOM      1  O   UNL     1      17.220  -4.446 -15.068  1.00  0.00    -0.454 OA
ENDROOT
BRANCH   1   2
ATOM      2  C   UNL     1      17.758  -3.336 -15.755  1.00  0.00     0.214 A 
ATOM      3  C   UNL     1      17.766  -2.089 -15.096  1.00  0.00     0.180 A 
ATOM      4  O   UNL     1      18.327  -1.029 -15.667  1.00  0.00    -0.452 OA
ATOM      5  C   UNL     1      18.318  -3.406 -17.052  1.00  0.00     0.239 A 
ATOM      6  C   UNL     1      18.875  -1.057 -16.874  1.00  0.00     0.146 A 
ATOM      7  O   UNL     1      18.315  -4.490 -17.693  1.00  0.00    -0.285 OA
ATOM      8  C   UNL     1      18.888  -2.251 -17.631  1.00  0.00     0.111 A 
ATOM      9  C   UNL     1      19.434   0.115 -17.392  1.00  0.00     0.094 A 
ATOM     10  C   UNL     1      19.471  -2.238 -18.923  1.00  0.00     0.134 A 
ATOM     11  C   UNL     1      20.009   0.122 -18.663  1.00  0.00     0.123 A 
ATOM     12  C   UNL     1      20.026  -1.052 -19.425  1.00  0.00     0.093 A 
BRANCH   3  13
ATOM     13  C   UNL     1      17.177  -1.917 -13.753  1.00  0.00     0.025 A 
ATOM     14  C   UNL     1      17.950  -2.104 -12.596  1.00  0.00     0.016 A 
ATOM     15  C   UNL     1      17.375  -1.957 -11.331  1.00  0.00     0.051 A 
ATOM     16  C   UNL     1      16.017  -1.638 -11.206  1.00  0.00     0.157 A 
ATOM     17  C   UNL     1      15.811  -1.622 -13.625  1.00  0.00     0.062 A 
ATOM     18  C   UNL     1      15.230  -1.474 -12.360  1.00  0.00     0.158 A 
BRANCH  16  19
ATOM     19  O   UNL     1      15.445  -1.488  -9.943  1.00  0.00    -0.504 OA
ATOM     20  H   UNL     1      14.965  -0.637  -9.675  1.00  0.00     0.293 HD
ENDBRANCH  16  19
BRANCH  18  21
ATOM     21  O   UNL     1      13.874  -1.166 -12.269  1.00  0.00    -0.504 OA
ATOM     22  H   UNL     1      13.191  -1.544 -12.916  1.00  0.00     0.293 HD
ENDBRANCH  18  21
ENDBRANCH   3  13
BRANCH  10  23
ATOM     23  O   UNL     1      19.506  -3.392 -19.708  1.00  0.00    -0.507 OA
ATOM     24  H   UNL     1      20.231  -4.091 -19.598  1.00  0.00     0.293 HD
ENDBRANCH  10  23
BRANCH  11  25
ATOM     25  O   UNL     1      20.560   1.300 -19.162  1.00  0.00    -0.508 OA
ATOM     26  H   UNL     1      21.562   1.427 -19.233  1.00  0.00     0.293 HD
ENDBRANCH  11  25
ENDBRANCH   1   2
BRANCH   1  27
ATOM     27  C   UNL     1      15.930  -5.039 -15.261  1.00  0.00     0.339 C 
ATOM     28  C   UNL     1      16.062  -6.532 -15.631  1.00  0.00     0.214 C 
ATOM     29  O   UNL     1      15.100  -4.863 -14.121  1.00  0.00    -0.332 OA
ATOM     30  C   UNL     1      16.522  -7.375 -14.424  1.00  0.00     0.180 C 
ATOM     31  C   UNL     1      15.640  -5.508 -12.979  1.00  0.00     0.179 C 
ATOM     32  C   UNL     1      15.672  -7.042 -13.188  1.00  0.00     0.177 C 
BRANCH  28  33
ATOM     33  O   UNL     1      16.959  -6.698 -16.700  1.00  0.00    -0.384 OA
ATOM     34  H   UNL     1      17.849  -6.883 -16.301  1.00  0.00     0.211 HD
ENDBRANCH  28  33
BRANCH  30  35
ATOM     35  O   UNL     1      17.876  -7.134 -14.136  1.00  0.00    -0.387 OA
ATOM     36  H   UNL     1      18.408  -7.781 -14.669  1.00  0.00     0.211 HD
ENDBRANCH  30  35
BRANCH  31  37
ATOM     37  C   UNL     1      14.801  -5.109 -11.756  1.00  0.00     0.191 C 
BRANCH  37  38
ATOM     38  O   UNL     1      13.453  -4.944 -12.108  1.00  0.00    -0.394 OA
ATOM     39  H   UNL     1      12.914  -5.407 -11.415  1.00  0.00     0.210 HD
ENDBRANCH  37  38
ENDBRANCH  31  37
BRANCH  32  40
ATOM     40  O   UNL     1      14.369  -7.538 -13.379  1.00  0.00    -0.387 OA
ATOM     41  H   UNL     1      13.880  -7.416 -12.524  1.00  0.00     0.211 HD
ENDBRANCH  32  40
ENDBRANCH   1  27
TORSDOF 12
ENDMDL
MODEL 6
REMARK VINA RESULT:    -5.889      1.683      4.714
REMARK INTER + INTRA:         -10.594
REMARK INTER:                  -8.939
REMARK INTRA:                  -1.655
REMARK UNBOUND:                -1.950
REMARK SMILES O=c1c(O[C@@H]2O[C@@H](CO)[C@@H](O)[C@H](O)[C@@H]2O)c(-c2ccc(O)c(O)c2)oc2cc(O)cc(O)c12
REMARK SMILES IDX 4 1 3 2 16 3 25 4 2 5 26 6 1 7 33 8 27 9 31 10 28 11 30 12
REMARK SMILES IDX 17 13 18 14 19 15 20 16 24 17 22 18 21 19 23 21 32 23 29 25
REMARK SMILES IDX 5 27 14 28 6 29 12 30 7 31 10 32 15 33 13 35 8 37 9 38 11 40
REMARK H PARENT 21 20 23 22 32 24 29 26 15 34 13 36 9 39 11 41
REMARK Flexibility Score: inf
ROOT
ATOM      1  O   UNL     1      17.269  -4.467 -14.993  1.00  0.00    -0.454 OA
ENDROOT
BRANCH   1   2
ATOM      2  C   UNL     1      17.777  -3.367 -15.718  1.00  0.00     0.214 A 
ATOM      3  C   UNL     1      17.764  -2.101 -15.096  1.00  0.00     0.180 A 
ATOM      4  O   UNL     1      18.297  -1.047 -15.704  1.00  0.00    -0.452 OA
ATOM      5  C   UNL     1      18.327  -3.463 -17.018  1.00  0.00     0.239 A 
ATOM      6  C   UNL     1      18.834  -1.099 -16.915  1.00  0.00     0.146 A 
ATOM      7  O   UNL     1      18.341  -4.567 -17.626  1.00  0.00    -0.285 OA
ATOM      8  C   UNL     1      18.867  -2.314 -17.635  1.00  0.00     0.111 A 
ATOM      9  C   UNL     1      19.364   0.068 -17.472  1.00  0.00     0.094 A 
ATOM     10  C   UNL     1      19.438  -2.328 -18.933  1.00  0.00     0.134 A 
ATOM     11  C   UNL     1      19.927   0.050 -18.748  1.00  0.00     0.123 A 
ATOM     12  C   UNL     1      19.963  -1.146 -19.475  1.00  0.00     0.093 A 
BRANCH   3  13
ATOM     13  C   UNL     1      17.183  -1.903 -13.753  1.00  0.00     0.025 A 
ATOM     14  C   UNL     1      17.999  -1.871 -12.611  1.00  0.00     0.016 A 
ATOM     15  C   UNL     1      17.434  -1.701 -11.345  1.00  0.00     0.051 A 
ATOM     16  C   UNL     1      16.046  -1.577 -11.201  1.00  0.00     0.157 A 
ATOM     17  C   UNL     1      15.791  -1.802 -13.605  1.00  0.00     0.062 A 
ATOM     18  C   UNL     1      15.221  -1.632 -12.338  1.00  0.00     0.158 A 
BRANCH  16  19
ATOM     19  O   UNL     1      15.485  -1.404  -9.937  1.00  0.00    -0.504 OA
ATOM     20  H   UNL     1      15.937  -1.760  -9.102  1.00  0.00     0.293 HD
ENDBRANCH  16  19
BRANCH  18  21
ATOM     21  O   UNL     1      13.836  -1.521 -12.228  1.00  0.00    -0.504 OA
ATOM     22  H   UNL     1      13.266  -1.133 -12.971  1.00  0.00     0.293 HD
ENDBRANCH  18  21
ENDBRANCH   3  13
BRANCH  10  23
ATOM     23  O   UNL     1      19.491  -3.503 -19.684  1.00  0.00    -0.507 OA
ATOM     24  H   UNL     1      20.371  -3.942 -19.927  1.00  0.00     0.293 HD
ENDBRANCH  10  23
BRANCH  11  25
ATOM     25  O   UNL     1      20.449   1.224 -19.287  1.00  0.00    -0.508 OA
ATOM     26  H   UNL     1      20.863   1.937 -18.699  1.00  0.00     0.293 HD
ENDBRANCH  11  25
ENDBRANCH   1   2
BRANCH   1  27
ATOM     27  C   UNL     1      18.014  -5.399 -14.201  1.00  0.00     0.339 C 
ATOM     28  C   UNL     1      17.123  -6.027 -13.107  1.00  0.00     0.214 C 
ATOM     29  O   UNL     1      18.621  -6.400 -15.007  1.00  0.00    -0.332 OA
ATOM     30  C   UNL     1      16.098  -7.009 -13.709  1.00  0.00     0.180 C 
ATOM     31  C   UNL     1      17.651  -7.180 -15.686  1.00  0.00     0.179 C 
ATOM     32  C   UNL     1      16.794  -7.980 -14.675  1.00  0.00     0.177 C 
BRANCH  28  33
ATOM     33  O   UNL     1      16.457  -5.026 -12.380  1.00  0.00    -0.384 OA
ATOM     34  H   UNL     1      16.978  -4.190 -12.498  1.00  0.00     0.211 HD
ENDBRANCH  28  33
BRANCH  30  35
ATOM     35  O   UNL     1      15.088  -6.315 -14.397  1.00  0.00    -0.387 OA
ATOM     36  H   UNL     1      15.537  -5.650 -14.983  1.00  0.00     0.211 HD
ENDBRANCH  30  35
BRANCH  31  37
ATOM     37  C   UNL     1      18.378  -8.098 -16.681  1.00  0.00     0.191 C 
BRANCH  37  38
ATOM     38  O   UNL     1      19.213  -7.354 -17.526  1.00  0.00    -0.394 OA
ATOM     39  H   UNL     1      18.663  -6.617 -17.903  1.00  0.00     0.210 HD
ENDBRANCH  37  38
ENDBRANCH  31  37
BRANCH  32  40
ATOM     40  O   UNL     1      17.605  -8.861 -13.935  1.00  0.00    -0.387 OA
ATOM     41  H   UNL     1      18.548  -8.594 -14.090  1.00  0.00     0.211 HD
ENDBRANCH  32  40
ENDBRANCH   1  27
TORSDOF 12
ENDMDL
MODEL 7
REMARK VINA RESULT:    -5.830      2.281      5.464
REMARK INTER + INTRA:         -10.507
REMARK INTER:                  -8.795
REMARK INTRA:                  -1.713
REMARK UNBOUND:                -1.950
REMARK SMILES O=c1c(O[C@@H]2O[C@@H](CO)[C@@H](O)[C@H](O)[C@@H]2O)c(-c2ccc(O)c(O)c2)oc2cc(O)cc(O)c12
REMARK SMILES IDX 4 1 3 2 16 3 25 4 2 5 26 6 1 7 33 8 27 9 31 10 28 11 30 12
REMARK SMILES IDX 17 13 18 14 19 15 20 16 24 17 22 18 21 19 23 21 32 23 29 25
REMARK SMILES IDX 5 27 14 28 6 29 12 30 7 31 10 32 15 33 13 35 8 37 9 38 11 40
REMARK H PARENT 21 20 23 22 32 24 29 26 15 34 13 36 9 39 11 41
REMARK Flexibility Score: inf
ROOT
ATOM      1  O   UNL     1      17.300  -3.027 -13.562  1.00  0.00    -0.454 OA
ENDROOT
BRANCH   1   2
ATOM      2  C   UNL     1      17.775  -2.320 -14.689  1.00  0.00     0.214 A 
ATOM      3  C   UNL     1      18.087  -0.954 -14.530  1.00  0.00     0.180 A 
ATOM      4  O   UNL     1      18.607  -0.261 -15.536  1.00  0.00    -0.452 OA
ATOM      5  C   UNL     1      17.986  -2.907 -15.958  1.00  0.00     0.239 A 
ATOM      6  C   UNL     1      18.833  -0.778 -16.736  1.00  0.00     0.146 A 
ATOM      7  O   UNL     1      17.702  -4.118 -16.158  1.00  0.00    -0.285 OA
ATOM      8  C   UNL     1      18.524  -2.130 -17.007  1.00  0.00     0.111 A 
ATOM      9  C   UNL     1      19.378   0.037 -17.733  1.00  0.00     0.094 A 
ATOM     10  C   UNL     1      18.769  -2.643 -18.306  1.00  0.00     0.134 A 
ATOM     11  C   UNL     1      19.619  -0.473 -19.009  1.00  0.00     0.123 A 
ATOM     12  C   UNL     1      19.314  -1.810 -19.293  1.00  0.00     0.093 A 
BRANCH   3  13
ATOM     13  C   UNL     1      17.870  -0.253 -13.249  1.00  0.00     0.025 A 
ATOM     14  C   UNL     1      16.790   0.628 -13.081  1.00  0.00     0.016 A 
ATOM     15  C   UNL     1      16.607   1.299 -11.870  1.00  0.00     0.051 A 
ATOM     16  C   UNL     1      17.510   1.112 -10.816  1.00  0.00     0.157 A 
ATOM     17  C   UNL     1      18.788  -0.420 -12.200  1.00  0.00     0.062 A 
ATOM     18  C   UNL     1      18.609   0.251 -10.984  1.00  0.00     0.158 A 
BRANCH  16  19
ATOM     19  O   UNL     1      17.325   1.781  -9.607  1.00  0.00    -0.504 OA
ATOM     20  H   UNL     1      17.558   2.761  -9.501  1.00  0.00     0.293 HD
ENDBRANCH  16  19
BRANCH  18  21
ATOM     21  O   UNL     1      19.531   0.051  -9.958  1.00  0.00    -0.504 OA
ATOM     22  H   UNL     1      20.445  -0.353 -10.127  1.00  0.00     0.293 HD
ENDBRANCH  18  21
ENDBRANCH   3  13
BRANCH  10  23
ATOM     23  O   UNL     1      18.477  -3.971 -18.621  1.00  0.00    -0.507 OA
ATOM     24  H   UNL     1      19.194  -4.687 -18.632  1.00  0.00     0.293 HD
ENDBRANCH  10  23
BRANCH  11  25
ATOM     25  O   UNL     1      20.160   0.355 -19.990  1.00  0.00    -0.508 OA
ATOM     26  H   UNL     1      21.161   0.425 -20.130  1.00  0.00     0.293 HD
ENDBRANCH  11  25
ENDBRANCH   1   2
BRANCH   1  27
ATOM     27  C   UNL     1      15.981  -2.978 -13.004  1.00  0.00     0.339 C 
ATOM     28  C   UNL     1      15.285  -4.352 -13.116  1.00  0.00     0.214 C 
ATOM     29  O   UNL     1      16.002  -2.519 -11.659  1.00  0.00    -0.332 OA
ATOM     30  C   UNL     1      15.904  -5.379 -12.147  1.00  0.00     0.180 C 
ATOM     31  C   UNL     1      16.729  -3.402 -10.820  1.00  0.00     0.179 C 
ATOM     32  C   UNL     1      16.023  -4.777 -10.739  1.00  0.00     0.177 C 
BRANCH  28  33
ATOM     33  O   UNL     1      15.356  -4.834 -14.434  1.00  0.00    -0.384 OA
ATOM     34  H   UNL     1      15.360  -5.825 -14.377  1.00  0.00     0.211 HD
ENDBRANCH  28  33
BRANCH  30  35
ATOM     35  O   UNL     1      17.176  -5.778 -12.591  1.00  0.00    -0.387 OA
ATOM     36  H   UNL     1      17.574  -6.337 -11.873  1.00  0.00     0.211 HD
ENDBRANCH  30  35
BRANCH  31  37
ATOM     37  C   UNL     1      16.876  -2.745  -9.439  1.00  0.00     0.191 C 
BRANCH  37  38
ATOM     38  O   UNL     1      17.215  -3.699  -8.468  1.00  0.00    -0.394 OA
ATOM     39  H   UNL     1      16.598  -4.468  -8.588  1.00  0.00     0.210 HD
ENDBRANCH  37  38
ENDBRANCH  31  37
BRANCH  32  40
ATOM     40  O   UNL     1      14.735  -4.635 -10.189  1.00  0.00    -0.387 OA
ATOM     41  H   UNL     1      14.173  -4.181 -10.870  1.00  0.00     0.211 HD
ENDBRANCH  32  40
ENDBRANCH   1  27
TORSDOF 12
ENDMDL
MODEL 8
REMARK VINA RESULT:    -5.718      2.488      6.603
REMARK INTER + INTRA:         -10.342
REMARK INTER:                  -8.356
REMARK INTRA:                  -1.986
REMARK UNBOUND:                -1.950
REMARK SMILES O=c1c(O[C@@H]2O[C@@H](CO)[C@@H](O)[C@H](O)[C@@H]2O)c(-c2ccc(O)c(O)c2)oc2cc(O)cc(O)c12
REMARK SMILES IDX 4 1 3 2 16 3 25 4 2 5 26 6 1 7 33 8 27 9 31 10 28 11 30 12
REMARK SMILES IDX 17 13 18 14 19 15 20 16 24 17 22 18 21 19 23 21 32 23 29 25
REMARK SMILES IDX 5 27 14 28 6 29 12 30 7 31 10 32 15 33 13 35 8 37 9 38 11 40
REMARK H PARENT 21 20 23 22 32 24 29 26 15 34 13 36 9 39 11 41
REMARK Flexibility Score: inf
ROOT
ATOM      1  O   UNL     1      17.264  -3.098 -12.142  1.00  0.00    -0.454 OA
ENDROOT
BRANCH   1   2
ATOM      2  C   UNL     1      16.910  -3.877 -13.265  1.00  0.00     0.214 A 
ATOM      3  C   UNL     1      16.783  -3.225 -14.510  1.00  0.00     0.180 A 
ATOM      4  O   UNL     1      16.524  -3.921 -15.610  1.00  0.00    -0.452 OA
ATOM      5  C   UNL     1      16.704  -5.275 -13.224  1.00  0.00     0.239 A 
ATOM      6  C   UNL     1      16.339  -5.234 -15.616  1.00  0.00     0.146 A 
ATOM      7  O   UNL     1      16.783  -5.901 -12.133  1.00  0.00    -0.285 OA
ATOM      8  C   UNL     1      16.412  -5.975 -14.415  1.00  0.00     0.111 A 
ATOM      9  C   UNL     1      16.064  -5.875 -16.827  1.00  0.00     0.094 A 
ATOM     10  C   UNL     1      16.196  -7.375 -14.459  1.00  0.00     0.134 A 
ATOM     11  C   UNL     1      15.854  -7.254 -16.866  1.00  0.00     0.123 A 
ATOM     12  C   UNL     1      15.920  -8.000 -15.684  1.00  0.00     0.093 A 
BRANCH   3  13
ATOM     13  C   UNL     1      16.951  -1.764 -14.641  1.00  0.00     0.025 A 
ATOM     14  C   UNL     1      15.869  -0.892 -14.445  1.00  0.00     0.016 A 
ATOM     15  C   UNL     1      16.037   0.487 -14.591  1.00  0.00     0.051 A 
ATOM     16  C   UNL     1      17.285   1.012 -14.949  1.00  0.00     0.157 A 
ATOM     17  C   UNL     1      18.195  -1.238 -15.023  1.00  0.00     0.062 A 
ATOM     18  C   UNL     1      18.369   0.144 -15.170  1.00  0.00     0.158 A 
BRANCH  16  19
ATOM     19  O   UNL     1      17.452   2.389 -15.091  1.00  0.00    -0.504 OA
ATOM     20  H   UNL     1      17.203   3.033 -14.349  1.00  0.00     0.293 HD
ENDBRANCH  16  19
BRANCH  18  21
ATOM     21  O   UNL     1      19.621   0.633 -15.537  1.00  0.00    -0.504 OA
ATOM     22  H   UNL     1      20.196   0.174 -16.234  1.00  0.00     0.293 HD
ENDBRANCH  18  21
ENDBRANCH   3  13
BRANCH  10  23
ATOM     23  O   UNL     1      16.256  -8.149 -13.298  1.00  0.00    -0.507 OA
ATOM     24  H   UNL     1      16.739  -9.040 -13.275  1.00  0.00     0.293 HD
ENDBRANCH  10  23
BRANCH  11  25
ATOM     25  O   UNL     1      15.580  -7.874 -18.083  1.00  0.00    -0.508 OA
ATOM     26  H   UNL     1      15.870  -7.464 -18.963  1.00  0.00     0.293 HD
ENDBRANCH  11  25
ENDBRANCH   1   2
BRANCH   1  27
ATOM     27  C   UNL     1      16.382  -2.557 -11.151  1.00  0.00     0.339 C 
ATOM     28  C   UNL     1      16.761  -3.061  -9.742  1.00  0.00     0.214 C 
ATOM     29  O   UNL     1      16.353  -1.137 -11.200  1.00  0.00    -0.332 OA
ATOM     30  C   UNL     1      18.075  -2.423  -9.249  1.00  0.00     0.180 C 
ATOM     31  C   UNL     1      17.625  -0.580 -10.909  1.00  0.00     0.179 C 
ATOM     32  C   UNL     1      18.035  -0.900  -9.451  1.00  0.00     0.177 C 
BRANCH  28  33
ATOM     33  O   UNL     1      16.878  -4.462  -9.735  1.00  0.00    -0.384 OA
ATOM     34  H   UNL     1      16.541  -4.773  -8.854  1.00  0.00     0.211 HD
ENDBRANCH  28  33
BRANCH  30  35
ATOM     35  O   UNL     1      19.177  -2.954  -9.941  1.00  0.00    -0.387 OA
ATOM     36  H   UNL     1      18.887  -3.111 -10.877  1.00  0.00     0.211 HD
ENDBRANCH  30  35
BRANCH  31  37
ATOM     37  C   UNL     1      17.564   0.931 -11.174  1.00  0.00     0.191 C 
BRANCH  37  38
ATOM     38  O   UNL     1      16.297   1.442 -10.853  1.00  0.00    -0.394 OA
ATOM     39  H   UNL     1      15.787   0.705 -10.426  1.00  0.00     0.210 HD
ENDBRANCH  37  38
ENDBRANCH  31  37
BRANCH  32  40
ATOM     40  O   UNL     1      17.111  -0.341  -8.548  1.00  0.00    -0.387 OA
ATOM     41  H   UNL     1      16.569  -1.087  -8.182  1.00  0.00     0.211 HD
ENDBRANCH  32  40
ENDBRANCH   1  27
TORSDOF 12
ENDMDL
