MODEL 1
REMARK VINA RESULT:    40.082      0.000      0.000
REMARK INTER + INTRA:          47.945
REMARK INTER:                  48.283
REMARK INTRA:                  -0.339
REMARK UNBOUND:                -0.339
REMARK SMILES Oc1cc(O)c2cc(O)c(-c3ccc(O)c(O)c3)[o+]c2c1.[Cl-]
REMARK SMILES IDX 10 1 19 2 20 3 21 4 2 5 3 6 4 7 6 8 7 9 8 10 11 11 12 12
REMARK SMILES IDX 13 13 14 14 18 15 16 16 15 17 17 19 9 21 1 23 5 25
REMARK H PARENT 15 18 17 20 9 22 1 24 5 26
REMARK Flexibility Score: inf
ROOT
ATOM      1  C   UNL     1       6.566  31.551  47.300  1.00  0.00     0.402 A 
ATOM      2  O   UNL     1       7.025  32.715  46.850  1.00  0.00    -0.202 OA
ATOM      3  C   UNL     1       6.293  33.824  46.816  1.00  0.00     0.368 A 
ATOM      4  C   UNL     1       6.865  35.000  46.322  1.00  0.00     0.162 A 
ATOM      5  C   UNL     1       6.119  36.178  46.270  1.00  0.00     0.128 A 
ATOM      6  C   UNL     1       4.792  36.183  46.716  1.00  0.00     0.093 A 
ATOM      7  C   UNL     1       4.197  35.018  47.214  1.00  0.00     0.136 A 
ATOM      8  C   UNL     1       4.952  33.818  47.270  1.00  0.00     0.125 A 
ATOM      9  C   UNL     1       4.443  32.608  47.767  1.00  0.00     0.078 A 
ATOM     10  C   UNL     1       5.251  31.466  47.795  1.00  0.00     0.223 A 
ENDROOT
BRANCH   1  11
ATOM     11  C   UNL     1       7.476  30.383  47.278  1.00  0.00     0.087 A 
ATOM     12  C   UNL     1       7.400  29.414  46.262  1.00  0.00     0.022 A 
ATOM     13  C   UNL     1       8.285  28.332  46.249  1.00  0.00     0.051 A 
ATOM     14  C   UNL     1       9.266  28.211  47.242  1.00  0.00     0.157 A 
ATOM     15  C   UNL     1       8.475  30.267  48.259  1.00  0.00     0.068 A 
ATOM     16  C   UNL     1       9.363  29.182  48.247  1.00  0.00     0.158 A 
BRANCH  14  17
ATOM     17  O   UNL     1      10.149  27.133  47.234  1.00  0.00    -0.504 OA
ATOM     18  H   UNL     1      10.719  26.908  48.041  1.00  0.00     0.293 HD
ENDBRANCH  14  17
BRANCH  16  19
ATOM     19  O   UNL     1      10.344  29.062  49.230  1.00  0.00    -0.504 OA
ATOM     20  H   UNL     1      10.737  29.877  49.689  1.00  0.00     0.293 HD
ENDBRANCH  16  19
ENDBRANCH   1  11
BRANCH  10  21
ATOM     21  O   UNL     1       4.762  30.276  48.334  1.00  0.00    -0.500 OA
ATOM     22  H   UNL     1       4.598  30.170  49.329  1.00  0.00     0.294 HD
ENDBRANCH  10  21
BRANCH   5  23
ATOM     23  O   UNL     1       6.706  37.341  45.775  1.00  0.00    -0.507 OA
ATOM     24  H   UNL     1       7.496  37.775  46.239  1.00  0.00     0.293 HD
ENDBRANCH   5  23
BRANCH   7  25
ATOM     25  O   UNL     1       2.867  35.105  47.636  1.00  0.00    -0.507 OA
ATOM     26  H   UNL     1       2.108  35.438  47.061  1.00  0.00     0.293 HD
ENDBRANCH   7  25
TORSDOF 6
ENDMDL
