MODEL 1
REMARK VINA RESULT:    -8.001      0.000      0.000
REMARK INTER + INTRA:          -8.837
REMARK INTER:                  -8.702
REMARK INTRA:                  -0.134
REMARK UNBOUND:                -0.134
REMARK SMILES C[C@@H]1[C@@H](C)CC[C@@]2(C(=O)[O-])CC[C@]3(C)C(=CC[C@H]4[C@]5(C)CC[C@@H](O)C(C)(C)[C@@H]5CC[C@]43C)[C@@H]12
REMARK SMILES IDX 7 1 6 2 11 3 33 4 5 5 12 6 15 7 2 8 3 9 13 10 16 11 1 12
REMARK SMILES IDX 4 13 14 14 31 15 17 16 18 17 30 18 32 19 19 20 29 21 28 22
REMARK SMILES IDX 21 23 20 24 25 25 22 26 23 27 26 28 27 29 8 30 9 31 10 32
REMARK SMILES IDX 24 33
REMARK H PARENT 24 34
REMARK Flexibility Score: inf
ROOT
ATOM      1  C   UNL     1      17.070  -7.420 129.388  1.00  0.00     0.017 C 
ATOM      2  C   UNL     1      15.556  -7.534 129.678  1.00  0.00     0.014 C 
ATOM      3  C   UNL     1      17.658  -8.794 128.978  1.00  0.00     0.014 C 
ATOM      4  C   UNL     1      17.325  -6.413 128.228  1.00  0.00     0.030 C 
ATOM      5  C   UNL     1      14.743  -7.933 128.457  1.00  0.00     0.004 C 
ATOM      6  C   UNL     1      19.182  -8.788 128.779  1.00  0.00     0.013 C 
ATOM      7  C   UNL     1      18.832  -6.339 127.901  1.00  0.00    -0.063 C 
ATOM      8  C   UNL     1      16.439  -6.708 126.948  1.00  0.00    -0.003 C 
ATOM      9  C   UNL     1      14.929  -6.945 127.298  1.00  0.00    -0.011 C 
ATOM     10  C   UNL     1      19.846  -7.463 128.219  1.00  0.00    -0.006 C 
ATOM     11  C   UNL     1      19.290  -5.232 127.276  1.00  0.00    -0.027 C 
ATOM     12  C   UNL     1      16.552  -5.556 125.916  1.00  0.00     0.008 C 
ATOM     13  C   UNL     1      14.119  -7.482 126.098  1.00  0.00     0.008 C 
ATOM     14  C   UNL     1      20.758  -6.933 129.367  1.00  0.00     0.017 C 
ATOM     15  C   UNL     1      20.682  -7.727 126.875  1.00  0.00    -0.020 C 
ATOM     16  C   UNL     1      20.692  -5.077 126.740  1.00  0.00     0.032 C 
ATOM     17  C   UNL     1      21.449  -6.411 126.396  1.00  0.00     0.006 C 
ATOM     18  C   UNL     1      21.675  -8.916 126.978  1.00  0.00     0.008 C 
ATOM     19  C   UNL     1      19.661  -8.134 125.749  1.00  0.00     0.012 C 
ATOM     20  C   UNL     1      23.065  -6.314 126.523  1.00  0.00    -0.025 C 
ATOM     21  C   UNL     1      22.790  -8.837 125.924  1.00  0.00     0.005 C 
ATOM     22  C   UNL     1      23.797  -7.734 126.302  1.00  0.00     0.003 C 
ATOM     23  C   UNL     1      23.497  -5.230 125.469  1.00  0.00     0.010 C 
ATOM     24  C   UNL     1      23.533  -5.788 127.916  1.00  0.00     0.012 C 
ATOM     25  C   UNL     1      25.184  -7.764 125.489  1.00  0.00    -0.006 C 
ATOM     26  C   UNL     1      24.961  -5.259 125.075  1.00  0.00     0.033 C 
ATOM     27  C   UNL     1      25.285  -6.611 124.451  1.00  0.00     0.120 C 
ATOM     28  C   UNL     1      26.376  -7.687 126.488  1.00  0.00     0.014 C 
ATOM     29  C   UNL     1      25.391  -9.089 124.703  1.00  0.00     0.014 C 
ENDROOT
BRANCH   1  30
ATOM     30  C   UNL     1      17.689  -6.938 130.692  1.00  0.00     0.048 C 
ATOM     31  O   UNL     1      18.072  -7.764 131.563  1.00  0.00    -0.550 OA
ATOM     32  O   UNL     1      17.738  -5.580 130.995  1.00  0.00    -0.550 OA
ENDBRANCH   1  30
BRANCH  27  33
ATOM     33  O   UNL     1      26.573  -6.566 123.884  1.00  0.00    -0.393 OA
ATOM     34  H   UNL     1      27.190  -6.233 124.587  1.00  0.00     0.210 HD
ENDBRANCH  27  33
TORSDOF 2
ENDMDL
MODEL 2
REMARK VINA RESULT:    -7.520      2.250      4.033
REMARK INTER + INTRA:          -8.314
REMARK INTER:                  -8.269
REMARK INTRA:                  -0.045
REMARK UNBOUND:                -0.134
REMARK SMILES C[C@@H]1[C@@H](C)CC[C@@]2(C(=O)[O-])CC[C@]3(C)C(=CC[C@H]4[C@]5(C)CC[C@@H](O)C(C)(C)[C@@H]5CC[C@]43C)[C@@H]12
REMARK SMILES IDX 7 1 6 2 11 3 33 4 5 5 12 6 15 7 2 8 3 9 13 10 16 11 1 12
REMARK SMILES IDX 4 13 14 14 31 15 17 16 18 17 30 18 32 19 19 20 29 21 28 22
REMARK SMILES IDX 21 23 20 24 25 25 22 26 23 27 26 28 27 29 8 30 9 31 10 32
REMARK SMILES IDX 24 33
REMARK H PARENT 24 34
REMARK Flexibility Score: inf
ROOT
ATOM      1  C   UNL     1      15.113  -6.244 127.949  1.00  0.00     0.017 C 
ATOM      2  C   UNL     1      13.647  -6.141 128.430  1.00  0.00     0.014 C 
ATOM      3  C   UNL     1      15.939  -5.028 128.437  1.00  0.00     0.014 C 
ATOM      4  C   UNL     1      15.775  -7.541 128.502  1.00  0.00     0.030 C 
ATOM      5  C   UNL     1      13.512  -6.189 129.943  1.00  0.00     0.004 C 
ATOM      6  C   UNL     1      17.382  -4.999 127.907  1.00  0.00     0.013 C 
ATOM      7  C   UNL     1      17.254  -7.617 128.066  1.00  0.00    -0.063 C 
ATOM      8  C   UNL     1      15.592  -7.708 130.066  1.00  0.00    -0.003 C 
ATOM      9  C   UNL     1      14.114  -7.471 130.533  1.00  0.00    -0.011 C 
ATOM     10  C   UNL     1      18.109  -6.388 127.675  1.00  0.00    -0.006 C 
ATOM     11  C   UNL     1      17.847  -8.831 128.048  1.00  0.00    -0.027 C 
ATOM     12  C   UNL     1      16.058  -9.112 130.533  1.00  0.00     0.008 C 
ATOM     13  C   UNL     1      13.983  -7.379 132.069  1.00  0.00     0.008 C 
ATOM     14  C   UNL     1      18.354  -6.482 126.139  1.00  0.00     0.017 C 
ATOM     15  C   UNL     1      19.481  -6.498 128.500  1.00  0.00    -0.020 C 
ATOM     16  C   UNL     1      19.320  -9.055 127.812  1.00  0.00     0.032 C 
ATOM     17  C   UNL     1      20.263  -7.846 128.157  1.00  0.00     0.006 C 
ATOM     18  C   UNL     1      20.420  -5.274 128.319  1.00  0.00     0.008 C 
ATOM     19  C   UNL     1      19.119  -6.520 130.032  1.00  0.00     0.012 C 
ATOM     20  C   UNL     1      21.633  -7.798 127.285  1.00  0.00    -0.025 C 
ATOM     21  C   UNL     1      21.879  -5.603 128.670  1.00  0.00     0.005 C 
ATOM     22  C   UNL     1      22.506  -6.472 127.563  1.00  0.00     0.003 C 
ATOM     23  C   UNL     1      22.398  -9.124 127.645  1.00  0.00     0.010 C 
ATOM     24  C   UNL     1      21.373  -7.840 125.746  1.00  0.00     0.012 C 
ATOM     25  C   UNL     1      24.108  -6.605 127.622  1.00  0.00    -0.006 C 
ATOM     26  C   UNL     1      23.878  -9.125 127.316  1.00  0.00     0.033 C 
ATOM     27  C   UNL     1      24.566  -8.012 128.098  1.00  0.00     0.120 C 
ATOM     28  C   UNL     1      24.708  -6.297 126.218  1.00  0.00     0.014 C 
ATOM     29  C   UNL     1      24.762  -5.575 128.583  1.00  0.00     0.014 C 
ENDROOT
BRANCH   1  30
ATOM     30  C   UNL     1      15.031  -6.263 126.429  1.00  0.00     0.048 C 
ATOM     31  O   UNL     1      15.192  -5.204 125.765  1.00  0.00    -0.550 OA
ATOM     32  O   UNL     1      14.665  -7.424 125.752  1.00  0.00    -0.550 OA
ENDBRANCH   1  30
BRANCH  27  33
ATOM     33  O   UNL     1      25.961  -8.149 127.973  1.00  0.00    -0.393 OA
ATOM     34  H   UNL     1      26.291  -7.350 127.482  1.00  0.00     0.210 HD
ENDBRANCH  27  33
TORSDOF 2
ENDMDL
MODEL 3
REMARK VINA RESULT:    -6.821      3.255      9.325
REMARK INTER + INTRA:          -7.554
REMARK INTER:                  -8.274
REMARK INTRA:                   0.720
REMARK UNBOUND:                -0.134
REMARK SMILES C[C@@H]1[C@@H](C)CC[C@@]2(C(=O)[O-])CC[C@]3(C)C(=CC[C@H]4[C@]5(C)CC[C@@H](O)C(C)(C)[C@@H]5CC[C@]43C)[C@@H]12
REMARK SMILES IDX 7 1 6 2 11 3 33 4 5 5 12 6 15 7 2 8 3 9 13 10 16 11 1 12
REMARK SMILES IDX 4 13 14 14 31 15 17 16 18 17 30 18 32 19 19 20 29 21 28 22
REMARK SMILES IDX 21 23 20 24 25 25 22 26 23 27 26 28 27 29 8 30 9 31 10 32
REMARK SMILES IDX 24 33
REMARK H PARENT 24 34
REMARK Flexibility Score: inf
ROOT
ATOM      1  C   UNL     1      18.730  -6.592 126.913  1.00  0.00     0.017 C 
ATOM      2  C   UNL     1      20.041  -6.759 126.111  1.00  0.00     0.014 C 
ATOM      3  C   UNL     1      17.910  -7.906 126.907  1.00  0.00     0.014 C 
ATOM      4  C   UNL     1      19.045  -6.218 128.392  1.00  0.00     0.030 C 
ATOM      5  C   UNL     1      20.985  -7.785 126.718  1.00  0.00     0.004 C 
ATOM      6  C   UNL     1      16.538  -7.790 127.591  1.00  0.00     0.013 C 
ATOM      7  C   UNL     1      17.738  -6.104 129.207  1.00  0.00    -0.063 C 
ATOM      8  C   UNL     1      20.098  -7.191 129.065  1.00  0.00    -0.003 C 
ATOM      9  C   UNL     1      21.357  -7.437 128.165  1.00  0.00    -0.011 C 
ATOM     10  C   UNL     1      16.412  -6.804 128.824  1.00  0.00    -0.006 C 
ATOM     11  C   UNL     1      17.760  -5.366 130.338  1.00  0.00    -0.027 C 
ATOM     12  C   UNL     1      20.551  -6.650 130.446  1.00  0.00     0.008 C 
ATOM     13  C   UNL     1      22.256  -8.575 128.697  1.00  0.00     0.008 C 
ATOM     14  C   UNL     1      15.430  -5.683 128.367  1.00  0.00     0.017 C 
ATOM     15  C   UNL     1      15.884  -7.549 130.143  1.00  0.00    -0.020 C 
ATOM     16  C   UNL     1      16.624  -5.293 131.329  1.00  0.00     0.032 C 
ATOM     17  C   UNL     1      15.640  -6.519 131.339  1.00  0.00     0.006 C 
ATOM     18  C   UNL     1      14.612  -8.408 129.910  1.00  0.00     0.008 C 
ATOM     19  C   UNL     1      16.996  -8.567 130.595  1.00  0.00     0.012 C 
ATOM     20  C   UNL     1      14.129  -6.160 131.813  1.00  0.00    -0.025 C 
ATOM     21  C   UNL     1      13.847  -8.682 131.215  1.00  0.00     0.005 C 
ATOM     22  C   UNL     1      13.116  -7.406 131.675  1.00  0.00     0.003 C 
ATOM     23  C   UNL     1      14.272  -5.645 133.292  1.00  0.00     0.010 C 
ATOM     24  C   UNL     1      13.500  -4.988 130.995  1.00  0.00     0.012 C 
ATOM     25  C   UNL     1      12.010  -7.627 132.822  1.00  0.00    -0.006 C 
ATOM     26  C   UNL     1      12.994  -5.658 134.107  1.00  0.00     0.033 C 
ATOM     27  C   UNL     1      12.476  -7.089 134.204  1.00  0.00     0.120 C 
ATOM     28  C   UNL     1      10.679  -6.934 132.403  1.00  0.00     0.014 C 
ATOM     29  C   UNL     1      11.647  -9.124 133.027  1.00  0.00     0.014 C 
ENDROOT
BRANCH   1  30
ATOM     30  C   UNL     1      17.971  -5.480 126.205  1.00  0.00     0.048 C 
ATOM     31  O   UNL     1      18.456  -4.319 126.132  1.00  0.00    -0.550 OA
ATOM     32  O   UNL     1      16.680  -5.694 125.727  1.00  0.00    -0.550 OA
ENDBRANCH   1  30
BRANCH  27  33
ATOM     33  O   UNL     1      11.425  -7.141 135.138  1.00  0.00    -0.393 OA
ATOM     34  H   UNL     1      10.814  -6.385 134.934  1.00  0.00     0.210 HD
ENDBRANCH  27  33
TORSDOF 2
ENDMDL
MODEL 4
REMARK VINA RESULT:    -6.631      1.857      8.007
REMARK INTER + INTRA:          -7.346
REMARK INTER:                  -7.189
REMARK INTRA:                  -0.157
REMARK UNBOUND:                -0.134
REMARK SMILES C[C@@H]1[C@@H](C)CC[C@@]2(C(=O)[O-])CC[C@]3(C)C(=CC[C@H]4[C@]5(C)CC[C@@H](O)C(C)(C)[C@@H]5CC[C@]43C)[C@@H]12
REMARK SMILES IDX 7 1 6 2 11 3 33 4 5 5 12 6 15 7 2 8 3 9 13 10 16 11 1 12
REMARK SMILES IDX 4 13 14 14 31 15 17 16 18 17 30 18 32 19 19 20 29 21 28 22
REMARK SMILES IDX 21 23 20 24 25 25 22 26 23 27 26 28 27 29 8 30 9 31 10 32
REMARK SMILES IDX 24 33
REMARK H PARENT 24 34
REMARK Flexibility Score: inf
ROOT
ATOM      1  C   UNL     1      24.071  -5.249 126.040  1.00  0.00     0.017 C 
ATOM      2  C   UNL     1      25.451  -5.257 125.342  1.00  0.00     0.014 C 
ATOM      3  C   UNL     1      22.929  -5.142 125.001  1.00  0.00     0.014 C 
ATOM      4  C   UNL     1      23.870  -6.560 126.857  1.00  0.00     0.030 C 
ATOM      5  C   UNL     1      25.657  -6.466 124.444  1.00  0.00     0.004 C 
ATOM      6  C   UNL     1      21.528  -5.017 125.621  1.00  0.00     0.013 C 
ATOM      7  C   UNL     1      22.471  -6.577 127.510  1.00  0.00    -0.063 C 
ATOM      8  C   UNL     1      24.161  -7.866 126.008  1.00  0.00    -0.003 C 
ATOM      9  C   UNL     1      25.510  -7.784 125.213  1.00  0.00    -0.011 C 
ATOM     10  C   UNL     1      21.261  -5.765 126.992  1.00  0.00    -0.006 C 
ATOM     11  C   UNL     1      22.286  -7.370 128.589  1.00  0.00    -0.027 C 
ATOM     12  C   UNL     1      24.175  -9.125 126.915  1.00  0.00     0.008 C 
ATOM     13  C   UNL     1      25.669  -8.934 124.195  1.00  0.00     0.008 C 
ATOM     14  C   UNL     1      20.994  -4.642 128.038  1.00  0.00     0.017 C 
ATOM     15  C   UNL     1      20.027  -6.786 126.894  1.00  0.00    -0.020 C 
ATOM     16  C   UNL     1      20.948  -7.627 129.235  1.00  0.00     0.032 C 
ATOM     17  C   UNL     1      19.690  -7.435 128.313  1.00  0.00     0.006 C 
ATOM     18  C   UNL     1      18.746  -6.163 126.273  1.00  0.00     0.008 C 
ATOM     19  C   UNL     1      20.441  -7.945 125.913  1.00  0.00     0.012 C 
ATOM     20  C   UNL     1      18.338  -7.008 129.107  1.00  0.00    -0.025 C 
ATOM     21  C   UNL     1      17.478  -6.946 126.646  1.00  0.00     0.005 C 
ATOM     22  C   UNL     1      17.108  -6.681 128.118  1.00  0.00     0.003 C 
ATOM     23  C   UNL     1      18.040  -8.203 130.084  1.00  0.00     0.010 C 
ATOM     24  C   UNL     1      18.534  -5.744 130.001  1.00  0.00     0.012 C 
ATOM     25  C   UNL     1      15.631  -7.153 128.548  1.00  0.00    -0.006 C 
ATOM     26  C   UNL     1      16.621  -8.264 130.616  1.00  0.00     0.033 C 
ATOM     27  C   UNL     1      15.654  -8.419 129.448  1.00  0.00     0.120 C 
ATOM     28  C   UNL     1      14.907  -5.988 129.286  1.00  0.00     0.014 C 
ATOM     29  C   UNL     1      14.729  -7.490 127.328  1.00  0.00     0.014 C 
ENDROOT
BRANCH   1  30
ATOM     30  C   UNL     1      24.092  -4.026 126.946  1.00  0.00     0.048 C 
ATOM     31  O   UNL     1      23.835  -2.882 126.483  1.00  0.00    -0.550 OA
ATOM     32  O   UNL     1      24.505  -4.130 128.271  1.00  0.00    -0.550 OA
ENDBRANCH   1  30
BRANCH  27  33
ATOM     33  O   UNL     1      14.367  -8.700 129.944  1.00  0.00    -0.393 OA
ATOM     34  H   UNL     1      13.822  -7.878 129.824  1.00  0.00     0.210 HD
ENDBRANCH  27  33
TORSDOF 2
ENDMDL
MODEL 5
REMARK VINA RESULT:    -6.616      2.037      7.972
REMARK INTER + INTRA:          -7.330
REMARK INTER:                  -7.189
REMARK INTRA:                  -0.141
REMARK UNBOUND:                -0.134
REMARK SMILES C[C@@H]1[C@@H](C)CC[C@@]2(C(=O)[O-])CC[C@]3(C)C(=CC[C@H]4[C@]5(C)CC[C@@H](O)C(C)(C)[C@@H]5CC[C@]43C)[C@@H]12
REMARK SMILES IDX 7 1 6 2 11 3 33 4 5 5 12 6 15 7 2 8 3 9 13 10 16 11 1 12
REMARK SMILES IDX 4 13 14 14 31 15 17 16 18 17 30 18 32 19 19 20 29 21 28 22
REMARK SMILES IDX 21 23 20 24 25 25 22 26 23 27 26 28 27 29 8 30 9 31 10 32
REMARK SMILES IDX 24 33
REMARK H PARENT 24 34
REMARK Flexibility Score: inf
ROOT
ATOM      1  C   UNL     1      23.503  -6.838 126.889  1.00  0.00     0.017 C 
ATOM      2  C   UNL     1      24.879  -6.292 126.445  1.00  0.00     0.014 C 
ATOM      3  C   UNL     1      23.282  -6.607 128.405  1.00  0.00     0.014 C 
ATOM      4  C   UNL     1      22.359  -6.120 126.113  1.00  0.00     0.030 C 
ATOM      5  C   UNL     1      25.005  -4.786 126.610  1.00  0.00     0.004 C 
ATOM      6  C   UNL     1      21.982  -7.221 128.948  1.00  0.00     0.013 C 
ATOM      7  C   UNL     1      20.983  -6.626 126.595  1.00  0.00    -0.063 C 
ATOM      8  C   UNL     1      22.478  -4.541 126.161  1.00  0.00    -0.003 C 
ATOM      9  C   UNL     1      23.922  -4.031 125.828  1.00  0.00    -0.011 C 
ATOM     10  C   UNL     1      20.728  -7.265 127.981  1.00  0.00    -0.006 C 
ATOM     11  C   UNL     1      19.928  -6.480 125.763  1.00  0.00    -0.027 C 
ATOM     12  C   UNL     1      21.464  -3.879 125.191  1.00  0.00     0.008 C 
ATOM     13  C   UNL     1      24.104  -2.526 126.123  1.00  0.00     0.008 C 
ATOM     14  C   UNL     1      20.443  -8.777 127.732  1.00  0.00     0.017 C 
ATOM     15  C   UNL     1      19.454  -6.519 128.608  1.00  0.00    -0.020 C 
ATOM     16  C   UNL     1      18.497  -6.765 126.146  1.00  0.00     0.032 C 
ATOM     17  C   UNL     1      18.165  -6.682 127.680  1.00  0.00     0.006 C 
ATOM     18  C   UNL     1      19.125  -6.956 130.061  1.00  0.00     0.008 C 
ATOM     19  C   UNL     1      19.796  -4.985 128.703  1.00  0.00     0.012 C 
ATOM     20  C   UNL     1      16.934  -7.632 128.149  1.00  0.00    -0.025 C 
ATOM     21  C   UNL     1      17.671  -6.644 130.447  1.00  0.00     0.005 C 
ATOM     22  C   UNL     1      16.716  -7.630 129.747  1.00  0.00     0.003 C 
ATOM     23  C   UNL     1      15.682  -7.106 127.357  1.00  0.00     0.010 C 
ATOM     24  C   UNL     1      17.127  -9.124 127.733  1.00  0.00     0.012 C 
ATOM     25  C   UNL     1      15.211  -7.647 130.316  1.00  0.00    -0.006 C 
ATOM     26  C   UNL     1      14.338  -7.519 127.925  1.00  0.00     0.033 C 
ATOM     27  C   UNL     1      14.204  -6.975 129.342  1.00  0.00     0.120 C 
ATOM     28  C   UNL     1      14.778  -9.117 130.598  1.00  0.00     0.014 C 
ATOM     29  C   UNL     1      15.075  -6.910 131.677  1.00  0.00     0.014 C 
ENDROOT
BRANCH   1  30
ATOM     30  C   UNL     1      23.545  -8.326 126.572  1.00  0.00     0.048 C 
ATOM     31  O   UNL     1      24.160  -9.125 127.327  1.00  0.00    -0.550 OA
ATOM     32  O   UNL     1      23.004  -8.814 125.385  1.00  0.00    -0.550 OA
ENDBRANCH   1  30
BRANCH  27  33
ATOM     33  O   UNL     1      12.882  -7.160 129.789  1.00  0.00    -0.393 OA
ATOM     34  H   UNL     1      12.479  -7.871 129.224  1.00  0.00     0.210 HD
ENDBRANCH  27  33
TORSDOF 2
ENDMDL
MODEL 6
REMARK VINA RESULT:    -6.471      2.904      8.823
REMARK INTER + INTRA:          -7.172
REMARK INTER:                  -7.077
REMARK INTRA:                  -0.095
REMARK UNBOUND:                -0.134
REMARK SMILES C[C@@H]1[C@@H](C)CC[C@@]2(C(=O)[O-])CC[C@]3(C)C(=CC[C@H]4[C@]5(C)CC[C@@H](O)C(C)(C)[C@@H]5CC[C@]43C)[C@@H]12
REMARK SMILES IDX 7 1 6 2 11 3 33 4 5 5 12 6 15 7 2 8 3 9 13 10 16 11 1 12
REMARK SMILES IDX 4 13 14 14 31 15 17 16 18 17 30 18 32 19 19 20 29 21 28 22
REMARK SMILES IDX 21 23 20 24 25 25 22 26 23 27 26 28 27 29 8 30 9 31 10 32
REMARK SMILES IDX 24 33
REMARK H PARENT 24 34
REMARK Flexibility Score: inf
ROOT
ATOM      1  C   UNL     1      20.216  -6.730 127.315  1.00  0.00     0.017 C 
ATOM      2  C   UNL     1      21.374  -6.387 126.350  1.00  0.00     0.014 C 
ATOM      3  C   UNL     1      20.355  -5.945 128.643  1.00  0.00     0.014 C 
ATOM      4  C   UNL     1      18.847  -6.364 126.670  1.00  0.00     0.030 C 
ATOM      5  C   UNL     1      21.377  -4.930 125.917  1.00  0.00     0.004 C 
ATOM      6  C   UNL     1      19.302  -6.313 129.701  1.00  0.00     0.013 C 
ATOM      7  C   UNL     1      17.694  -6.657 127.654  1.00  0.00    -0.063 C 
ATOM      8  C   UNL     1      18.806  -4.884 126.107  1.00  0.00    -0.003 C 
ATOM      9  C   UNL     1      20.061  -4.532 125.236  1.00  0.00    -0.011 C 
ATOM     10  C   UNL     1      17.860  -6.725 129.191  1.00  0.00    -0.006 C 
ATOM     11  C   UNL     1      16.457  -6.841 127.143  1.00  0.00    -0.027 C 
ATOM     12  C   UNL     1      17.520  -4.643 125.275  1.00  0.00     0.008 C 
ATOM     13  C   UNL     1      20.150  -3.027 124.903  1.00  0.00     0.008 C 
ATOM     14  C   UNL     1      17.682  -8.219 129.595  1.00  0.00     0.017 C 
ATOM     15  C   UNL     1      16.709  -5.802 129.822  1.00  0.00    -0.020 C 
ATOM     16  C   UNL     1      15.203  -6.966 127.973  1.00  0.00     0.032 C 
ATOM     17  C   UNL     1      15.255  -6.310 129.400  1.00  0.00     0.006 C 
ATOM     18  C   UNL     1      16.797  -5.659 131.366  1.00  0.00     0.008 C 
ATOM     19  C   UNL     1      16.899  -4.345 129.258  1.00  0.00     0.012 C 
ATOM     20  C   UNL     1      14.286  -7.017 130.496  1.00  0.00    -0.025 C 
ATOM     21  C   UNL     1      15.460  -5.230 131.989  1.00  0.00     0.005 C 
ATOM     22  C   UNL     1      14.471  -6.412 131.978  1.00  0.00     0.003 C 
ATOM     23  C   UNL     1      12.828  -6.835 129.935  1.00  0.00     0.010 C 
ATOM     24  C   UNL     1      14.526  -8.555 130.614  1.00  0.00     0.012 C 
ATOM     25  C   UNL     1      13.164  -6.219 132.897  1.00  0.00    -0.006 C 
ATOM     26  C   UNL     1      11.718  -7.008 130.953  1.00  0.00     0.033 C 
ATOM     27  C   UNL     1      11.882  -5.969 132.056  1.00  0.00     0.120 C 
ATOM     28  C   UNL     1      12.972  -7.474 133.800  1.00  0.00     0.014 C 
ATOM     29  C   UNL     1      13.292  -5.022 133.880  1.00  0.00     0.014 C 
ENDROOT
BRANCH   1  30
ATOM     30  C   UNL     1      20.335  -8.228 127.561  1.00  0.00     0.048 C 
ATOM     31  O   UNL     1      21.252  -8.686 128.294  1.00  0.00    -0.550 OA
ATOM     32  O   UNL     1      19.506  -9.125 126.893  1.00  0.00    -0.550 OA
ENDBRANCH   1  30
BRANCH  27  33
ATOM     33  O   UNL     1      10.739  -5.977 132.877  1.00  0.00    -0.393 OA
ATOM     34  H   UNL     1      10.037  -6.489 132.396  1.00  0.00     0.210 HD
ENDBRANCH  27  33
TORSDOF 2
ENDMDL
MODEL 7
REMARK VINA RESULT:    -5.451      4.592      9.573
REMARK INTER + INTRA:          -6.063
REMARK INTER:                  -6.052
REMARK INTRA:                  -0.011
REMARK UNBOUND:                -0.134
REMARK SMILES C[C@@H]1[C@@H](C)CC[C@@]2(C(=O)[O-])CC[C@]3(C)C(=CC[C@H]4[C@]5(C)CC[C@@H](O)C(C)(C)[C@@H]5CC[C@]43C)[C@@H]12
REMARK SMILES IDX 7 1 6 2 11 3 33 4 5 5 12 6 15 7 2 8 3 9 13 10 16 11 1 12
REMARK SMILES IDX 4 13 14 14 31 15 17 16 18 17 30 18 32 19 19 20 29 21 28 22
REMARK SMILES IDX 21 23 20 24 25 25 22 26 23 27 26 28 27 29 8 30 9 31 10 32
REMARK SMILES IDX 24 33
REMARK H PARENT 24 34
REMARK Flexibility Score: inf
ROOT
ATOM      1  C   UNL     1      25.565   0.361 123.344  1.00  0.00     0.017 C 
ATOM      2  C   UNL     1      26.419   1.575 122.911  1.00  0.00     0.014 C 
ATOM      3  C   UNL     1      25.891  -0.879 122.475  1.00  0.00     0.014 C 
ATOM      4  C   UNL     1      25.848   0.003 124.833  1.00  0.00     0.030 C 
ATOM      5  C   UNL     1      27.909   1.360 123.119  1.00  0.00     0.004 C 
ATOM      6  C   UNL     1      25.004  -2.100 122.769  1.00  0.00     0.013 C 
ATOM      7  C   UNL     1      25.037  -1.242 125.250  1.00  0.00    -0.063 C 
ATOM      8  C   UNL     1      27.394  -0.143 125.149  1.00  0.00    -0.003 C 
ATOM      9  C   UNL     1      28.244   1.046 124.583  1.00  0.00    -0.011 C 
ATOM     10  C   UNL     1      24.509  -2.307 124.260  1.00  0.00    -0.006 C 
ATOM     11  C   UNL     1      24.792  -1.426 126.567  1.00  0.00    -0.027 C 
ATOM     12  C   UNL     1      27.638  -0.268 126.676  1.00  0.00     0.008 C 
ATOM     13  C   UNL     1      29.763   0.781 124.663  1.00  0.00     0.008 C 
ATOM     14  C   UNL     1      22.959  -2.147 124.213  1.00  0.00     0.017 C 
ATOM     15  C   UNL     1      24.937  -3.737 124.847  1.00  0.00    -0.020 C 
ATOM     16  C   UNL     1      24.166  -2.669 127.150  1.00  0.00     0.032 C 
ATOM     17  C   UNL     1      24.322  -3.982 126.300  1.00  0.00     0.006 C 
ATOM     18  C   UNL     1      24.588  -4.928 123.912  1.00  0.00     0.008 C 
ATOM     19  C   UNL     1      26.506  -3.754 124.972  1.00  0.00     0.012 C 
ATOM     20  C   UNL     1      23.126  -5.060 126.511  1.00  0.00    -0.025 C 
ATOM     21  C   UNL     1      24.525  -6.263 124.669  1.00  0.00     0.005 C 
ATOM     22  C   UNL     1      23.243  -6.327 125.521  1.00  0.00     0.003 C 
ATOM     23  C   UNL     1      23.194  -5.459 128.030  1.00  0.00     0.010 C 
ATOM     24  C   UNL     1      21.709  -4.447 126.277  1.00  0.00     0.012 C 
ATOM     25  C   UNL     1      22.872  -7.784 126.092  1.00  0.00    -0.006 C 
ATOM     26  C   UNL     1      22.490  -6.753 128.391  1.00  0.00     0.033 C 
ATOM     27  C   UNL     1      23.128  -7.902 127.620  1.00  0.00     0.120 C 
ATOM     28  C   UNL     1      21.380  -8.104 125.776  1.00  0.00     0.014 C 
ATOM     29  C   UNL     1      23.688  -8.921 125.415  1.00  0.00     0.014 C 
ENDROOT
BRANCH   1  30
ATOM     30  C   UNL     1      24.122   0.797 123.139  1.00  0.00     0.048 C 
ATOM     31  O   UNL     1      23.666   0.980 121.978  1.00  0.00    -0.550 OA
ATOM     32  O   UNL     1      23.314   1.113 124.229  1.00  0.00    -0.550 OA
ENDBRANCH   1  30
BRANCH  27  33
ATOM     33  O   UNL     1      22.634  -9.125 128.114  1.00  0.00    -0.393 OA
ATOM     34  H   UNL     1      23.245  -9.839 127.791  1.00  0.00     0.210 HD
ENDBRANCH  27  33
TORSDOF 2
ENDMDL
MODEL 8
REMARK VINA RESULT:    -5.436      4.064      9.067
REMARK INTER + INTRA:          -6.047
REMARK INTER:                  -5.896
REMARK INTRA:                  -0.151
REMARK UNBOUND:                -0.134
REMARK SMILES C[C@@H]1[C@@H](C)CC[C@@]2(C(=O)[O-])CC[C@]3(C)C(=CC[C@H]4[C@]5(C)CC[C@@H](O)C(C)(C)[C@@H]5CC[C@]43C)[C@@H]12
REMARK SMILES IDX 7 1 6 2 11 3 33 4 5 5 12 6 15 7 2 8 3 9 13 10 16 11 1 12
REMARK SMILES IDX 4 13 14 14 31 15 17 16 18 17 30 18 32 19 19 20 29 21 28 22
REMARK SMILES IDX 21 23 20 24 25 25 22 26 23 27 26 28 27 29 8 30 9 31 10 32
REMARK SMILES IDX 24 33
REMARK H PARENT 24 34
REMARK Flexibility Score: inf
ROOT
ATOM      1  C   UNL     1      25.914  -0.102 124.296  1.00  0.00     0.017 C 
ATOM      2  C   UNL     1      26.438   1.082 123.452  1.00  0.00     0.014 C 
ATOM      3  C   UNL     1      24.518   0.217 124.885  1.00  0.00     0.014 C 
ATOM      4  C   UNL     1      25.793  -1.382 123.415  1.00  0.00     0.030 C 
ATOM      5  C   UNL     1      25.580   1.371 122.231  1.00  0.00     0.004 C 
ATOM      6  C   UNL     1      23.974  -0.868 125.828  1.00  0.00     0.013 C 
ATOM      7  C   UNL     1      25.218  -2.551 124.244  1.00  0.00    -0.063 C 
ATOM      8  C   UNL     1      24.989  -1.134 122.073  1.00  0.00    -0.003 C 
ATOM      9  C   UNL     1      25.465   0.149 121.310  1.00  0.00    -0.011 C 
ATOM     10  C   UNL     1      24.357  -2.373 125.517  1.00  0.00    -0.006 C 
ATOM     11  C   UNL     1      25.462  -3.810 123.816  1.00  0.00    -0.027 C 
ATOM     12  C   UNL     1      25.093  -2.361 121.130  1.00  0.00     0.008 C 
ATOM     13  C   UNL     1      24.523   0.534 120.148  1.00  0.00     0.008 C 
ATOM     14  C   UNL     1      25.232  -2.840 126.719  1.00  0.00     0.017 C 
ATOM     15  C   UNL     1      23.062  -3.302 125.334  1.00  0.00    -0.020 C 
ATOM     16  C   UNL     1      24.836  -5.046 124.411  1.00  0.00     0.032 C 
ATOM     17  C   UNL     1      23.464  -4.836 125.148  1.00  0.00     0.006 C 
ATOM     18  C   UNL     1      22.020  -3.157 126.476  1.00  0.00     0.008 C 
ATOM     19  C   UNL     1      22.316  -2.832 124.029  1.00  0.00     0.012 C 
ATOM     20  C   UNL     1      23.172  -5.907 126.335  1.00  0.00    -0.025 C 
ATOM     21  C   UNL     1      21.079  -4.368 126.564  1.00  0.00     0.005 C 
ATOM     22  C   UNL     1      21.828  -5.576 127.161  1.00  0.00     0.003 C 
ATOM     23  C   UNL     1      23.126  -7.308 125.623  1.00  0.00     0.010 C 
ATOM     24  C   UNL     1      24.327  -5.980 127.383  1.00  0.00     0.012 C 
ATOM     25  C   UNL     1      20.893  -6.798 127.628  1.00  0.00    -0.006 C 
ATOM     26  C   UNL     1      22.447  -8.411 126.411  1.00  0.00     0.033 C 
ATOM     27  C   UNL     1      20.997  -8.020 126.673  1.00  0.00     0.120 C 
ATOM     28  C   UNL     1      21.276  -7.222 129.077  1.00  0.00     0.014 C 
ATOM     29  C   UNL     1      19.389  -6.413 127.696  1.00  0.00     0.014 C 
ENDROOT
BRANCH   1  30
ATOM     30  C   UNL     1      26.938  -0.283 125.406  1.00  0.00     0.048 C 
ATOM     31  O   UNL     1      26.931   0.473 126.414  1.00  0.00    -0.550 OA
ATOM     32  O   UNL     1      27.970  -1.210 125.277  1.00  0.00    -0.550 OA
ENDBRANCH   1  30
BRANCH  27  33
ATOM     33  O   UNL     1      20.304  -9.125 127.202  1.00  0.00    -0.393 OA
ATOM     34  H   UNL     1      20.047  -9.703 126.436  1.00  0.00     0.210 HD
ENDBRANCH  27  33
TORSDOF 2
ENDMDL
