MODEL 1
REMARK VINA RESULT:    -6.009      0.000      0.000
REMARK INTER + INTRA:         -17.686
REMARK INTER:                 -13.737
REMARK INTRA:                  -3.948
REMARK UNBOUND:                -3.948
REMARK SMILES CCCCCCCCCCCCCCCCCCCCCCCC(=O)[O-]
REMARK SMILES IDX 13 1 14 2 15 3 16 4 17 5 18 6 19 7 20 8 21 9 22 10 23 11
REMARK SMILES IDX 24 12 25 13 26 14 12 15 11 16 10 17 9 18 8 19 7 20 6 21 5 22
REMARK SMILES IDX 4 23 3 24 2 25 1 26
REMARK H PARENT
REMARK Flexibility Score: inf
ROOT
ATOM      1  C   UNL     1     -13.110  -3.111  14.743  1.00  0.00     0.000 C 
ENDROOT
BRANCH   1   2
ATOM      2  C   UNL     1     -14.573  -3.208  14.260  1.00  0.00     0.000 C 
BRANCH   2   3
ATOM      3  C   UNL     1     -14.719  -4.014  12.957  1.00  0.00     0.000 C 
BRANCH   3   4
ATOM      4  C   UNL     1     -13.687  -3.605  11.893  1.00  0.00     0.000 C 
BRANCH   4   5
ATOM      5  C   UNL     1     -13.931  -4.292  10.536  1.00  0.00     0.000 C 
BRANCH   5   6
ATOM      6  C   UNL     1     -12.773  -5.214  10.122  1.00  0.00     0.000 C 
BRANCH   6   7
ATOM      7  C   UNL     1     -11.403  -4.687  10.584  1.00  0.00     0.000 C 
BRANCH   7   8
ATOM      8  C   UNL     1     -10.245  -5.604  10.159  1.00  0.00     0.000 C 
BRANCH   8   9
ATOM      9  C   UNL     1      -9.311  -5.959  11.326  1.00  0.00     0.000 C 
BRANCH   9  10
ATOM     10  C   UNL     1      -9.923  -5.529  12.667  1.00  0.00     0.006 C 
BRANCH  10  11
ATOM     11  C   UNL     1     -10.110  -6.713  13.627  1.00  0.00     0.053 C 
BRANCH  11  12
ATOM     12  C   UNL     1     -11.512  -6.788  14.150  1.00  0.00     0.041 C 
ATOM     13  O   UNL     1     -11.722  -6.931  15.384  1.00  0.00    -0.550 OA
ATOM     14  O   UNL     1     -12.586  -6.730  13.270  1.00  0.00    -0.550 OA
ENDBRANCH  11  12
ENDBRANCH  10  11
ENDBRANCH   9  10
ENDBRANCH   8   9
ENDBRANCH   7   8
ENDBRANCH   6   7
ENDBRANCH   5   6
ENDBRANCH   4   5
ENDBRANCH   3   4
ENDBRANCH   2   3
ENDBRANCH   1   2
BRANCH   1  15
ATOM     15  C   UNL     1     -12.880  -3.663  16.163  1.00  0.00     0.000 C 
BRANCH  15  16
ATOM     16  C   UNL     1     -11.487  -3.385  16.761  1.00  0.00     0.000 C 
BRANCH  16  17
ATOM     17  C   UNL     1     -10.304  -3.582  15.794  1.00  0.00     0.000 C 
BRANCH  17  18
ATOM     18  C   UNL     1      -9.067  -4.195  16.473  1.00  0.00    -0.000 C 
BRANCH  18  19
ATOM     19  C   UNL     1      -8.010  -3.144  16.860  1.00  0.00    -0.000 C 
BRANCH  19  20
ATOM     20  C   UNL     1      -6.913  -2.896  15.807  1.00  0.00    -0.000 C 
BRANCH  20  21
ATOM     21  C   UNL     1      -7.100  -3.741  14.535  1.00  0.00    -0.000 C 
BRANCH  21  22
ATOM     22  C   UNL     1      -7.666  -2.921  13.362  1.00  0.00    -0.000 C 
BRANCH  22  23
ATOM     23  C   UNL     1      -7.563  -1.406  13.594  1.00  0.00    -0.000 C 
BRANCH  23  24
ATOM     24  C   UNL     1      -8.889  -0.710  13.264  1.00  0.00    -0.000 C 
BRANCH  24  25
ATOM     25  C   UNL     1      -9.920  -1.712  12.731  1.00  0.00    -0.003 C 
ATOM     26  C   UNL     1     -11.182  -1.001  12.249  1.00  0.00     0.004 C 
ENDBRANCH  24  25
ENDBRANCH  23  24
ENDBRANCH  22  23
ENDBRANCH  21  22
ENDBRANCH  20  21
ENDBRANCH  19  20
ENDBRANCH  18  19
ENDBRANCH  17  18
ENDBRANCH  16  17
ENDBRANCH  15  16
ENDBRANCH   1  15
TORSDOF 22
ENDMDL
MODEL 2
REMARK VINA RESULT:    -5.953      1.924      4.331
REMARK INTER + INTRA:         -17.558
REMARK INTER:                 -13.458
REMARK INTRA:                  -4.100
REMARK UNBOUND:                -3.948
REMARK SMILES CCCCCCCCCCCCCCCCCCCCCCCC(=O)[O-]
REMARK SMILES IDX 13 1 14 2 15 3 16 4 17 5 18 6 19 7 20 8 21 9 22 10 23 11
REMARK SMILES IDX 24 12 25 13 26 14 12 15 11 16 10 17 9 18 8 19 7 20 6 21 5 22
REMARK SMILES IDX 4 23 3 24 2 25 1 26
REMARK H PARENT
REMARK Flexibility Score: inf
ROOT
ATOM      1  C   UNL     1     -12.672  -3.534  16.756  1.00  0.00     0.000 C 
ENDROOT
BRANCH   1   2
ATOM      2  C   UNL     1     -12.852  -3.810  15.248  1.00  0.00     0.000 C 
BRANCH   2   3
ATOM      3  C   UNL     1     -14.168  -3.238  14.690  1.00  0.00     0.000 C 
BRANCH   3   4
ATOM      4  C   UNL     1     -14.002  -2.645  13.282  1.00  0.00     0.000 C 
BRANCH   4   5
ATOM      5  C   UNL     1     -12.980  -1.494  13.239  1.00  0.00     0.000 C 
BRANCH   5   6
ATOM      6  C   UNL     1     -12.235  -1.411  11.897  1.00  0.00     0.000 C 
BRANCH   6   7
ATOM      7  C   UNL     1     -10.773  -0.962  12.059  1.00  0.00     0.000 C 
BRANCH   7   8
ATOM      8  C   UNL     1     -10.053  -1.701  13.200  1.00  0.00     0.000 C 
BRANCH   8   9
ATOM      9  C   UNL     1      -8.570  -1.313  13.314  1.00  0.00     0.000 C 
BRANCH   9  10
ATOM     10  C   UNL     1      -7.666  -2.532  13.081  1.00  0.00     0.006 C 
BRANCH  10  11
ATOM     11  C   UNL     1      -8.473  -3.819  12.856  1.00  0.00     0.053 C 
BRANCH  11  12
ATOM     12  C   UNL     1      -7.587  -4.974  12.504  1.00  0.00     0.041 C 
ATOM     13  O   UNL     1      -6.389  -4.998  12.896  1.00  0.00    -0.550 OA
ATOM     14  O   UNL     1      -8.074  -6.011  11.717  1.00  0.00    -0.550 OA
ENDBRANCH  11  12
ENDBRANCH  10  11
ENDBRANCH   9  10
ENDBRANCH   8   9
ENDBRANCH   7   8
ENDBRANCH   6   7
ENDBRANCH   5   6
ENDBRANCH   4   5
ENDBRANCH   3   4
ENDBRANCH   2   3
ENDBRANCH   1   2
BRANCH   1  15
ATOM     15  C   UNL     1     -11.270  -3.020  17.136  1.00  0.00     0.000 C 
BRANCH  15  16
ATOM     16  C   UNL     1     -10.147  -3.369  16.140  1.00  0.00     0.000 C 
BRANCH  16  17
ATOM     17  C   UNL     1      -9.137  -4.424  16.629  1.00  0.00     0.000 C 
BRANCH  17  18
ATOM     18  C   UNL     1      -9.135  -5.699  15.767  1.00  0.00    -0.000 C 
BRANCH  18  19
ATOM     19  C   UNL     1     -10.479  -6.450  15.799  1.00  0.00    -0.000 C 
BRANCH  19  20
ATOM     20  C   UNL     1     -10.703  -7.448  14.648  1.00  0.00    -0.000 C 
BRANCH  20  21
ATOM     21  C   UNL     1     -10.966  -6.757  13.298  1.00  0.00    -0.000 C 
BRANCH  21  22
ATOM     22  C   UNL     1     -12.466  -6.572  13.014  1.00  0.00    -0.000 C 
BRANCH  22  23
ATOM     23  C   UNL     1     -12.733  -5.669  11.802  1.00  0.00    -0.000 C 
BRANCH  23  24
ATOM     24  C   UNL     1     -11.443  -4.986  11.332  1.00  0.00    -0.000 C 
BRANCH  24  25
ATOM     25  C   UNL     1     -11.229  -5.187   9.827  1.00  0.00    -0.003 C 
ATOM     26  C   UNL     1     -12.408  -5.921   9.195  1.00  0.00     0.004 C 
ENDBRANCH  24  25
ENDBRANCH  23  24
ENDBRANCH  22  23
ENDBRANCH  21  22
ENDBRANCH  20  21
ENDBRANCH  19  20
ENDBRANCH  18  19
ENDBRANCH  17  18
ENDBRANCH  16  17
ENDBRANCH  15  16
ENDBRANCH   1  15
TORSDOF 22
ENDMDL
MODEL 3
REMARK VINA RESULT:    -5.920      2.151      6.124
REMARK INTER + INTRA:         -17.483
REMARK INTER:                 -13.868
REMARK INTRA:                  -3.615
REMARK UNBOUND:                -3.948
REMARK SMILES CCCCCCCCCCCCCCCCCCCCCCCC(=O)[O-]
REMARK SMILES IDX 13 1 14 2 15 3 16 4 17 5 18 6 19 7 20 8 21 9 22 10 23 11
REMARK SMILES IDX 24 12 25 13 26 14 12 15 11 16 10 17 9 18 8 19 7 20 6 21 5 22
REMARK SMILES IDX 4 23 3 24 2 25 1 26
REMARK H PARENT
REMARK Flexibility Score: inf
ROOT
ATOM      1  C   UNL     1     -12.621  -3.508  15.739  1.00  0.00     0.000 C 
ENDROOT
BRANCH   1   2
ATOM      2  C   UNL     1     -11.173  -3.512  16.276  1.00  0.00     0.000 C 
BRANCH   2   3
ATOM      3  C   UNL     1     -10.998  -2.630  17.525  1.00  0.00     0.000 C 
BRANCH   3   4
ATOM      4  C   UNL     1      -9.557  -2.647  18.061  1.00  0.00     0.000 C 
BRANCH   4   5
ATOM      5  C   UNL     1      -8.611  -3.495  17.191  1.00  0.00     0.000 C 
BRANCH   5   6
ATOM      6  C   UNL     1      -7.178  -2.940  17.158  1.00  0.00     0.000 C 
BRANCH   6   7
ATOM      7  C   UNL     1      -6.504  -3.124  15.788  1.00  0.00     0.000 C 
BRANCH   7   8
ATOM      8  C   UNL     1      -7.138  -4.259  14.967  1.00  0.00     0.000 C 
BRANCH   8   9
ATOM      9  C   UNL     1      -7.107  -3.986  13.455  1.00  0.00     0.000 C 
BRANCH   9  10
ATOM     10  C   UNL     1      -7.565  -2.552  13.149  1.00  0.00     0.006 C 
BRANCH  10  11
ATOM     11  C   UNL     1      -9.081  -2.378  13.319  1.00  0.00     0.053 C 
BRANCH  11  12
ATOM     12  C   UNL     1      -9.521  -0.989  12.971  1.00  0.00     0.041 C 
ATOM     13  O   UNL     1      -8.750  -0.011  13.166  1.00  0.00    -0.550 OA
ATOM     14  O   UNL     1     -10.795  -0.770  12.461  1.00  0.00    -0.550 OA
ENDBRANCH  11  12
ENDBRANCH  10  11
ENDBRANCH   9  10
ENDBRANCH   8   9
ENDBRANCH   7   8
ENDBRANCH   6   7
ENDBRANCH   5   6
ENDBRANCH   4   5
ENDBRANCH   3   4
ENDBRANCH   2   3
ENDBRANCH   1   2
BRANCH   1  15
ATOM     15  C   UNL     1     -12.750  -3.008  14.288  1.00  0.00     0.000 C 
BRANCH  15  16
ATOM     16  C   UNL     1     -13.382  -4.008  13.299  1.00  0.00     0.000 C 
BRANCH  16  17
ATOM     17  C   UNL     1     -13.985  -3.384  12.026  1.00  0.00     0.000 C 
BRANCH  17  18
ATOM     18  C   UNL     1     -13.840  -4.286  10.789  1.00  0.00    -0.000 C 
BRANCH  18  19
ATOM     19  C   UNL     1     -12.686  -5.297  10.913  1.00  0.00    -0.000 C 
BRANCH  19  20
ATOM     20  C   UNL     1     -11.864  -5.519   9.629  1.00  0.00    -0.000 C 
BRANCH  20  21
ATOM     21  C   UNL     1     -10.354  -5.647   9.898  1.00  0.00    -0.000 C 
BRANCH  21  22
ATOM     22  C   UNL     1      -9.972  -5.215  11.324  1.00  0.00    -0.000 C 
BRANCH  22  23
ATOM     23  C   UNL     1      -9.565  -6.400  12.213  1.00  0.00    -0.000 C 
BRANCH  23  24
ATOM     24  C   UNL     1     -10.031  -6.186  13.658  1.00  0.00    -0.000 C 
BRANCH  24  25
ATOM     25  C   UNL     1     -10.700  -7.449  14.214  1.00  0.00    -0.003 C 
ATOM     26  C   UNL     1     -11.623  -7.116  15.383  1.00  0.00     0.004 C 
ENDBRANCH  24  25
ENDBRANCH  23  24
ENDBRANCH  22  23
ENDBRANCH  21  22
ENDBRANCH  20  21
ENDBRANCH  19  20
ENDBRANCH  18  19
ENDBRANCH  17  18
ENDBRANCH  16  17
ENDBRANCH  15  16
ENDBRANCH   1  15
TORSDOF 22
ENDMDL
MODEL 4
REMARK VINA RESULT:    -5.911      2.005      5.491
REMARK INTER + INTRA:         -17.462
REMARK INTER:                 -13.442
REMARK INTRA:                  -4.020
REMARK UNBOUND:                -3.948
REMARK SMILES CCCCCCCCCCCCCCCCCCCCCCCC(=O)[O-]
REMARK SMILES IDX 13 1 14 2 15 3 16 4 17 5 18 6 19 7 20 8 21 9 22 10 23 11
REMARK SMILES IDX 24 12 25 13 26 14 12 15 11 16 10 17 9 18 8 19 7 20 6 21 5 22
REMARK SMILES IDX 4 23 3 24 2 25 1 26
REMARK H PARENT
REMARK Flexibility Score: inf
ROOT
ATOM      1  C   UNL     1     -11.572  -3.009  15.799  1.00  0.00     0.000 C 
ENDROOT
BRANCH   1   2
ATOM      2  C   UNL     1     -11.306  -3.036  17.319  1.00  0.00     0.000 C 
BRANCH   2   3
ATOM      3  C   UNL     1      -9.986  -2.344  17.706  1.00  0.00     0.000 C 
BRANCH   3   4
ATOM      4  C   UNL     1      -8.789  -3.308  17.693  1.00  0.00     0.000 C 
BRANCH   4   5
ATOM      5  C   UNL     1      -7.844  -3.063  16.502  1.00  0.00     0.000 C 
BRANCH   5   6
ATOM      6  C   UNL     1      -8.104  -4.024  15.331  1.00  0.00     0.000 C 
BRANCH   6   7
ATOM      7  C   UNL     1      -7.270  -3.677  14.085  1.00  0.00     0.000 C 
BRANCH   7   8
ATOM      8  C   UNL     1      -8.069  -2.872  13.048  1.00  0.00     0.000 C 
BRANCH   8   9
ATOM      9  C   UNL     1      -8.045  -1.360  13.325  1.00  0.00     0.000 C 
BRANCH   9  10
ATOM     10  C   UNL     1      -9.464  -0.774  13.288  1.00  0.00     0.006 C 
BRANCH  10  11
ATOM     11  C   UNL     1     -10.481  -1.754  12.687  1.00  0.00     0.053 C 
BRANCH  11  12
ATOM     12  C   UNL     1     -11.781  -1.080  12.371  1.00  0.00     0.041 C 
ATOM     13  O   UNL     1     -12.847  -1.466  12.920  1.00  0.00    -0.550 OA
ATOM     14  O   UNL     1     -11.820  -0.044  11.445  1.00  0.00    -0.550 OA
ENDBRANCH  11  12
ENDBRANCH  10  11
ENDBRANCH   9  10
ENDBRANCH   8   9
ENDBRANCH   7   8
ENDBRANCH   6   7
ENDBRANCH   5   6
ENDBRANCH   4   5
ENDBRANCH   3   4
ENDBRANCH   2   3
ENDBRANCH   1   2
BRANCH   1  15
ATOM     15  C   UNL     1     -11.946  -4.380  15.204  1.00  0.00     0.000 C 
BRANCH  15  16
ATOM     16  C   UNL     1     -11.273  -5.595  15.872  1.00  0.00     0.000 C 
BRANCH  16  17
ATOM     17  C   UNL     1     -11.699  -6.969  15.322  1.00  0.00     0.000 C 
BRANCH  17  18
ATOM     18  C   UNL     1     -10.617  -7.629  14.450  1.00  0.00    -0.000 C 
BRANCH  18  19
ATOM     19  C   UNL     1     -10.582  -7.074  13.014  1.00  0.00    -0.000 C 
BRANCH  19  20
ATOM     20  C   UNL     1      -9.286  -6.339  12.623  1.00  0.00    -0.000 C 
BRANCH  20  21
ATOM     21  C   UNL     1      -9.255  -5.924  11.142  1.00  0.00    -0.000 C 
BRANCH  21  22
ATOM     22  C   UNL     1     -10.433  -5.010  10.762  1.00  0.00    -0.000 C 
BRANCH  22  23
ATOM     23  C   UNL     1     -11.280  -5.581   9.615  1.00  0.00    -0.000 C 
BRANCH  23  24
ATOM     24  C   UNL     1     -12.777  -5.426   9.909  1.00  0.00    -0.000 C 
BRANCH  24  25
ATOM     25  C   UNL     1     -13.016  -4.408  11.030  1.00  0.00    -0.003 C 
ATOM     26  C   UNL     1     -13.634  -5.074  12.257  1.00  0.00     0.004 C 
ENDBRANCH  24  25
ENDBRANCH  23  24
ENDBRANCH  22  23
ENDBRANCH  21  22
ENDBRANCH  20  21
ENDBRANCH  19  20
ENDBRANCH  18  19
ENDBRANCH  17  18
ENDBRANCH  16  17
ENDBRANCH  15  16
ENDBRANCH   1  15
TORSDOF 22
ENDMDL
MODEL 5
REMARK VINA RESULT:    -5.908      1.625      3.240
REMARK INTER + INTRA:         -17.455
REMARK INTER:                 -13.355
REMARK INTRA:                  -4.100
REMARK UNBOUND:                -3.948
REMARK SMILES CCCCCCCCCCCCCCCCCCCCCCCC(=O)[O-]
REMARK SMILES IDX 13 1 14 2 15 3 16 4 17 5 18 6 19 7 20 8 21 9 22 10 23 11
REMARK SMILES IDX 24 12 25 13 26 14 12 15 11 16 10 17 9 18 8 19 7 20 6 21 5 22
REMARK SMILES IDX 4 23 3 24 2 25 1 26
REMARK H PARENT
REMARK Flexibility Score: inf
ROOT
ATOM      1  C   UNL     1     -12.117  -4.706  15.557  1.00  0.00     0.000 C 
ENDROOT
BRANCH   1   2
ATOM      2  C   UNL     1     -10.984  -5.725  15.801  1.00  0.00     0.000 C 
BRANCH   2   3
ATOM      3  C   UNL     1     -11.429  -7.180  15.571  1.00  0.00     0.000 C 
BRANCH   3   4
ATOM      4  C   UNL     1     -10.638  -7.867  14.445  1.00  0.00     0.000 C 
BRANCH   4   5
ATOM      5  C   UNL     1     -10.650  -7.060  13.134  1.00  0.00     0.000 C 
BRANCH   5   6
ATOM      6  C   UNL     1      -9.238  -6.784  12.595  1.00  0.00     0.000 C 
BRANCH   6   7
ATOM      7  C   UNL     1      -9.243  -5.836  11.382  1.00  0.00     0.000 C 
BRANCH   7   8
ATOM      8  C   UNL     1     -10.527  -4.996  11.297  1.00  0.00     0.000 C 
BRANCH   8   9
ATOM      9  C   UNL     1     -11.350  -5.300  10.035  1.00  0.00     0.000 C 
BRANCH   9  10
ATOM     10  C   UNL     1     -12.839  -5.000  10.268  1.00  0.00     0.006 C 
BRANCH  10  11
ATOM     11  C   UNL     1     -13.185  -4.902  11.760  1.00  0.00     0.053 C 
BRANCH  11  12
ATOM     12  C   UNL     1     -14.402  -4.059  11.992  1.00  0.00     0.041 C 
ATOM     13  O   UNL     1     -14.994  -3.518  11.021  1.00  0.00    -0.550 OA
ATOM     14  O   UNL     1     -14.863  -3.845  13.286  1.00  0.00    -0.550 OA
ENDBRANCH  11  12
ENDBRANCH  10  11
ENDBRANCH   9  10
ENDBRANCH   8   9
ENDBRANCH   7   8
ENDBRANCH   6   7
ENDBRANCH   5   6
ENDBRANCH   4   5
ENDBRANCH   3   4
ENDBRANCH   2   3
ENDBRANCH   1   2
BRANCH   1  15
ATOM     15  C   UNL     1     -11.740  -3.253  15.901  1.00  0.00     0.000 C 
BRANCH  15  16
ATOM     16  C   UNL     1     -11.366  -3.001  17.375  1.00  0.00     0.000 C 
BRANCH  16  17
ATOM     17  C   UNL     1     -10.019  -2.288  17.601  1.00  0.00     0.000 C 
BRANCH  17  18
ATOM     18  C   UNL     1      -8.831  -3.262  17.688  1.00  0.00    -0.000 C 
BRANCH  18  19
ATOM     19  C   UNL     1      -7.786  -3.037  16.579  1.00  0.00    -0.000 C 
BRANCH  19  20
ATOM     20  C   UNL     1      -7.727  -4.132  15.498  1.00  0.00    -0.000 C 
BRANCH  20  21
ATOM     21  C   UNL     1      -8.167  -3.631  14.111  1.00  0.00    -0.000 C 
BRANCH  21  22
ATOM     22  C   UNL     1      -7.403  -2.371  13.671  1.00  0.00    -0.000 C 
BRANCH  22  23
ATOM     23  C   UNL     1      -8.338  -1.233  13.234  1.00  0.00    -0.000 C 
BRANCH  23  24
ATOM     24  C   UNL     1      -9.807  -1.634  13.410  1.00  0.00    -0.000 C 
BRANCH  24  25
ATOM     25  C   UNL     1     -10.664  -1.106  12.253  1.00  0.00    -0.003 C 
ATOM     26  C   UNL     1     -12.151  -1.316  12.528  1.00  0.00     0.004 C 
ENDBRANCH  24  25
ENDBRANCH  23  24
ENDBRANCH  22  23
ENDBRANCH  21  22
ENDBRANCH  20  21
ENDBRANCH  19  20
ENDBRANCH  18  19
ENDBRANCH  17  18
ENDBRANCH  16  17
ENDBRANCH  15  16
ENDBRANCH   1  15
TORSDOF 22
ENDMDL
MODEL 6
REMARK VINA RESULT:    -5.891      1.868      5.051
REMARK INTER + INTRA:         -17.415
REMARK INTER:                 -13.451
REMARK INTRA:                  -3.964
REMARK UNBOUND:                -3.948
REMARK SMILES CCCCCCCCCCCCCCCCCCCCCCCC(=O)[O-]
REMARK SMILES IDX 13 1 14 2 15 3 16 4 17 5 18 6 19 7 20 8 21 9 22 10 23 11
REMARK SMILES IDX 24 12 25 13 26 14 12 15 11 16 10 17 9 18 8 19 7 20 6 21 5 22
REMARK SMILES IDX 4 23 3 24 2 25 1 26
REMARK H PARENT
REMARK Flexibility Score: inf
ROOT
ATOM      1  C   UNL     1      -6.960  -2.674  14.806  1.00  0.00     0.000 C 
ENDROOT
BRANCH   1   2
ATOM      2  C   UNL     1      -7.688  -2.506  13.455  1.00  0.00     0.000 C 
BRANCH   2   3
ATOM      3  C   UNL     1      -8.206  -1.075  13.230  1.00  0.00     0.000 C 
BRANCH   3   4
ATOM      4  C   UNL     1      -9.688  -0.918  13.607  1.00  0.00     0.000 C 
BRANCH   4   5
ATOM      5  C   UNL     1     -10.598  -1.910  12.860  1.00  0.00     0.000 C 
BRANCH   5   6
ATOM      6  C   UNL     1     -11.938  -1.286  12.439  1.00  0.00     0.000 C 
BRANCH   6   7
ATOM      7  C   UNL     1     -13.148  -2.003  13.063  1.00  0.00     0.000 C 
BRANCH   7   8
ATOM      8  C   UNL     1     -13.898  -2.882  12.051  1.00  0.00     0.000 C 
BRANCH   8   9
ATOM      9  C   UNL     1     -14.025  -4.342  12.513  1.00  0.00     0.000 C 
BRANCH   9  10
ATOM     10  C   UNL     1     -12.924  -5.211  11.888  1.00  0.00     0.006 C 
BRANCH  10  11
ATOM     11  C   UNL     1     -12.306  -4.560  10.643  1.00  0.00     0.053 C 
BRANCH  11  12
ATOM     12  C   UNL     1     -12.090  -5.556   9.545  1.00  0.00     0.041 C 
ATOM     13  O   UNL     1     -13.076  -6.068   8.951  1.00  0.00    -0.550 OA
ATOM     14  O   UNL     1     -10.801  -5.941   9.198  1.00  0.00    -0.550 OA
ENDBRANCH  11  12
ENDBRANCH  10  11
ENDBRANCH   9  10
ENDBRANCH   8   9
ENDBRANCH   7   8
ENDBRANCH   6   7
ENDBRANCH   5   6
ENDBRANCH   4   5
ENDBRANCH   3   4
ENDBRANCH   2   3
ENDBRANCH   1   2
BRANCH   1  15
ATOM     15  C   UNL     1      -7.681  -3.609  15.795  1.00  0.00     0.000 C 
BRANCH  15  16
ATOM     16  C   UNL     1      -7.710  -3.125  17.259  1.00  0.00     0.000 C 
BRANCH  16  17
ATOM     17  C   UNL     1      -9.110  -2.824  17.826  1.00  0.00     0.000 C 
BRANCH  17  18
ATOM     18  C   UNL     1     -10.188  -2.710  16.735  1.00  0.00    -0.000 C 
BRANCH  18  19
ATOM     19  C   UNL     1     -11.612  -2.957  17.267  1.00  0.00    -0.000 C 
BRANCH  19  20
ATOM     20  C   UNL     1     -12.484  -3.890  16.406  1.00  0.00    -0.000 C 
BRANCH  20  21
ATOM     21  C   UNL     1     -11.679  -4.642  15.332  1.00  0.00    -0.000 C 
BRANCH  21  22
ATOM     22  C   UNL     1     -11.504  -6.134  15.665  1.00  0.00    -0.000 C 
BRANCH  22  23
ATOM     23  C   UNL     1     -10.187  -6.711  15.125  1.00  0.00    -0.000 C 
BRANCH  23  24
ATOM     24  C   UNL     1     -10.212  -6.795  13.595  1.00  0.00    -0.000 C 
BRANCH  24  25
ATOM     25  C   UNL     1      -9.485  -5.600  12.965  1.00  0.00    -0.003 C 
ATOM     26  C   UNL     1      -8.620  -6.040  11.786  1.00  0.00     0.004 C 
ENDBRANCH  24  25
ENDBRANCH  23  24
ENDBRANCH  22  23
ENDBRANCH  21  22
ENDBRANCH  20  21
ENDBRANCH  19  20
ENDBRANCH  18  19
ENDBRANCH  17  18
ENDBRANCH  16  17
ENDBRANCH  15  16
ENDBRANCH   1  15
TORSDOF 22
ENDMDL
MODEL 7
REMARK VINA RESULT:    -5.886      1.898      5.263
REMARK INTER + INTRA:         -17.404
REMARK INTER:                 -13.019
REMARK INTRA:                  -4.384
REMARK UNBOUND:                -3.948
REMARK SMILES CCCCCCCCCCCCCCCCCCCCCCCC(=O)[O-]
REMARK SMILES IDX 13 1 14 2 15 3 16 4 17 5 18 6 19 7 20 8 21 9 22 10 23 11
REMARK SMILES IDX 24 12 25 13 26 14 12 15 11 16 10 17 9 18 8 19 7 20 6 21 5 22
REMARK SMILES IDX 4 23 3 24 2 25 1 26
REMARK H PARENT
REMARK Flexibility Score: inf
ROOT
ATOM      1  C   UNL     1     -10.538  -1.696  13.087  1.00  0.00     0.000 C 
ENDROOT
BRANCH   1   2
ATOM      2  C   UNL     1      -9.393  -0.755  13.517  1.00  0.00     0.000 C 
BRANCH   2   3
ATOM      3  C   UNL     1      -7.999  -1.347  13.244  1.00  0.00     0.000 C 
BRANCH   3   4
ATOM      4  C   UNL     1      -7.466  -2.170  14.428  1.00  0.00     0.000 C 
BRANCH   4   5
ATOM      5  C   UNL     1      -7.117  -3.617  14.036  1.00  0.00     0.000 C 
BRANCH   5   6
ATOM      6  C   UNL     1      -7.610  -3.986  12.627  1.00  0.00     0.000 C 
BRANCH   6   7
ATOM      7  C   UNL     1      -7.564  -5.500  12.362  1.00  0.00     0.000 C 
BRANCH   7   8
ATOM      8  C   UNL     1      -8.875  -6.034  11.764  1.00  0.00     0.000 C 
BRANCH   8   9
ATOM      9  C   UNL     1     -10.004  -4.992  11.787  1.00  0.00     0.000 C 
BRANCH   9  10
ATOM     10  C   UNL     1     -11.375  -5.673  11.915  1.00  0.00     0.006 C 
BRANCH  10  11
ATOM     11  C   UNL     1     -12.441  -5.001  11.038  1.00  0.00     0.053 C 
BRANCH  11  12
ATOM     12  C   UNL     1     -12.463  -5.575   9.654  1.00  0.00     0.041 C 
ATOM     13  O   UNL     1     -13.551  -5.672   9.025  1.00  0.00    -0.550 OA
ATOM     14  O   UNL     1     -11.287  -6.030   9.071  1.00  0.00    -0.550 OA
ENDBRANCH  11  12
ENDBRANCH  10  11
ENDBRANCH   9  10
ENDBRANCH   8   9
ENDBRANCH   7   8
ENDBRANCH   6   7
ENDBRANCH   5   6
ENDBRANCH   4   5
ENDBRANCH   3   4
ENDBRANCH   2   3
ENDBRANCH   1   2
BRANCH   1  15
ATOM     15  C   UNL     1     -11.557  -1.048  12.129  1.00  0.00     0.000 C 
BRANCH  15  16
ATOM     16  C   UNL     1     -12.982  -1.632  12.188  1.00  0.00     0.000 C 
BRANCH  16  17
ATOM     17  C   UNL     1     -13.634  -1.640  13.584  1.00  0.00     0.000 C 
BRANCH  17  18
ATOM     18  C   UNL     1     -14.058  -3.046  14.041  1.00  0.00    -0.000 C 
BRANCH  18  19
ATOM     19  C   UNL     1     -12.928  -3.815  14.750  1.00  0.00    -0.000 C 
BRANCH  19  20
ATOM     20  C   UNL     1     -12.890  -3.664  16.283  1.00  0.00    -0.000 C 
BRANCH  20  21
ATOM     21  C   UNL     1     -11.536  -3.149  16.801  1.00  0.00    -0.000 C 
BRANCH  21  22
ATOM     22  C   UNL     1     -10.357  -3.607  15.926  1.00  0.00    -0.000 C 
BRANCH  22  23
ATOM     23  C   UNL     1      -9.575  -4.774  16.549  1.00  0.00    -0.000 C 
BRANCH  23  24
ATOM     24  C   UNL     1      -9.476  -5.951  15.572  1.00  0.00    -0.000 C 
BRANCH  24  25
ATOM     25  C   UNL     1     -10.787  -6.743  15.527  1.00  0.00    -0.003 C 
ATOM     26  C   UNL     1     -10.703  -7.894  14.527  1.00  0.00     0.004 C 
ENDBRANCH  24  25
ENDBRANCH  23  24
ENDBRANCH  22  23
ENDBRANCH  21  22
ENDBRANCH  20  21
ENDBRANCH  19  20
ENDBRANCH  18  19
ENDBRANCH  17  18
ENDBRANCH  16  17
ENDBRANCH  15  16
ENDBRANCH   1  15
TORSDOF 22
ENDMDL
MODEL 8
REMARK VINA RESULT:    -5.865      0.877      2.939
REMARK INTER + INTRA:         -17.358
REMARK INTER:                 -13.210
REMARK INTRA:                  -4.148
REMARK UNBOUND:                -3.948
REMARK SMILES CCCCCCCCCCCCCCCCCCCCCCCC(=O)[O-]
REMARK SMILES IDX 13 1 14 2 15 3 16 4 17 5 18 6 19 7 20 8 21 9 22 10 23 11
REMARK SMILES IDX 24 12 25 13 26 14 12 15 11 16 10 17 9 18 8 19 7 20 6 21 5 22
REMARK SMILES IDX 4 23 3 24 2 25 1 26
REMARK H PARENT
REMARK Flexibility Score: inf
ROOT
ATOM      1  C   UNL     1     -12.393  -1.488  12.869  1.00  0.00     0.000 C 
ENDROOT
BRANCH   1   2
ATOM      2  C   UNL     1     -13.572  -1.989  12.008  1.00  0.00     0.000 C 
BRANCH   2   3
ATOM      3  C   UNL     1     -13.730  -3.519  12.044  1.00  0.00     0.000 C 
BRANCH   3   4
ATOM      4  C   UNL     1     -13.752  -4.143  10.639  1.00  0.00     0.000 C 
BRANCH   4   5
ATOM      5  C   UNL     1     -12.939  -5.448  10.557  1.00  0.00     0.000 C 
BRANCH   5   6
ATOM      6  C   UNL     1     -12.150  -5.573   9.244  1.00  0.00     0.000 C 
BRANCH   6   7
ATOM      7  C   UNL     1     -10.630  -5.650   9.473  1.00  0.00     0.000 C 
BRANCH   7   8
ATOM      8  C   UNL     1     -10.226  -5.220  10.892  1.00  0.00     0.000 C 
BRANCH   8   9
ATOM      9  C   UNL     1      -9.066  -6.056  11.456  1.00  0.00     0.000 C 
BRANCH   9  10
ATOM     10  C   UNL     1      -9.450  -6.684  12.804  1.00  0.00     0.006 C 
BRANCH  10  11
ATOM     11  C   UNL     1     -10.509  -5.859  13.549  1.00  0.00     0.053 C 
BRANCH  11  12
ATOM     12  C   UNL     1     -11.645  -6.713  14.022  1.00  0.00     0.041 C 
ATOM     13  O   UNL     1     -12.539  -7.083  13.214  1.00  0.00    -0.550 OA
ATOM     14  O   UNL     1     -11.734  -7.075  15.360  1.00  0.00    -0.550 OA
ENDBRANCH  11  12
ENDBRANCH  10  11
ENDBRANCH   9  10
ENDBRANCH   8   9
ENDBRANCH   7   8
ENDBRANCH   6   7
ENDBRANCH   5   6
ENDBRANCH   4   5
ENDBRANCH   3   4
ENDBRANCH   2   3
ENDBRANCH   1   2
BRANCH   1  15
ATOM     15  C   UNL     1     -11.031  -1.521  12.148  1.00  0.00     0.000 C 
BRANCH  15  16
ATOM     16  C   UNL     1      -9.863  -2.096  12.973  1.00  0.00     0.000 C 
BRANCH  16  17
ATOM     17  C   UNL     1      -8.765  -1.084  13.353  1.00  0.00     0.000 C 
BRANCH  17  18
ATOM     18  C   UNL     1      -7.421  -1.754  13.690  1.00  0.00    -0.000 C 
BRANCH  18  19
ATOM     19  C   UNL     1      -7.379  -3.245  13.306  1.00  0.00    -0.000 C 
BRANCH  19  20
ATOM     20  C   UNL     1      -7.234  -4.225  14.486  1.00  0.00    -0.000 C 
BRANCH  20  21
ATOM     21  C   UNL     1      -7.398  -3.544  15.856  1.00  0.00    -0.000 C 
BRANCH  21  22
ATOM     22  C   UNL     1      -8.747  -3.871  16.518  1.00  0.00    -0.000 C 
BRANCH  22  23
ATOM     23  C   UNL     1      -9.582  -2.617  16.814  1.00  0.00    -0.000 C 
BRANCH  23  24
ATOM     24  C   UNL     1     -11.039  -2.987  17.116  1.00  0.00    -0.000 C 
BRANCH  24  25
ATOM     25  C   UNL     1     -11.738  -3.540  15.868  1.00  0.00    -0.003 C 
ATOM     26  C   UNL     1     -13.256  -3.499  16.023  1.00  0.00     0.004 C 
ENDBRANCH  24  25
ENDBRANCH  23  24
ENDBRANCH  22  23
ENDBRANCH  21  22
ENDBRANCH  20  21
ENDBRANCH  19  20
ENDBRANCH  18  19
ENDBRANCH  17  18
ENDBRANCH  16  17
ENDBRANCH  15  16
ENDBRANCH   1  15
TORSDOF 22
ENDMDL
MODEL 9
REMARK VINA RESULT:    -5.860      2.017      5.173
REMARK INTER + INTRA:         -17.346
REMARK INTER:                 -13.784
REMARK INTRA:                  -3.562
REMARK UNBOUND:                -3.948
REMARK SMILES CCCCCCCCCCCCCCCCCCCCCCCC(=O)[O-]
REMARK SMILES IDX 13 1 14 2 15 3 16 4 17 5 18 6 19 7 20 8 21 9 22 10 23 11
REMARK SMILES IDX 24 12 25 13 26 14 12 15 11 16 10 17 9 18 8 19 7 20 6 21 5 22
REMARK SMILES IDX 4 23 3 24 2 25 1 26
REMARK H PARENT
REMARK Flexibility Score: inf
ROOT
ATOM      1  C   UNL     1      -7.262  -3.229  12.936  1.00  0.00     0.000 C 
ENDROOT
BRANCH   1   2
ATOM      2  C   UNL     1      -8.335  -4.337  12.998  1.00  0.00     0.000 C 
BRANCH   2   3
ATOM      3  C   UNL     1      -7.988  -5.553  12.122  1.00  0.00     0.000 C 
BRANCH   3   4
ATOM      4  C   UNL     1      -9.168  -6.004  11.245  1.00  0.00     0.000 C 
BRANCH   4   5
ATOM      5  C   UNL     1     -10.420  -5.129  11.440  1.00  0.00     0.000 C 
BRANCH   5   6
ATOM      6  C   UNL     1     -11.417  -5.254  10.278  1.00  0.00     0.000 C 
BRANCH   6   7
ATOM      7  C   UNL     1     -12.882  -5.197  10.746  1.00  0.00     0.000 C 
BRANCH   7   8
ATOM      8  C   UNL     1     -13.007  -5.040  12.270  1.00  0.00     0.000 C 
BRANCH   8   9
ATOM      9  C   UNL     1     -14.174  -4.127  12.678  1.00  0.00     0.000 C 
BRANCH   9  10
ATOM     10  C   UNL     1     -13.659  -2.850  13.357  1.00  0.00     0.006 C 
BRANCH  10  11
ATOM     11  C   UNL     1     -13.381  -1.727  12.348  1.00  0.00     0.053 C 
BRANCH  11  12
ATOM     12  C   UNL     1     -11.940  -1.317  12.358  1.00  0.00     0.041 C 
ATOM     13  O   UNL     1     -11.546  -0.364  11.634  1.00  0.00    -0.550 OA
ATOM     14  O   UNL     1     -11.025  -2.008  13.144  1.00  0.00    -0.550 OA
ENDBRANCH  11  12
ENDBRANCH  10  11
ENDBRANCH   9  10
ENDBRANCH   8   9
ENDBRANCH   7   8
ENDBRANCH   6   7
ENDBRANCH   5   6
ENDBRANCH   4   5
ENDBRANCH   3   4
ENDBRANCH   2   3
ENDBRANCH   1   2
BRANCH   1  15
ATOM     15  C   UNL     1      -7.448  -2.116  13.985  1.00  0.00     0.000 C 
BRANCH  15  16
ATOM     16  C   UNL     1      -6.273  -1.931  14.966  1.00  0.00     0.000 C 
BRANCH  16  17
ATOM     17  C   UNL     1      -6.400  -2.696  16.297  1.00  0.00     0.000 C 
BRANCH  17  18
ATOM     18  C   UNL     1      -7.793  -3.315  16.504  1.00  0.00    -0.000 C 
BRANCH  18  19
ATOM     19  C   UNL     1      -8.381  -3.020  17.896  1.00  0.00    -0.000 C 
BRANCH  19  20
ATOM     20  C   UNL     1      -9.884  -2.684  17.917  1.00  0.00    -0.000 C 
BRANCH  20  21
ATOM     21  C   UNL     1     -10.581  -2.962  16.574  1.00  0.00    -0.000 C 
BRANCH  21  22
ATOM     22  C   UNL     1     -12.051  -3.380  16.749  1.00  0.00    -0.000 C 
BRANCH  22  23
ATOM     23  C   UNL     1     -12.384  -4.694  16.027  1.00  0.00    -0.000 C 
BRANCH  23  24
ATOM     24  C   UNL     1     -11.107  -5.475  15.694  1.00  0.00    -0.000 C 
BRANCH  24  25
ATOM     25  C   UNL     1     -11.409  -6.964  15.489  1.00  0.00    -0.003 C 
ATOM     26  C   UNL     1     -10.664  -7.516  14.277  1.00  0.00     0.004 C 
ENDBRANCH  24  25
ENDBRANCH  23  24
ENDBRANCH  22  23
ENDBRANCH  21  22
ENDBRANCH  20  21
ENDBRANCH  19  20
ENDBRANCH  18  19
ENDBRANCH  17  18
ENDBRANCH  16  17
ENDBRANCH  15  16
ENDBRANCH   1  15
TORSDOF 22
ENDMDL
