MODEL 1
REMARK VINA RESULT:    -3.932      0.000      0.000
REMARK INTER + INTRA:          -9.515
REMARK INTER:                  -7.150
REMARK INTRA:                  -2.365
REMARK UNBOUND:                -2.365
REMARK SMILES CCCCCCCCCCCCCCCC(=O)[O-]
REMARK SMILES IDX 9 1 10 2 11 3 12 4 13 5 14 6 15 7 16 8 17 9 18 10 8 11 7 12
REMARK SMILES IDX 6 13 5 14 4 15 3 16 2 17 1 18
REMARK H PARENT
REMARK Flexibility Score: inf
ROOT
ATOM      1  C   UNL     1     104.024 307.169 203.384  1.00  0.00     0.000 C 
ENDROOT
BRANCH   1   2
ATOM      2  C   UNL     1     103.659 307.907 202.083  1.00  0.00     0.000 C 
BRANCH   2   3
ATOM      3  C   UNL     1     104.809 308.045 201.065  1.00  0.00     0.000 C 
BRANCH   3   4
ATOM      4  C   UNL     1     104.853 309.385 200.303  1.00  0.00     0.000 C 
BRANCH   4   5
ATOM      5  C   UNL     1     103.705 310.356 200.630  1.00  0.00     0.000 C 
BRANCH   5   6
ATOM      6  C   UNL     1     104.155 311.545 201.492  1.00  0.00     0.006 C 
BRANCH   6   7
ATOM      7  C   UNL     1     103.171 312.712 201.374  1.00  0.00     0.053 C 
BRANCH   7   8
ATOM      8  C   UNL     1     103.467 313.753 202.405  1.00  0.00     0.041 C 
ATOM      9  O   UNL     1     103.378 314.976 202.116  1.00  0.00    -0.550 OA
ATOM     10  O   UNL     1     103.890 313.376 203.673  1.00  0.00    -0.550 OA
ENDBRANCH   7   8
ENDBRANCH   6   7
ENDBRANCH   5   6
ENDBRANCH   4   5
ENDBRANCH   3   4
ENDBRANCH   2   3
ENDBRANCH   1   2
BRANCH   1  11
ATOM     11  C   UNL     1     104.821 308.049 204.363  1.00  0.00     0.000 C 
BRANCH  11  12
ATOM     12  C   UNL     1     104.360 309.517 204.343  1.00  0.00    -0.000 C 
BRANCH  12  13
ATOM     13  C   UNL     1     103.771 309.967 205.690  1.00  0.00    -0.000 C 
BRANCH  13  14
ATOM     14  C   UNL     1     102.317 310.461 205.575  1.00  0.00    -0.000 C 
BRANCH  14  15
ATOM     15  C   UNL     1     101.789 310.614 204.137  1.00  0.00    -0.000 C 
BRANCH  15  16
ATOM     16  C   UNL     1     100.687 309.598 203.791  1.00  0.00    -0.000 C 
BRANCH  16  17
ATOM     17  C   UNL     1     100.429 309.503 202.279  1.00  0.00    -0.003 C 
ATOM     18  C   UNL     1      99.934 310.818 201.676  1.00  0.00     0.004 C 
ENDBRANCH  16  17
ENDBRANCH  15  16
ENDBRANCH  14  15
ENDBRANCH  13  14
ENDBRANCH  12  13
ENDBRANCH  11  12
ENDBRANCH   1  11
TORSDOF 14
ENDMDL
MODEL 2
REMARK VINA RESULT:    -3.899      1.579      3.723
REMARK INTER + INTRA:          -9.454
REMARK INTER:                  -7.499
REMARK INTRA:                  -1.956
REMARK UNBOUND:                -2.365
REMARK SMILES CCCCCCCCCCCCCCCC(=O)[O-]
REMARK SMILES IDX 9 1 10 2 11 3 12 4 13 5 14 6 15 7 16 8 17 9 18 10 8 11 7 12
REMARK SMILES IDX 6 13 5 14 4 15 3 16 2 17 1 18
REMARK H PARENT
REMARK Flexibility Score: inf
ROOT
ATOM      1  C   UNL     1     103.847 307.729 201.859  1.00  0.00     0.000 C 
ENDROOT
BRANCH   1   2
ATOM      2  C   UNL     1     104.137 307.298 203.308  1.00  0.00     0.000 C 
BRANCH   2   3
ATOM      3  C   UNL     1     104.749 308.393 204.206  1.00  0.00     0.000 C 
BRANCH   3   4
ATOM      4  C   UNL     1     103.732 309.218 205.020  1.00  0.00     0.000 C 
BRANCH   4   5
ATOM      5  C   UNL     1     104.183 310.650 205.361  1.00  0.00     0.000 C 
BRANCH   5   6
ATOM      6  C   UNL     1     104.087 310.965 206.861  1.00  0.00     0.006 C 
BRANCH   6   7
ATOM      7  C   UNL     1     103.118 312.121 207.118  1.00  0.00     0.053 C 
BRANCH   7   8
ATOM      8  C   UNL     1     103.480 313.305 206.279  1.00  0.00     0.041 C 
ATOM      9  O   UNL     1     104.540 313.946 206.509  1.00  0.00    -0.550 OA
ATOM     10  O   UNL     1     102.623 313.734 205.273  1.00  0.00    -0.550 OA
ENDBRANCH   7   8
ENDBRANCH   6   7
ENDBRANCH   5   6
ENDBRANCH   4   5
ENDBRANCH   3   4
ENDBRANCH   2   3
ENDBRANCH   1   2
BRANCH   1  11
ATOM     11  C   UNL     1     105.113 308.181 201.109  1.00  0.00     0.000 C 
BRANCH  11  12
ATOM     12  C   UNL     1     104.925 309.536 200.405  1.00  0.00    -0.000 C 
BRANCH  12  13
ATOM     13  C   UNL     1     104.204 310.565 201.292  1.00  0.00    -0.000 C 
BRANCH  13  14
ATOM     14  C   UNL     1     102.692 310.643 201.013  1.00  0.00    -0.000 C 
BRANCH  14  15
ATOM     15  C   UNL     1     101.804 310.819 202.258  1.00  0.00    -0.000 C 
BRANCH  15  16
ATOM     16  C   UNL     1     100.781 309.683 202.431  1.00  0.00    -0.000 C 
BRANCH  16  17
ATOM     17  C   UNL     1     100.304 309.538 203.885  1.00  0.00    -0.003 C 
ATOM     18  C   UNL     1     100.466 310.824 204.695  1.00  0.00     0.004 C 
ENDBRANCH  16  17
ENDBRANCH  15  16
ENDBRANCH  14  15
ENDBRANCH  13  14
ENDBRANCH  12  13
ENDBRANCH  11  12
ENDBRANCH   1  11
TORSDOF 14
ENDMDL
MODEL 3
REMARK VINA RESULT:    -3.896      2.213      2.946
REMARK INTER + INTRA:          -9.450
REMARK INTER:                  -7.298
REMARK INTRA:                  -2.151
REMARK UNBOUND:                -2.365
REMARK SMILES CCCCCCCCCCCCCCCC(=O)[O-]
REMARK SMILES IDX 9 1 10 2 11 3 12 4 13 5 14 6 15 7 16 8 17 9 18 10 8 11 7 12
REMARK SMILES IDX 6 13 5 14 4 15 3 16 2 17 1 18
REMARK H PARENT
REMARK Flexibility Score: inf
ROOT
ATOM      1  C   UNL     1     103.639 307.930 201.972  1.00  0.00     0.000 C 
ENDROOT
BRANCH   1   2
ATOM      2  C   UNL     1     104.908 308.038 201.108  1.00  0.00     0.000 C 
BRANCH   2   3
ATOM      3  C   UNL     1     105.124 309.408 200.433  1.00  0.00     0.000 C 
BRANCH   3   4
ATOM      4  C   UNL     1     103.839 310.214 200.156  1.00  0.00     0.000 C 
BRANCH   4   5
ATOM      5  C   UNL     1     103.637 311.444 201.060  1.00  0.00     0.000 C 
BRANCH   5   6
ATOM      6  C   UNL     1     102.273 312.119 200.852  1.00  0.00     0.006 C 
BRANCH   6   7
ATOM      7  C   UNL     1     101.179 311.079 200.601  1.00  0.00     0.053 C 
BRANCH   7   8
ATOM      8  C   UNL     1     100.451 311.379 199.330  1.00  0.00     0.041 C 
ATOM      9  O   UNL     1     101.082 311.467 198.243  1.00  0.00    -0.550 OA
ATOM     10  O   UNL     1      99.082 311.612 199.350  1.00  0.00    -0.550 OA
ENDBRANCH   7   8
ENDBRANCH   6   7
ENDBRANCH   5   6
ENDBRANCH   4   5
ENDBRANCH   3   4
ENDBRANCH   2   3
ENDBRANCH   1   2
BRANCH   1  11
ATOM     11  C   UNL     1     103.911 307.306 203.352  1.00  0.00     0.000 C 
BRANCH  11  12
ATOM     12  C   UNL     1     104.912 308.128 204.182  1.00  0.00    -0.000 C 
BRANCH  12  13
ATOM     13  C   UNL     1     104.496 309.603 204.314  1.00  0.00    -0.000 C 
BRANCH  13  14
ATOM     14  C   UNL     1     103.860 309.927 205.679  1.00  0.00    -0.000 C 
BRANCH  14  15
ATOM     15  C   UNL     1     102.406 310.428 205.622  1.00  0.00    -0.000 C 
BRANCH  15  16
ATOM     16  C   UNL     1     101.850 310.497 204.188  1.00  0.00    -0.000 C 
BRANCH  16  17
ATOM     17  C   UNL     1     100.756 309.450 203.931  1.00  0.00    -0.003 C 
ATOM     18  C   UNL     1      99.867 309.207 205.150  1.00  0.00     0.004 C 
ENDBRANCH  16  17
ENDBRANCH  15  16
ENDBRANCH  14  15
ENDBRANCH  13  14
ENDBRANCH  12  13
ENDBRANCH  11  12
ENDBRANCH   1  11
TORSDOF 14
ENDMDL
MODEL 4
REMARK VINA RESULT:    -3.889      1.881      2.120
REMARK INTER + INTRA:          -9.437
REMARK INTER:                  -7.173
REMARK INTRA:                  -2.264
REMARK UNBOUND:                -2.365
REMARK SMILES CCCCCCCCCCCCCCCC(=O)[O-]
REMARK SMILES IDX 9 1 10 2 11 3 12 4 13 5 14 6 15 7 16 8 17 9 18 10 8 11 7 12
REMARK SMILES IDX 6 13 5 14 4 15 3 16 2 17 1 18
REMARK H PARENT
REMARK Flexibility Score: inf
ROOT
ATOM      1  C   UNL     1     103.976 307.398 203.381  1.00  0.00     0.000 C 
ENDROOT
BRANCH   1   2
ATOM      2  C   UNL     1     103.739 307.820 201.920  1.00  0.00     0.000 C 
BRANCH   2   3
ATOM      3  C   UNL     1     105.019 308.063 201.094  1.00  0.00     0.000 C 
BRANCH   3   4
ATOM      4  C   UNL     1     105.059 309.398 200.323  1.00  0.00     0.000 C 
BRANCH   4   5
ATOM      5  C   UNL     1     104.816 310.651 201.183  1.00  0.00     0.000 C 
BRANCH   5   6
ATOM      6  C   UNL     1     103.435 311.279 200.946  1.00  0.00     0.006 C 
BRANCH   6   7
ATOM      7  C   UNL     1     102.958 311.030 199.513  1.00  0.00     0.053 C 
BRANCH   7   8
ATOM      8  C   UNL     1     101.991 312.089 199.090  1.00  0.00     0.041 C 
ATOM      9  O   UNL     1     102.409 313.168 198.592  1.00  0.00    -0.550 OA
ATOM     10  O   UNL     1     100.629 311.908 199.293  1.00  0.00    -0.550 OA
ENDBRANCH   7   8
ENDBRANCH   6   7
ENDBRANCH   5   6
ENDBRANCH   4   5
ENDBRANCH   3   4
ENDBRANCH   2   3
ENDBRANCH   1   2
BRANCH   1  11
ATOM     11  C   UNL     1     104.952 308.331 204.119  1.00  0.00     0.000 C 
BRANCH  11  12
ATOM     12  C   UNL     1     104.276 309.098 205.269  1.00  0.00    -0.000 C 
BRANCH  12  13
ATOM     13  C   UNL     1     103.933 310.548 204.889  1.00  0.00    -0.000 C 
BRANCH  13  14
ATOM     14  C   UNL     1     102.492 310.707 204.370  1.00  0.00    -0.000 C 
BRANCH  14  15
ATOM     15  C   UNL     1     101.493 309.651 204.876  1.00  0.00    -0.000 C 
BRANCH  15  16
ATOM     16  C   UNL     1     100.217 309.574 204.019  1.00  0.00    -0.000 C 
BRANCH  16  17
ATOM     17  C   UNL     1     100.521 309.545 202.513  1.00  0.00    -0.003 C 
ATOM     18  C   UNL     1      99.267 309.689 201.650  1.00  0.00     0.004 C 
ENDBRANCH  16  17
ENDBRANCH  15  16
ENDBRANCH  14  15
ENDBRANCH  13  14
ENDBRANCH  12  13
ENDBRANCH  11  12
ENDBRANCH   1  11
TORSDOF 14
ENDMDL
MODEL 5
REMARK VINA RESULT:    -3.851      2.847      4.924
REMARK INTER + INTRA:          -9.368
REMARK INTER:                  -7.151
REMARK INTRA:                  -2.217
REMARK UNBOUND:                -2.365
REMARK SMILES CCCCCCCCCCCCCCCC(=O)[O-]
REMARK SMILES IDX 9 1 10 2 11 3 12 4 13 5 14 6 15 7 16 8 17 9 18 10 8 11 7 12
REMARK SMILES IDX 6 13 5 14 4 15 3 16 2 17 1 18
REMARK H PARENT
REMARK Flexibility Score: inf
ROOT
ATOM      1  C   UNL     1     103.951 307.211 203.367  1.00  0.00     0.000 C 
ENDROOT
BRANCH   1   2
ATOM      2  C   UNL     1     104.715 308.078 204.385  1.00  0.00     0.000 C 
BRANCH   2   3
ATOM      3  C   UNL     1     104.269 309.553 204.451  1.00  0.00     0.000 C 
BRANCH   3   4
ATOM      4  C   UNL     1     103.563 309.968 205.757  1.00  0.00     0.000 C 
BRANCH   4   5
ATOM      5  C   UNL     1     102.116 310.465 205.584  1.00  0.00     0.000 C 
BRANCH   5   6
ATOM      6  C   UNL     1     101.253 309.510 204.747  1.00  0.00     0.006 C 
BRANCH   6   7
ATOM      7  C   UNL     1      99.796 309.980 204.708  1.00  0.00     0.053 C 
BRANCH   7   8
ATOM      8  C   UNL     1      98.906 308.987 205.384  1.00  0.00     0.041 C 
ATOM      9  O   UNL     1      99.073 308.712 206.602  1.00  0.00    -0.550 OA
ATOM     10  O   UNL     1      97.923 308.327 204.658  1.00  0.00    -0.550 OA
ENDBRANCH   7   8
ENDBRANCH   6   7
ENDBRANCH   5   6
ENDBRANCH   4   5
ENDBRANCH   3   4
ENDBRANCH   2   3
ENDBRANCH   1   2
BRANCH   1  11
ATOM     11  C   UNL     1     103.607 307.974 202.076  1.00  0.00     0.000 C 
BRANCH  11  12
ATOM     12  C   UNL     1     104.788 308.025 201.091  1.00  0.00    -0.000 C 
BRANCH  12  13
ATOM     13  C   UNL     1     104.810 309.321 200.264  1.00  0.00    -0.000 C 
BRANCH  13  14
ATOM     14  C   UNL     1     104.794 310.590 201.137  1.00  0.00    -0.000 C 
BRANCH  14  15
ATOM     15  C   UNL     1     103.616 311.547 200.881  1.00  0.00    -0.000 C 
BRANCH  15  16
ATOM     16  C   UNL     1     102.839 311.898 202.162  1.00  0.00    -0.000 C 
BRANCH  16  17
ATOM     17  C   UNL     1     101.319 311.918 201.940  1.00  0.00    -0.003 C 
ATOM     18  C   UNL     1     100.812 310.692 201.181  1.00  0.00     0.004 C 
ENDBRANCH  16  17
ENDBRANCH  15  16
ENDBRANCH  14  15
ENDBRANCH  13  14
ENDBRANCH  12  13
ENDBRANCH  11  12
ENDBRANCH   1  11
TORSDOF 14
ENDMDL
MODEL 6
REMARK VINA RESULT:    -3.811     14.984     17.680
REMARK INTER + INTRA:          -9.295
REMARK INTER:                  -7.498
REMARK INTRA:                  -1.797
REMARK UNBOUND:                -2.365
REMARK SMILES CCCCCCCCCCCCCCCC(=O)[O-]
REMARK SMILES IDX 9 1 10 2 11 3 12 4 13 5 14 6 15 7 16 8 17 9 18 10 8 11 7 12
REMARK SMILES IDX 6 13 5 14 4 15 3 16 2 17 1 18
REMARK H PARENT
REMARK Flexibility Score: inf
ROOT
ATOM      1  C   UNL     1      86.184 317.917 203.164  1.00  0.00     0.000 C 
ENDROOT
BRANCH   1   2
ATOM      2  C   UNL     1      84.910 317.841 202.305  1.00  0.00     0.000 C 
BRANCH   2   3
ATOM      3  C   UNL     1      84.876 316.683 201.287  1.00  0.00     0.000 C 
BRANCH   3   4
ATOM      4  C   UNL     1      85.057 315.275 201.888  1.00  0.00     0.000 C 
BRANCH   4   5
ATOM      5  C   UNL     1      86.494 314.727 201.838  1.00  0.00     0.000 C 
BRANCH   5   6
ATOM      6  C   UNL     1      86.954 314.387 200.412  1.00  0.00     0.006 C 
BRANCH   6   7
ATOM      7  C   UNL     1      88.478 314.472 200.293  1.00  0.00     0.053 C 
BRANCH   7   8
ATOM      8  C   UNL     1      88.919 314.092 198.916  1.00  0.00     0.041 C 
ATOM      9  O   UNL     1      88.987 314.962 198.008  1.00  0.00    -0.550 OA
ATOM     10  O   UNL     1      89.206 312.766 198.619  1.00  0.00    -0.550 OA
ENDBRANCH   7   8
ENDBRANCH   6   7
ENDBRANCH   5   6
ENDBRANCH   4   5
ENDBRANCH   3   4
ENDBRANCH   2   3
ENDBRANCH   1   2
BRANCH   1  11
ATOM     11  C   UNL     1      85.944 318.588 204.528  1.00  0.00     0.000 C 
BRANCH  11  12
ATOM     12  C   UNL     1      84.909 317.833 205.380  1.00  0.00    -0.000 C 
BRANCH  12  13
ATOM     13  C   UNL     1      85.320 316.376 205.650  1.00  0.00    -0.000 C 
BRANCH  13  14
ATOM     14  C   UNL     1      86.432 316.252 206.709  1.00  0.00    -0.000 C 
BRANCH  14  15
ATOM     15  C   UNL     1      87.675 315.460 206.265  1.00  0.00    -0.000 C 
BRANCH  15  16
ATOM     16  C   UNL     1      88.678 316.314 205.469  1.00  0.00    -0.000 C 
BRANCH  16  17
ATOM     17  C   UNL     1      89.040 315.685 204.114  1.00  0.00    -0.003 C 
ATOM     18  C   UNL     1      89.989 316.556 203.290  1.00  0.00     0.004 C 
ENDBRANCH  16  17
ENDBRANCH  15  16
ENDBRANCH  14  15
ENDBRANCH  13  14
ENDBRANCH  12  13
ENDBRANCH  11  12
ENDBRANCH   1  11
TORSDOF 14
ENDMDL
MODEL 7
REMARK VINA RESULT:    -3.806      1.347      3.745
REMARK INTER + INTRA:          -9.285
REMARK INTER:                  -7.023
REMARK INTRA:                  -2.262
REMARK UNBOUND:                -2.365
REMARK SMILES CCCCCCCCCCCCCCCC(=O)[O-]
REMARK SMILES IDX 9 1 10 2 11 3 12 4 13 5 14 6 15 7 16 8 17 9 18 10 8 11 7 12
REMARK SMILES IDX 6 13 5 14 4 15 3 16 2 17 1 18
REMARK H PARENT
REMARK Flexibility Score: inf
ROOT
ATOM      1  C   UNL     1     104.758 308.050 203.749  1.00  0.00     0.000 C 
ENDROOT
BRANCH   1   2
ATOM      2  C   UNL     1     104.653 309.468 204.339  1.00  0.00     0.000 C 
BRANCH   2   3
ATOM      3  C   UNL     1     103.622 309.628 205.476  1.00  0.00     0.000 C 
BRANCH   3   4
ATOM      4  C   UNL     1     103.916 310.767 206.472  1.00  0.00     0.000 C 
BRANCH   4   5
ATOM      5  C   UNL     1     104.813 311.893 205.925  1.00  0.00     0.000 C 
BRANCH   5   6
ATOM      6  C   UNL     1     104.010 313.087 205.388  1.00  0.00     0.006 C 
BRANCH   6   7
ATOM      7  C   UNL     1     104.520 313.513 204.008  1.00  0.00     0.053 C 
BRANCH   7   8
ATOM      8  C   UNL     1     103.580 314.494 203.382  1.00  0.00     0.041 C 
ATOM      9  O   UNL     1     102.574 314.903 204.019  1.00  0.00    -0.550 OA
ATOM     10  O   UNL     1     103.787 314.918 202.076  1.00  0.00    -0.550 OA
ENDBRANCH   7   8
ENDBRANCH   6   7
ENDBRANCH   5   6
ENDBRANCH   4   5
ENDBRANCH   3   4
ENDBRANCH   2   3
ENDBRANCH   1   2
BRANCH   1  11
ATOM     11  C   UNL     1     103.714 307.783 202.650  1.00  0.00     0.000 C 
BRANCH  11  12
ATOM     12  C   UNL     1     104.355 307.598 201.264  1.00  0.00    -0.000 C 
BRANCH  12  13
ATOM     13  C   UNL     1     105.056 308.873 200.764  1.00  0.00    -0.000 C 
BRANCH  13  14
ATOM     14  C   UNL     1     104.069 309.942 200.261  1.00  0.00    -0.000 C 
BRANCH  14  15
ATOM     15  C   UNL     1     103.909 311.170 201.175  1.00  0.00    -0.000 C 
BRANCH  15  16
ATOM     16  C   UNL     1     102.445 311.617 201.330  1.00  0.00    -0.000 C 
BRANCH  16  17
ATOM     17  C   UNL     1     101.773 311.009 202.571  1.00  0.00    -0.003 C 
ATOM     18  C   UNL     1     100.809 309.873 202.228  1.00  0.00     0.004 C 
ENDBRANCH  16  17
ENDBRANCH  15  16
ENDBRANCH  14  15
ENDBRANCH  13  14
ENDBRANCH  12  13
ENDBRANCH  11  12
ENDBRANCH   1  11
TORSDOF 14
ENDMDL
MODEL 8
REMARK VINA RESULT:    -3.792      2.568      4.666
REMARK INTER + INTRA:          -9.261
REMARK INTER:                  -6.977
REMARK INTRA:                  -2.284
REMARK UNBOUND:                -2.365
REMARK SMILES CCCCCCCCCCCCCCCC(=O)[O-]
REMARK SMILES IDX 9 1 10 2 11 3 12 4 13 5 14 6 15 7 16 8 17 9 18 10 8 11 7 12
REMARK SMILES IDX 6 13 5 14 4 15 3 16 2 17 1 18
REMARK H PARENT
REMARK Flexibility Score: inf
ROOT
ATOM      1  C   UNL     1     104.955 309.476 200.393  1.00  0.00     0.000 C 
ENDROOT
BRANCH   1   2
ATOM      2  C   UNL     1     103.715 310.359 200.620  1.00  0.00     0.000 C 
BRANCH   2   3
ATOM      3  C   UNL     1     103.958 311.618 201.477  1.00  0.00     0.000 C 
BRANCH   3   4
ATOM      4  C   UNL     1     102.758 312.069 202.335  1.00  0.00     0.000 C 
BRANCH   4   5
ATOM      5  C   UNL     1     101.540 311.130 202.292  1.00  0.00     0.000 C 
BRANCH   5   6
ATOM      6  C   UNL     1     100.840 310.998 203.653  1.00  0.00     0.006 C 
BRANCH   6   7
ATOM      7  C   UNL     1     100.587 309.528 203.999  1.00  0.00     0.053 C 
BRANCH   7   8
ATOM      8  C   UNL     1      99.339 309.388 204.811  1.00  0.00     0.041 C 
ATOM      9  O   UNL     1      99.363 308.778 205.912  1.00  0.00    -0.550 OA
ATOM     10  O   UNL     1      98.136 309.887 204.328  1.00  0.00    -0.550 OA
ENDBRANCH   7   8
ENDBRANCH   6   7
ENDBRANCH   5   6
ENDBRANCH   4   5
ENDBRANCH   3   4
ENDBRANCH   2   3
ENDBRANCH   1   2
BRANCH   1  11
ATOM     11  C   UNL     1     104.846 308.108 201.089  1.00  0.00     0.000 C 
BRANCH  11  12
ATOM     12  C   UNL     1     103.682 308.050 202.094  1.00  0.00    -0.000 C 
BRANCH  12  13
ATOM     13  C   UNL     1     104.031 307.239 203.352  1.00  0.00    -0.000 C 
BRANCH  13  14
ATOM     14  C   UNL     1     104.667 308.096 204.462  1.00  0.00    -0.000 C 
BRANCH  14  15
ATOM     15  C   UNL     1     104.252 309.578 204.465  1.00  0.00    -0.000 C 
BRANCH  15  16
ATOM     16  C   UNL     1     103.750 310.059 205.838  1.00  0.00    -0.000 C 
BRANCH  16  17
ATOM     17  C   UNL     1     104.416 311.370 206.281  1.00  0.00    -0.003 C 
ATOM     18  C   UNL     1     103.567 312.603 205.970  1.00  0.00     0.004 C 
ENDBRANCH  16  17
ENDBRANCH  15  16
ENDBRANCH  14  15
ENDBRANCH  13  14
ENDBRANCH  12  13
ENDBRANCH  11  12
ENDBRANCH   1  11
TORSDOF 14
ENDMDL
MODEL 9
REMARK VINA RESULT:    -3.756      1.536      2.331
REMARK INTER + INTRA:          -9.195
REMARK INTER:                  -7.065
REMARK INTRA:                  -2.130
REMARK UNBOUND:                -2.365
REMARK SMILES CCCCCCCCCCCCCCCC(=O)[O-]
REMARK SMILES IDX 9 1 10 2 11 3 12 4 13 5 14 6 15 7 16 8 17 9 18 10 8 11 7 12
REMARK SMILES IDX 6 13 5 14 4 15 3 16 2 17 1 18
REMARK H PARENT
REMARK Flexibility Score: inf
ROOT
ATOM      1  C   UNL     1     104.174 309.247 204.648  1.00  0.00     0.000 C 
ENDROOT
BRANCH   1   2
ATOM      2  C   UNL     1     104.835 308.205 203.729  1.00  0.00     0.000 C 
BRANCH   2   3
ATOM      3  C   UNL     1     103.949 307.698 202.572  1.00  0.00     0.000 C 
BRANCH   3   4
ATOM      4  C   UNL     1     104.517 307.934 201.158  1.00  0.00     0.000 C 
BRANCH   4   5
ATOM      5  C   UNL     1     104.875 309.396 200.838  1.00  0.00     0.000 C 
BRANCH   5   6
ATOM      6  C   UNL     1     103.669 310.214 200.354  1.00  0.00     0.006 C 
BRANCH   6   7
ATOM      7  C   UNL     1     103.558 311.533 201.122  1.00  0.00     0.053 C 
BRANCH   7   8
ATOM      8  C   UNL     1     102.427 312.356 200.592  1.00  0.00     0.041 C 
ATOM      9  O   UNL     1     101.573 312.843 201.380  1.00  0.00    -0.550 OA
ATOM     10  O   UNL     1     102.285 312.543 199.223  1.00  0.00    -0.550 OA
ENDBRANCH   7   8
ENDBRANCH   6   7
ENDBRANCH   5   6
ENDBRANCH   4   5
ENDBRANCH   3   4
ENDBRANCH   2   3
ENDBRANCH   1   2
BRANCH   1  11
ATOM     11  C   UNL     1     104.672 310.678 204.381  1.00  0.00     0.000 C 
BRANCH  11  12
ATOM     12  C   UNL     1     104.737 311.527 205.662  1.00  0.00    -0.000 C 
BRANCH  12  13
ATOM     13  C   UNL     1     103.848 310.966 206.785  1.00  0.00    -0.000 C 
BRANCH  13  14
ATOM     14  C   UNL     1     102.519 311.729 206.936  1.00  0.00    -0.000 C 
BRANCH  14  15
ATOM     15  C   UNL     1     101.261 310.943 206.526  1.00  0.00    -0.000 C 
BRANCH  15  16
ATOM     16  C   UNL     1     100.962 311.033 205.019  1.00  0.00    -0.000 C 
BRANCH  16  17
ATOM     17  C   UNL     1     100.636 309.664 204.401  1.00  0.00    -0.003 C 
ATOM     18  C   UNL     1     100.865 309.625 202.890  1.00  0.00     0.004 C 
ENDBRANCH  16  17
ENDBRANCH  15  16
ENDBRANCH  14  15
ENDBRANCH  13  14
ENDBRANCH  12  13
ENDBRANCH  11  12
ENDBRANCH   1  11
TORSDOF 14
ENDMDL
