MODEL 1
REMARK VINA RESULT:    -8.107      0.000      0.000
REMARK INTER + INTRA:          -8.344
REMARK INTER:                  -8.344
REMARK INTRA:                   0.000
REMARK UNBOUND:                 0.000
REMARK SMILES CC1(C)CC[C@@]2(C)CC[C@@]3(C)C(=CC[C@@H]4[C@]5(C)CC[C@H](O)C(C)(C)[C@@H]5CC[C@]43C)[C@H]2C1
REMARK SMILES IDX 1 1 2 2 4 3 5 4 6 5 8 6 9 7 10 8 12 9 13 10 14 11 15 12
REMARK SMILES IDX 28 13 27 14 26 15 25 16 16 17 18 18 19 19 20 20 22 21 23 22
REMARK SMILES IDX 24 23 17 24 29 25 30 26 31 27 11 28 7 29 3 30 21 31
REMARK H PARENT 21 32
REMARK Flexibility Score: inf
ROOT
ATOM      1  C   UNL     1      52.372  51.719  35.886  1.00  0.00     0.011 C 
ATOM      2  C   UNL     1      52.025  50.525  34.959  1.00  0.00    -0.035 C 
ATOM      3  C   UNL     1      50.466  50.415  34.822  1.00  0.00     0.007 C 
ATOM      4  C   UNL     1      49.959  48.971  34.905  1.00  0.00     0.008 C 
ATOM      5  C   UNL     1      50.340  48.264  36.252  1.00  0.00    -0.026 C 
ATOM      6  C   UNL     1      50.180  46.739  36.015  1.00  0.00     0.008 C 
ATOM      7  C   UNL     1      50.719  45.886  37.170  1.00  0.00     0.012 C 
ATOM      8  C   UNL     1      52.245  46.062  37.450  1.00  0.00    -0.006 C 
ATOM      9  C   UNL     1      52.597  47.570  37.468  1.00  0.00    -0.064 C 
ATOM     10  C   UNL     1      53.747  47.973  38.059  1.00  0.00    -0.027 C 
ATOM     11  C   UNL     1      54.535  47.039  38.921  1.00  0.00     0.032 C 
ATOM     12  C   UNL     1      53.511  46.263  39.781  1.00  0.00     0.006 C 
ATOM     13  C   UNL     1      52.710  45.275  38.842  1.00  0.00    -0.020 C 
ATOM     14  C   UNL     1      51.517  44.800  39.730  1.00  0.00     0.008 C 
ATOM     15  C   UNL     1      51.946  44.130  41.051  1.00  0.00     0.005 C 
ATOM     16  C   UNL     1      52.840  45.000  41.986  1.00  0.00     0.003 C 
ATOM     17  C   UNL     1      54.004  45.781  41.216  1.00  0.00    -0.025 C 
ATOM     18  C   UNL     1      55.323  44.947  41.114  1.00  0.00     0.010 C 
ATOM     19  C   UNL     1      55.745  44.277  42.427  1.00  0.00     0.033 C 
ATOM     20  C   UNL     1      54.629  43.404  43.027  1.00  0.00     0.120 C 
ATOM     21  C   UNL     1      53.310  44.191  43.293  1.00  0.00    -0.006 C 
ATOM     22  C   UNL     1      53.515  45.147  44.514  1.00  0.00     0.014 C 
ATOM     23  C   UNL     1      52.224  43.181  43.773  1.00  0.00     0.014 C 
ATOM     24  C   UNL     1      54.322  47.082  42.036  1.00  0.00     0.012 C 
ATOM     25  C   UNL     1      53.524  43.983  38.456  1.00  0.00     0.012 C 
ATOM     26  C   UNL     1      51.806  48.639  36.707  1.00  0.00     0.022 C 
ATOM     27  C   UNL     1      52.637  49.205  35.519  1.00  0.00     0.015 C 
ATOM     28  C   UNL     1      52.993  45.538  36.180  1.00  0.00     0.017 C 
ATOM     29  C   UNL     1      49.325  48.729  37.335  1.00  0.00     0.012 C 
ATOM     30  C   UNL     1      52.668  50.823  33.582  1.00  0.00     0.011 C 
ENDROOT
BRANCH  20  31
ATOM     31  O   UNL     1      54.403  42.310  42.165  1.00  0.00    -0.393 OA
ATOM     32  H   UNL     1      54.979  42.439  41.366  1.00  0.00     0.210 HD
ENDBRANCH  20  31
TORSDOF 1
ENDMDL
MODEL 2
REMARK VINA RESULT:    -7.558      3.194      9.118
REMARK INTER + INTRA:          -7.779
REMARK INTER:                  -7.779
REMARK INTRA:                   0.000
REMARK UNBOUND:                 0.000
REMARK SMILES CC1(C)CC[C@@]2(C)CC[C@@]3(C)C(=CC[C@@H]4[C@]5(C)CC[C@H](O)C(C)(C)[C@@H]5CC[C@]43C)[C@H]2C1
REMARK SMILES IDX 1 1 2 2 4 3 5 4 6 5 8 6 9 7 10 8 12 9 13 10 14 11 15 12
REMARK SMILES IDX 28 13 27 14 26 15 25 16 16 17 18 18 19 19 20 20 22 21 23 22
REMARK SMILES IDX 24 23 17 24 29 25 30 26 31 27 11 28 7 29 3 30 21 31
REMARK H PARENT 21 32
REMARK Flexibility Score: inf
ROOT
ATOM      1  C   UNL     1      47.827  39.961  44.443  1.00  0.00     0.011 C 
ATOM      2  C   UNL     1      48.972  39.790  45.476  1.00  0.00    -0.035 C 
ATOM      3  C   UNL     1      48.633  40.623  46.762  1.00  0.00     0.007 C 
ATOM      4  C   UNL     1      49.843  41.386  47.315  1.00  0.00     0.008 C 
ATOM      5  C   UNL     1      50.456  42.392  46.280  1.00  0.00    -0.026 C 
ATOM      6  C   UNL     1      51.885  42.733  46.784  1.00  0.00     0.008 C 
ATOM      7  C   UNL     1      52.707  43.541  45.774  1.00  0.00     0.012 C 
ATOM      8  C   UNL     1      52.955  42.820  44.412  1.00  0.00    -0.006 C 
ATOM      9  C   UNL     1      51.628  42.205  43.904  1.00  0.00    -0.064 C 
ATOM     10  C   UNL     1      51.511  41.875  42.595  1.00  0.00    -0.027 C 
ATOM     11  C   UNL     1      52.520  42.338  41.593  1.00  0.00     0.032 C 
ATOM     12  C   UNL     1      52.847  43.807  41.944  1.00  0.00     0.006 C 
ATOM     13  C   UNL     1      53.664  43.833  43.298  1.00  0.00    -0.020 C 
ATOM     14  C   UNL     1      53.653  45.339  43.713  1.00  0.00     0.008 C 
ATOM     15  C   UNL     1      54.249  46.287  42.653  1.00  0.00     0.005 C 
ATOM     16  C   UNL     1      53.571  46.237  41.250  1.00  0.00     0.003 C 
ATOM     17  C   UNL     1      53.270  44.753  40.735  1.00  0.00    -0.025 C 
ATOM     18  C   UNL     1      54.461  44.143  39.926  1.00  0.00     0.010 C 
ATOM     19  C   UNL     1      55.056  45.089  38.877  1.00  0.00     0.033 C 
ATOM     20  C   UNL     1      55.480  46.441  39.476  1.00  0.00     0.120 C 
ATOM     21  C   UNL     1      54.313  47.189  40.189  1.00  0.00    -0.006 C 
ATOM     22  C   UNL     1      53.316  47.734  39.115  1.00  0.00     0.014 C 
ATOM     23  C   UNL     1      54.891  48.471  40.863  1.00  0.00     0.014 C 
ATOM     24  C   UNL     1      52.029  44.830  39.776  1.00  0.00     0.012 C 
ATOM     25  C   UNL     1      55.176  43.429  43.121  1.00  0.00     0.012 C 
ATOM     26  C   UNL     1      50.476  41.783  44.822  1.00  0.00     0.022 C 
ATOM     27  C   UNL     1      50.333  40.233  44.858  1.00  0.00     0.015 C 
ATOM     28  C   UNL     1      53.830  41.562  44.728  1.00  0.00     0.017 C 
ATOM     29  C   UNL     1      49.582  43.679  46.293  1.00  0.00     0.012 C 
ATOM     30  C   UNL     1      49.050  38.281  45.814  1.00  0.00     0.011 C 
ENDROOT
BRANCH  20  31
ATOM     31  O   UNL     1      56.557  46.222  40.361  1.00  0.00    -0.393 OA
ATOM     32  H   UNL     1      57.371  46.081  39.808  1.00  0.00     0.210 HD
ENDBRANCH  20  31
TORSDOF 1
ENDMDL
MODEL 3
REMARK VINA RESULT:    -7.551      2.449      8.131
REMARK INTER + INTRA:          -7.772
REMARK INTER:                  -7.772
REMARK INTRA:                   0.000
REMARK UNBOUND:                 0.000
REMARK SMILES CC1(C)CC[C@@]2(C)CC[C@@]3(C)C(=CC[C@@H]4[C@]5(C)CC[C@H](O)C(C)(C)[C@@H]5CC[C@]43C)[C@H]2C1
REMARK SMILES IDX 1 1 2 2 4 3 5 4 6 5 8 6 9 7 10 8 12 9 13 10 14 11 15 12
REMARK SMILES IDX 28 13 27 14 26 15 25 16 16 17 18 18 19 19 20 20 22 21 23 22
REMARK SMILES IDX 24 23 17 24 29 25 30 26 31 27 11 28 7 29 3 30 21 31
REMARK H PARENT 21 32
REMARK Flexibility Score: inf
ROOT
ATOM      1  C   UNL     1      57.198  40.496  40.620  1.00  0.00     0.011 C 
ATOM      2  C   UNL     1      56.998  41.363  41.891  1.00  0.00    -0.035 C 
ATOM      3  C   UNL     1      55.992  40.641  42.854  1.00  0.00     0.007 C 
ATOM      4  C   UNL     1      54.968  41.598  43.476  1.00  0.00     0.008 C 
ATOM      5  C   UNL     1      54.102  42.348  42.405  1.00  0.00    -0.026 C 
ATOM      6  C   UNL     1      53.466  43.569  43.123  1.00  0.00     0.008 C 
ATOM      7  C   UNL     1      52.757  44.533  42.165  1.00  0.00     0.012 C 
ATOM      8  C   UNL     1      53.683  45.176  41.086  1.00  0.00    -0.006 C 
ATOM      9  C   UNL     1      54.571  44.080  40.447  1.00  0.00    -0.064 C 
ATOM     10  C   UNL     1      55.160  44.320  39.251  1.00  0.00    -0.027 C 
ATOM     11  C   UNL     1      54.757  45.496  38.419  1.00  0.00     0.032 C 
ATOM     12  C   UNL     1      53.216  45.584  38.499  1.00  0.00     0.006 C 
ATOM     13  C   UNL     1      52.811  46.036  39.959  1.00  0.00    -0.020 C 
ATOM     14  C   UNL     1      51.272  45.779  40.017  1.00  0.00     0.008 C 
ATOM     15  C   UNL     1      50.469  46.524  38.931  1.00  0.00     0.005 C 
ATOM     16  C   UNL     1      50.887  46.220  37.460  1.00  0.00     0.003 C 
ATOM     17  C   UNL     1      52.469  46.198  37.234  1.00  0.00    -0.025 C 
ATOM     18  C   UNL     1      53.044  47.605  36.862  1.00  0.00     0.010 C 
ATOM     19  C   UNL     1      52.242  48.346  35.787  1.00  0.00     0.033 C 
ATOM     20  C   UNL     1      50.753  48.478  36.150  1.00  0.00     0.120 C 
ATOM     21  C   UNL     1      50.059  47.105  36.405  1.00  0.00    -0.006 C 
ATOM     22  C   UNL     1      49.882  46.355  35.044  1.00  0.00     0.014 C 
ATOM     23  C   UNL     1      48.601  47.374  36.888  1.00  0.00     0.014 C 
ATOM     24  C   UNL     1      52.761  45.230  36.033  1.00  0.00     0.012 C 
ATOM     25  C   UNL     1      53.018  47.577  40.213  1.00  0.00     0.012 C 
ATOM     26  C   UNL     1      54.971  42.783  41.160  1.00  0.00     0.022 C 
ATOM     27  C   UNL     1      56.489  42.785  41.506  1.00  0.00     0.015 C 
ATOM     28  C   UNL     1      54.715  46.063  41.858  1.00  0.00     0.017 C 
ATOM     29  C   UNL     1      52.978  41.378  41.940  1.00  0.00     0.012 C 
ATOM     30  C   UNL     1      58.386  41.500  42.564  1.00  0.00     0.011 C 
ENDROOT
BRANCH  20  31
ATOM     31  O   UNL     1      50.638  49.320  37.276  1.00  0.00    -0.393 OA
ATOM     32  H   UNL     1      49.715  49.219  37.629  1.00  0.00     0.210 HD
ENDBRANCH  20  31
TORSDOF 1
ENDMDL
MODEL 4
REMARK VINA RESULT:    -7.548      8.273     10.654
REMARK INTER + INTRA:          -7.769
REMARK INTER:                  -7.769
REMARK INTRA:                   0.000
REMARK UNBOUND:                 0.000
REMARK SMILES CC1(C)CC[C@@]2(C)CC[C@@]3(C)C(=CC[C@@H]4[C@]5(C)CC[C@H](O)C(C)(C)[C@@H]5CC[C@]43C)[C@H]2C1
REMARK SMILES IDX 1 1 2 2 4 3 5 4 6 5 8 6 9 7 10 8 12 9 13 10 14 11 15 12
REMARK SMILES IDX 28 13 27 14 26 15 25 16 16 17 18 18 19 19 20 20 22 21 23 22
REMARK SMILES IDX 24 23 17 24 29 25 30 26 31 27 11 28 7 29 3 30 21 31
REMARK H PARENT 21 32
REMARK Flexibility Score: inf
ROOT
ATOM      1  C   UNL     1      47.015  43.624  48.625  1.00  0.00     0.011 C 
ATOM      2  C   UNL     1      47.172  43.571  47.082  1.00  0.00    -0.035 C 
ATOM      3  C   UNL     1      46.364  42.347  46.524  1.00  0.00     0.007 C 
ATOM      4  C   UNL     1      47.128  41.569  45.446  1.00  0.00     0.008 C 
ATOM      5  C   UNL     1      48.500  41.004  45.954  1.00  0.00    -0.026 C 
ATOM      6  C   UNL     1      49.335  40.663  44.691  1.00  0.00     0.008 C 
ATOM      7  C   UNL     1      50.789  40.297  45.007  1.00  0.00     0.012 C 
ATOM      8  C   UNL     1      51.609  41.431  45.700  1.00  0.00    -0.006 C 
ATOM      9  C   UNL     1      50.773  42.043  46.851  1.00  0.00    -0.064 C 
ATOM     10  C   UNL     1      51.402  42.755  47.817  1.00  0.00    -0.027 C 
ATOM     11  C   UNL     1      52.892  42.731  47.943  1.00  0.00     0.032 C 
ATOM     12  C   UNL     1      53.328  41.264  47.723  1.00  0.00     0.006 C 
ATOM     13  C   UNL     1      53.102  40.893  46.203  1.00  0.00    -0.020 C 
ATOM     14  C   UNL     1      53.261  39.340  46.169  1.00  0.00     0.008 C 
ATOM     15  C   UNL     1      54.620  38.836  46.697  1.00  0.00     0.005 C 
ATOM     16  C   UNL     1      54.971  39.259  48.156  1.00  0.00     0.003 C 
ATOM     17  C   UNL     1      54.651  40.793  48.474  1.00  0.00    -0.025 C 
ATOM     18  C   UNL     1      55.855  41.739  48.155  1.00  0.00     0.010 C 
ATOM     19  C   UNL     1      57.204  41.234  48.675  1.00  0.00     0.033 C 
ATOM     20  C   UNL     1      57.527  39.810  48.191  1.00  0.00     0.120 C 
ATOM     21  C   UNL     1      56.439  38.766  48.587  1.00  0.00    -0.006 C 
ATOM     22  C   UNL     1      56.521  38.493  50.125  1.00  0.00     0.014 C 
ATOM     23  C   UNL     1      56.809  37.399  47.934  1.00  0.00     0.014 C 
ATOM     24  C   UNL     1      54.351  40.903  50.012  1.00  0.00     0.012 C 
ATOM     25  C   UNL     1      54.210  41.477  45.247  1.00  0.00     0.012 C 
ATOM     26  C   UNL     1      49.241  42.041  46.888  1.00  0.00     0.022 C 
ATOM     27  C   UNL     1      48.679  43.479  46.692  1.00  0.00     0.015 C 
ATOM     28  C   UNL     1      51.704  42.603  44.669  1.00  0.00     0.017 C 
ATOM     29  C   UNL     1      48.210  39.700  46.752  1.00  0.00     0.012 C 
ATOM     30  C   UNL     1      46.598  44.897  46.527  1.00  0.00     0.011 C 
ENDROOT
BRANCH  20  31
ATOM     31  O   UNL     1      57.712  39.842  46.792  1.00  0.00    -0.393 OA
ATOM     32  H   UNL     1      57.471  38.945  46.441  1.00  0.00     0.210 HD
ENDBRANCH  20  31
TORSDOF 1
ENDMDL
MODEL 5
REMARK VINA RESULT:    -7.159      3.457      6.076
REMARK INTER + INTRA:          -7.368
REMARK INTER:                  -7.368
REMARK INTRA:                   0.000
REMARK UNBOUND:                 0.000
REMARK SMILES CC1(C)CC[C@@]2(C)CC[C@@]3(C)C(=CC[C@@H]4[C@]5(C)CC[C@H](O)C(C)(C)[C@@H]5CC[C@]43C)[C@H]2C1
REMARK SMILES IDX 1 1 2 2 4 3 5 4 6 5 8 6 9 7 10 8 12 9 13 10 14 11 15 12
REMARK SMILES IDX 28 13 27 14 26 15 25 16 16 17 18 18 19 19 20 20 22 21 23 22
REMARK SMILES IDX 24 23 17 24 29 25 30 26 31 27 11 28 7 29 3 30 21 31
REMARK H PARENT 21 32
REMARK Flexibility Score: inf
ROOT
ATOM      1  C   UNL     1      54.623  48.958  41.506  1.00  0.00     0.011 C 
ATOM      2  C   UNL     1      55.335  47.872  40.658  1.00  0.00    -0.035 C 
ATOM      3  C   UNL     1      54.629  47.766  39.261  1.00  0.00     0.007 C 
ATOM      4  C   UNL     1      54.431  46.316  38.800  1.00  0.00     0.008 C 
ATOM      5  C   UNL     1      53.572  45.468  39.800  1.00  0.00    -0.026 C 
ATOM      6  C   UNL     1      53.836  43.977  39.459  1.00  0.00     0.008 C 
ATOM      7  C   UNL     1      53.237  43.006  40.483  1.00  0.00     0.012 C 
ATOM      8  C   UNL     1      53.798  43.161  41.932  1.00  0.00    -0.006 C 
ATOM      9  C   UNL     1      53.822  44.661  42.318  1.00  0.00    -0.064 C 
ATOM     10  C   UNL     1      53.899  45.005  43.626  1.00  0.00    -0.027 C 
ATOM     11  C   UNL     1      53.687  43.987  44.702  1.00  0.00     0.032 C 
ATOM     12  C   UNL     1      52.495  43.112  44.251  1.00  0.00     0.006 C 
ATOM     13  C   UNL     1      52.954  42.229  43.023  1.00  0.00    -0.020 C 
ATOM     14  C   UNL     1      51.619  41.647  42.460  1.00  0.00     0.008 C 
ATOM     15  C   UNL     1      50.803  40.838  43.489  1.00  0.00     0.005 C 
ATOM     16  C   UNL     1      50.409  41.607  44.787  1.00  0.00     0.003 C 
ATOM     17  C   UNL     1      51.599  42.477  45.404  1.00  0.00    -0.025 C 
ATOM     18  C   UNL     1      52.470  41.671  46.422  1.00  0.00     0.010 C 
ATOM     19  C   UNL     1      51.659  40.863  47.440  1.00  0.00     0.033 C 
ATOM     20  C   UNL     1      50.645  39.919  46.770  1.00  0.00     0.120 C 
ATOM     21  C   UNL     1      49.641  40.661  45.836  1.00  0.00    -0.006 C 
ATOM     22  C   UNL     1      48.630  41.477  46.707  1.00  0.00     0.014 C 
ATOM     23  C   UNL     1      48.758  39.594  45.119  1.00  0.00     0.014 C 
ATOM     24  C   UNL     1      50.952  43.681  46.177  1.00  0.00     0.012 C 
ATOM     25  C   UNL     1      53.839  40.994  43.439  1.00  0.00     0.012 C 
ATOM     26  C   UNL     1      53.934  45.802  41.302  1.00  0.00     0.022 C 
ATOM     27  C   UNL     1      55.321  46.503  41.404  1.00  0.00     0.015 C 
ATOM     28  C   UNL     1      55.315  42.788  41.863  1.00  0.00     0.017 C 
ATOM     29  C   UNL     1      52.074  45.801  39.541  1.00  0.00     0.012 C 
ATOM     30  C   UNL     1      56.805  48.327  40.487  1.00  0.00     0.011 C 
ENDROOT
BRANCH  20  31
ATOM     31  O   UNL     1      51.356  38.926  46.063  1.00  0.00    -0.393 OA
ATOM     32  H   UNL     1      51.533  39.281  45.152  1.00  0.00     0.210 HD
ENDBRANCH  20  31
TORSDOF 1
ENDMDL
MODEL 6
REMARK VINA RESULT:    -7.094      3.634      6.764
REMARK INTER + INTRA:          -7.301
REMARK INTER:                  -7.301
REMARK INTRA:                   0.000
REMARK UNBOUND:                 0.000
REMARK SMILES CC1(C)CC[C@@]2(C)CC[C@@]3(C)C(=CC[C@@H]4[C@]5(C)CC[C@H](O)C(C)(C)[C@@H]5CC[C@]43C)[C@H]2C1
REMARK SMILES IDX 1 1 2 2 4 3 5 4 6 5 8 6 9 7 10 8 12 9 13 10 14 11 15 12
REMARK SMILES IDX 28 13 27 14 26 15 25 16 16 17 18 18 19 19 20 20 22 21 23 22
REMARK SMILES IDX 24 23 17 24 29 25 30 26 31 27 11 28 7 29 3 30 21 31
REMARK H PARENT 21 32
REMARK Flexibility Score: inf
ROOT
ATOM      1  C   UNL     1      49.003  44.747  33.436  1.00  0.00     0.011 C 
ATOM      2  C   UNL     1      48.807  44.938  34.963  1.00  0.00    -0.035 C 
ATOM      3  C   UNL     1      47.881  46.179  35.212  1.00  0.00     0.007 C 
ATOM      4  C   UNL     1      48.372  47.071  36.358  1.00  0.00     0.008 C 
ATOM      5  C   UNL     1      49.817  47.632  36.122  1.00  0.00    -0.026 C 
ATOM      6  C   UNL     1      50.342  48.108  37.503  1.00  0.00     0.008 C 
ATOM      7  C   UNL     1      51.826  48.489  37.489  1.00  0.00     0.012 C 
ATOM      8  C   UNL     1      52.793  47.326  37.104  1.00  0.00    -0.006 C 
ATOM      9  C   UNL     1      52.246  46.590  35.856  1.00  0.00    -0.064 C 
ATOM     10  C   UNL     1      53.084  45.817  35.124  1.00  0.00    -0.027 C 
ATOM     11  C   UNL     1      54.564  45.876  35.335  1.00  0.00     0.032 C 
ATOM     12  C   UNL     1      54.924  47.369  35.512  1.00  0.00     0.006 C 
ATOM     13  C   UNL     1      54.356  47.863  36.902  1.00  0.00    -0.020 C 
ATOM     14  C   UNL     1      54.486  49.418  36.828  1.00  0.00     0.008 C 
ATOM     15  C   UNL     1      55.924  49.916  36.574  1.00  0.00     0.005 C 
ATOM     16  C   UNL     1      56.601  49.378  35.277  1.00  0.00     0.003 C 
ATOM     17  C   UNL     1      56.377  47.814  35.036  1.00  0.00    -0.025 C 
ATOM     18  C   UNL     1      57.487  46.936  35.702  1.00  0.00     0.010 C 
ATOM     19  C   UNL     1      58.914  47.436  35.454  1.00  0.00     0.033 C 
ATOM     20  C   UNL     1      59.104  48.906  35.866  1.00  0.00     0.120 C 
ATOM     21  C   UNL     1      58.123  49.878  35.142  1.00  0.00    -0.006 C 
ATOM     22  C   UNL     1      58.548  50.019  33.644  1.00  0.00     0.014 C 
ATOM     23  C   UNL     1      58.321  51.307  35.734  1.00  0.00     0.014 C 
ATOM     24  C   UNL     1      56.433  47.562  33.487  1.00  0.00     0.012 C 
ATOM     25  C   UNL     1      55.225  47.399  38.131  1.00  0.00     0.012 C 
ATOM     26  C   UNL     1      50.762  46.542  35.476  1.00  0.00     0.022 C 
ATOM     27  C   UNL     1      50.185  45.109  35.672  1.00  0.00     0.015 C 
ATOM     28  C   UNL     1      52.665  46.250  38.233  1.00  0.00     0.017 C 
ATOM     29  C   UNL     1      49.702  48.852  35.163  1.00  0.00     0.012 C 
ATOM     30  C   UNL     1      48.135  43.648  35.494  1.00  0.00     0.011 C 
ENDROOT
BRANCH  20  31
ATOM     31  O   UNL     1      58.968  49.000  37.268  1.00  0.00    -0.393 OA
ATOM     32  H   UNL     1      57.999  49.090  37.466  1.00  0.00     0.210 HD
ENDBRANCH  20  31
TORSDOF 1
ENDMDL
MODEL 7
REMARK VINA RESULT:    -6.902      2.884      7.453
REMARK INTER + INTRA:          -7.104
REMARK INTER:                  -7.104
REMARK INTRA:                   0.000
REMARK UNBOUND:                 0.000
REMARK SMILES CC1(C)CC[C@@]2(C)CC[C@@]3(C)C(=CC[C@@H]4[C@]5(C)CC[C@H](O)C(C)(C)[C@@H]5CC[C@]43C)[C@H]2C1
REMARK SMILES IDX 1 1 2 2 4 3 5 4 6 5 8 6 9 7 10 8 12 9 13 10 14 11 15 12
REMARK SMILES IDX 28 13 27 14 26 15 25 16 16 17 18 18 19 19 20 20 22 21 23 22
REMARK SMILES IDX 24 23 17 24 29 25 30 26 31 27 11 28 7 29 3 30 21 31
REMARK H PARENT 21 32
REMARK Flexibility Score: inf
ROOT
ATOM      1  C   UNL     1      55.714  48.493  44.880  1.00  0.00     0.011 C 
ATOM      2  C   UNL     1      56.908  48.391  43.895  1.00  0.00    -0.035 C 
ATOM      3  C   UNL     1      57.443  49.833  43.583  1.00  0.00     0.007 C 
ATOM      4  C   UNL     1      57.765  50.042  42.098  1.00  0.00     0.008 C 
ATOM      5  C   UNL     1      56.525  49.813  41.165  1.00  0.00    -0.026 C 
ATOM      6  C   UNL     1      57.081  49.607  39.731  1.00  0.00     0.008 C 
ATOM      7  C   UNL     1      56.013  49.159  38.726  1.00  0.00     0.012 C 
ATOM      8  C   UNL     1      55.337  47.792  39.063  1.00  0.00    -0.006 C 
ATOM      9  C   UNL     1      54.946  47.765  40.562  1.00  0.00    -0.064 C 
ATOM     10  C   UNL     1      54.024  46.869  40.988  1.00  0.00    -0.027 C 
ATOM     11  C   UNL     1      53.188  46.104  40.011  1.00  0.00     0.032 C 
ATOM     12  C   UNL     1      52.772  47.105  38.910  1.00  0.00     0.006 C 
ATOM     13  C   UNL     1      54.050  47.476  38.056  1.00  0.00    -0.020 C 
ATOM     14  C   UNL     1      53.591  48.706  37.210  1.00  0.00     0.008 C 
ATOM     15  C   UNL     1      52.357  48.433  36.325  1.00  0.00     0.005 C 
ATOM     16  C   UNL     1      51.083  47.948  37.081  1.00  0.00     0.003 C 
ATOM     17  C   UNL     1      51.378  46.833  38.188  1.00  0.00    -0.025 C 
ATOM     18  C   UNL     1      51.309  45.380  37.613  1.00  0.00     0.010 C 
ATOM     19  C   UNL     1      50.085  45.113  36.730  1.00  0.00     0.033 C 
ATOM     20  C   UNL     1      49.956  46.128  35.581  1.00  0.00     0.120 C 
ATOM     21  C   UNL     1      49.879  47.606  36.073  1.00  0.00    -0.006 C 
ATOM     22  C   UNL     1      48.486  47.857  36.738  1.00  0.00     0.014 C 
ATOM     23  C   UNL     1      49.882  48.540  34.824  1.00  0.00     0.014 C 
ATOM     24  C   UNL     1      50.273  46.963  39.296  1.00  0.00     0.012 C 
ATOM     25  C   UNL     1      54.462  46.355  37.029  1.00  0.00     0.012 C 
ATOM     26  C   UNL     1      55.660  48.581  41.645  1.00  0.00     0.022 C 
ATOM     27  C   UNL     1      56.477  47.653  42.591  1.00  0.00     0.015 C 
ATOM     28  C   UNL     1      56.459  46.707  38.970  1.00  0.00     0.017 C 
ATOM     29  C   UNL     1      55.657  51.104  41.205  1.00  0.00     0.012 C 
ATOM     30  C   UNL     1      58.001  47.550  44.600  1.00  0.00     0.011 C 
ENDROOT
BRANCH  20  31
ATOM     31  O   UNL     1      51.040  45.944  34.696  1.00  0.00    -0.393 OA
ATOM     32  H   UNL     1      51.871  46.145  35.201  1.00  0.00     0.210 HD
ENDBRANCH  20  31
TORSDOF 1
ENDMDL
MODEL 8
REMARK VINA RESULT:    -6.546      3.255      7.843
REMARK INTER + INTRA:          -6.737
REMARK INTER:                  -6.737
REMARK INTRA:                   0.000
REMARK UNBOUND:                 0.000
REMARK SMILES CC1(C)CC[C@@]2(C)CC[C@@]3(C)C(=CC[C@@H]4[C@]5(C)CC[C@H](O)C(C)(C)[C@@H]5CC[C@]43C)[C@H]2C1
REMARK SMILES IDX 1 1 2 2 4 3 5 4 6 5 8 6 9 7 10 8 12 9 13 10 14 11 15 12
REMARK SMILES IDX 28 13 27 14 26 15 25 16 16 17 18 18 19 19 20 20 22 21 23 22
REMARK SMILES IDX 24 23 17 24 29 25 30 26 31 27 11 28 7 29 3 30 21 31
REMARK H PARENT 21 32
REMARK Flexibility Score: inf
ROOT
ATOM      1  C   UNL     1      55.347  45.583  43.603  1.00  0.00     0.011 C 
ATOM      2  C   UNL     1      53.828  45.601  43.289  1.00  0.00    -0.035 C 
ATOM      3  C   UNL     1      53.328  44.128  43.083  1.00  0.00     0.007 C 
ATOM      4  C   UNL     1      52.371  43.984  41.894  1.00  0.00     0.008 C 
ATOM      5  C   UNL     1      53.011  44.432  40.535  1.00  0.00    -0.026 C 
ATOM      6  C   UNL     1      51.838  44.665  39.546  1.00  0.00     0.008 C 
ATOM      7  C   UNL     1      52.276  45.314  38.228  1.00  0.00     0.012 C 
ATOM      8  C   UNL     1      52.918  46.728  38.382  1.00  0.00    -0.006 C 
ATOM      9  C   UNL     1      53.957  46.701  39.531  1.00  0.00    -0.064 C 
ATOM     10  C   UNL     1      54.896  47.676  39.595  1.00  0.00    -0.027 C 
ATOM     11  C   UNL     1      55.117  48.606  38.446  1.00  0.00     0.032 C 
ATOM     12  C   UNL     1      55.053  47.745  37.164  1.00  0.00     0.006 C 
ATOM     13  C   UNL     1      53.559  47.275  36.947  1.00  0.00    -0.020 C 
ATOM     14  C   UNL     1      53.670  46.175  35.843  1.00  0.00     0.008 C 
ATOM     15  C   UNL     1      54.324  46.663  34.534  1.00  0.00     0.005 C 
ATOM     16  C   UNL     1      55.760  47.252  34.681  1.00  0.00     0.003 C 
ATOM     17  C   UNL     1      55.924  48.241  35.926  1.00  0.00    -0.025 C 
ATOM     18  C   UNL     1      55.601  49.727  35.562  1.00  0.00     0.010 C 
ATOM     19  C   UNL     1      56.247  50.208  34.258  1.00  0.00     0.033 C 
ATOM     20  C   UNL     1      55.909  49.300  33.063  1.00  0.00     0.120 C 
ATOM     21  C   UNL     1      56.324  47.814  33.285  1.00  0.00    -0.006 C 
ATOM     22  C   UNL     1      57.882  47.696  33.209  1.00  0.00     0.014 C 
ATOM     23  C   UNL     1      55.816  46.976  32.072  1.00  0.00     0.014 C 
ATOM     24  C   UNL     1      57.425  48.176  36.385  1.00  0.00     0.012 C 
ATOM     25  C   UNL     1      52.628  48.403  36.362  1.00  0.00     0.012 C 
ATOM     26  C   UNL     1      53.897  45.728  40.713  1.00  0.00     0.022 C 
ATOM     27  C   UNL     1      53.543  46.476  42.031  1.00  0.00     0.015 C 
ATOM     28  C   UNL     1      51.798  47.667  38.941  1.00  0.00     0.017 C 
ATOM     29  C   UNL     1      53.898  43.262  40.020  1.00  0.00     0.012 C 
ATOM     30  C   UNL     1      53.125  46.245  44.509  1.00  0.00     0.011 C 
ENDROOT
BRANCH  20  31
ATOM     31  O   UNL     1      54.527  49.406  32.797  1.00  0.00    -0.393 OA
ATOM     32  H   UNL     1      54.087  49.713  33.633  1.00  0.00     0.210 HD
ENDBRANCH  20  31
TORSDOF 1
ENDMDL
MODEL 9
REMARK VINA RESULT:    -6.527      2.474      4.745
REMARK INTER + INTRA:          -6.717
REMARK INTER:                  -6.717
REMARK INTRA:                   0.000
REMARK UNBOUND:                 0.000
REMARK SMILES CC1(C)CC[C@@]2(C)CC[C@@]3(C)C(=CC[C@@H]4[C@]5(C)CC[C@H](O)C(C)(C)[C@@H]5CC[C@]43C)[C@H]2C1
REMARK SMILES IDX 1 1 2 2 4 3 5 4 6 5 8 6 9 7 10 8 12 9 13 10 14 11 15 12
REMARK SMILES IDX 28 13 27 14 26 15 25 16 16 17 18 18 19 19 20 20 22 21 23 22
REMARK SMILES IDX 24 23 17 24 29 25 30 26 31 27 11 28 7 29 3 30 21 31
REMARK H PARENT 21 32
REMARK Flexibility Score: inf
ROOT
ATOM      1  C   UNL     1      49.755  45.118  33.995  1.00  0.00     0.011 C 
ATOM      2  C   UNL     1      48.966  45.222  35.326  1.00  0.00    -0.035 C 
ATOM      3  C   UNL     1      48.228  46.606  35.380  1.00  0.00     0.007 C 
ATOM      4  C   UNL     1      48.322  47.280  36.754  1.00  0.00     0.008 C 
ATOM      5  C   UNL     1      49.800  47.544  37.206  1.00  0.00    -0.026 C 
ATOM      6  C   UNL     1      49.760  47.787  38.739  1.00  0.00     0.008 C 
ATOM      7  C   UNL     1      51.152  47.851  39.379  1.00  0.00     0.012 C 
ATOM      8  C   UNL     1      51.996  46.546  39.230  1.00  0.00    -0.006 C 
ATOM      9  C   UNL     1      51.919  46.044  37.767  1.00  0.00    -0.064 C 
ATOM     10  C   UNL     1      52.855  45.175  37.317  1.00  0.00    -0.027 C 
ATOM     11  C   UNL     1      54.097  44.907  38.106  1.00  0.00     0.032 C 
ATOM     12  C   UNL     1      54.577  46.272  38.648  1.00  0.00     0.006 C 
ATOM     13  C   UNL     1      53.561  46.761  39.756  1.00  0.00    -0.020 C 
ATOM     14  C   UNL     1      53.951  48.254  39.991  1.00  0.00     0.008 C 
ATOM     15  C   UNL     1      55.420  48.461  40.414  1.00  0.00     0.005 C 
ATOM     16  C   UNL     1      56.488  47.901  39.426  1.00  0.00     0.003 C 
ATOM     17  C   UNL     1      56.145  46.442  38.869  1.00  0.00    -0.025 C 
ATOM     18  C   UNL     1      56.719  45.301  39.773  1.00  0.00     0.010 C 
ATOM     19  C   UNL     1      58.176  45.511  40.198  1.00  0.00     0.033 C 
ATOM     20  C   UNL     1      58.401  46.871  40.880  1.00  0.00     0.120 C 
ATOM     21  C   UNL     1      57.982  48.081  39.991  1.00  0.00    -0.006 C 
ATOM     22  C   UNL     1      59.015  48.251  38.829  1.00  0.00     0.014 C 
ATOM     23  C   UNL     1      58.132  49.385  40.833  1.00  0.00     0.014 C 
ATOM     24  C   UNL     1      56.810  46.309  37.453  1.00  0.00     0.012 C 
ATOM     25  C   UNL     1      53.746  46.028  41.139  1.00  0.00     0.012 C 
ATOM     26  C   UNL     1      50.746  46.337  36.825  1.00  0.00     0.022 C 
ATOM     27  C   UNL     1      49.925  45.045  36.543  1.00  0.00     0.015 C 
ATOM     28  C   UNL     1      51.237  45.434  40.027  1.00  0.00     0.017 C 
ATOM     29  C   UNL     1      50.292  48.835  36.490  1.00  0.00     0.012 C 
ATOM     30  C   UNL     1      47.940  44.062  35.332  1.00  0.00     0.011 C 
ENDROOT
BRANCH  20  31
ATOM     31  O   UNL     1      57.703  46.878  42.107  1.00  0.00    -0.393 OA
ATOM     32  H   UNL     1      58.266  47.366  42.765  1.00  0.00     0.210 HD
ENDBRANCH  20  31
TORSDOF 1
ENDMDL
