MODEL 1
REMARK VINA RESULT:    14.443      0.000      0.000
REMARK INTER + INTRA:          30.851
REMARK INTER:                  31.330
REMARK INTRA:                  -0.479
REMARK UNBOUND:                -0.479
REMARK SMILES CCCCCCCCCCCCCCCCCCCCCC(=O)[O-]
REMARK SMILES IDX 12 1 11 2 10 3 9 4 8 5 7 6 6 7 5 8 4 9 3 10 2 11 1 12 13 13
REMARK SMILES IDX 14 14 15 15 16 16 17 17 18 18 19 19 20 20 21 21 22 22 23 23
REMARK SMILES IDX 24 24
REMARK H PARENT
REMARK Flexibility Score: inf
ROOT
ATOM      1  C   UNL     1     -10.822  19.181 -16.043  1.00  0.00     0.000 C 
ENDROOT
BRANCH   1   2
ATOM      2  C   UNL     1     -11.578  20.064 -15.032  1.00  0.00     0.000 C 
BRANCH   2   3
ATOM      3  C   UNL     1     -11.530  19.495 -13.604  1.00  0.00     0.000 C 
BRANCH   3   4
ATOM      4  C   UNL     1     -12.780  19.850 -12.783  1.00  0.00    -0.000 C 
BRANCH   4   5
ATOM      5  C   UNL     1     -13.373  18.632 -12.049  1.00  0.00    -0.000 C 
BRANCH   5   6
ATOM      6  C   UNL     1     -12.632  18.312 -10.740  1.00  0.00    -0.000 C 
BRANCH   6   7
ATOM      7  C   UNL     1     -13.374  18.835  -9.498  1.00  0.00    -0.000 C 
BRANCH   7   8
ATOM      8  C   UNL     1     -13.026  18.054  -8.217  1.00  0.00    -0.000 C 
BRANCH   8   9
ATOM      9  C   UNL     1     -12.571  18.915  -7.025  1.00  0.00    -0.000 C 
BRANCH   9  10
ATOM     10  C   UNL     1     -13.258  20.290  -6.982  1.00  0.00    -0.000 C 
BRANCH  10  11
ATOM     11  C   UNL     1     -12.255  21.451  -7.077  1.00  0.00    -0.003 C 
ATOM     12  C   UNL     1     -11.477  21.456  -8.393  1.00  0.00     0.004 C 
ENDBRANCH  10  11
ENDBRANCH   9  10
ENDBRANCH   8   9
ENDBRANCH   7   8
ENDBRANCH   6   7
ENDBRANCH   5   6
ENDBRANCH   4   5
ENDBRANCH   3   4
ENDBRANCH   2   3
ENDBRANCH   1   2
BRANCH   1  13
ATOM     13  C   UNL     1     -10.548  19.872 -17.392  1.00  0.00     0.000 C 
BRANCH  13  14
ATOM     14  C   UNL     1     -10.806  18.940 -18.590  1.00  0.00     0.000 C 
BRANCH  14  15
ATOM     15  C   UNL     1     -11.924  19.455 -19.513  1.00  0.00     0.000 C 
BRANCH  15  16
ATOM     16  C   UNL     1     -11.806  18.910 -20.947  1.00  0.00     0.000 C 
BRANCH  16  17
ATOM     17  C   UNL     1     -11.288  19.963 -21.940  1.00  0.00     0.000 C 
BRANCH  17  18
ATOM     18  C   UNL     1     -12.292  20.264 -23.067  1.00  0.00     0.000 C 
BRANCH  18  19
ATOM     19  C   UNL     1     -13.478  19.275 -23.070  1.00  0.00     0.000 C 
BRANCH  19  20
ATOM     20  C   UNL     1     -14.853  19.964 -23.124  1.00  0.00     0.006 C 
BRANCH  20  21
ATOM     21  C   UNL     1     -14.957  21.227 -22.254  1.00  0.00     0.053 C 
BRANCH  21  22
ATOM     22  C   UNL     1     -14.617  20.953 -20.819  1.00  0.00     0.041 C 
ATOM     23  O   UNL     1     -15.052  19.916 -20.252  1.00  0.00    -0.550 OA
ATOM     24  O   UNL     1     -13.845  21.857 -20.100  1.00  0.00    -0.550 OA
ENDBRANCH  21  22
ENDBRANCH  20  21
ENDBRANCH  19  20
ENDBRANCH  18  19
ENDBRANCH  17  18
ENDBRANCH  16  17
ENDBRANCH  15  16
ENDBRANCH  14  15
ENDBRANCH  13  14
ENDBRANCH   1  13
TORSDOF 20
ENDMDL
MODEL 2
REMARK VINA RESULT:    14.727      1.571      2.264
REMARK INTER + INTRA:          31.467
REMARK INTER:                  31.713
REMARK INTRA:                  -0.246
REMARK UNBOUND:                -0.479
REMARK SMILES CCCCCCCCCCCCCCCCCCCCCC(=O)[O-]
REMARK SMILES IDX 12 1 11 2 10 3 9 4 8 5 7 6 6 7 5 8 4 9 3 10 2 11 1 12 13 13
REMARK SMILES IDX 14 14 15 15 16 16 17 17 18 18 19 19 20 20 21 21 22 22 23 23
REMARK SMILES IDX 24 24
REMARK H PARENT
REMARK Flexibility Score: inf
ROOT
ATOM      1  C   UNL     1     -10.410  20.447 -15.649  1.00  0.00     0.000 C 
ENDROOT
BRANCH   1   2
ATOM      2  C   UNL     1     -11.171  19.376 -14.844  1.00  0.00     0.000 C 
BRANCH   2   3
ATOM      3  C   UNL     1     -12.008  19.982 -13.704  1.00  0.00     0.000 C 
BRANCH   3   4
ATOM      4  C   UNL     1     -13.312  19.208 -13.452  1.00  0.00    -0.000 C 
BRANCH   4   5
ATOM      5  C   UNL     1     -13.547  18.915 -11.958  1.00  0.00    -0.000 C 
BRANCH   5   6
ATOM      6  C   UNL     1     -12.612  17.821 -11.415  1.00  0.00    -0.000 C 
BRANCH   6   7
ATOM      7  C   UNL     1     -12.730  17.646  -9.891  1.00  0.00    -0.000 C 
BRANCH   7   8
ATOM      8  C   UNL     1     -12.369  18.923  -9.110  1.00  0.00    -0.000 C 
BRANCH   8   9
ATOM      9  C   UNL     1     -13.535  19.580  -8.348  1.00  0.00    -0.000 C 
BRANCH   9  10
ATOM     10  C   UNL     1     -13.078  20.341  -7.093  1.00  0.00    -0.000 C 
BRANCH  10  11
ATOM     11  C   UNL     1     -12.132  21.506  -7.424  1.00  0.00    -0.003 C 
ATOM     12  C   UNL     1     -11.654  21.487  -8.876  1.00  0.00     0.004 C 
ENDBRANCH  10  11
ENDBRANCH   9  10
ENDBRANCH   8   9
ENDBRANCH   7   8
ENDBRANCH   6   7
ENDBRANCH   5   6
ENDBRANCH   4   5
ENDBRANCH   3   4
ENDBRANCH   2   3
ENDBRANCH   1   2
BRANCH   1  13
ATOM     13  C   UNL     1     -10.726  20.437 -17.156  1.00  0.00     0.000 C 
BRANCH  13  14
ATOM     14  C   UNL     1     -11.471  19.161 -17.589  1.00  0.00     0.000 C 
BRANCH  14  15
ATOM     15  C   UNL     1     -12.260  19.349 -18.896  1.00  0.00     0.000 C 
BRANCH  15  16
ATOM     16  C   UNL     1     -13.649  18.689 -18.848  1.00  0.00     0.000 C 
BRANCH  16  17
ATOM     17  C   UNL     1     -14.731  19.538 -19.537  1.00  0.00     0.000 C 
BRANCH  17  18
ATOM     18  C   UNL     1     -14.144  20.698 -20.360  1.00  0.00     0.000 C 
BRANCH  18  19
ATOM     19  C   UNL     1     -15.038  21.070 -21.563  1.00  0.00     0.000 C 
BRANCH  19  20
ATOM     20  C   UNL     1     -14.479  20.590 -22.915  1.00  0.00     0.006 C 
BRANCH  20  21
ATOM     21  C   UNL     1     -13.371  19.531 -22.796  1.00  0.00     0.053 C 
BRANCH  21  22
ATOM     22  C   UNL     1     -12.007  20.115 -23.008  1.00  0.00     0.041 C 
ATOM     23  O   UNL     1     -11.861  21.361 -23.124  1.00  0.00    -0.550 OA
ATOM     24  O   UNL     1     -10.898  19.282 -23.107  1.00  0.00    -0.550 OA
ENDBRANCH  21  22
ENDBRANCH  20  21
ENDBRANCH  19  20
ENDBRANCH  18  19
ENDBRANCH  17  18
ENDBRANCH  16  17
ENDBRANCH  15  16
ENDBRANCH  14  15
ENDBRANCH  13  14
ENDBRANCH   1  13
TORSDOF 20
ENDMDL
MODEL 3
REMARK VINA RESULT:    14.732      0.771      1.561
REMARK INTER + INTRA:          31.478
REMARK INTER:                  32.841
REMARK INTRA:                  -1.364
REMARK UNBOUND:                -0.479
REMARK SMILES CCCCCCCCCCCCCCCCCCCCCC(=O)[O-]
REMARK SMILES IDX 12 1 11 2 10 3 9 4 8 5 7 6 6 7 5 8 4 9 3 10 2 11 1 12 13 13
REMARK SMILES IDX 14 14 15 15 16 16 17 17 18 18 19 19 20 20 21 21 22 22 23 23
REMARK SMILES IDX 24 24
REMARK H PARENT
REMARK Flexibility Score: inf
ROOT
ATOM      1  C   UNL     1     -11.645  18.769 -15.137  1.00  0.00     0.000 C 
ENDROOT
BRANCH   1   2
ATOM      2  C   UNL     1     -12.865  19.336 -14.385  1.00  0.00     0.000 C 
BRANCH   2   3
ATOM      3  C   UNL     1     -12.512  19.808 -12.964  1.00  0.00     0.000 C 
BRANCH   3   4
ATOM      4  C   UNL     1     -12.832  18.753 -11.894  1.00  0.00    -0.000 C 
BRANCH   4   5
ATOM      5  C   UNL     1     -12.694  19.300 -10.461  1.00  0.00    -0.000 C 
BRANCH   5   6
ATOM      6  C   UNL     1     -13.754  18.730  -9.504  1.00  0.00    -0.000 C 
BRANCH   6   7
ATOM      7  C   UNL     1     -13.139  17.875  -8.382  1.00  0.00    -0.000 C 
BRANCH   7   8
ATOM      8  C   UNL     1     -12.793  18.694  -7.124  1.00  0.00    -0.000 C 
BRANCH   8   9
ATOM      9  C   UNL     1     -13.617  19.979  -6.929  1.00  0.00    -0.000 C 
BRANCH   9  10
ATOM     10  C   UNL     1     -12.743  21.233  -6.764  1.00  0.00    -0.000 C 
BRANCH  10  11
ATOM     11  C   UNL     1     -12.088  21.671  -8.084  1.00  0.00    -0.003 C 
ATOM     12  C   UNL     1     -10.599  21.331  -8.148  1.00  0.00     0.004 C 
ENDBRANCH  10  11
ENDBRANCH   9  10
ENDBRANCH   8   9
ENDBRANCH   7   8
ENDBRANCH   6   7
ENDBRANCH   5   6
ENDBRANCH   4   5
ENDBRANCH   3   4
ENDBRANCH   2   3
ENDBRANCH   1   2
BRANCH   1  13
ATOM     13  C   UNL     1     -10.548  19.812 -15.421  1.00  0.00     0.000 C 
BRANCH  13  14
ATOM     14  C   UNL     1     -10.483  20.201 -16.909  1.00  0.00     0.000 C 
BRANCH  14  15
ATOM     15  C   UNL     1     -11.267  19.233 -17.811  1.00  0.00     0.000 C 
BRANCH  15  16
ATOM     16  C   UNL     1     -11.524  19.809 -19.214  1.00  0.00     0.000 C 
BRANCH  16  17
ATOM     17  C   UNL     1     -11.588  18.720 -20.298  1.00  0.00     0.000 C 
BRANCH  17  18
ATOM     18  C   UNL     1     -11.016  19.187 -21.648  1.00  0.00     0.000 C 
BRANCH  18  19
ATOM     19  C   UNL     1     -11.765  20.418 -22.203  1.00  0.00     0.000 C 
BRANCH  19  20
ATOM     20  C   UNL     1     -12.952  20.056 -23.114  1.00  0.00     0.006 C 
BRANCH  20  21
ATOM     21  C   UNL     1     -14.290  20.674 -22.678  1.00  0.00     0.053 C 
BRANCH  21  22
ATOM     22  C   UNL     1     -14.452  20.672 -21.187  1.00  0.00     0.041 C 
ATOM     23  O   UNL     1     -14.852  19.636 -20.594  1.00  0.00    -0.550 OA
ATOM     24  O   UNL     1     -14.190  21.825 -20.455  1.00  0.00    -0.550 OA
ENDBRANCH  21  22
ENDBRANCH  20  21
ENDBRANCH  19  20
ENDBRANCH  18  19
ENDBRANCH  17  18
ENDBRANCH  16  17
ENDBRANCH  15  16
ENDBRANCH  14  15
ENDBRANCH  13  14
ENDBRANCH   1  13
TORSDOF 20
ENDMDL
MODEL 4
REMARK VINA RESULT:    14.990      4.043     11.561
REMARK INTER + INTRA:          32.036
REMARK INTER:                  33.257
REMARK INTRA:                  -1.220
REMARK UNBOUND:                -0.479
REMARK SMILES CCCCCCCCCCCCCCCCCCCCCC(=O)[O-]
REMARK SMILES IDX 12 1 11 2 10 3 9 4 8 5 7 6 6 7 5 8 4 9 3 10 2 11 1 12 13 13
REMARK SMILES IDX 14 14 15 15 16 16 17 17 18 18 19 19 20 20 21 21 22 22 23 23
REMARK SMILES IDX 24 24
REMARK H PARENT
REMARK Flexibility Score: inf
ROOT
ATOM      1  C   UNL     1     -13.503  17.373 -16.574  1.00  0.00     0.000 C 
ENDROOT
BRANCH   1   2
ATOM      2  C   UNL     1     -14.588  18.200 -17.289  1.00  0.00     0.000 C 
BRANCH   2   3
ATOM      3  C   UNL     1     -14.426  18.184 -18.820  1.00  0.00     0.000 C 
BRANCH   3   4
ATOM      4  C   UNL     1     -14.133  19.577 -19.398  1.00  0.00    -0.000 C 
BRANCH   4   5
ATOM      5  C   UNL     1     -15.163  20.007 -20.459  1.00  0.00    -0.000 C 
BRANCH   5   6
ATOM      6  C   UNL     1     -14.828  21.369 -21.091  1.00  0.00    -0.000 C 
BRANCH   6   7
ATOM      7  C   UNL     1     -14.597  21.276 -22.609  1.00  0.00    -0.000 C 
BRANCH   7   8
ATOM      8  C   UNL     1     -14.524  19.823 -23.117  1.00  0.00    -0.000 C 
BRANCH   8   9
ATOM      9  C   UNL     1     -13.150  19.144 -22.971  1.00  0.00    -0.000 C 
BRANCH   9  10
ATOM     10  C   UNL     1     -11.988  20.150 -22.902  1.00  0.00    -0.000 C 
BRANCH  10  11
ATOM     11  C   UNL     1     -10.821  19.642 -22.040  1.00  0.00    -0.003 C 
ATOM     12  C   UNL     1      -9.699  19.018 -22.871  1.00  0.00     0.004 C 
ENDBRANCH  10  11
ENDBRANCH   9  10
ENDBRANCH   8   9
ENDBRANCH   7   8
ENDBRANCH   6   7
ENDBRANCH   5   6
ENDBRANCH   4   5
ENDBRANCH   3   4
ENDBRANCH   2   3
ENDBRANCH   1   2
BRANCH   1  13
ATOM     13  C   UNL     1     -12.423  18.226 -15.882  1.00  0.00     0.000 C 
BRANCH  13  14
ATOM     14  C   UNL     1     -12.943  18.900 -14.599  1.00  0.00     0.000 C 
BRANCH  14  15
ATOM     15  C   UNL     1     -11.817  19.529 -13.761  1.00  0.00     0.000 C 
BRANCH  15  16
ATOM     16  C   UNL     1     -12.254  19.838 -12.319  1.00  0.00     0.000 C 
BRANCH  16  17
ATOM     17  C   UNL     1     -13.235  18.793 -11.762  1.00  0.00     0.000 C 
BRANCH  17  18
ATOM     18  C   UNL     1     -12.544  17.740 -10.877  1.00  0.00     0.000 C 
BRANCH  18  19
ATOM     19  C   UNL     1     -13.138  17.695  -9.453  1.00  0.00     0.000 C 
BRANCH  19  20
ATOM     20  C   UNL     1     -12.446  18.656  -8.468  1.00  0.00     0.006 C 
BRANCH  20  21
ATOM     21  C   UNL     1     -13.096  20.047  -8.388  1.00  0.00     0.053 C 
BRANCH  21  22
ATOM     22  C   UNL     1     -12.245  21.024  -7.634  1.00  0.00     0.041 C 
ATOM     23  O   UNL     1     -12.495  21.286  -6.428  1.00  0.00    -0.550 OA
ATOM     24  O   UNL     1     -11.191  21.670  -8.272  1.00  0.00    -0.550 OA
ENDBRANCH  21  22
ENDBRANCH  20  21
ENDBRANCH  19  20
ENDBRANCH  18  19
ENDBRANCH  17  18
ENDBRANCH  16  17
ENDBRANCH  15  16
ENDBRANCH  14  15
ENDBRANCH  13  14
ENDBRANCH   1  13
TORSDOF 20
ENDMDL
MODEL 5
REMARK VINA RESULT:    15.245      3.881     11.438
REMARK INTER + INTRA:          32.590
REMARK INTER:                  33.113
REMARK INTRA:                  -0.524
REMARK UNBOUND:                -0.479
REMARK SMILES CCCCCCCCCCCCCCCCCCCCCC(=O)[O-]
REMARK SMILES IDX 12 1 11 2 10 3 9 4 8 5 7 6 6 7 5 8 4 9 3 10 2 11 1 12 13 13
REMARK SMILES IDX 14 14 15 15 16 16 17 17 18 18 19 19 20 20 21 21 22 22 23 23
REMARK SMILES IDX 24 24
REMARK H PARENT
REMARK Flexibility Score: inf
ROOT
ATOM      1  C   UNL     1     -11.467  18.956 -15.921  1.00  0.00     0.000 C 
ENDROOT
BRANCH   1   2
ATOM      2  C   UNL     1     -10.608  19.758 -16.918  1.00  0.00     0.000 C 
BRANCH   2   3
ATOM      3  C   UNL     1     -11.382  20.125 -18.197  1.00  0.00     0.000 C 
BRANCH   3   4
ATOM      4  C   UNL     1     -11.293  19.034 -19.275  1.00  0.00    -0.000 C 
BRANCH   4   5
ATOM      5  C   UNL     1     -12.000  19.435 -20.584  1.00  0.00    -0.000 C 
BRANCH   5   6
ATOM      6  C   UNL     1     -11.022  19.597 -21.760  1.00  0.00    -0.000 C 
BRANCH   6   7
ATOM      7  C   UNL     1     -11.742  19.715 -23.114  1.00  0.00    -0.000 C 
BRANCH   7   8
ATOM      8  C   UNL     1     -13.269  19.550 -23.000  1.00  0.00    -0.000 C 
BRANCH   8   9
ATOM      9  C   UNL     1     -14.080  20.855 -23.090  1.00  0.00    -0.000 C 
BRANCH   9  10
ATOM     10  C   UNL     1     -14.280  21.532 -21.724  1.00  0.00    -0.000 C 
BRANCH  10  11
ATOM     11  C   UNL     1     -15.361  20.842 -20.877  1.00  0.00    -0.003 C 
ATOM     12  C   UNL     1     -14.796  19.747 -19.973  1.00  0.00     0.004 C 
ENDBRANCH  10  11
ENDBRANCH   9  10
ENDBRANCH   8   9
ENDBRANCH   7   8
ENDBRANCH   6   7
ENDBRANCH   5   6
ENDBRANCH   4   5
ENDBRANCH   3   4
ENDBRANCH   2   3
ENDBRANCH   1   2
BRANCH   1  13
ATOM     13  C   UNL     1     -11.612  19.627 -14.542  1.00  0.00     0.000 C 
BRANCH  13  14
ATOM     14  C   UNL     1     -13.031  19.475 -13.964  1.00  0.00     0.000 C 
BRANCH  14  15
ATOM     15  C   UNL     1     -13.069  19.637 -12.435  1.00  0.00     0.000 C 
BRANCH  15  16
ATOM     16  C   UNL     1     -12.229  18.575 -11.706  1.00  0.00     0.000 C 
BRANCH  16  17
ATOM     17  C   UNL     1     -13.087  17.444 -11.116  1.00  0.00     0.000 C 
BRANCH  17  18
ATOM     18  C   UNL     1     -12.670  17.065  -9.684  1.00  0.00     0.000 C 
BRANCH  18  19
ATOM     19  C   UNL     1     -12.249  18.296  -8.853  1.00  0.00     0.000 C 
BRANCH  19  20
ATOM     20  C   UNL     1     -13.420  19.236  -8.512  1.00  0.00     0.006 C 
BRANCH  20  21
ATOM     21  C   UNL     1     -13.108  20.727  -8.717  1.00  0.00     0.053 C 
BRANCH  21  22
ATOM     22  C   UNL     1     -12.109  21.236  -7.720  1.00  0.00     0.041 C 
ATOM     23  O   UNL     1     -12.411  21.308  -6.500  1.00  0.00    -0.550 OA
ATOM     24  O   UNL     1     -10.854  21.660  -8.143  1.00  0.00    -0.550 OA
ENDBRANCH  21  22
ENDBRANCH  20  21
ENDBRANCH  19  20
ENDBRANCH  18  19
ENDBRANCH  17  18
ENDBRANCH  16  17
ENDBRANCH  15  16
ENDBRANCH  14  15
ENDBRANCH  13  14
ENDBRANCH   1  13
TORSDOF 20
ENDMDL
MODEL 6
REMARK VINA RESULT:    15.281      1.959      2.785
REMARK INTER + INTRA:          32.668
REMARK INTER:                  30.028
REMARK INTRA:                   2.640
REMARK UNBOUND:                -0.479
REMARK SMILES CCCCCCCCCCCCCCCCCCCCCC(=O)[O-]
REMARK SMILES IDX 12 1 11 2 10 3 9 4 8 5 7 6 6 7 5 8 4 9 3 10 2 11 1 12 13 13
REMARK SMILES IDX 14 14 15 15 16 16 17 17 18 18 19 19 20 20 21 21 22 22 23 23
REMARK SMILES IDX 24 24
REMARK H PARENT
REMARK Flexibility Score: inf
ROOT
ATOM      1  C   UNL     1     -11.780  19.422 -14.216  1.00  0.00     0.000 C 
ENDROOT
BRANCH   1   2
ATOM      2  C   UNL     1     -11.977  20.361 -13.010  1.00  0.00     0.000 C 
BRANCH   2   3
ATOM      3  C   UNL     1     -12.678  19.664 -11.830  1.00  0.00     0.000 C 
BRANCH   3   4
ATOM      4  C   UNL     1     -13.100  18.224 -12.161  1.00  0.00    -0.000 C 
BRANCH   4   5
ATOM      5  C   UNL     1     -13.214  17.337 -10.907  1.00  0.00    -0.000 C 
BRANCH   5   6
ATOM      6  C   UNL     1     -11.902  17.274 -10.106  1.00  0.00    -0.000 C 
BRANCH   6   7
ATOM      7  C   UNL     1     -12.083  17.713  -8.643  1.00  0.00    -0.000 C 
BRANCH   7   8
ATOM      8  C   UNL     1     -13.559  17.755  -8.206  1.00  0.00    -0.000 C 
BRANCH   8   9
ATOM      9  C   UNL     1     -14.411  18.852  -8.869  1.00  0.00    -0.000 C 
BRANCH   9  10
ATOM     10  C   UNL     1     -13.883  20.270  -8.593  1.00  0.00    -0.000 C 
BRANCH  10  11
ATOM     11  C   UNL     1     -12.574  20.263  -7.786  1.00  0.00    -0.003 C 
ATOM     12  C   UNL     1     -11.779  21.560  -7.937  1.00  0.00     0.004 C 
ENDBRANCH  10  11
ENDBRANCH   9  10
ENDBRANCH   8   9
ENDBRANCH   7   8
ENDBRANCH   6   7
ENDBRANCH   5   6
ENDBRANCH   4   5
ENDBRANCH   3   4
ENDBRANCH   2   3
ENDBRANCH   1   2
BRANCH   1  13
ATOM     13  C   UNL     1     -13.043  18.630 -14.602  1.00  0.00     0.000 C 
BRANCH  13  14
ATOM     14  C   UNL     1     -13.004  18.142 -16.061  1.00  0.00     0.000 C 
BRANCH  14  15
ATOM     15  C   UNL     1     -14.406  18.006 -16.680  1.00  0.00     0.000 C 
BRANCH  15  16
ATOM     16  C   UNL     1     -14.381  18.048 -18.217  1.00  0.00     0.000 C 
BRANCH  16  17
ATOM     17  C   UNL     1     -14.768  19.426 -18.778  1.00  0.00     0.000 C 
BRANCH  17  18
ATOM     18  C   UNL     1     -13.881  19.860 -19.958  1.00  0.00     0.000 C 
BRANCH  18  19
ATOM     19  C   UNL     1     -14.694  20.068 -21.254  1.00  0.00     0.000 C 
BRANCH  19  20
ATOM     20  C   UNL     1     -14.306  21.342 -22.026  1.00  0.00     0.006 C 
BRANCH  20  21
ATOM     21  C   UNL     1     -13.026  21.202 -22.864  1.00  0.00     0.053 C 
BRANCH  21  22
ATOM     22  C   UNL     1     -12.571  19.777 -22.966  1.00  0.00     0.041 C 
ATOM     23  O   UNL     1     -13.412  18.853 -23.124  1.00  0.00    -0.550 OA
ATOM     24  O   UNL     1     -11.220  19.466 -22.858  1.00  0.00    -0.550 OA
ENDBRANCH  21  22
ENDBRANCH  20  21
ENDBRANCH  19  20
ENDBRANCH  18  19
ENDBRANCH  17  18
ENDBRANCH  16  17
ENDBRANCH  15  16
ENDBRANCH  14  15
ENDBRANCH  13  14
ENDBRANCH   1  13
TORSDOF 20
ENDMDL
MODEL 7
REMARK VINA RESULT:    15.644      4.133     11.400
REMARK INTER + INTRA:          33.455
REMARK INTER:                  33.244
REMARK INTRA:                   0.211
REMARK UNBOUND:                -0.479
REMARK SMILES CCCCCCCCCCCCCCCCCCCCCC(=O)[O-]
REMARK SMILES IDX 12 1 11 2 10 3 9 4 8 5 7 6 6 7 5 8 4 9 3 10 2 11 1 12 13 13
REMARK SMILES IDX 14 14 15 15 16 16 17 17 18 18 19 19 20 20 21 21 22 22 23 23
REMARK SMILES IDX 24 24
REMARK H PARENT
REMARK Flexibility Score: inf
ROOT
ATOM      1  C   UNL     1     -13.004  19.297 -14.359  1.00  0.00     0.000 C 
ENDROOT
BRANCH   1   2
ATOM      2  C   UNL     1     -11.906  18.856 -15.346  1.00  0.00     0.000 C 
BRANCH   2   3
ATOM      3  C   UNL     1     -12.431  17.873 -16.407  1.00  0.00     0.000 C 
BRANCH   3   4
ATOM      4  C   UNL     1     -13.965  17.850 -16.485  1.00  0.00    -0.000 C 
BRANCH   4   5
ATOM      5  C   UNL     1     -14.485  17.764 -17.932  1.00  0.00    -0.000 C 
BRANCH   5   6
ATOM      6  C   UNL     1     -14.899  19.134 -18.495  1.00  0.00    -0.000 C 
BRANCH   6   7
ATOM      7  C   UNL     1     -14.304  19.406 -19.886  1.00  0.00    -0.000 C 
BRANCH   7   8
ATOM      8  C   UNL     1     -14.913  20.646 -20.568  1.00  0.00    -0.000 C 
BRANCH   8   9
ATOM      9  C   UNL     1     -14.049  21.281 -21.672  1.00  0.00    -0.000 C 
BRANCH   9  10
ATOM     10  C   UNL     1     -14.149  20.538 -23.014  1.00  0.00    -0.000 C 
BRANCH  10  11
ATOM     11  C   UNL     1     -13.141  19.383 -23.124  1.00  0.00    -0.003 C 
ATOM     12  C   UNL     1     -11.707  19.816 -22.814  1.00  0.00     0.004 C 
ENDBRANCH  10  11
ENDBRANCH   9  10
ENDBRANCH   8   9
ENDBRANCH   7   8
ENDBRANCH   6   7
ENDBRANCH   5   6
ENDBRANCH   4   5
ENDBRANCH   3   4
ENDBRANCH   2   3
ENDBRANCH   1   2
BRANCH   1  13
ATOM     13  C   UNL     1     -12.516  20.292 -13.289  1.00  0.00     0.000 C 
BRANCH  13  14
ATOM     14  C   UNL     1     -12.012  19.583 -12.018  1.00  0.00     0.000 C 
BRANCH  14  15
ATOM     15  C   UNL     1     -13.101  18.738 -11.337  1.00  0.00     0.000 C 
BRANCH  15  16
ATOM     16  C   UNL     1     -12.840  17.227 -11.458  1.00  0.00     0.000 C 
BRANCH  16  17
ATOM     17  C   UNL     1     -12.081  16.659 -10.247  1.00  0.00     0.000 C 
BRANCH  17  18
ATOM     18  C   UNL     1     -12.187  17.557  -9.002  1.00  0.00     0.000 C 
BRANCH  18  19
ATOM     19  C   UNL     1     -13.537  18.303  -8.935  1.00  0.00     0.000 C 
BRANCH  19  20
ATOM     20  C   UNL     1     -13.527  19.508  -7.976  1.00  0.00     0.006 C 
BRANCH  20  21
ATOM     21  C   UNL     1     -12.889  20.775  -8.567  1.00  0.00     0.053 C 
BRANCH  21  22
ATOM     22  C   UNL     1     -11.890  21.392  -7.634  1.00  0.00     0.041 C 
ATOM     23  O   UNL     1     -10.733  21.675  -8.041  1.00  0.00    -0.550 OA
ATOM     24  O   UNL     1     -12.228  21.627  -6.306  1.00  0.00    -0.550 OA
ENDBRANCH  21  22
ENDBRANCH  20  21
ENDBRANCH  19  20
ENDBRANCH  18  19
ENDBRANCH  17  18
ENDBRANCH  16  17
ENDBRANCH  15  16
ENDBRANCH  14  15
ENDBRANCH  13  14
ENDBRANCH   1  13
TORSDOF 20
ENDMDL
MODEL 8
REMARK VINA RESULT:    15.973      4.172     11.345
REMARK INTER + INTRA:          34.170
REMARK INTER:                  34.614
REMARK INTRA:                  -0.444
REMARK UNBOUND:                -0.479
REMARK SMILES CCCCCCCCCCCCCCCCCCCCCC(=O)[O-]
REMARK SMILES IDX 12 1 11 2 10 3 9 4 8 5 7 6 6 7 5 8 4 9 3 10 2 11 1 12 13 13
REMARK SMILES IDX 14 14 15 15 16 16 17 17 18 18 19 19 20 20 21 21 22 22 23 23
REMARK SMILES IDX 24 24
REMARK H PARENT
REMARK Flexibility Score: inf
ROOT
ATOM      1  C   UNL     1     -14.483  18.272 -14.944  1.00  0.00     0.000 C 
ENDROOT
BRANCH   1   2
ATOM      2  C   UNL     1     -15.859  18.437 -15.618  1.00  0.00     0.000 C 
BRANCH   2   3
ATOM      3  C   UNL     1     -15.809  18.163 -17.131  1.00  0.00     0.000 C 
BRANCH   3   4
ATOM      4  C   UNL     1     -14.598  17.310 -17.538  1.00  0.00    -0.000 C 
BRANCH   4   5
ATOM      5  C   UNL     1     -13.915  17.821 -18.820  1.00  0.00    -0.000 C 
BRANCH   5   6
ATOM      6  C   UNL     1     -13.967  19.353 -18.947  1.00  0.00    -0.000 C 
BRANCH   6   7
ATOM      7  C   UNL     1     -14.805  19.819 -20.150  1.00  0.00    -0.000 C 
BRANCH   7   8
ATOM      8  C   UNL     1     -14.221  21.064 -20.843  1.00  0.00    -0.000 C 
BRANCH   8   9
ATOM      9  C   UNL     1     -14.379  21.100 -22.374  1.00  0.00    -0.000 C 
BRANCH   9  10
ATOM     10  C   UNL     1     -14.384  19.700 -23.009  1.00  0.00    -0.000 C 
BRANCH  10  11
ATOM     11  C   UNL     1     -12.973  19.101 -23.124  1.00  0.00    -0.003 C 
ATOM     12  C   UNL     1     -11.886  20.040 -22.597  1.00  0.00     0.004 C 
ENDBRANCH  10  11
ENDBRANCH   9  10
ENDBRANCH   8   9
ENDBRANCH   7   8
ENDBRANCH   6   7
ENDBRANCH   5   6
ENDBRANCH   4   5
ENDBRANCH   3   4
ENDBRANCH   2   3
ENDBRANCH   1   2
BRANCH   1  13
ATOM     13  C   UNL     1     -13.885  19.589 -14.416  1.00  0.00     0.000 C 
BRANCH  13  14
ATOM     14  C   UNL     1     -12.348  19.610 -14.503  1.00  0.00     0.000 C 
BRANCH  14  15
ATOM     15  C   UNL     1     -11.672  19.410 -13.136  1.00  0.00     0.000 C 
BRANCH  15  16
ATOM     16  C   UNL     1     -12.630  18.829 -12.082  1.00  0.00     0.000 C 
BRANCH  16  17
ATOM     17  C   UNL     1     -13.549  19.896 -11.465  1.00  0.00     0.000 C 
BRANCH  17  18
ATOM     18  C   UNL     1     -13.938  19.579 -10.010  1.00  0.00     0.000 C 
BRANCH  18  19
ATOM     19  C   UNL     1     -13.246  18.301  -9.488  1.00  0.00     0.000 C 
BRANCH  19  20
ATOM     20  C   UNL     1     -12.317  18.553  -8.286  1.00  0.00     0.006 C 
BRANCH  20  21
ATOM     21  C   UNL     1     -12.875  19.550  -7.259  1.00  0.00     0.053 C 
BRANCH  21  22
ATOM     22  C   UNL     1     -12.346  20.937  -7.474  1.00  0.00     0.041 C 
ATOM     23  O   UNL     1     -11.388  21.134  -8.266  1.00  0.00    -0.550 OA
ATOM     24  O   UNL     1     -12.892  22.008  -6.776  1.00  0.00    -0.550 OA
ENDBRANCH  21  22
ENDBRANCH  20  21
ENDBRANCH  19  20
ENDBRANCH  18  19
ENDBRANCH  17  18
ENDBRANCH  16  17
ENDBRANCH  15  16
ENDBRANCH  14  15
ENDBRANCH  13  14
ENDBRANCH   1  13
TORSDOF 20
ENDMDL
