MODEL 1
REMARK VINA RESULT:     0.550      0.000      0.000
REMARK INTER + INTRA:          -0.861
REMARK INTER:                   1.450
REMARK INTRA:                  -2.311
REMARK UNBOUND:                -2.311
REMARK SMILES CCCCCCCCCCCCCCCCCCCCCCCCCCCCCC(=O)[O-]
REMARK SMILES IDX 16 1 17 2 18 3 19 4 20 5 21 6 22 7 23 8 24 9 25 10 26 11
REMARK SMILES IDX 27 12 28 13 29 14 30 15 31 16 32 17 15 18 14 19 13 20 12 21
REMARK SMILES IDX 11 22 10 23 9 24 8 25 7 26 6 27 5 28 4 29 3 30 2 31 1 32
REMARK H PARENT
REMARK Flexibility Score: inf
ROOT
ATOM      1  C   UNL     1      53.950  -0.701  21.436  1.00  0.00     0.000 C 
ENDROOT
BRANCH   1   2
ATOM      2  C   UNL     1      53.919   0.462  22.449  1.00  0.00     0.000 C 
BRANCH   2   3
ATOM      3  C   UNL     1      54.549   0.149  23.819  1.00  0.00     0.000 C 
BRANCH   3   4
ATOM      4  C   UNL     1      54.978   1.381  24.639  1.00  0.00     0.000 C 
BRANCH   4   5
ATOM      5  C   UNL     1      56.248   2.078  24.106  1.00  0.00     0.000 C 
BRANCH   5   6
ATOM      6  C   UNL     1      56.815   3.114  25.094  1.00  0.00     0.000 C 
BRANCH   6   7
ATOM      7  C   UNL     1      58.351   3.124  25.125  1.00  0.00     0.000 C 
BRANCH   7   8
ATOM      8  C   UNL     1      58.964   1.808  24.621  1.00  0.00     0.000 C 
BRANCH   8   9
ATOM      9  C   UNL     1      58.156   0.603  25.118  1.00  0.00     0.000 C 
BRANCH   9  10
ATOM     10  C   UNL     1      59.010  -0.673  25.115  1.00  0.00     0.000 C 
BRANCH  10  11
ATOM     11  C   UNL     1      58.201  -1.927  24.742  1.00  0.00     0.000 C 
BRANCH  11  12
ATOM     12  C   UNL     1      58.629  -2.606  23.426  1.00  0.00     0.000 C 
BRANCH  12  13
ATOM     13  C   UNL     1      57.893  -2.065  22.183  1.00  0.00     0.006 C 
BRANCH  13  14
ATOM     14  C   UNL     1      58.365  -0.658  21.792  1.00  0.00     0.053 C 
BRANCH  14  15
ATOM     15  C   UNL     1      57.483  -0.085  20.729  1.00  0.00     0.041 C 
ATOM     16  O   UNL     1      57.088  -0.809  19.777  1.00  0.00    -0.550 OA
ATOM     17  O   UNL     1      57.055   1.234  20.816  1.00  0.00    -0.550 OA
ENDBRANCH  14  15
ENDBRANCH  13  14
ENDBRANCH  12  13
ENDBRANCH  11  12
ENDBRANCH  10  11
ENDBRANCH   9  10
ENDBRANCH   8   9
ENDBRANCH   7   8
ENDBRANCH   6   7
ENDBRANCH   5   6
ENDBRANCH   4   5
ENDBRANCH   3   4
ENDBRANCH   2   3
ENDBRANCH   1   2
BRANCH   1  18
ATOM     18  C   UNL     1      53.547  -0.327  19.996  1.00  0.00     0.000 C 
BRANCH  18  19
ATOM     19  C   UNL     1      52.050  -0.033  19.794  1.00  0.00     0.000 C 
BRANCH  19  20
ATOM     20  C   UNL     1      51.166  -1.270  20.001  1.00  0.00     0.000 C 
BRANCH  20  21
ATOM     21  C   UNL     1      50.033  -0.977  20.995  1.00  0.00     0.000 C 
BRANCH  21  22
ATOM     22  C   UNL     1      49.887  -2.064  22.073  1.00  0.00     0.000 C 
BRANCH  22  23
ATOM     23  C   UNL     1      50.815  -1.903  23.295  1.00  0.00     0.000 C 
BRANCH  23  24
ATOM     24  C   UNL     1      50.399  -0.805  24.291  1.00  0.00    -0.000 C 
BRANCH  24  25
ATOM     25  C   UNL     1      49.875   0.460  23.596  1.00  0.00    -0.000 C 
BRANCH  25  26
ATOM     26  C   UNL     1      50.765   1.670  23.909  1.00  0.00    -0.000 C 
BRANCH  26  27
ATOM     27  C   UNL     1      50.639   2.742  22.816  1.00  0.00    -0.000 C 
BRANCH  27  28
ATOM     28  C   UNL     1      51.833   2.756  21.844  1.00  0.00    -0.000 C 
BRANCH  28  29
ATOM     29  C   UNL     1      51.488   3.125  20.390  1.00  0.00    -0.000 C 
BRANCH  29  30
ATOM     30  C   UNL     1      50.020   2.840  20.031  1.00  0.00    -0.000 C 
BRANCH  30  31
ATOM     31  C   UNL     1      49.879   2.032  18.731  1.00  0.00    -0.003 C 
ATOM     32  C   UNL     1      50.584   2.689  17.545  1.00  0.00     0.004 C 
ENDBRANCH  30  31
ENDBRANCH  29  30
ENDBRANCH  28  29
ENDBRANCH  27  28
ENDBRANCH  26  27
ENDBRANCH  25  26
ENDBRANCH  24  25
ENDBRANCH  23  24
ENDBRANCH  22  23
ENDBRANCH  21  22
ENDBRANCH  20  21
ENDBRANCH  19  20
ENDBRANCH  18  19
ENDBRANCH   1  18
TORSDOF 28
ENDMDL
MODEL 2
REMARK VINA RESULT:     0.755      2.763      8.501
REMARK INTER + INTRA:          -0.319
REMARK INTER:                  -0.493
REMARK INTRA:                   0.173
REMARK UNBOUND:                -2.311
REMARK SMILES CCCCCCCCCCCCCCCCCCCCCCCCCCCCCC(=O)[O-]
REMARK SMILES IDX 16 1 17 2 18 3 19 4 20 5 21 6 22 7 23 8 24 9 25 10 26 11
REMARK SMILES IDX 27 12 28 13 29 14 30 15 31 16 32 17 15 18 14 19 13 20 12 21
REMARK SMILES IDX 11 22 10 23 9 24 8 25 7 26 6 27 5 28 4 29 3 30 2 31 1 32
REMARK H PARENT
REMARK Flexibility Score: inf
ROOT
ATOM      1  C   UNL     1      56.443   1.648  25.070  1.00  0.00     0.000 C 
ENDROOT
BRANCH   1   2
ATOM      2  C   UNL     1      55.466   0.665  24.395  1.00  0.00     0.000 C 
BRANCH   2   3
ATOM      3  C   UNL     1      53.999   0.792  24.848  1.00  0.00     0.000 C 
BRANCH   3   4
ATOM      4  C   UNL     1      53.416   2.217  24.784  1.00  0.00     0.000 C 
BRANCH   4   5
ATOM      5  C   UNL     1      52.826   2.593  23.408  1.00  0.00     0.000 C 
BRANCH   5   6
ATOM      6  C   UNL     1      51.286   2.558  23.394  1.00  0.00     0.000 C 
BRANCH   6   7
ATOM      7  C   UNL     1      50.694   3.124  22.094  1.00  0.00     0.000 C 
BRANCH   7   8
ATOM      8  C   UNL     1      50.019   2.047  21.230  1.00  0.00     0.000 C 
BRANCH   8   9
ATOM      9  C   UNL     1      50.986   1.515  20.166  1.00  0.00     0.000 C 
BRANCH   9  10
ATOM     10  C   UNL     1      52.369   1.230  20.770  1.00  0.00     0.000 C 
BRANCH  10  11
ATOM     11  C   UNL     1      52.879  -0.184  20.443  1.00  0.00     0.000 C 
BRANCH  11  12
ATOM     12  C   UNL     1      51.914  -1.324  20.822  1.00  0.00     0.000 C 
BRANCH  12  13
ATOM     13  C   UNL     1      50.915  -0.945  21.936  1.00  0.00     0.006 C 
BRANCH  13  14
ATOM     14  C   UNL     1      50.027  -2.127  22.350  1.00  0.00     0.053 C 
BRANCH  14  15
ATOM     15  C   UNL     1      50.041  -2.299  23.835  1.00  0.00     0.041 C 
ATOM     16  O   UNL     1      49.934  -3.448  24.339  1.00  0.00    -0.550 OA
ATOM     17  O   UNL     1      50.224  -1.197  24.661  1.00  0.00    -0.550 OA
ENDBRANCH  14  15
ENDBRANCH  13  14
ENDBRANCH  12  13
ENDBRANCH  11  12
ENDBRANCH  10  11
ENDBRANCH   9  10
ENDBRANCH   8   9
ENDBRANCH   7   8
ENDBRANCH   6   7
ENDBRANCH   5   6
ENDBRANCH   4   5
ENDBRANCH   3   4
ENDBRANCH   2   3
ENDBRANCH   1   2
BRANCH   1  18
ATOM     18  C   UNL     1      57.184   2.600  24.110  1.00  0.00     0.000 C 
BRANCH  18  19
ATOM     19  C   UNL     1      56.402   2.981  22.840  1.00  0.00     0.000 C 
BRANCH  19  20
ATOM     20  C   UNL     1      57.103   2.533  21.551  1.00  0.00     0.000 C 
BRANCH  20  21
ATOM     21  C   UNL     1      56.902   1.030  21.310  1.00  0.00     0.000 C 
BRANCH  21  22
ATOM     22  C   UNL     1      58.201   0.310  20.909  1.00  0.00     0.000 C 
BRANCH  22  23
ATOM     23  C   UNL     1      58.558  -0.922  21.766  1.00  0.00     0.000 C 
BRANCH  23  24
ATOM     24  C   UNL     1      57.458  -1.380  22.741  1.00  0.00    -0.000 C 
BRANCH  24  25
ATOM     25  C   UNL     1      57.916  -2.522  23.659  1.00  0.00    -0.000 C 
BRANCH  25  26
ATOM     26  C   UNL     1      58.452  -1.979  24.990  1.00  0.00    -0.000 C 
BRANCH  26  27
ATOM     27  C   UNL     1      59.196  -0.652  24.782  1.00  0.00    -0.000 C 
BRANCH  27  28
ATOM     28  C   UNL     1      60.625  -0.840  24.239  1.00  0.00    -0.000 C 
BRANCH  28  29
ATOM     29  C   UNL     1      61.212  -2.252  24.419  1.00  0.00    -0.000 C 
BRANCH  29  30
ATOM     30  C   UNL     1      62.580  -2.248  25.121  1.00  0.00    -0.000 C 
BRANCH  30  31
ATOM     31  C   UNL     1      63.370  -0.956  24.862  1.00  0.00    -0.003 C 
ATOM     32  C   UNL     1      62.531   0.304  25.070  1.00  0.00     0.004 C 
ENDBRANCH  30  31
ENDBRANCH  29  30
ENDBRANCH  28  29
ENDBRANCH  27  28
ENDBRANCH  26  27
ENDBRANCH  25  26
ENDBRANCH  24  25
ENDBRANCH  23  24
ENDBRANCH  22  23
ENDBRANCH  21  22
ENDBRANCH  20  21
ENDBRANCH  19  20
ENDBRANCH  18  19
ENDBRANCH   1  18
TORSDOF 28
ENDMDL
MODEL 3
REMARK VINA RESULT:     2.467      2.747      6.343
REMARK INTER + INTRA:           4.194
REMARK INTER:                   6.263
REMARK INTRA:                  -2.069
REMARK UNBOUND:                -2.311
REMARK SMILES CCCCCCCCCCCCCCCCCCCCCCCCCCCCCC(=O)[O-]
REMARK SMILES IDX 16 1 17 2 18 3 19 4 20 5 21 6 22 7 23 8 24 9 25 10 26 11
REMARK SMILES IDX 27 12 28 13 29 14 30 15 31 16 32 17 15 18 14 19 13 20 12 21
REMARK SMILES IDX 11 22 10 23 9 24 8 25 7 26 6 27 5 28 4 29 3 30 2 31 1 32
REMARK H PARENT
REMARK Flexibility Score: inf
ROOT
ATOM      1  C   UNL     1      58.663  -2.290  24.346  1.00  0.00     0.000 C 
ENDROOT
BRANCH   1   2
ATOM      2  C   UNL     1      58.147  -2.473  22.904  1.00  0.00     0.000 C 
BRANCH   2   3
ATOM      3  C   UNL     1      58.678  -1.446  21.887  1.00  0.00     0.000 C 
BRANCH   3   4
ATOM      4  C   UNL     1      57.594  -0.662  21.122  1.00  0.00     0.000 C 
BRANCH   4   5
ATOM      5  C   UNL     1      56.351  -1.502  20.759  1.00  0.00     0.000 C 
BRANCH   5   6
ATOM      6  C   UNL     1      55.302  -0.698  19.968  1.00  0.00     0.000 C 
BRANCH   6   7
ATOM      7  C   UNL     1      54.735   0.484  20.771  1.00  0.00     0.000 C 
BRANCH   7   8
ATOM      8  C   UNL     1      53.576   0.074  21.693  1.00  0.00     0.000 C 
BRANCH   8   9
ATOM      9  C   UNL     1      52.689  -0.981  21.020  1.00  0.00     0.000 C 
BRANCH   9  10
ATOM     10  C   UNL     1      51.217  -0.800  21.419  1.00  0.00     0.000 C 
BRANCH  10  11
ATOM     11  C   UNL     1      50.604  -2.076  22.018  1.00  0.00     0.000 C 
BRANCH  11  12
ATOM     12  C   UNL     1      50.999  -2.359  23.481  1.00  0.00     0.000 C 
BRANCH  12  13
ATOM     13  C   UNL     1      49.983  -3.239  24.238  1.00  0.00     0.006 C 
BRANCH  13  14
ATOM     14  C   UNL     1      49.891  -4.656  23.655  1.00  0.00     0.053 C 
BRANCH  14  15
ATOM     15  C   UNL     1      50.807  -5.585  24.386  1.00  0.00     0.041 C 
ATOM     16  O   UNL     1      51.991  -5.237  24.638  1.00  0.00    -0.550 OA
ATOM     17  O   UNL     1      50.338  -6.813  24.836  1.00  0.00    -0.550 OA
ENDBRANCH  14  15
ENDBRANCH  13  14
ENDBRANCH  12  13
ENDBRANCH  11  12
ENDBRANCH  10  11
ENDBRANCH   9  10
ENDBRANCH   8   9
ENDBRANCH   7   8
ENDBRANCH   6   7
ENDBRANCH   5   6
ENDBRANCH   4   5
ENDBRANCH   3   4
ENDBRANCH   2   3
ENDBRANCH   1   2
BRANCH   1  18
ATOM     18  C   UNL     1      58.110  -1.058  25.089  1.00  0.00     0.000 C 
BRANCH  18  19
ATOM     19  C   UNL     1      58.469   0.299  24.455  1.00  0.00     0.000 C 
BRANCH  19  20
ATOM     20  C   UNL     1      57.375   1.357  24.653  1.00  0.00     0.000 C 
BRANCH  20  21
ATOM     21  C   UNL     1      56.195   1.113  23.701  1.00  0.00     0.000 C 
BRANCH  21  22
ATOM     22  C   UNL     1      54.829   1.296  24.384  1.00  0.00     0.000 C 
BRANCH  22  23
ATOM     23  C   UNL     1      54.069   2.581  23.995  1.00  0.00     0.000 C 
BRANCH  23  24
ATOM     24  C   UNL     1      53.081   3.102  25.054  1.00  0.00    -0.000 C 
BRANCH  24  25
ATOM     25  C   UNL     1      51.614   2.877  24.660  1.00  0.00    -0.000 C 
BRANCH  25  26
ATOM     26  C   UNL     1      51.460   1.613  23.806  1.00  0.00    -0.000 C 
BRANCH  26  27
ATOM     27  C   UNL     1      50.312   1.767  22.798  1.00  0.00    -0.000 C 
BRANCH  27  28
ATOM     28  C   UNL     1      50.670   2.680  21.611  1.00  0.00    -0.000 C 
BRANCH  28  29
ATOM     29  C   UNL     1      49.971   2.332  20.284  1.00  0.00    -0.000 C 
BRANCH  29  30
ATOM     30  C   UNL     1      50.959   1.979  19.159  1.00  0.00    -0.000 C 
BRANCH  30  31
ATOM     31  C   UNL     1      50.911   2.984  17.998  1.00  0.00    -0.003 C 
ATOM     32  C   UNL     1      49.877   2.612  16.935  1.00  0.00     0.004 C 
ENDBRANCH  30  31
ENDBRANCH  29  30
ENDBRANCH  28  29
ENDBRANCH  27  28
ENDBRANCH  26  27
ENDBRANCH  25  26
ENDBRANCH  24  25
ENDBRANCH  23  24
ENDBRANCH  22  23
ENDBRANCH  21  22
ENDBRANCH  20  21
ENDBRANCH  19  20
ENDBRANCH  18  19
ENDBRANCH   1  18
TORSDOF 28
ENDMDL
MODEL 4
REMARK VINA RESULT:     2.491      3.161      5.171
REMARK INTER + INTRA:           4.258
REMARK INTER:                   4.022
REMARK INTRA:                   0.235
REMARK UNBOUND:                -2.311
REMARK SMILES CCCCCCCCCCCCCCCCCCCCCCCCCCCCCC(=O)[O-]
REMARK SMILES IDX 16 1 17 2 18 3 19 4 20 5 21 6 22 7 23 8 24 9 25 10 26 11
REMARK SMILES IDX 27 12 28 13 29 14 30 15 31 16 32 17 15 18 14 19 13 20 12 21
REMARK SMILES IDX 11 22 10 23 9 24 8 25 7 26 6 27 5 28 4 29 3 30 2 31 1 32
REMARK H PARENT
REMARK Flexibility Score: inf
ROOT
ATOM      1  C   UNL     1      57.667   0.405  21.129  1.00  0.00     0.000 C 
ENDROOT
BRANCH   1   2
ATOM      2  C   UNL     1      57.105  -1.031  21.107  1.00  0.00     0.000 C 
BRANCH   2   3
ATOM      3  C   UNL     1      56.452  -1.495  22.422  1.00  0.00     0.000 C 
BRANCH   3   4
ATOM      4  C   UNL     1      57.225  -2.588  23.186  1.00  0.00     0.000 C 
BRANCH   4   5
ATOM      5  C   UNL     1      58.629  -2.881  22.613  1.00  0.00     0.000 C 
BRANCH   5   6
ATOM      6  C   UNL     1      59.700  -3.020  23.710  1.00  0.00     0.000 C 
BRANCH   6   7
ATOM      7  C   UNL     1      59.695  -1.841  24.695  1.00  0.00     0.000 C 
BRANCH   7   8
ATOM      8  C   UNL     1      58.831  -0.666  24.210  1.00  0.00     0.000 C 
BRANCH   8   9
ATOM      9  C   UNL     1      59.012   0.556  25.119  1.00  0.00     0.000 C 
BRANCH   9  10
ATOM     10  C   UNL     1      60.471   1.038  25.111  1.00  0.00     0.000 C 
BRANCH  10  11
ATOM     11  C   UNL     1      61.454  -0.061  24.674  1.00  0.00     0.000 C 
BRANCH  11  12
ATOM     12  C   UNL     1      62.939   0.254  24.946  1.00  0.00     0.000 C 
BRANCH  12  13
ATOM     13  C   UNL     1      63.230   1.760  25.122  1.00  0.00     0.006 C 
BRANCH  13  14
ATOM     14  C   UNL     1      64.731   2.073  25.065  1.00  0.00     0.053 C 
BRANCH  14  15
ATOM     15  C   UNL     1      65.068   2.794  23.799  1.00  0.00     0.041 C 
ATOM     16  O   UNL     1      66.259   3.125  23.558  1.00  0.00    -0.550 OA
ATOM     17  O   UNL     1      64.077   3.055  22.862  1.00  0.00    -0.550 OA
ENDBRANCH  14  15
ENDBRANCH  13  14
ENDBRANCH  12  13
ENDBRANCH  11  12
ENDBRANCH  10  11
ENDBRANCH   9  10
ENDBRANCH   8   9
ENDBRANCH   7   8
ENDBRANCH   6   7
ENDBRANCH   5   6
ENDBRANCH   4   5
ENDBRANCH   3   4
ENDBRANCH   2   3
ENDBRANCH   1   2
BRANCH   1  18
ATOM     18  C   UNL     1      56.942   1.378  22.079  1.00  0.00     0.000 C 
BRANCH  18  19
ATOM     19  C   UNL     1      55.661   2.013  21.508  1.00  0.00     0.000 C 
BRANCH  19  20
ATOM     20  C   UNL     1      54.903   2.859  22.539  1.00  0.00     0.000 C 
BRANCH  20  21
ATOM     21  C   UNL     1      54.073   1.970  23.476  1.00  0.00     0.000 C 
BRANCH  21  22
ATOM     22  C   UNL     1      53.420   2.758  24.625  1.00  0.00     0.000 C 
BRANCH  22  23
ATOM     23  C   UNL     1      51.918   2.481  24.837  1.00  0.00     0.000 C 
BRANCH  23  24
ATOM     24  C   UNL     1      51.520   0.994  24.827  1.00  0.00    -0.000 C 
BRANCH  24  25
ATOM     25  C   UNL     1      50.755   0.592  23.558  1.00  0.00    -0.000 C 
BRANCH  25  26
ATOM     26  C   UNL     1      51.048  -0.864  23.175  1.00  0.00    -0.000 C 
BRANCH  26  27
ATOM     27  C   UNL     1      52.508  -1.032  22.729  1.00  0.00    -0.000 C 
BRANCH  27  28
ATOM     28  C   UNL     1      52.849  -0.224  21.463  1.00  0.00    -0.000 C 
BRANCH  28  29
ATOM     29  C   UNL     1      51.635   0.266  20.653  1.00  0.00    -0.000 C 
BRANCH  29  30
ATOM     30  C   UNL     1      51.557  -0.361  19.250  1.00  0.00    -0.000 C 
BRANCH  30  31
ATOM     31  C   UNL     1      50.350  -1.298  19.091  1.00  0.00    -0.003 C 
ATOM     32  C   UNL     1      49.962  -1.992  20.397  1.00  0.00     0.004 C 
ENDBRANCH  30  31
ENDBRANCH  29  30
ENDBRANCH  28  29
ENDBRANCH  27  28
ENDBRANCH  26  27
ENDBRANCH  25  26
ENDBRANCH  24  25
ENDBRANCH  23  24
ENDBRANCH  22  23
ENDBRANCH  21  22
ENDBRANCH  20  21
ENDBRANCH  19  20
ENDBRANCH  18  19
ENDBRANCH   1  18
TORSDOF 28
ENDMDL
MODEL 5
REMARK VINA RESULT:     2.627      2.679      6.157
REMARK INTER + INTRA:           4.617
REMARK INTER:                   4.920
REMARK INTRA:                  -0.303
REMARK UNBOUND:                -2.311
REMARK SMILES CCCCCCCCCCCCCCCCCCCCCCCCCCCCCC(=O)[O-]
REMARK SMILES IDX 16 1 17 2 18 3 19 4 20 5 21 6 22 7 23 8 24 9 25 10 26 11
REMARK SMILES IDX 27 12 28 13 29 14 30 15 31 16 32 17 15 18 14 19 13 20 12 21
REMARK SMILES IDX 11 22 10 23 9 24 8 25 7 26 6 27 5 28 4 29 3 30 2 31 1 32
REMARK H PARENT
REMARK Flexibility Score: inf
ROOT
ATOM      1  C   UNL     1      58.538  -1.140  23.937  1.00  0.00     0.000 C 
ENDROOT
BRANCH   1   2
ATOM      2  C   UNL     1      57.410  -0.090  23.914  1.00  0.00     0.000 C 
BRANCH   2   3
ATOM      3  C   UNL     1      57.396   0.878  25.112  1.00  0.00     0.000 C 
BRANCH   3   4
ATOM      4  C   UNL     1      57.332   2.373  24.744  1.00  0.00     0.000 C 
BRANCH   4   5
ATOM      5  C   UNL     1      55.903   2.957  24.736  1.00  0.00     0.000 C 
BRANCH   5   6
ATOM      6  C   UNL     1      54.835   1.917  25.125  1.00  0.00     0.000 C 
BRANCH   6   7
ATOM      7  C   UNL     1      53.408   2.483  25.058  1.00  0.00     0.000 C 
BRANCH   7   8
ATOM      8  C   UNL     1      52.440   1.563  24.297  1.00  0.00     0.000 C 
BRANCH   8   9
ATOM      9  C   UNL     1      51.056   2.212  24.170  1.00  0.00     0.000 C 
BRANCH   9  10
ATOM     10  C   UNL     1      49.941   1.177  24.384  1.00  0.00     0.000 C 
BRANCH  10  11
ATOM     11  C   UNL     1      50.486  -0.221  24.720  1.00  0.00     0.000 C 
BRANCH  11  12
ATOM     12  C   UNL     1      49.988  -1.349  23.795  1.00  0.00     0.000 C 
BRANCH  12  13
ATOM     13  C   UNL     1      49.877  -2.720  24.495  1.00  0.00     0.006 C 
BRANCH  13  14
ATOM     14  C   UNL     1      49.926  -3.888  23.500  1.00  0.00     0.053 C 
BRANCH  14  15
ATOM     15  C   UNL     1      50.671  -5.044  24.085  1.00  0.00     0.041 C 
ATOM     16  O   UNL     1      51.887  -4.923  24.391  1.00  0.00    -0.550 OA
ATOM     17  O   UNL     1      50.012  -6.240  24.340  1.00  0.00    -0.550 OA
ENDBRANCH  14  15
ENDBRANCH  13  14
ENDBRANCH  12  13
ENDBRANCH  11  12
ENDBRANCH  10  11
ENDBRANCH   9  10
ENDBRANCH   8   9
ENDBRANCH   7   8
ENDBRANCH   6   7
ENDBRANCH   5   6
ENDBRANCH   4   5
ENDBRANCH   3   4
ENDBRANCH   2   3
ENDBRANCH   1   2
BRANCH   1  18
ATOM     18  C   UNL     1      58.679  -1.981  22.653  1.00  0.00     0.000 C 
BRANCH  18  19
ATOM     19  C   UNL     1      57.468  -2.874  22.324  1.00  0.00     0.000 C 
BRANCH  19  20
ATOM     20  C   UNL     1      57.079  -2.829  20.841  1.00  0.00     0.000 C 
BRANCH  20  21
ATOM     21  C   UNL     1      57.400  -1.458  20.229  1.00  0.00     0.000 C 
BRANCH  21  22
ATOM     22  C   UNL     1      56.229  -0.466  20.340  1.00  0.00     0.000 C 
BRANCH  22  23
ATOM     23  C   UNL     1      55.250  -0.735  21.501  1.00  0.00     0.000 C 
BRANCH  23  24
ATOM     24  C   UNL     1      54.955   0.479  22.401  1.00  0.00    -0.000 C 
BRANCH  24  25
ATOM     25  C   UNL     1      53.950   1.454  21.772  1.00  0.00    -0.000 C 
BRANCH  25  26
ATOM     26  C   UNL     1      52.769   0.702  21.146  1.00  0.00    -0.000 C 
BRANCH  26  27
ATOM     27  C   UNL     1      51.467   1.504  21.290  1.00  0.00    -0.000 C 
BRANCH  27  28
ATOM     28  C   UNL     1      50.880   1.949  19.938  1.00  0.00    -0.000 C 
BRANCH  28  29
ATOM     29  C   UNL     1      50.829   0.855  18.856  1.00  0.00    -0.000 C 
BRANCH  29  30
ATOM     30  C   UNL     1      49.890  -0.307  19.220  1.00  0.00    -0.000 C 
BRANCH  30  31
ATOM     31  C   UNL     1      50.607  -1.419  20.002  1.00  0.00    -0.003 C 
ATOM     32  C   UNL     1      49.888  -2.764  19.913  1.00  0.00     0.004 C 
ENDBRANCH  30  31
ENDBRANCH  29  30
ENDBRANCH  28  29
ENDBRANCH  27  28
ENDBRANCH  26  27
ENDBRANCH  25  26
ENDBRANCH  24  25
ENDBRANCH  23  24
ENDBRANCH  22  23
ENDBRANCH  21  22
ENDBRANCH  20  21
ENDBRANCH  19  20
ENDBRANCH  18  19
ENDBRANCH   1  18
TORSDOF 28
ENDMDL
