MODEL 1
REMARK VINA RESULT:    -4.924      0.000      0.000
REMARK INTER + INTRA:         -11.687
REMARK INTER:                  -9.530
REMARK INTRA:                  -2.157
REMARK UNBOUND:                -2.157
REMARK SMILES CCCCCCCCCCCCCCCCCC(=O)[O-]
REMARK SMILES IDX 10 1 11 2 12 3 13 4 14 5 15 6 16 7 17 8 18 9 19 10 20 11
REMARK SMILES IDX 9 12 8 13 7 14 6 15 5 16 4 17 3 18 2 19 1 20
REMARK H PARENT
REMARK Flexibility Score: inf
ROOT
ATOM      1  C   UNL     1       1.902 -35.757  19.436  1.00  0.00     0.000 C 
ENDROOT
BRANCH   1   2
ATOM      2  C   UNL     1       0.583 -35.715  20.228  1.00  0.00     0.000 C 
BRANCH   2   3
ATOM      3  C   UNL     1       0.416 -36.928  21.157  1.00  0.00     0.000 C 
BRANCH   3   4
ATOM      4  C   UNL     1      -1.057 -37.232  21.474  1.00  0.00     0.000 C 
BRANCH   4   5
ATOM      5  C   UNL     1      -1.960 -36.065  21.052  1.00  0.00     0.000 C 
BRANCH   5   6
ATOM      6  C   UNL     1      -2.587 -35.385  22.276  1.00  0.00     0.000 C 
BRANCH   6   7
ATOM      7  C   UNL     1      -1.832 -34.100  22.637  1.00  0.00     0.006 C 
BRANCH   7   8
ATOM      8  C   UNL     1      -2.404 -33.465  23.908  1.00  0.00     0.053 C 
BRANCH   8   9
ATOM      9  C   UNL     1      -1.672 -32.202  24.237  1.00  0.00     0.041 C 
ATOM     10  O   UNL     1      -0.428 -32.222  24.426  1.00  0.00    -0.550 OA
ATOM     11  O   UNL     1      -2.373 -31.010  24.381  1.00  0.00    -0.550 OA
ENDBRANCH   8   9
ENDBRANCH   7   8
ENDBRANCH   6   7
ENDBRANCH   5   6
ENDBRANCH   4   5
ENDBRANCH   3   4
ENDBRANCH   2   3
ENDBRANCH   1   2
BRANCH   1  12
ATOM     12  C   UNL     1       2.028 -37.013  18.554  1.00  0.00     0.000 C 
BRANCH  12  13
ATOM     13  C   UNL     1       3.422 -37.240  17.934  1.00  0.00    -0.000 C 
BRANCH  13  14
ATOM     14  C   UNL     1       4.593 -36.606  18.712  1.00  0.00    -0.000 C 
BRANCH  14  15
ATOM     15  C   UNL     1       5.551 -37.612  19.382  1.00  0.00    -0.000 C 
BRANCH  15  16
ATOM     16  C   UNL     1       5.529 -37.601  20.921  1.00  0.00    -0.000 C 
BRANCH  16  17
ATOM     17  C   UNL     1       4.131 -37.886  21.498  1.00  0.00    -0.000 C 
BRANCH  17  18
ATOM     18  C   UNL     1       3.841 -37.077  22.771  1.00  0.00    -0.000 C 
BRANCH  18  19
ATOM     19  C   UNL     1       3.993 -35.563  22.554  1.00  0.00    -0.003 C 
ATOM     20  C   UNL     1       2.760 -34.811  23.048  1.00  0.00     0.004 C 
ENDBRANCH  18  19
ENDBRANCH  17  18
ENDBRANCH  16  17
ENDBRANCH  15  16
ENDBRANCH  14  15
ENDBRANCH  13  14
ENDBRANCH  12  13
ENDBRANCH   1  12
TORSDOF 16
ENDMDL
MODEL 2
REMARK VINA RESULT:    -4.648     20.564     22.177
REMARK INTER + INTRA:         -11.153
REMARK INTER:                  -9.101
REMARK INTRA:                  -2.052
REMARK UNBOUND:                -2.157
REMARK SMILES CCCCCCCCCCCCCCCCCC(=O)[O-]
REMARK SMILES IDX 10 1 11 2 12 3 13 4 14 5 15 6 16 7 17 8 18 9 19 10 20 11
REMARK SMILES IDX 9 12 8 13 7 14 6 15 5 16 4 17 3 18 2 19 1 20
REMARK H PARENT
REMARK Flexibility Score: inf
ROOT
ATOM      1  C   UNL     1      -8.699 -20.355  33.201  1.00  0.00     0.000 C 
ENDROOT
BRANCH   1   2
ATOM      2  C   UNL     1      -9.962 -20.889  33.899  1.00  0.00     0.000 C 
BRANCH   2   3
ATOM      3  C   UNL     1     -11.101 -19.857  33.924  1.00  0.00     0.000 C 
BRANCH   3   4
ATOM      4  C   UNL     1     -12.232 -20.202  32.942  1.00  0.00     0.000 C 
BRANCH   4   5
ATOM      5  C   UNL     1     -11.833 -19.853  31.502  1.00  0.00     0.000 C 
BRANCH   5   6
ATOM      6  C   UNL     1     -11.289 -18.422  31.414  1.00  0.00     0.000 C 
BRANCH   6   7
ATOM      7  C   UNL     1     -10.752 -18.125  30.009  1.00  0.00     0.006 C 
BRANCH   7   8
ATOM      8  C   UNL     1      -9.538 -19.001  29.686  1.00  0.00     0.053 C 
BRANCH   8   9
ATOM      9  C   UNL     1      -9.772 -19.779  28.430  1.00  0.00     0.041 C 
ATOM     10  O   UNL     1      -9.649 -19.223  27.308  1.00  0.00    -0.550 OA
ATOM     11  O   UNL     1     -10.174 -21.108  28.501  1.00  0.00    -0.550 OA
ENDBRANCH   8   9
ENDBRANCH   7   8
ENDBRANCH   6   7
ENDBRANCH   5   6
ENDBRANCH   4   5
ENDBRANCH   3   4
ENDBRANCH   2   3
ENDBRANCH   1   2
BRANCH   1  12
ATOM     12  C   UNL     1      -8.465 -18.854  33.455  1.00  0.00     0.000 C 
BRANCH  12  13
ATOM     13  C   UNL     1      -7.354 -18.210  32.601  1.00  0.00    -0.000 C 
BRANCH  13  14
ATOM     14  C   UNL     1      -5.965 -18.160  33.267  1.00  0.00    -0.000 C 
BRANCH  14  15
ATOM     15  C   UNL     1      -5.980 -17.923  34.792  1.00  0.00    -0.000 C 
BRANCH  15  16
ATOM     16  C   UNL     1      -4.772 -18.502  35.548  1.00  0.00    -0.000 C 
BRANCH  16  17
ATOM     17  C   UNL     1      -3.922 -19.448  34.680  1.00  0.00    -0.000 C 
BRANCH  17  18
ATOM     18  C   UNL     1      -3.671 -20.805  35.355  1.00  0.00    -0.000 C 
BRANCH  18  19
ATOM     19  C   UNL     1      -4.921 -21.349  36.065  1.00  0.00    -0.003 C 
ATOM     20  C   UNL     1      -5.935 -21.885  35.058  1.00  0.00     0.004 C 
ENDBRANCH  18  19
ENDBRANCH  17  18
ENDBRANCH  16  17
ENDBRANCH  15  16
ENDBRANCH  14  15
ENDBRANCH  13  14
ENDBRANCH  12  13
ENDBRANCH   1  12
TORSDOF 16
ENDMDL
MODEL 3
REMARK VINA RESULT:    -4.552      2.341      6.654
REMARK INTER + INTRA:         -10.967
REMARK INTER:                  -9.065
REMARK INTRA:                  -1.902
REMARK UNBOUND:                -2.157
REMARK SMILES CCCCCCCCCCCCCCCCCC(=O)[O-]
REMARK SMILES IDX 10 1 11 2 12 3 13 4 14 5 15 6 16 7 17 8 18 9 19 10 20 11
REMARK SMILES IDX 9 12 8 13 7 14 6 15 5 16 4 17 3 18 2 19 1 20
REMARK H PARENT
REMARK Flexibility Score: inf
ROOT
ATOM      1  C   UNL     1       0.529 -35.991  20.488  1.00  0.00     0.000 C 
ENDROOT
BRANCH   1   2
ATOM      2  C   UNL     1       1.650 -35.925  19.436  1.00  0.00     0.000 C 
BRANCH   2   3
ATOM      3  C   UNL     1       1.926 -37.288  18.783  1.00  0.00     0.000 C 
BRANCH   3   4
ATOM      4  C   UNL     1       3.115 -37.249  17.810  1.00  0.00     0.000 C 
BRANCH   4   5
ATOM      5  C   UNL     1       4.270 -36.423  18.390  1.00  0.00     0.000 C 
BRANCH   5   6
ATOM      6  C   UNL     1       5.405 -37.333  18.879  1.00  0.00     0.000 C 
BRANCH   6   7
ATOM      7  C   UNL     1       5.789 -37.002  20.326  1.00  0.00     0.006 C 
BRANCH   7   8
ATOM      8  C   UNL     1       4.648 -37.340  21.290  1.00  0.00     0.053 C 
BRANCH   8   9
ATOM      9  C   UNL     1       4.369 -36.184  22.197  1.00  0.00     0.041 C 
ATOM     10  O   UNL     1       3.859 -35.128  21.740  1.00  0.00    -0.550 OA
ATOM     11  O   UNL     1       4.717 -36.257  23.541  1.00  0.00    -0.550 OA
ENDBRANCH   8   9
ENDBRANCH   7   8
ENDBRANCH   6   7
ENDBRANCH   5   6
ENDBRANCH   4   5
ENDBRANCH   3   4
ENDBRANCH   2   3
ENDBRANCH   1   2
BRANCH   1  12
ATOM     12  C   UNL     1       0.725 -37.136  21.498  1.00  0.00     0.000 C 
BRANCH  12  13
ATOM     13  C   UNL     1      -0.458 -38.119  21.611  1.00  0.00    -0.000 C 
BRANCH  13  14
ATOM     14  C   UNL     1      -1.430 -38.112  20.414  1.00  0.00    -0.000 C 
BRANCH  14  15
ATOM     15  C   UNL     1      -2.834 -37.551  20.717  1.00  0.00    -0.000 C 
BRANCH  15  16
ATOM     16  C   UNL     1      -2.899 -36.023  20.885  1.00  0.00    -0.000 C 
BRANCH  16  17
ATOM     17  C   UNL     1      -2.988 -35.588  22.359  1.00  0.00    -0.000 C 
BRANCH  17  18
ATOM     18  C   UNL     1      -2.055 -34.413  22.685  1.00  0.00    -0.000 C 
BRANCH  18  19
ATOM     19  C   UNL     1      -2.755 -33.312  23.497  1.00  0.00    -0.003 C 
ATOM     20  C   UNL     1      -1.737 -32.401  24.179  1.00  0.00     0.004 C 
ENDBRANCH  18  19
ENDBRANCH  17  18
ENDBRANCH  16  17
ENDBRANCH  15  16
ENDBRANCH  14  15
ENDBRANCH  13  14
ENDBRANCH  12  13
ENDBRANCH   1  12
TORSDOF 16
ENDMDL
MODEL 4
REMARK VINA RESULT:    -4.548     20.961     22.975
REMARK INTER + INTRA:         -10.959
REMARK INTER:                  -8.655
REMARK INTRA:                  -2.303
REMARK UNBOUND:                -2.157
REMARK SMILES CCCCCCCCCCCCCCCCCC(=O)[O-]
REMARK SMILES IDX 10 1 11 2 12 3 13 4 14 5 15 6 16 7 17 8 18 9 19 10 20 11
REMARK SMILES IDX 9 12 8 13 7 14 6 15 5 16 4 17 3 18 2 19 1 20
REMARK H PARENT
REMARK Flexibility Score: inf
ROOT
ATOM      1  C   UNL     1     -12.097 -22.184  35.122  1.00  0.00     0.000 C 
ENDROOT
BRANCH   1   2
ATOM      2  C   UNL     1     -10.868 -23.103  35.228  1.00  0.00     0.000 C 
BRANCH   2   3
ATOM      3  C   UNL     1      -9.547 -22.318  35.245  1.00  0.00     0.000 C 
BRANCH   3   4
ATOM      4  C   UNL     1      -9.122 -21.843  33.847  1.00  0.00     0.000 C 
BRANCH   4   5
ATOM      5  C   UNL     1      -7.951 -20.856  33.935  1.00  0.00     0.000 C 
BRANCH   5   6
ATOM      6  C   UNL     1      -8.141 -19.688  32.960  1.00  0.00     0.000 C 
BRANCH   6   7
ATOM      7  C   UNL     1      -6.938 -18.738  33.000  1.00  0.00     0.006 C 
BRANCH   7   8
ATOM      8  C   UNL     1      -5.646 -19.470  32.623  1.00  0.00     0.053 C 
BRANCH   8   9
ATOM      9  C   UNL     1      -4.617 -19.301  33.696  1.00  0.00     0.041 C 
ATOM     10  O   UNL     1      -4.071 -20.310  34.214  1.00  0.00    -0.550 OA
ATOM     11  O   UNL     1      -4.296 -18.030  34.158  1.00  0.00    -0.550 OA
ENDBRANCH   8   9
ENDBRANCH   7   8
ENDBRANCH   6   7
ENDBRANCH   5   6
ENDBRANCH   4   5
ENDBRANCH   3   4
ENDBRANCH   2   3
ENDBRANCH   1   2
BRANCH   1  12
ATOM     12  C   UNL     1     -11.953 -20.894  35.949  1.00  0.00     0.000 C 
BRANCH  12  13
ATOM     13  C   UNL     1     -12.454 -19.612  35.255  1.00  0.00    -0.000 C 
BRANCH  13  14
ATOM     14  C   UNL     1     -11.421 -18.915  34.345  1.00  0.00    -0.000 C 
BRANCH  14  15
ATOM     15  C   UNL     1     -11.842 -18.775  32.868  1.00  0.00    -0.000 C 
BRANCH  15  16
ATOM     16  C   UNL     1     -12.024 -20.107  32.118  1.00  0.00    -0.000 C 
BRANCH  16  17
ATOM     17  C   UNL     1     -11.198 -20.177  30.820  1.00  0.00    -0.000 C 
BRANCH  17  18
ATOM     18  C   UNL     1     -10.736 -18.794  30.339  1.00  0.00    -0.000 C 
BRANCH  18  19
ATOM     19  C   UNL     1      -9.437 -18.860  29.520  1.00  0.00    -0.003 C 
ATOM     20  C   UNL     1      -9.733 -19.051  28.035  1.00  0.00     0.004 C 
ENDBRANCH  18  19
ENDBRANCH  17  18
ENDBRANCH  16  17
ENDBRANCH  15  16
ENDBRANCH  14  15
ENDBRANCH  13  14
ENDBRANCH  12  13
ENDBRANCH   1  12
TORSDOF 16
ENDMDL
MODEL 5
REMARK VINA RESULT:    -4.522     20.967     22.898
REMARK INTER + INTRA:         -10.910
REMARK INTER:                  -8.900
REMARK INTRA:                  -2.009
REMARK UNBOUND:                -2.157
REMARK SMILES CCCCCCCCCCCCCCCCCC(=O)[O-]
REMARK SMILES IDX 10 1 11 2 12 3 13 4 14 5 15 6 16 7 17 8 18 9 19 10 20 11
REMARK SMILES IDX 9 12 8 13 7 14 6 15 5 16 4 17 3 18 2 19 1 20
REMARK H PARENT
REMARK Flexibility Score: inf
ROOT
ATOM      1  C   UNL     1      -9.956 -20.205  30.789  1.00  0.00     0.000 C 
ENDROOT
BRANCH   1   2
ATOM      2  C   UNL     1      -9.208 -19.016  30.162  1.00  0.00     0.000 C 
BRANCH   2   3
ATOM      3  C   UNL     1      -7.907 -18.680  30.909  1.00  0.00     0.000 C 
BRANCH   3   4
ATOM      4  C   UNL     1      -8.160 -17.946  32.236  1.00  0.00     0.000 C 
BRANCH   4   5
ATOM      5  C   UNL     1      -7.726 -18.808  33.429  1.00  0.00     0.000 C 
BRANCH   5   6
ATOM      6  C   UNL     1      -6.276 -19.279  33.268  1.00  0.00     0.000 C 
BRANCH   6   7
ATOM      7  C   UNL     1      -5.464 -19.004  34.540  1.00  0.00     0.006 C 
BRANCH   7   8
ATOM      8  C   UNL     1      -3.961 -19.032  34.251  1.00  0.00     0.053 C 
BRANCH   8   9
ATOM      9  C   UNL     1      -3.350 -20.292  34.777  1.00  0.00     0.041 C 
ATOM     10  O   UNL     1      -2.111 -20.488  34.672  1.00  0.00    -0.550 OA
ATOM     11  O   UNL     1      -4.157 -21.272  35.342  1.00  0.00    -0.550 OA
ENDBRANCH   8   9
ENDBRANCH   7   8
ENDBRANCH   6   7
ENDBRANCH   5   6
ENDBRANCH   4   5
ENDBRANCH   3   4
ENDBRANCH   2   3
ENDBRANCH   1   2
BRANCH   1  12
ATOM     12  C   UNL     1     -11.468 -19.950  30.936  1.00  0.00     0.000 C 
BRANCH  12  13
ATOM     13  C   UNL     1     -12.030 -20.152  32.358  1.00  0.00    -0.000 C 
BRANCH  13  14
ATOM     14  C   UNL     1     -11.505 -19.161  33.416  1.00  0.00    -0.000 C 
BRANCH  14  15
ATOM     15  C   UNL     1     -11.951 -19.453  34.863  1.00  0.00    -0.000 C 
BRANCH  15  16
ATOM     16  C   UNL     1     -12.978 -20.590  35.006  1.00  0.00    -0.000 C 
BRANCH  16  17
ATOM     17  C   UNL     1     -12.496 -21.714  35.941  1.00  0.00    -0.000 C 
BRANCH  17  18
ATOM     18  C   UNL     1     -11.669 -22.779  35.205  1.00  0.00    -0.000 C 
BRANCH  18  19
ATOM     19  C   UNL     1     -10.170 -22.688  35.529  1.00  0.00    -0.003 C 
ATOM     20  C   UNL     1      -9.384 -22.138  34.340  1.00  0.00     0.004 C 
ENDBRANCH  18  19
ENDBRANCH  17  18
ENDBRANCH  16  17
ENDBRANCH  15  16
ENDBRANCH  14  15
ENDBRANCH  13  14
ENDBRANCH  12  13
ENDBRANCH   1  12
TORSDOF 16
ENDMDL
MODEL 6
REMARK VINA RESULT:    -4.519      2.760      7.336
REMARK INTER + INTRA:         -10.903
REMARK INTER:                  -9.230
REMARK INTRA:                  -1.673
REMARK UNBOUND:                -2.157
REMARK SMILES CCCCCCCCCCCCCCCCCC(=O)[O-]
REMARK SMILES IDX 10 1 11 2 12 3 13 4 14 5 15 6 16 7 17 8 18 9 19 10 20 11
REMARK SMILES IDX 9 12 8 13 7 14 6 15 5 16 4 17 3 18 2 19 1 20
REMARK H PARENT
REMARK Flexibility Score: inf
ROOT
ATOM      1  C   UNL     1       1.081 -37.524  19.807  1.00  0.00     0.000 C 
ENDROOT
BRANCH   1   2
ATOM      2  C   UNL     1       1.904 -36.348  19.253  1.00  0.00     0.000 C 
BRANCH   2   3
ATOM      3  C   UNL     1       2.988 -36.803  18.264  1.00  0.00     0.000 C 
BRANCH   3   4
ATOM      4  C   UNL     1       3.655 -38.123  18.683  1.00  0.00     0.000 C 
BRANCH   4   5
ATOM      5  C   UNL     1       5.177 -38.050  18.502  1.00  0.00     0.000 C 
BRANCH   5   6
ATOM      6  C   UNL     1       5.798 -37.034  19.469  1.00  0.00     0.000 C 
BRANCH   6   7
ATOM      7  C   UNL     1       6.116 -37.686  20.820  1.00  0.00     0.006 C 
BRANCH   7   8
ATOM      8  C   UNL     1       5.855 -36.716  21.975  1.00  0.00     0.053 C 
BRANCH   8   9
ATOM      9  C   UNL     1       4.385 -36.568  22.212  1.00  0.00     0.041 C 
ATOM     10  O   UNL     1       3.815 -35.467  21.991  1.00  0.00    -0.550 OA
ATOM     11  O   UNL     1       3.653 -37.633  22.723  1.00  0.00    -0.550 OA
ENDBRANCH   8   9
ENDBRANCH   7   8
ENDBRANCH   6   7
ENDBRANCH   5   6
ENDBRANCH   4   5
ENDBRANCH   3   4
ENDBRANCH   2   3
ENDBRANCH   1   2
BRANCH   1  12
ATOM     12  C   UNL     1       0.544 -37.261  21.226  1.00  0.00     0.000 C 
BRANCH  12  13
ATOM     13  C   UNL     1       0.103 -35.809  21.501  1.00  0.00    -0.000 C 
BRANCH  13  14
ATOM     14  C   UNL     1      -1.321 -35.458  21.026  1.00  0.00    -0.000 C 
BRANCH  14  15
ATOM     15  C   UNL     1      -2.452 -35.875  21.989  1.00  0.00    -0.000 C 
BRANCH  15  16
ATOM     16  C   UNL     1      -3.116 -37.224  21.662  1.00  0.00    -0.000 C 
BRANCH  16  17
ATOM     17  C   UNL     1      -3.022 -37.588  20.169  1.00  0.00    -0.000 C 
BRANCH  17  18
ATOM     18  C   UNL     1      -4.401 -37.776  19.519  1.00  0.00    -0.000 C 
BRANCH  18  19
ATOM     19  C   UNL     1      -4.382 -37.504  18.007  1.00  0.00    -0.003 C 
ATOM     20  C   UNL     1      -4.919 -36.110  17.693  1.00  0.00     0.004 C 
ENDBRANCH  18  19
ENDBRANCH  17  18
ENDBRANCH  16  17
ENDBRANCH  15  16
ENDBRANCH  14  15
ENDBRANCH  13  14
ENDBRANCH  12  13
ENDBRANCH   1  12
TORSDOF 16
ENDMDL
MODEL 7
REMARK VINA RESULT:    -4.458     20.800     22.731
REMARK INTER + INTRA:         -10.785
REMARK INTER:                  -9.021
REMARK INTRA:                  -1.764
REMARK UNBOUND:                -2.157
REMARK SMILES CCCCCCCCCCCCCCCCCC(=O)[O-]
REMARK SMILES IDX 10 1 11 2 12 3 13 4 14 5 15 6 16 7 17 8 18 9 19 10 20 11
REMARK SMILES IDX 9 12 8 13 7 14 6 15 5 16 4 17 3 18 2 19 1 20
REMARK H PARENT
REMARK Flexibility Score: inf
ROOT
ATOM      1  C   UNL     1      -9.409 -22.362  34.836  1.00  0.00     0.000 C 
ENDROOT
BRANCH   1   2
ATOM      2  C   UNL     1      -9.109 -21.492  33.603  1.00  0.00     0.000 C 
BRANCH   2   3
ATOM      3  C   UNL     1      -7.856 -20.622  33.788  1.00  0.00     0.000 C 
BRANCH   3   4
ATOM      4  C   UNL     1      -7.936 -19.296  33.014  1.00  0.00     0.000 C 
BRANCH   4   5
ATOM      5  C   UNL     1      -6.578 -18.584  33.004  1.00  0.00     0.000 C 
BRANCH   5   6
ATOM      6  C   UNL     1      -6.259 -17.990  34.382  1.00  0.00     0.000 C 
BRANCH   6   7
ATOM      7  C   UNL     1      -4.803 -18.269  34.776  1.00  0.00     0.006 C 
BRANCH   7   8
ATOM      8  C   UNL     1      -4.228 -19.436  33.970  1.00  0.00     0.053 C 
BRANCH   8   9
ATOM      9  C   UNL     1      -3.661 -20.476  34.884  1.00  0.00     0.041 C 
ATOM     10  O   UNL     1      -4.405 -21.369  35.366  1.00  0.00    -0.550 OA
ATOM     11  O   UNL     1      -2.319 -20.428  35.242  1.00  0.00    -0.550 OA
ENDBRANCH   8   9
ENDBRANCH   7   8
ENDBRANCH   6   7
ENDBRANCH   5   6
ENDBRANCH   4   5
ENDBRANCH   3   4
ENDBRANCH   2   3
ENDBRANCH   1   2
BRANCH   1  12
ATOM     12  C   UNL     1     -10.895 -22.337  35.237  1.00  0.00     0.000 C 
BRANCH  12  13
ATOM     13  C   UNL     1     -11.518 -20.931  35.355  1.00  0.00    -0.000 C 
BRANCH  13  14
ATOM     14  C   UNL     1     -12.603 -20.607  34.308  1.00  0.00    -0.000 C 
BRANCH  14  15
ATOM     15  C   UNL     1     -12.190 -19.578  33.236  1.00  0.00    -0.000 C 
BRANCH  15  16
ATOM     16  C   UNL     1     -11.952 -20.164  31.833  1.00  0.00    -0.000 C 
BRANCH  16  17
ATOM     17  C   UNL     1     -11.149 -19.220  30.921  1.00  0.00    -0.000 C 
BRANCH  17  18
ATOM     18  C   UNL     1     -10.156 -19.970  30.021  1.00  0.00    -0.000 C 
BRANCH  18  19
ATOM     19  C   UNL     1      -9.276 -19.020  29.194  1.00  0.00    -0.003 C 
ATOM     20  C   UNL     1      -9.679 -19.041  27.721  1.00  0.00     0.004 C 
ENDBRANCH  18  19
ENDBRANCH  17  18
ENDBRANCH  16  17
ENDBRANCH  15  16
ENDBRANCH  14  15
ENDBRANCH  13  14
ENDBRANCH  12  13
ENDBRANCH   1  12
TORSDOF 16
ENDMDL
MODEL 8
REMARK VINA RESULT:    -4.373     20.641     22.082
REMARK INTER + INTRA:         -10.621
REMARK INTER:                  -8.615
REMARK INTRA:                  -2.007
REMARK UNBOUND:                -2.157
REMARK SMILES CCCCCCCCCCCCCCCCCC(=O)[O-]
REMARK SMILES IDX 10 1 11 2 12 3 13 4 14 5 15 6 16 7 17 8 18 9 19 10 20 11
REMARK SMILES IDX 9 12 8 13 7 14 6 15 5 16 4 17 3 18 2 19 1 20
REMARK H PARENT
REMARK Flexibility Score: inf
ROOT
ATOM      1  C   UNL     1      -8.712 -21.368  33.674  1.00  0.00     0.000 C 
ENDROOT
BRANCH   1   2
ATOM      2  C   UNL     1     -10.119 -21.379  34.296  1.00  0.00     0.000 C 
BRANCH   2   3
ATOM      3  C   UNL     1     -10.875 -20.061  34.065  1.00  0.00     0.000 C 
BRANCH   3   4
ATOM      4  C   UNL     1     -12.177 -20.257  33.272  1.00  0.00     0.000 C 
BRANCH   4   5
ATOM      5  C   UNL     1     -12.040 -19.701  31.848  1.00  0.00     0.000 C 
BRANCH   5   6
ATOM      6  C   UNL     1     -11.232 -18.398  31.842  1.00  0.00     0.000 C 
BRANCH   6   7
ATOM      7  C   UNL     1     -10.553 -18.178  30.485  1.00  0.00     0.006 C 
BRANCH   7   8
ATOM      8  C   UNL     1      -9.656 -19.365  30.120  1.00  0.00     0.053 C 
BRANCH   8   9
ATOM      9  C   UNL     1      -9.914 -19.803  28.713  1.00  0.00     0.041 C 
ATOM     10  O   UNL     1      -9.869 -18.969  27.772  1.00  0.00    -0.550 OA
ATOM     11  O   UNL     1     -10.249 -21.125  28.448  1.00  0.00    -0.550 OA
ENDBRANCH   8   9
ENDBRANCH   7   8
ENDBRANCH   6   7
ENDBRANCH   5   6
ENDBRANCH   4   5
ENDBRANCH   3   4
ENDBRANCH   2   3
ENDBRANCH   1   2
BRANCH   1  12
ATOM     12  C   UNL     1      -7.643 -21.972  34.603  1.00  0.00     0.000 C 
BRANCH  12  13
ATOM     13  C   UNL     1      -6.200 -21.500  34.334  1.00  0.00    -0.000 C 
BRANCH  13  14
ATOM     14  C   UNL     1      -5.223 -21.680  35.514  1.00  0.00    -0.000 C 
BRANCH  14  15
ATOM     15  C   UNL     1      -4.064 -20.663  35.563  1.00  0.00    -0.000 C 
BRANCH  15  16
ATOM     16  C   UNL     1      -4.483 -19.194  35.374  1.00  0.00    -0.000 C 
BRANCH  16  17
ATOM     17  C   UNL     1      -3.958 -18.589  34.061  1.00  0.00    -0.000 C 
BRANCH  17  18
ATOM     18  C   UNL     1      -5.076 -17.978  33.203  1.00  0.00    -0.000 C 
BRANCH  18  19
ATOM     19  C   UNL     1      -6.421 -17.921  33.942  1.00  0.00    -0.003 C 
ATOM     20  C   UNL     1      -7.589 -17.928  32.959  1.00  0.00     0.004 C 
ENDBRANCH  18  19
ENDBRANCH  17  18
ENDBRANCH  16  17
ENDBRANCH  15  16
ENDBRANCH  14  15
ENDBRANCH  13  14
ENDBRANCH  12  13
ENDBRANCH   1  12
TORSDOF 16
ENDMDL
MODEL 9
REMARK VINA RESULT:    -4.196     20.919     22.657
REMARK INTER + INTRA:         -10.278
REMARK INTER:                  -8.441
REMARK INTRA:                  -1.837
REMARK UNBOUND:                -2.157
REMARK SMILES CCCCCCCCCCCCCCCCCC(=O)[O-]
REMARK SMILES IDX 10 1 11 2 12 3 13 4 14 5 15 6 16 7 17 8 18 9 19 10 20 11
REMARK SMILES IDX 9 12 8 13 7 14 6 15 5 16 4 17 3 18 2 19 1 20
REMARK H PARENT
REMARK Flexibility Score: inf
ROOT
ATOM      1  C   UNL     1     -10.173 -20.150  30.161  1.00  0.00     0.000 C 
ENDROOT
BRANCH   1   2
ATOM      2  C   UNL     1     -11.298 -20.170  31.209  1.00  0.00     0.000 C 
BRANCH   2   3
ATOM      3  C   UNL     1     -11.453 -18.823  31.933  1.00  0.00     0.000 C 
BRANCH   3   4
ATOM      4  C   UNL     1     -11.912 -18.984  33.391  1.00  0.00     0.000 C 
BRANCH   4   5
ATOM      5  C   UNL     1     -13.406 -19.324  33.460  1.00  0.00     0.000 C 
BRANCH   5   6
ATOM      6  C   UNL     1     -13.916 -19.269  34.905  1.00  0.00     0.000 C 
BRANCH   6   7
ATOM      7  C   UNL     1     -12.977 -20.029  35.849  1.00  0.00     0.006 C 
BRANCH   7   8
ATOM      8  C   UNL     1     -13.353 -21.512  35.923  1.00  0.00     0.053 C 
BRANCH   8   9
ATOM      9  C   UNL     1     -12.176 -22.369  35.578  1.00  0.00     0.041 C 
ATOM     10  O   UNL     1     -11.048 -21.846  35.380  1.00  0.00    -0.550 OA
ATOM     11  O   UNL     1     -12.336 -23.741  35.430  1.00  0.00    -0.550 OA
ENDBRANCH   8   9
ENDBRANCH   7   8
ENDBRANCH   6   7
ENDBRANCH   5   6
ENDBRANCH   4   5
ENDBRANCH   3   4
ENDBRANCH   2   3
ENDBRANCH   1   2
BRANCH   1  12
ATOM     12  C   UNL     1      -9.537 -18.757  29.994  1.00  0.00     0.000 C 
BRANCH  12  13
ATOM     13  C   UNL     1      -8.063 -18.654  30.437  1.00  0.00    -0.000 C 
BRANCH  13  14
ATOM     14  C   UNL     1      -7.851 -18.262  31.914  1.00  0.00    -0.000 C 
BRANCH  14  15
ATOM     15  C   UNL     1      -7.307 -19.389  32.816  1.00  0.00    -0.000 C 
BRANCH  15  16
ATOM     16  C   UNL     1      -8.385 -20.266  33.478  1.00  0.00    -0.000 C 
BRANCH  16  17
ATOM     17  C   UNL     1      -7.801 -21.514  34.163  1.00  0.00    -0.000 C 
BRANCH  17  18
ATOM     18  C   UNL     1      -6.265 -21.514  34.180  1.00  0.00    -0.000 C 
BRANCH  18  19
ATOM     19  C   UNL     1      -5.691 -21.960  35.534  1.00  0.00    -0.003 C 
ATOM     20  C   UNL     1      -4.335 -21.308  35.797  1.00  0.00     0.004 C 
ENDBRANCH  18  19
ENDBRANCH  17  18
ENDBRANCH  16  17
ENDBRANCH  15  16
ENDBRANCH  14  15
ENDBRANCH  13  14
ENDBRANCH  12  13
ENDBRANCH   1  12
TORSDOF 16
ENDMDL
