MODEL 1
REMARK VINA RESULT:    -5.633      0.000      0.000
REMARK INTER + INTRA:          -6.595
REMARK INTER:                  -6.456
REMARK INTRA:                  -0.139
REMARK UNBOUND:                -0.139
REMARK SMILES O=C([O-])C=Cc1ccc(O)cc1
REMARK SMILES IDX 6 1 7 2 12 3 8 4 11 5 9 6 5 7 4 8 2 9 1 10 3 11 10 12
REMARK H PARENT 10 13
REMARK Flexibility Score: inf
ROOT
ATOM      1  C   UNL     1      31.306   8.752 105.704  1.00  0.00    -0.025 A 
ATOM      2  C   UNL     1      31.695   8.089 106.885  1.00  0.00     0.012 A 
ATOM      3  C   UNL     1      30.737   8.002 104.661  1.00  0.00     0.012 A 
ATOM      4  C   UNL     1      31.494   6.712 107.022  1.00  0.00     0.047 A 
ATOM      5  C   UNL     1      30.537   6.625 104.802  1.00  0.00     0.047 A 
ATOM      6  C   UNL     1      30.912   5.977 105.981  1.00  0.00     0.115 A 
ENDROOT
BRANCH   1   7
ATOM      7  C   UNL     1      31.507  10.209 105.503  1.00  0.00     0.010 C 
ATOM      8  C   UNL     1      30.504  11.091 105.385  1.00  0.00     0.025 C 
BRANCH   8   9
ATOM      9  C   UNL     1      30.741  12.528 105.175  1.00  0.00     0.064 C 
ATOM     10  O   UNL     1      29.789  13.354 105.173  1.00  0.00    -0.545 OA
ATOM     11  O   UNL     1      32.038  12.984 104.974  1.00  0.00    -0.545 OA
ENDBRANCH   8   9
ENDBRANCH   1   7
BRANCH   6  12
ATOM     12  O   UNL     1      30.706   4.605 106.108  1.00  0.00    -0.508 OA
ATOM     13  H   UNL     1      30.638   4.161 107.016  1.00  0.00     0.293 HD
ENDBRANCH   6  12
TORSDOF 3
ENDMDL
MODEL 2
REMARK VINA RESULT:    -5.445      1.483      2.363
REMARK INTER + INTRA:          -6.380
REMARK INTER:                  -6.246
REMARK INTRA:                  -0.134
REMARK UNBOUND:                -0.139
REMARK SMILES O=C([O-])C=Cc1ccc(O)cc1
REMARK SMILES IDX 6 1 7 2 12 3 8 4 11 5 9 6 5 7 4 8 2 9 1 10 3 11 10 12
REMARK H PARENT 10 13
REMARK Flexibility Score: inf
ROOT
ATOM      1  C   UNL     1      31.563   7.475 106.796  1.00  0.00    -0.025 A 
ATOM      2  C   UNL     1      31.017   6.431 106.022  1.00  0.00     0.012 A 
ATOM      3  C   UNL     1      32.485   7.157 107.808  1.00  0.00     0.012 A 
ATOM      4  C   UNL     1      31.408   5.107 106.244  1.00  0.00     0.047 A 
ATOM      5  C   UNL     1      32.872   5.832 108.027  1.00  0.00     0.047 A 
ATOM      6  C   UNL     1      32.339   4.804 107.246  1.00  0.00     0.115 A 
ENDROOT
BRANCH   1   7
ATOM      7  C   UNL     1      31.176   8.895 106.609  1.00  0.00     0.010 C 
ATOM      8  C   UNL     1      31.039   9.480 105.409  1.00  0.00     0.025 C 
BRANCH   8   9
ATOM      9  C   UNL     1      30.664  10.895 105.262  1.00  0.00     0.064 C 
ATOM     10  O   UNL     1      29.474  11.275 105.425  1.00  0.00    -0.545 OA
ATOM     11  O   UNL     1      31.639  11.829 104.937  1.00  0.00    -0.545 OA
ENDBRANCH   8   9
ENDBRANCH   1   7
BRANCH   6  12
ATOM     12  O   UNL     1      32.734   3.489 107.475  1.00  0.00    -0.508 OA
ATOM     13  H   UNL     1      32.701   3.079 108.401  1.00  0.00     0.293 HD
ENDBRANCH   6  12
TORSDOF 3
ENDMDL
MODEL 3
REMARK VINA RESULT:    -5.191      1.377      1.753
REMARK INTER + INTRA:          -6.089
REMARK INTER:                  -5.951
REMARK INTRA:                  -0.138
REMARK UNBOUND:                -0.139
REMARK SMILES O=C([O-])C=Cc1ccc(O)cc1
REMARK SMILES IDX 6 1 7 2 12 3 8 4 11 5 9 6 5 7 4 8 2 9 1 10 3 11 10 12
REMARK H PARENT 10 13
REMARK Flexibility Score: inf
ROOT
ATOM      1  C   UNL     1      31.659   8.818 105.763  1.00  0.00    -0.025 A 
ATOM      2  C   UNL     1      32.032   8.178 106.962  1.00  0.00     0.012 A 
ATOM      3  C   UNL     1      30.914   8.098 104.814  1.00  0.00     0.012 A 
ATOM      4  C   UNL     1      31.645   6.857 107.209  1.00  0.00     0.047 A 
ATOM      5  C   UNL     1      30.529   6.778 105.065  1.00  0.00     0.047 A 
ATOM      6  C   UNL     1      30.889   6.155 106.261  1.00  0.00     0.115 A 
ENDROOT
BRANCH   1   7
ATOM      7  C   UNL     1      32.054  10.214 105.446  1.00  0.00     0.010 C 
ATOM      8  C   UNL     1      33.324  10.612 105.287  1.00  0.00     0.025 C 
BRANCH   8   9
ATOM      9  C   UNL     1      33.678  12.008 104.984  1.00  0.00     0.064 C 
ATOM     10  O   UNL     1      32.808  12.920 105.000  1.00  0.00    -0.545 OA
ATOM     11  O   UNL     1      34.994  12.327 104.674  1.00  0.00    -0.545 OA
ENDBRANCH   8   9
ENDBRANCH   1   7
BRANCH   6  12
ATOM     12  O   UNL     1      30.497   4.839 106.498  1.00  0.00    -0.508 OA
ATOM     13  H   UNL     1      29.967   4.313 105.814  1.00  0.00     0.293 HD
ENDBRANCH   6  12
TORSDOF 3
ENDMDL
MODEL 4
REMARK VINA RESULT:    -5.119      1.465      2.505
REMARK INTER + INTRA:          -6.006
REMARK INTER:                  -5.868
REMARK INTRA:                  -0.138
REMARK UNBOUND:                -0.139
REMARK SMILES O=C([O-])C=Cc1ccc(O)cc1
REMARK SMILES IDX 6 1 7 2 12 3 8 4 11 5 9 6 5 7 4 8 2 9 1 10 3 11 10 12
REMARK H PARENT 10 13
REMARK Flexibility Score: inf
ROOT
ATOM      1  C   UNL     1      31.729   8.838 105.743  1.00  0.00    -0.025 A 
ATOM      2  C   UNL     1      30.951   8.152 104.788  1.00  0.00     0.012 A 
ATOM      3  C   UNL     1      32.038   8.195 106.954  1.00  0.00     0.012 A 
ATOM      4  C   UNL     1      30.518   6.846 105.035  1.00  0.00     0.047 A 
ATOM      5  C   UNL     1      31.603   6.888 107.196  1.00  0.00     0.047 A 
ATOM      6  C   UNL     1      30.846   6.210 106.239  1.00  0.00     0.115 A 
ENDROOT
BRANCH   1   7
ATOM      7  C   UNL     1      32.205  10.229 105.537  1.00  0.00     0.010 C 
ATOM      8  C   UNL     1      33.492  10.557 105.348  1.00  0.00     0.025 C 
BRANCH   8   9
ATOM      9  C   UNL     1      33.928  11.949 105.158  1.00  0.00     0.064 C 
ATOM     10  O   UNL     1      35.137  12.278 105.290  1.00  0.00    -0.545 OA
ATOM     11  O   UNL     1      32.990  12.920 104.829  1.00  0.00    -0.545 OA
ENDBRANCH   8   9
ENDBRANCH   1   7
BRANCH   6  12
ATOM     12  O   UNL     1      30.420   4.908 106.494  1.00  0.00    -0.508 OA
ATOM     13  H   UNL     1      29.831   4.406 105.841  1.00  0.00     0.293 HD
ENDBRANCH   6  12
TORSDOF 3
ENDMDL
MODEL 5
REMARK VINA RESULT:    -5.029      3.364      3.868
REMARK INTER + INTRA:          -5.903
REMARK INTER:                  -5.760
REMARK INTRA:                  -0.143
REMARK UNBOUND:                -0.139
REMARK SMILES O=C([O-])C=Cc1ccc(O)cc1
REMARK SMILES IDX 6 1 7 2 12 3 8 4 11 5 9 6 5 7 4 8 2 9 1 10 3 11 10 12
REMARK H PARENT 10 13
REMARK Flexibility Score: inf
ROOT
ATOM      1  C   UNL     1      33.086   7.763 107.738  1.00  0.00    -0.025 A 
ATOM      2  C   UNL     1      33.217   6.458 108.255  1.00  0.00     0.012 A 
ATOM      3  C   UNL     1      32.066   8.024 106.807  1.00  0.00     0.012 A 
ATOM      4  C   UNL     1      32.329   5.451 107.865  1.00  0.00     0.047 A 
ATOM      5  C   UNL     1      31.181   7.014 106.420  1.00  0.00     0.047 A 
ATOM      6  C   UNL     1      31.307   5.728 106.948  1.00  0.00     0.115 A 
ENDROOT
BRANCH   1   7
ATOM      7  C   UNL     1      34.008   8.866 108.110  1.00  0.00     0.010 C 
ATOM      8  C   UNL     1      34.725   9.570 107.222  1.00  0.00     0.025 C 
BRANCH   8   9
ATOM      9  C   UNL     1      35.638  10.650 107.629  1.00  0.00     0.064 C 
ATOM     10  O   UNL     1      35.558  11.176 108.772  1.00  0.00    -0.545 OA
ATOM     11  O   UNL     1      36.604  11.100 106.739  1.00  0.00    -0.545 OA
ENDBRANCH   8   9
ENDBRANCH   1   7
BRANCH   6  12
ATOM     12  O   UNL     1      30.417   4.731 106.554  1.00  0.00    -0.508 OA
ATOM     13  H   UNL     1      29.847   4.233 107.227  1.00  0.00     0.293 HD
ENDBRANCH   6  12
TORSDOF 3
ENDMDL
MODEL 6
REMARK VINA RESULT:    -4.681      3.788      5.429
REMARK INTER + INTRA:          -5.504
REMARK INTER:                  -5.365
REMARK INTRA:                  -0.139
REMARK UNBOUND:                -0.139
REMARK SMILES O=C([O-])C=Cc1ccc(O)cc1
REMARK SMILES IDX 6 1 7 2 12 3 8 4 11 5 9 6 5 7 4 8 2 9 1 10 3 11 10 12
REMARK H PARENT 10 13
REMARK Flexibility Score: inf
ROOT
ATOM      1  C   UNL     1      32.203  12.621 104.983  1.00  0.00    -0.025 A 
ATOM      2  C   UNL     1      31.829  11.265 105.080  1.00  0.00     0.012 A 
ATOM      3  C   UNL     1      31.219  13.609 105.154  1.00  0.00     0.012 A 
ATOM      4  C   UNL     1      30.506  10.915 105.367  1.00  0.00     0.047 A 
ATOM      5  C   UNL     1      29.898  13.255 105.441  1.00  0.00     0.047 A 
ATOM      6  C   UNL     1      29.537  11.910 105.551  1.00  0.00     0.115 A 
ENDROOT
BRANCH   1   7
ATOM      7  C   UNL     1      33.590  13.047 104.669  1.00  0.00     0.010 C 
ATOM      8  C   UNL     1      34.595  12.193 104.424  1.00  0.00     0.025 C 
BRANCH   8   9
ATOM      9  C   UNL     1      35.962  12.653 104.128  1.00  0.00     0.064 C 
ATOM     10  O   UNL     1      36.951  12.215 104.774  1.00  0.00    -0.545 OA
ATOM     11  O   UNL     1      36.165  13.587 103.120  1.00  0.00    -0.545 OA
ENDBRANCH   8   9
ENDBRANCH   1   7
BRANCH   6  12
ATOM     12  O   UNL     1      28.217  11.571 105.838  1.00  0.00    -0.508 OA
ATOM     13  H   UNL     1      27.544  12.268 106.133  1.00  0.00     0.293 HD
ENDBRANCH   6  12
TORSDOF 3
ENDMDL
MODEL 7
REMARK VINA RESULT:    -4.605      1.324      5.854
REMARK INTER + INTRA:          -5.417
REMARK INTER:                  -5.275
REMARK INTRA:                  -0.142
REMARK UNBOUND:                -0.139
REMARK SMILES O=C([O-])C=Cc1ccc(O)cc1
REMARK SMILES IDX 6 1 7 2 12 3 8 4 11 5 9 6 5 7 4 8 2 9 1 10 3 11 10 12
REMARK H PARENT 10 13
REMARK Flexibility Score: inf
ROOT
ATOM      1  C   UNL     1      31.672   9.581 105.575  1.00  0.00    -0.025 A 
ATOM      2  C   UNL     1      30.652  10.533 105.370  1.00  0.00     0.012 A 
ATOM      3  C   UNL     1      33.012   9.990 105.470  1.00  0.00     0.012 A 
ATOM      4  C   UNL     1      30.974  11.865 105.091  1.00  0.00     0.047 A 
ATOM      5  C   UNL     1      33.329  11.323 105.192  1.00  0.00     0.047 A 
ATOM      6  C   UNL     1      32.314  12.264 105.005  1.00  0.00     0.115 A 
ENDROOT
BRANCH   1   7
ATOM      7  C   UNL     1      31.385   8.153 105.862  1.00  0.00     0.010 C 
ATOM      8  C   UNL     1      31.837   7.505 106.946  1.00  0.00     0.025 C 
BRANCH   8   9
ATOM      9  C   UNL     1      31.542   6.085 107.192  1.00  0.00     0.064 C 
ATOM     10  O   UNL     1      31.023   5.362 106.300  1.00  0.00    -0.545 OA
ATOM     11  O   UNL     1      31.837   5.530 108.431  1.00  0.00    -0.545 OA
ENDBRANCH   8   9
ENDBRANCH   1   7
BRANCH   6  12
ATOM     12  O   UNL     1      32.645  13.588 104.728  1.00  0.00    -0.508 OA
ATOM     13  H   UNL     1      32.959  14.219 105.456  1.00  0.00     0.293 HD
ENDBRANCH   6  12
TORSDOF 3
ENDMDL
MODEL 8
REMARK VINA RESULT:    -4.449      4.161      6.774
REMARK INTER + INTRA:          -5.238
REMARK INTER:                  -5.099
REMARK INTRA:                  -0.139
REMARK UNBOUND:                -0.139
REMARK SMILES O=C([O-])C=Cc1ccc(O)cc1
REMARK SMILES IDX 6 1 7 2 12 3 8 4 11 5 9 6 5 7 4 8 2 9 1 10 3 11 10 12
REMARK H PARENT 10 13
REMARK Flexibility Score: inf
ROOT
ATOM      1  C   UNL     1      35.134   9.769 107.557  1.00  0.00    -0.025 A 
ATOM      2  C   UNL     1      35.477  10.879 108.354  1.00  0.00     0.012 A 
ATOM      3  C   UNL     1      35.527   9.757 106.207  1.00  0.00     0.012 A 
ATOM      4  C   UNL     1      36.216  11.936 107.815  1.00  0.00     0.047 A 
ATOM      5  C   UNL     1      36.266  10.816 105.672  1.00  0.00     0.047 A 
ATOM      6  C   UNL     1      36.615  11.906 106.473  1.00  0.00     0.115 A 
ENDROOT
BRANCH   1   7
ATOM      7  C   UNL     1      34.342   8.626 108.076  1.00  0.00     0.010 C 
ATOM      8  C   UNL     1      33.123   8.295 107.623  1.00  0.00     0.025 C 
BRANCH   8   9
ATOM      9  C   UNL     1      32.362   7.161 108.170  1.00  0.00     0.064 C 
ATOM     10  O   UNL     1      32.796   5.981 108.083  1.00  0.00    -0.545 OA
ATOM     11  O   UNL     1      31.143   7.394 108.792  1.00  0.00    -0.545 OA
ENDBRANCH   8   9
ENDBRANCH   1   7
BRANCH   6  12
ATOM     12  O   UNL     1      37.352  12.953 105.926  1.00  0.00    -0.508 OA
ATOM     13  H   UNL     1      38.328  12.842 105.678  1.00  0.00     0.293 HD
ENDBRANCH   6  12
TORSDOF 3
ENDMDL
MODEL 9
REMARK VINA RESULT:    -4.419      3.930      4.830
REMARK INTER + INTRA:          -5.204
REMARK INTER:                  -5.064
REMARK INTRA:                  -0.140
REMARK UNBOUND:                -0.139
REMARK SMILES O=C([O-])C=Cc1ccc(O)cc1
REMARK SMILES IDX 6 1 7 2 12 3 8 4 11 5 9 6 5 7 4 8 2 9 1 10 3 11 10 12
REMARK H PARENT 10 13
REMARK Flexibility Score: inf
ROOT
ATOM      1  C   UNL     1      34.339   9.600 106.531  1.00  0.00    -0.025 A 
ATOM      2  C   UNL     1      33.192   9.670 105.714  1.00  0.00     0.012 A 
ATOM      3  C   UNL     1      34.311   8.775 107.669  1.00  0.00     0.012 A 
ATOM      4  C   UNL     1      32.058   8.913 106.021  1.00  0.00     0.047 A 
ATOM      5  C   UNL     1      33.175   8.019 107.972  1.00  0.00     0.047 A 
ATOM      6  C   UNL     1      32.047   8.083 107.150  1.00  0.00     0.115 A 
ENDROOT
BRANCH   1   7
ATOM      7  C   UNL     1      35.565  10.391 106.257  1.00  0.00     0.010 C 
ATOM      8  C   UNL     1      35.972  11.421 107.013  1.00  0.00     0.025 C 
BRANCH   8   9
ATOM      9  C   UNL     1      37.188  12.190 106.704  1.00  0.00     0.064 C 
ATOM     10  O   UNL     1      38.020  11.781 105.850  1.00  0.00    -0.545 OA
ATOM     11  O   UNL     1      37.426  13.388 107.366  1.00  0.00    -0.545 OA
ENDBRANCH   8   9
ENDBRANCH   1   7
BRANCH   6  12
ATOM     12  O   UNL     1      30.923   7.324 107.463  1.00  0.00    -0.508 OA
ATOM     13  H   UNL     1      30.437   6.780 106.760  1.00  0.00     0.293 HD
ENDBRANCH   6  12
TORSDOF 3
ENDMDL
