MODEL 1
REMARK VINA RESULT:    -5.056      0.000      0.000
REMARK INTER + INTRA:          -5.056
REMARK INTER:                  -5.056
REMARK INTRA:                   0.000
REMARK UNBOUND:                 0.000
REMARK SMILES C=C1CC[C@H]2C[C@@H]1C2(C)C
REMARK SMILES IDX 9 1 8 2 5 3 4 4 3 5 2 6 1 7 7 8 6 9 10 10
REMARK H PARENT
REMARK Flexibility Score: inf
ROOT
ATOM      1  C   UNL     1     110.294 112.901 110.772  1.00  0.00     0.012 C 
ATOM      2  C   UNL     1     111.374 111.785 110.796  1.00  0.00    -0.026 C 
ATOM      3  C   UNL     1     111.218 110.622 111.809  1.00  0.00    -0.004 C 
ATOM      4  C   UNL     1     109.716 110.229 111.986  1.00  0.00     0.008 C 
ATOM      5  C   UNL     1     108.993 109.971 110.611  1.00  0.00     0.031 C 
ATOM      6  C   UNL     1     109.879 110.328 109.408  1.00  0.00    -0.074 C 
ATOM      7  C   UNL     1     109.399 110.312 108.160  1.00  0.00     0.008 C 
ATOM      8  C   UNL     1     111.331 110.695 109.700  1.00  0.00     0.021 C 
ATOM      9  C   UNL     1     111.796 109.672 110.747  1.00  0.00     0.012 C 
ATOM     10  C   UNL     1     112.767 112.455 110.895  1.00  0.00     0.012 C 
ENDROOT
TORSDOF 0
ENDMDL
MODEL 2
REMARK VINA RESULT:    -5.053      1.213      3.251
REMARK INTER + INTRA:          -5.053
REMARK INTER:                  -5.053
REMARK INTRA:                   0.000
REMARK UNBOUND:                 0.000
REMARK SMILES C=C1CC[C@H]2C[C@@H]1C2(C)C
REMARK SMILES IDX 9 1 8 2 5 3 4 4 3 5 2 6 1 7 7 8 6 9 10 10
REMARK H PARENT
REMARK Flexibility Score: inf
ROOT
ATOM      1  C   UNL     1     111.937 109.412 110.839  1.00  0.00     0.012 C 
ATOM      2  C   UNL     1     110.862 110.533 110.859  1.00  0.00    -0.026 C 
ATOM      3  C   UNL     1     111.027 111.704 111.861  1.00  0.00    -0.004 C 
ATOM      4  C   UNL     1     112.532 112.092 112.027  1.00  0.00     0.008 C 
ATOM      5  C   UNL     1     113.249 112.336 110.645  1.00  0.00     0.031 C 
ATOM      6  C   UNL     1     112.355 111.971 109.450  1.00  0.00    -0.074 C 
ATOM      7  C   UNL     1     112.828 111.974 108.200  1.00  0.00     0.008 C 
ATOM      8  C   UNL     1     110.903 111.612 109.753  1.00  0.00     0.021 C 
ATOM      9  C   UNL     1     110.447 112.647 110.794  1.00  0.00     0.012 C 
ATOM     10  C   UNL     1     109.467 109.869 110.971  1.00  0.00     0.012 C 
ENDROOT
TORSDOF 0
ENDMDL
MODEL 3
REMARK VINA RESULT:    -5.048      4.515      6.498
REMARK INTER + INTRA:          -5.048
REMARK INTER:                  -5.048
REMARK INTRA:                   0.000
REMARK UNBOUND:                 0.000
REMARK SMILES C=C1CC[C@H]2C[C@@H]1C2(C)C
REMARK SMILES IDX 9 1 8 2 5 3 4 4 3 5 2 6 1 7 7 8 6 9 10 10
REMARK H PARENT
REMARK Flexibility Score: inf
ROOT
ATOM      1  C   UNL     1     109.942 112.269 115.865  1.00  0.00     0.012 C 
ATOM      2  C   UNL     1     110.475 110.814 115.754  1.00  0.00    -0.026 C 
ATOM      3  C   UNL     1     111.492 110.478 114.633  1.00  0.00    -0.004 C 
ATOM      4  C   UNL     1     112.475 111.669 114.393  1.00  0.00     0.008 C 
ATOM      5  C   UNL     1     113.147 112.177 115.725  1.00  0.00     0.031 C 
ATOM      6  C   UNL     1     112.557 111.502 116.972  1.00  0.00    -0.074 C 
ATOM      7  C   UNL     1     112.893 111.897 118.203  1.00  0.00     0.008 C 
ATOM      8  C   UNL     1     111.574 110.357 116.742  1.00  0.00     0.021 C 
ATOM      9  C   UNL     1     112.194 109.522 115.612  1.00  0.00     0.012 C 
ATOM     10  C   UNL     1     109.264 109.849 115.745  1.00  0.00     0.012 C 
ENDROOT
TORSDOF 0
ENDMDL
MODEL 4
REMARK VINA RESULT:    -5.048      0.829      2.793
REMARK INTER + INTRA:          -5.048
REMARK INTER:                  -5.048
REMARK INTRA:                   0.000
REMARK UNBOUND:                 0.000
REMARK SMILES C=C1CC[C@H]2C[C@@H]1C2(C)C
REMARK SMILES IDX 9 1 8 2 5 3 4 4 3 5 2 6 1 7 7 8 6 9 10 10
REMARK H PARENT
REMARK Flexibility Score: inf
ROOT
ATOM      1  C   UNL     1     112.338 110.049 110.878  1.00  0.00     0.012 C 
ATOM      2  C   UNL     1     111.765 111.492 110.818  1.00  0.00    -0.026 C 
ATOM      3  C   UNL     1     110.708 111.828 109.735  1.00  0.00    -0.004 C 
ATOM      4  C   UNL     1     109.748 110.619 109.495  1.00  0.00     0.008 C 
ATOM      5  C   UNL     1     109.128 110.064 110.833  1.00  0.00     0.031 C 
ATOM      6  C   UNL     1     109.738 110.724 112.079  1.00  0.00    -0.074 C 
ATOM      7  C   UNL     1     109.448 110.292 113.310  1.00  0.00     0.008 C 
ATOM      8  C   UNL     1     110.685 111.898 111.848  1.00  0.00     0.021 C 
ATOM      9  C   UNL     1     110.012 112.743 110.756  1.00  0.00     0.012 C 
ATOM     10  C   UNL     1     112.952 112.487 110.797  1.00  0.00     0.012 C 
ENDROOT
TORSDOF 0
ENDMDL
MODEL 5
REMARK VINA RESULT:    -5.027      3.715      4.716
REMARK INTER + INTRA:          -5.027
REMARK INTER:                  -5.027
REMARK INTRA:                   0.000
REMARK UNBOUND:                 0.000
REMARK SMILES C=C1CC[C@H]2C[C@@H]1C2(C)C
REMARK SMILES IDX 9 1 8 2 5 3 4 4 3 5 2 6 1 7 7 8 6 9 10 10
REMARK H PARENT
REMARK Flexibility Score: inf
ROOT
ATOM      1  C   UNL     1     110.342 112.881 115.611  1.00  0.00     0.012 C 
ATOM      2  C   UNL     1     111.448 111.793 115.526  1.00  0.00    -0.026 C 
ATOM      3  C   UNL     1     111.367 110.575 116.480  1.00  0.00    -0.004 C 
ATOM      4  C   UNL     1     109.884 110.135 116.705  1.00  0.00     0.008 C 
ATOM      5  C   UNL     1     109.102 109.932 115.352  1.00  0.00     0.031 C 
ATOM      6  C   UNL     1     109.922 110.375 114.130  1.00  0.00    -0.074 C 
ATOM      7  C   UNL     1     109.384 110.413 112.907  1.00  0.00     0.008 C 
ATOM      8  C   UNL     1     111.377 110.763 114.375  1.00  0.00     0.021 C 
ATOM      9  C   UNL     1     111.915 109.697 115.342  1.00  0.00     0.012 C 
ATOM     10  C   UNL     1     112.828 112.493 115.596  1.00  0.00     0.012 C 
ENDROOT
TORSDOF 0
ENDMDL
MODEL 6
REMARK VINA RESULT:    -5.026      4.028      5.849
REMARK INTER + INTRA:          -5.026
REMARK INTER:                  -5.026
REMARK INTRA:                   0.000
REMARK UNBOUND:                 0.000
REMARK SMILES C=C1CC[C@H]2C[C@@H]1C2(C)C
REMARK SMILES IDX 9 1 8 2 5 3 4 4 3 5 2 6 1 7 7 8 6 9 10 10
REMARK H PARENT
REMARK Flexibility Score: inf
ROOT
ATOM      1  C   UNL     1     111.872 109.391 115.710  1.00  0.00     0.012 C 
ATOM      2  C   UNL     1     110.808 110.522 115.686  1.00  0.00    -0.026 C 
ATOM      3  C   UNL     1     110.967 111.713 116.665  1.00  0.00    -0.004 C 
ATOM      4  C   UNL     1     112.472 112.090 116.849  1.00  0.00     0.008 C 
ATOM      5  C   UNL     1     113.217 112.296 115.476  1.00  0.00     0.031 C 
ATOM      6  C   UNL     1     112.342 111.914 114.273  1.00  0.00    -0.074 C 
ATOM      7  C   UNL     1     112.837 111.885 113.032  1.00  0.00     0.008 C 
ATOM      8  C   UNL     1     110.881 111.576 114.557  1.00  0.00     0.021 C 
ATOM      9  C   UNL     1     110.417 112.638 115.566  1.00  0.00     0.012 C 
ATOM     10  C   UNL     1     109.405 109.874 115.786  1.00  0.00     0.012 C 
ENDROOT
TORSDOF 0
ENDMDL
MODEL 7
REMARK VINA RESULT:    -5.011      1.182      3.527
REMARK INTER + INTRA:          -5.011
REMARK INTER:                  -5.011
REMARK INTRA:                   0.000
REMARK UNBOUND:                 0.000
REMARK SMILES C=C1CC[C@H]2C[C@@H]1C2(C)C
REMARK SMILES IDX 9 1 8 2 5 3 4 4 3 5 2 6 1 7 7 8 6 9 10 10
REMARK H PARENT
REMARK Flexibility Score: inf
ROOT
ATOM      1  C   UNL     1     109.922 112.275 110.981  1.00  0.00     0.012 C 
ATOM      2  C   UNL     1     110.431 110.818 110.806  1.00  0.00    -0.026 C 
ATOM      3  C   UNL     1     111.441 110.515 109.670  1.00  0.00    -0.004 C 
ATOM      4  C   UNL     1     112.444 111.698 109.481  1.00  0.00     0.008 C 
ATOM      5  C   UNL     1     113.125 112.135 110.833  1.00  0.00     0.031 C 
ATOM      6  C   UNL     1     112.524 111.415 112.050  1.00  0.00    -0.074 C 
ATOM      7  C   UNL     1     112.868 111.750 113.298  1.00  0.00     0.008 C 
ATOM      8  C   UNL     1     111.522 110.299 111.771  1.00  0.00     0.021 C 
ATOM      9  C   UNL     1     112.127 109.504 110.604  1.00  0.00     0.012 C 
ATOM     10  C   UNL     1     109.203 109.875 110.755  1.00  0.00     0.012 C 
ENDROOT
TORSDOF 0
ENDMDL
MODEL 8
REMARK VINA RESULT:    -5.005      4.179      5.871
REMARK INTER + INTRA:          -5.005
REMARK INTER:                  -5.005
REMARK INTRA:                   0.000
REMARK UNBOUND:                 0.000
REMARK SMILES C=C1CC[C@H]2C[C@@H]1C2(C)C
REMARK SMILES IDX 9 1 8 2 5 3 4 4 3 5 2 6 1 7 7 8 6 9 10 10
REMARK H PARENT
REMARK Flexibility Score: inf
ROOT
ATOM      1  C   UNL     1     112.350 110.041 115.667  1.00  0.00     0.012 C 
ATOM      2  C   UNL     1     111.803 111.483 115.481  1.00  0.00    -0.026 C 
ATOM      3  C   UNL     1     110.802 111.755 114.330  1.00  0.00    -0.004 C 
ATOM      4  C   UNL     1     109.835 110.544 114.130  1.00  0.00     0.008 C 
ATOM      5  C   UNL     1     109.147 110.091 115.473  1.00  0.00     0.031 C 
ATOM      6  C   UNL     1     109.710 110.830 116.696  1.00  0.00    -0.074 C 
ATOM      7  C   UNL     1     109.358 110.488 117.939  1.00  0.00     0.008 C 
ATOM      8  C   UNL     1     110.684 111.973 116.429  1.00  0.00     0.021 C 
ATOM      9  C   UNL     1     110.074 112.748 115.251  1.00  0.00     0.012 C 
ATOM     10  C   UNL     1     113.004 112.461 115.446  1.00  0.00     0.012 C 
ENDROOT
TORSDOF 0
ENDMDL
MODEL 9
REMARK VINA RESULT:    -4.982      2.877      4.835
REMARK INTER + INTRA:          -4.982
REMARK INTER:                  -4.982
REMARK INTRA:                   0.000
REMARK UNBOUND:                 0.000
REMARK SMILES C=C1CC[C@H]2C[C@@H]1C2(C)C
REMARK SMILES IDX 9 1 8 2 5 3 4 4 3 5 2 6 1 7 7 8 6 9 10 10
REMARK H PARENT
REMARK Flexibility Score: inf
ROOT
ATOM      1  C   UNL     1     112.391 110.040 106.374  1.00  0.00     0.012 C 
ATOM      2  C   UNL     1     111.750 111.449 106.246  1.00  0.00    -0.026 C 
ATOM      3  C   UNL     1     110.680 111.682 105.150  1.00  0.00    -0.004 C 
ATOM      4  C   UNL     1     109.780 110.418 104.967  1.00  0.00     0.008 C 
ATOM      5  C   UNL     1     109.185 109.897 106.329  1.00  0.00     0.031 C 
ATOM      6  C   UNL     1     109.761 110.644 107.542  1.00  0.00    -0.074 C 
ATOM      7  C   UNL     1     109.489 110.256 108.792  1.00  0.00     0.008 C 
ATOM      8  C   UNL     1     110.650 111.850 107.257  1.00  0.00     0.021 C 
ATOM      9  C   UNL     1     109.938 112.610 106.127  1.00  0.00     0.012 C 
ATOM     10  C   UNL     1     112.887 112.499 106.178  1.00  0.00     0.012 C 
ENDROOT
TORSDOF 0
ENDMDL
