MODEL 1
REMARK VINA RESULT:    -3.959      0.000      0.000
REMARK INTER + INTRA:          -9.304
REMARK INTER:                  -7.430
REMARK INTRA:                  -1.873
REMARK UNBOUND:                -1.873
REMARK SMILES CCCCCCCCC=CCCCCCCCC(=O)[O-]
REMARK SMILES IDX 10 1 9 2 11 3 12 4 13 5 14 6 15 7 16 8 17 9 18 10 19 11
REMARK SMILES IDX 20 12 8 13 7 14 6 15 5 16 4 17 3 18 2 19 1 20
REMARK H PARENT
REMARK Flexibility Score: inf
ROOT
ATOM      1  C   UNL     1      12.026   1.534   3.291  1.00  0.00    -0.031 C 
ATOM      2  C   UNL     1      13.310   1.304   3.605  1.00  0.00    -0.031 C 
ENDROOT
BRANCH   1   3
ATOM      3  C   UNL     1      11.419   2.906   3.401  1.00  0.00     0.027 C 
BRANCH   3   4
ATOM      4  C   UNL     1       9.895   2.898   3.186  1.00  0.00     0.004 C 
BRANCH   4   5
ATOM      5  C   UNL     1       9.201   1.594   3.620  1.00  0.00     0.000 C 
BRANCH   5   6
ATOM      6  C   UNL     1       7.676   1.743   3.743  1.00  0.00     0.000 C 
BRANCH   6   7
ATOM      7  C   UNL     1       7.253   1.830   5.218  1.00  0.00     0.000 C 
BRANCH   7   8
ATOM      8  C   UNL     1       7.244   0.460   5.914  1.00  0.00     0.006 C 
BRANCH   8   9
ATOM      9  C   UNL     1       5.831  -0.124   6.047  1.00  0.00     0.053 C 
BRANCH   9  10
ATOM     10  C   UNL     1       5.744  -1.441   5.341  1.00  0.00     0.041 C 
ATOM     11  O   UNL     1       5.252  -1.508   4.184  1.00  0.00    -0.550 OA
ATOM     12  O   UNL     1       6.165  -2.602   5.980  1.00  0.00    -0.550 OA
ENDBRANCH   9  10
ENDBRANCH   8   9
ENDBRANCH   7   8
ENDBRANCH   6   7
ENDBRANCH   5   6
ENDBRANCH   4   5
ENDBRANCH   3   4
ENDBRANCH   1   3
BRANCH   2  13
ATOM     13  C   UNL     1      13.918  -0.066   3.478  1.00  0.00     0.027 C 
BRANCH  13  14
ATOM     14  C   UNL     1      14.762  -0.179   2.199  1.00  0.00     0.004 C 
BRANCH  14  15
ATOM     15  C   UNL     1      13.943  -0.648   0.983  1.00  0.00     0.000 C 
BRANCH  15  16
ATOM     16  C   UNL     1      13.624   0.450  -0.051  1.00  0.00     0.000 C 
BRANCH  16  17
ATOM     17  C   UNL     1      14.516   1.705   0.035  1.00  0.00    -0.000 C 
BRANCH  17  18
ATOM     18  C   UNL     1      13.765   3.020   0.326  1.00  0.00    -0.000 C 
BRANCH  18  19
ATOM     19  C   UNL     1      12.319   3.069  -0.197  1.00  0.00    -0.003 C 
ATOM     20  C   UNL     1      11.673   4.445  -0.034  1.00  0.00     0.004 C 
ENDBRANCH  18  19
ENDBRANCH  17  18
ENDBRANCH  16  17
ENDBRANCH  15  16
ENDBRANCH  14  15
ENDBRANCH  13  14
ENDBRANCH   2  13
TORSDOF 15
ENDMDL
MODEL 2
REMARK VINA RESULT:    -3.955      1.319      2.238
REMARK INTER + INTRA:          -9.297
REMARK INTER:                  -7.378
REMARK INTRA:                  -1.919
REMARK UNBOUND:                -1.873
REMARK SMILES CCCCCCCCC=CCCCCCCCC(=O)[O-]
REMARK SMILES IDX 10 1 9 2 11 3 12 4 13 5 14 6 15 7 16 8 17 9 18 10 19 11
REMARK SMILES IDX 20 12 8 13 7 14 6 15 5 16 4 17 3 18 2 19 1 20
REMARK H PARENT
REMARK Flexibility Score: inf
ROOT
ATOM      1  C   UNL     1      13.201   0.156   3.669  1.00  0.00    -0.031 C 
ATOM      2  C   UNL     1      14.447  -0.180   3.302  1.00  0.00    -0.031 C 
ENDROOT
BRANCH   1   3
ATOM      3  C   UNL     1      12.856   0.465   5.100  1.00  0.00     0.027 C 
BRANCH   3   4
ATOM      4  C   UNL     1      11.561   1.288   5.232  1.00  0.00     0.004 C 
BRANCH   4   5
ATOM      5  C   UNL     1      10.488   0.641   6.128  1.00  0.00     0.000 C 
BRANCH   5   6
ATOM      6  C   UNL     1       9.436  -0.142   5.327  1.00  0.00     0.000 C 
BRANCH   6   7
ATOM      7  C   UNL     1       8.734   0.770   4.308  1.00  0.00     0.000 C 
BRANCH   7   8
ATOM      8  C   UNL     1       7.215   0.543   4.259  1.00  0.00     0.006 C 
BRANCH   8   9
ATOM      9  C   UNL     1       6.682  -0.156   5.517  1.00  0.00     0.053 C 
BRANCH   9  10
ATOM     10  C   UNL     1       6.011  -1.443   5.152  1.00  0.00     0.041 C 
ATOM     11  O   UNL     1       5.233  -1.494   4.163  1.00  0.00    -0.550 OA
ATOM     12  O   UNL     1       6.209  -2.576   5.932  1.00  0.00    -0.550 OA
ENDBRANCH   9  10
ENDBRANCH   8   9
ENDBRANCH   7   8
ENDBRANCH   6   7
ENDBRANCH   5   6
ENDBRANCH   4   5
ENDBRANCH   3   4
ENDBRANCH   1   3
BRANCH   2  13
ATOM     13  C   UNL     1      14.793  -0.473   1.867  1.00  0.00     0.027 C 
BRANCH  13  14
ATOM     14  C   UNL     1      13.605  -0.173   0.941  1.00  0.00     0.004 C 
BRANCH  14  15
ATOM     15  C   UNL     1      13.929   0.899  -0.116  1.00  0.00     0.000 C 
BRANCH  15  16
ATOM     16  C   UNL     1      14.056   2.336   0.430  1.00  0.00     0.000 C 
BRANCH  16  17
ATOM     17  C   UNL     1      12.721   3.088   0.604  1.00  0.00    -0.000 C 
BRANCH  17  18
ATOM     18  C   UNL     1      12.215   3.190   2.057  1.00  0.00    -0.000 C 
BRANCH  18  19
ATOM     19  C   UNL     1      10.683   3.192   2.209  1.00  0.00    -0.003 C 
ATOM     20  C   UNL     1      10.194   4.158   3.289  1.00  0.00     0.004 C 
ENDBRANCH  18  19
ENDBRANCH  17  18
ENDBRANCH  16  17
ENDBRANCH  15  16
ENDBRANCH  14  15
ENDBRANCH  13  14
ENDBRANCH   2  13
TORSDOF 15
ENDMDL
MODEL 3
REMARK VINA RESULT:    -3.912      1.182      3.076
REMARK INTER + INTRA:          -9.215
REMARK INTER:                  -7.146
REMARK INTRA:                  -2.069
REMARK UNBOUND:                -1.873
REMARK SMILES CCCCCCCCC=CCCCCCCCC(=O)[O-]
REMARK SMILES IDX 10 1 9 2 11 3 12 4 13 5 14 6 15 7 16 8 17 9 18 10 19 11
REMARK SMILES IDX 20 12 8 13 7 14 6 15 5 16 4 17 3 18 2 19 1 20
REMARK H PARENT
REMARK Flexibility Score: inf
ROOT
ATOM      1  C   UNL     1      11.059   3.502   1.857  1.00  0.00    -0.031 C 
ATOM      2  C   UNL     1      12.302   3.617   1.364  1.00  0.00    -0.031 C 
ENDROOT
BRANCH   1   3
ATOM      3  C   UNL     1      10.652   4.176   3.139  1.00  0.00     0.027 C 
BRANCH   3   4
ATOM      4  C   UNL     1       9.554   3.403   3.891  1.00  0.00     0.004 C 
BRANCH   4   5
ATOM      5  C   UNL     1       9.165   2.061   3.241  1.00  0.00     0.000 C 
BRANCH   5   6
ATOM      6  C   UNL     1       8.281   1.193   4.150  1.00  0.00     0.000 C 
BRANCH   6   7
ATOM      7  C   UNL     1       9.122   0.136   4.883  1.00  0.00     0.000 C 
BRANCH   7   8
ATOM      8  C   UNL     1       8.319  -0.623   5.951  1.00  0.00     0.006 C 
BRANCH   8   9
ATOM      9  C   UNL     1       6.810  -0.358   5.854  1.00  0.00     0.053 C 
BRANCH   9  10
ATOM     10  C   UNL     1       6.094  -1.590   5.397  1.00  0.00     0.041 C 
ATOM     11  O   UNL     1       6.340  -2.702   5.935  1.00  0.00    -0.550 OA
ATOM     12  O   UNL     1       5.188  -1.518   4.345  1.00  0.00    -0.550 OA
ENDBRANCH   9  10
ENDBRANCH   8   9
ENDBRANCH   7   8
ENDBRANCH   6   7
ENDBRANCH   5   6
ENDBRANCH   4   5
ENDBRANCH   3   4
ENDBRANCH   1   3
BRANCH   2  13
ATOM     13  C   UNL     1      12.701   2.956   0.074  1.00  0.00     0.027 C 
BRANCH  13  14
ATOM     14  C   UNL     1      13.963   2.100   0.259  1.00  0.00     0.004 C 
BRANCH  14  15
ATOM     15  C   UNL     1      13.646   0.635   0.607  1.00  0.00     0.000 C 
BRANCH  15  16
ATOM     16  C   UNL     1      14.631  -0.030   1.589  1.00  0.00     0.000 C 
BRANCH  16  17
ATOM     17  C   UNL     1      14.264   0.114   3.080  1.00  0.00    -0.000 C 
BRANCH  17  18
ATOM     18  C   UNL     1      12.801   0.513   3.356  1.00  0.00    -0.000 C 
BRANCH  18  19
ATOM     19  C   UNL     1      12.573   1.261   4.681  1.00  0.00    -0.003 C 
ATOM     20  C   UNL     1      12.858   0.396   5.909  1.00  0.00     0.004 C 
ENDBRANCH  18  19
ENDBRANCH  17  18
ENDBRANCH  16  17
ENDBRANCH  15  16
ENDBRANCH  14  15
ENDBRANCH  13  14
ENDBRANCH   2  13
TORSDOF 15
ENDMDL
MODEL 4
REMARK VINA RESULT:    -3.898      2.098      3.988
REMARK INTER + INTRA:          -9.189
REMARK INTER:                  -7.116
REMARK INTRA:                  -2.073
REMARK UNBOUND:                -1.873
REMARK SMILES CCCCCCCCC=CCCCCCCCC(=O)[O-]
REMARK SMILES IDX 10 1 9 2 11 3 12 4 13 5 14 6 15 7 16 8 17 9 18 10 19 11
REMARK SMILES IDX 20 12 8 13 7 14 6 15 5 16 4 17 3 18 2 19 1 20
REMARK H PARENT
REMARK Flexibility Score: inf
ROOT
ATOM      1  C   UNL     1      10.976   2.606   2.683  1.00  0.00    -0.031 C 
ATOM      2  C   UNL     1      11.647   3.502   1.944  1.00  0.00    -0.031 C 
ENDROOT
BRANCH   1   3
ATOM      3  C   UNL     1      11.416   2.241   4.074  1.00  0.00     0.027 C 
BRANCH   3   4
ATOM      4  C   UNL     1      11.403   0.721   4.320  1.00  0.00     0.004 C 
BRANCH   4   5
ATOM      5  C   UNL     1      10.613   0.288   5.569  1.00  0.00     0.000 C 
BRANCH   5   6
ATOM      6  C   UNL     1       9.231   0.952   5.660  1.00  0.00     0.000 C 
BRANCH   6   7
ATOM      7  C   UNL     1       8.224   0.249   4.736  1.00  0.00     0.000 C 
BRANCH   7   8
ATOM      8  C   UNL     1       7.540   1.219   3.759  1.00  0.00     0.006 C 
BRANCH   8   9
ATOM      9  C   UNL     1       7.729   2.689   4.158  1.00  0.00     0.053 C 
BRANCH   9  10
ATOM     10  C   UNL     1       6.405   3.328   4.432  1.00  0.00     0.041 C 
ATOM     11  O   UNL     1       5.423   2.625   4.788  1.00  0.00    -0.550 OA
ATOM     12  O   UNL     1       6.242   4.697   4.252  1.00  0.00    -0.550 OA
ENDBRANCH   9  10
ENDBRANCH   8   9
ENDBRANCH   7   8
ENDBRANCH   6   7
ENDBRANCH   5   6
ENDBRANCH   4   5
ENDBRANCH   3   4
ENDBRANCH   1   3
BRANCH   2  13
ATOM     13  C   UNL     1      11.195   3.877   0.559  1.00  0.00     0.027 C 
BRANCH  13  14
ATOM     14  C   UNL     1      12.370   3.855  -0.431  1.00  0.00     0.004 C 
BRANCH  14  15
ATOM     15  C   UNL     1      13.741   3.842   0.270  1.00  0.00     0.000 C 
BRANCH  15  16
ATOM     16  C   UNL     1      14.624   2.618  -0.048  1.00  0.00     0.000 C 
BRANCH  16  17
ATOM     17  C   UNL     1      14.534   1.466   0.972  1.00  0.00    -0.000 C 
BRANCH  17  18
ATOM     18  C   UNL     1      13.637   0.286   0.547  1.00  0.00    -0.000 C 
BRANCH  18  19
ATOM     19  C   UNL     1      13.959  -1.052   1.234  1.00  0.00    -0.003 C 
ATOM     20  C   UNL     1      14.297  -0.894   2.717  1.00  0.00     0.004 C 
ENDBRANCH  18  19
ENDBRANCH  17  18
ENDBRANCH  16  17
ENDBRANCH  15  16
ENDBRANCH  14  15
ENDBRANCH  13  14
ENDBRANCH   2  13
TORSDOF 15
ENDMDL
MODEL 5
REMARK VINA RESULT:    -3.861      1.608      3.343
REMARK INTER + INTRA:          -9.120
REMARK INTER:                  -6.845
REMARK INTRA:                  -2.275
REMARK UNBOUND:                -1.873
REMARK SMILES CCCCCCCCC=CCCCCCCCC(=O)[O-]
REMARK SMILES IDX 10 1 9 2 11 3 12 4 13 5 14 6 15 7 16 8 17 9 18 10 19 11
REMARK SMILES IDX 20 12 8 13 7 14 6 15 5 16 4 17 3 18 2 19 1 20
REMARK H PARENT
REMARK Flexibility Score: inf
ROOT
ATOM      1  C   UNL     1      13.271   0.962   2.646  1.00  0.00    -0.031 C 
ATOM      2  C   UNL     1      13.624   0.336   1.513  1.00  0.00    -0.031 C 
ENDROOT
BRANCH   1   3
ATOM      3  C   UNL     1      13.219   0.238   3.964  1.00  0.00     0.027 C 
BRANCH   3   4
ATOM      4  C   UNL     1      11.862   0.395   4.673  1.00  0.00     0.004 C 
BRANCH   4   5
ATOM      5  C   UNL     1      11.897   1.307   5.914  1.00  0.00     0.000 C 
BRANCH   5   6
ATOM      6  C   UNL     1      10.640   1.173   6.787  1.00  0.00     0.000 C 
BRANCH   6   7
ATOM      7  C   UNL     1       9.854  -0.096   6.424  1.00  0.00     0.000 C 
BRANCH   7   8
ATOM      8  C   UNL     1       8.380   0.192   6.099  1.00  0.00     0.006 C 
BRANCH   8   9
ATOM      9  C   UNL     1       7.607  -1.071   5.696  1.00  0.00     0.053 C 
BRANCH   9  10
ATOM     10  C   UNL     1       6.512  -0.728   4.735  1.00  0.00     0.041 C 
ATOM     11  O   UNL     1       6.507   0.389   4.154  1.00  0.00    -0.550 OA
ATOM     12  O   UNL     1       5.473  -1.624   4.516  1.00  0.00    -0.550 OA
ENDBRANCH   9  10
ENDBRANCH   8   9
ENDBRANCH   7   8
ENDBRANCH   6   7
ENDBRANCH   5   6
ENDBRANCH   4   5
ENDBRANCH   3   4
ENDBRANCH   1   3
BRANCH   2  13
ATOM     13  C   UNL     1      13.691   1.067   0.200  1.00  0.00     0.027 C 
BRANCH  13  14
ATOM     14  C   UNL     1      13.499   2.578   0.397  1.00  0.00     0.004 C 
BRANCH  14  15
ATOM     15  C   UNL     1      12.247   3.119  -0.317  1.00  0.00     0.000 C 
BRANCH  15  16
ATOM     16  C   UNL     1      11.317   3.981   0.561  1.00  0.00     0.000 C 
BRANCH  16  17
ATOM     17  C   UNL     1      11.921   4.427   1.908  1.00  0.00    -0.000 C 
BRANCH  17  18
ATOM     18  C   UNL     1      11.186   3.903   3.158  1.00  0.00    -0.000 C 
BRANCH  18  19
ATOM     19  C   UNL     1      10.074   2.879   2.873  1.00  0.00    -0.003 C 
ATOM     20  C   UNL     1       8.915   2.966   3.867  1.00  0.00     0.004 C 
ENDBRANCH  18  19
ENDBRANCH  17  18
ENDBRANCH  16  17
ENDBRANCH  15  16
ENDBRANCH  14  15
ENDBRANCH  13  14
ENDBRANCH   2  13
TORSDOF 15
ENDMDL
MODEL 6
REMARK VINA RESULT:    -3.824      1.056      3.144
REMARK INTER + INTRA:          -9.051
REMARK INTER:                  -7.243
REMARK INTRA:                  -1.808
REMARK UNBOUND:                -1.873
REMARK SMILES CCCCCCCCC=CCCCCCCCC(=O)[O-]
REMARK SMILES IDX 10 1 9 2 11 3 12 4 13 5 14 6 15 7 16 8 17 9 18 10 19 11
REMARK SMILES IDX 20 12 8 13 7 14 6 15 5 16 4 17 3 18 2 19 1 20
REMARK H PARENT
REMARK Flexibility Score: inf
ROOT
ATOM      1  C   UNL     1      10.184   2.943   2.967  1.00  0.00    -0.031 C 
ATOM      2  C   UNL     1      10.791   4.140   2.970  1.00  0.00    -0.031 C 
ENDROOT
BRANCH   1   3
ATOM      3  C   UNL     1       9.650   2.325   4.231  1.00  0.00     0.027 C 
BRANCH   3   4
ATOM      4  C   UNL     1       8.830   1.050   3.965  1.00  0.00     0.004 C 
BRANCH   4   5
ATOM      5  C   UNL     1       7.331   1.302   3.712  1.00  0.00     0.000 C 
BRANCH   5   6
ATOM      6  C   UNL     1       6.778   2.478   4.532  1.00  0.00     0.000 C 
BRANCH   6   7
ATOM      7  C   UNL     1       5.725   1.992   5.541  1.00  0.00     0.000 C 
BRANCH   7   8
ATOM      8  C   UNL     1       6.174   0.741   6.311  1.00  0.00     0.006 C 
BRANCH   8   9
ATOM      9  C   UNL     1       5.107  -0.363   6.316  1.00  0.00     0.053 C 
BRANCH   9  10
ATOM     10  C   UNL     1       5.539  -1.509   5.456  1.00  0.00     0.041 C 
ATOM     11  O   UNL     1       5.245  -1.528   4.232  1.00  0.00    -0.550 OA
ATOM     12  O   UNL     1       6.228  -2.578   6.017  1.00  0.00    -0.550 OA
ENDBRANCH   9  10
ENDBRANCH   8   9
ENDBRANCH   7   8
ENDBRANCH   6   7
ENDBRANCH   5   6
ENDBRANCH   4   5
ENDBRANCH   3   4
ENDBRANCH   1   3
BRANCH   2  13
ATOM     13  C   UNL     1      11.309   4.763   1.703  1.00  0.00     0.027 C 
BRANCH  13  14
ATOM     14  C   UNL     1      11.075   3.839   0.498  1.00  0.00     0.004 C 
BRANCH  14  15
ATOM     15  C   UNL     1      12.376   3.491  -0.249  1.00  0.00     0.000 C 
BRANCH  15  16
ATOM     16  C   UNL     1      13.626   3.364   0.646  1.00  0.00     0.000 C 
BRANCH  16  17
ATOM     17  C   UNL     1      14.108   1.920   0.892  1.00  0.00    -0.000 C 
BRANCH  17  18
ATOM     18  C   UNL     1      13.177   1.062   1.771  1.00  0.00    -0.000 C 
BRANCH  18  19
ATOM     19  C   UNL     1      13.799   0.578   3.093  1.00  0.00    -0.003 C 
ATOM     20  C   UNL     1      12.766   0.401   4.207  1.00  0.00     0.004 C 
ENDBRANCH  18  19
ENDBRANCH  17  18
ENDBRANCH  16  17
ENDBRANCH  15  16
ENDBRANCH  14  15
ENDBRANCH  13  14
ENDBRANCH   2  13
TORSDOF 15
ENDMDL
MODEL 7
REMARK VINA RESULT:    -3.802      2.066      3.307
REMARK INTER + INTRA:          -9.010
REMARK INTER:                  -6.775
REMARK INTRA:                  -2.234
REMARK UNBOUND:                -1.873
REMARK SMILES CCCCCCCCC=CCCCCCCCC(=O)[O-]
REMARK SMILES IDX 10 1 9 2 11 3 12 4 13 5 14 6 15 7 16 8 17 9 18 10 19 11
REMARK SMILES IDX 20 12 8 13 7 14 6 15 5 16 4 17 3 18 2 19 1 20
REMARK H PARENT
REMARK Flexibility Score: inf
ROOT
ATOM      1  C   UNL     1      13.204   0.117   3.192  1.00  0.00    -0.031 C 
ATOM      2  C   UNL     1      14.167   0.224   2.264  1.00  0.00    -0.031 C 
ENDROOT
BRANCH   1   3
ATOM      3  C   UNL     1      13.418   0.574   4.609  1.00  0.00     0.027 C 
BRANCH   3   4
ATOM      4  C   UNL     1      12.136   1.137   5.249  1.00  0.00     0.004 C 
BRANCH   4   5
ATOM      5  C   UNL     1      10.835   0.495   4.732  1.00  0.00     0.000 C 
BRANCH   5   6
ATOM      6  C   UNL     1       9.575   1.230   5.215  1.00  0.00     0.000 C 
BRANCH   6   7
ATOM      7  C   UNL     1       8.305   0.507   4.741  1.00  0.00     0.000 C 
BRANCH   7   8
ATOM      8  C   UNL     1       7.498   1.331   3.726  1.00  0.00     0.006 C 
BRANCH   8   9
ATOM      9  C   UNL     1       7.527   2.835   4.031  1.00  0.00     0.053 C 
BRANCH   9  10
ATOM     10  C   UNL     1       6.318   3.229   4.820  1.00  0.00     0.041 C 
ATOM     11  O   UNL     1       6.375   4.196   5.625  1.00  0.00    -0.550 OA
ATOM     12  O   UNL     1       5.141   2.501   4.700  1.00  0.00    -0.550 OA
ENDBRANCH   9  10
ENDBRANCH   8   9
ENDBRANCH   7   8
ENDBRANCH   6   7
ENDBRANCH   5   6
ENDBRANCH   4   5
ENDBRANCH   3   4
ENDBRANCH   1   3
BRANCH   2  13
ATOM     13  C   UNL     1      13.945  -0.218   0.844  1.00  0.00     0.027 C 
BRANCH  13  14
ATOM     14  C   UNL     1      13.719   0.987  -0.081  1.00  0.00     0.004 C 
BRANCH  14  15
ATOM     15  C   UNL     1      14.521   2.229   0.349  1.00  0.00     0.000 C 
BRANCH  15  16
ATOM     16  C   UNL     1      13.705   3.533   0.440  1.00  0.00     0.000 C 
BRANCH  16  17
ATOM     17  C   UNL     1      12.341   3.501  -0.281  1.00  0.00    -0.000 C 
BRANCH  17  18
ATOM     18  C   UNL     1      11.112   3.606   0.644  1.00  0.00    -0.000 C 
BRANCH  18  19
ATOM     19  C   UNL     1      11.344   3.122   2.086  1.00  0.00    -0.003 C 
ATOM     20  C   UNL     1      10.941   4.160   3.135  1.00  0.00     0.004 C 
ENDBRANCH  18  19
ENDBRANCH  17  18
ENDBRANCH  16  17
ENDBRANCH  15  16
ENDBRANCH  14  15
ENDBRANCH  13  14
ENDBRANCH   2  13
TORSDOF 15
ENDMDL
MODEL 8
REMARK VINA RESULT:    -3.744      1.517      2.724
REMARK INTER + INTRA:          -8.900
REMARK INTER:                  -6.285
REMARK INTRA:                  -2.615
REMARK UNBOUND:                -1.873
REMARK SMILES CCCCCCCCC=CCCCCCCCC(=O)[O-]
REMARK SMILES IDX 10 1 9 2 11 3 12 4 13 5 14 6 15 7 16 8 17 9 18 10 19 11
REMARK SMILES IDX 20 12 8 13 7 14 6 15 5 16 4 17 3 18 2 19 1 20
REMARK H PARENT
REMARK Flexibility Score: inf
ROOT
ATOM      1  C   UNL     1      12.652   0.603   3.115  1.00  0.00    -0.031 C 
ATOM      2  C   UNL     1      13.841   0.216   2.628  1.00  0.00    -0.031 C 
ENDROOT
BRANCH   1   3
ATOM      3  C   UNL     1      12.532   1.316   4.434  1.00  0.00     0.027 C 
BRANCH   3   4
ATOM      4  C   UNL     1      12.873   2.813   4.332  1.00  0.00     0.004 C 
BRANCH   4   5
ATOM      5  C   UNL     1      11.754   3.752   4.819  1.00  0.00     0.000 C 
BRANCH   5   6
ATOM      6  C   UNL     1      10.435   3.014   5.098  1.00  0.00     0.000 C 
BRANCH   6   7
ATOM      7  C   UNL     1       9.370   3.384   4.054  1.00  0.00     0.000 C 
BRANCH   7   8
ATOM      8  C   UNL     1       8.834   2.160   3.295  1.00  0.00     0.006 C 
BRANCH   8   9
ATOM      9  C   UNL     1       8.765   0.904   4.175  1.00  0.00     0.053 C 
BRANCH   9  10
ATOM     10  C   UNL     1       7.373   0.702   4.686  1.00  0.00     0.041 C 
ATOM     11  O   UNL     1       6.475   0.265   3.920  1.00  0.00    -0.550 OA
ATOM     12  O   UNL     1       7.058   1.039   5.997  1.00  0.00    -0.550 OA
ENDBRANCH   9  10
ENDBRANCH   8   9
ENDBRANCH   7   8
ENDBRANCH   6   7
ENDBRANCH   5   6
ENDBRANCH   4   5
ENDBRANCH   3   4
ENDBRANCH   1   3
BRANCH   2  13
ATOM     13  C   UNL     1      13.959  -0.481   1.301  1.00  0.00     0.027 C 
BRANCH  13  14
ATOM     14  C   UNL     1      13.661   0.482   0.142  1.00  0.00     0.004 C 
BRANCH  14  15
ATOM     15  C   UNL     1      14.610   1.695   0.115  1.00  0.00     0.000 C 
BRANCH  15  16
ATOM     16  C   UNL     1      13.940   3.053   0.409  1.00  0.00     0.000 C 
BRANCH  16  17
ATOM     17  C   UNL     1      12.482   3.180  -0.078  1.00  0.00    -0.000 C 
BRANCH  17  18
ATOM     18  C   UNL     1      11.454   3.516   1.020  1.00  0.00    -0.000 C 
BRANCH  18  19
ATOM     19  C   UNL     1      11.003   4.987   1.056  1.00  0.00    -0.003 C 
ATOM     20  C   UNL     1      11.073   5.664  -0.313  1.00  0.00     0.004 C 
ENDBRANCH  18  19
ENDBRANCH  17  18
ENDBRANCH  16  17
ENDBRANCH  15  16
ENDBRANCH  14  15
ENDBRANCH  13  14
ENDBRANCH   2  13
TORSDOF 15
ENDMDL
MODEL 9
REMARK VINA RESULT:    -3.728      3.221      6.772
REMARK INTER + INTRA:          -8.871
REMARK INTER:                  -6.104
REMARK INTRA:                  -2.767
REMARK UNBOUND:                -1.873
REMARK SMILES CCCCCCCCC=CCCCCCCCC(=O)[O-]
REMARK SMILES IDX 10 1 9 2 11 3 12 4 13 5 14 6 15 7 16 8 17 9 18 10 19 11
REMARK SMILES IDX 20 12 8 13 7 14 6 15 5 16 4 17 3 18 2 19 1 20
REMARK H PARENT
REMARK Flexibility Score: inf
ROOT
ATOM      1  C   UNL     1      11.186   3.082   3.906  1.00  0.00    -0.031 C 
ATOM      2  C   UNL     1      11.458   1.805   3.593  1.00  0.00    -0.031 C 
ENDROOT
BRANCH   1   3
ATOM      3  C   UNL     1      11.001   4.133   2.845  1.00  0.00     0.027 C 
BRANCH   3   4
ATOM      4  C   UNL     1      10.739   3.529   1.453  1.00  0.00     0.004 C 
BRANCH   4   5
ATOM      5  C   UNL     1      11.574   4.160   0.322  1.00  0.00     0.000 C 
BRANCH   5   6
ATOM      6  C   UNL     1      12.547   3.165  -0.326  1.00  0.00     0.000 C 
BRANCH   6   7
ATOM      7  C   UNL     1      13.859   3.084   0.471  1.00  0.00     0.000 C 
BRANCH   7   8
ATOM      8  C   UNL     1      14.439   1.662   0.516  1.00  0.00     0.006 C 
BRANCH   8   9
ATOM      9  C   UNL     1      13.358   0.590   0.710  1.00  0.00     0.053 C 
BRANCH   9  10
ATOM     10  C   UNL     1      13.951  -0.645   1.311  1.00  0.00     0.041 C 
ATOM     11  O   UNL     1      14.005  -1.711   0.644  1.00  0.00    -0.550 OA
ATOM     12  O   UNL     1      14.403  -0.631   2.625  1.00  0.00    -0.550 OA
ENDBRANCH   9  10
ENDBRANCH   8   9
ENDBRANCH   7   8
ENDBRANCH   6   7
ENDBRANCH   5   6
ENDBRANCH   4   5
ENDBRANCH   3   4
ENDBRANCH   1   3
BRANCH   2  13
ATOM     13  C   UNL     1      11.626   0.754   4.655  1.00  0.00     0.027 C 
BRANCH  13  14
ATOM     14  C   UNL     1      11.014   1.211   5.987  1.00  0.00     0.004 C 
BRANCH  14  15
ATOM     15  C   UNL     1       9.930   0.249   6.507  1.00  0.00     0.000 C 
BRANCH  15  16
ATOM     16  C   UNL     1       9.091  -0.440   5.413  1.00  0.00     0.000 C 
BRANCH  16  17
ATOM     17  C   UNL     1       7.775   0.279   5.050  1.00  0.00    -0.000 C 
BRANCH  17  18
ATOM     18  C   UNL     1       7.821   1.106   3.750  1.00  0.00    -0.000 C 
BRANCH  18  19
ATOM     19  C   UNL     1       7.578   2.614   3.933  1.00  0.00    -0.003 C 
ATOM     20  C   UNL     1       7.716   3.066   5.387  1.00  0.00     0.004 C 
ENDBRANCH  18  19
ENDBRANCH  17  18
ENDBRANCH  16  17
ENDBRANCH  15  16
ENDBRANCH  14  15
ENDBRANCH  13  14
ENDBRANCH   2  13
TORSDOF 15
ENDMDL
