MODEL 1
REMARK VINA RESULT:    -3.778      0.000      0.000
REMARK INTER + INTRA:         -15.238
REMARK INTER:                  -9.962
REMARK INTRA:                  -5.276
REMARK UNBOUND:                -5.276
REMARK SMILES CCCCCCCCCCCCCCCCCCCCCCCCCCCCCC(=O)[O-]
REMARK SMILES IDX 16 1 17 2 18 3 19 4 20 5 21 6 22 7 23 8 24 9 25 10 26 11
REMARK SMILES IDX 27 12 28 13 29 14 30 15 31 16 32 17 15 18 14 19 13 20 12 21
REMARK SMILES IDX 11 22 10 23 9 24 8 25 7 26 6 27 5 28 4 29 3 30 2 31 1 32
REMARK H PARENT
REMARK Flexibility Score: inf
ROOT
ATOM      1  C   UNL     1      41.411  20.141 221.766  1.00  0.00     0.000 C 
ENDROOT
BRANCH   1   2
ATOM      2  C   UNL     1      42.214  19.478 222.901  1.00  0.00     0.000 C 
BRANCH   2   3
ATOM      3  C   UNL     1      43.734  19.670 222.748  1.00  0.00     0.000 C 
BRANCH   3   4
ATOM      4  C   UNL     1      44.468  20.100 224.032  1.00  0.00     0.000 C 
BRANCH   4   5
ATOM      5  C   UNL     1      43.522  20.705 225.085  1.00  0.00     0.000 C 
BRANCH   5   6
ATOM      6  C   UNL     1      43.588  22.243 225.145  1.00  0.00     0.000 C 
BRANCH   6   7
ATOM      7  C   UNL     1      42.828  22.892 226.317  1.00  0.00     0.000 C 
BRANCH   7   8
ATOM      8  C   UNL     1      41.801  21.949 226.967  1.00  0.00     0.000 C 
BRANCH   8   9
ATOM      9  C   UNL     1      40.363  22.241 226.506  1.00  0.00     0.000 C 
BRANCH   9  10
ATOM     10  C   UNL     1      40.016  21.569 225.169  1.00  0.00     0.000 C 
BRANCH  10  11
ATOM     11  C   UNL     1      38.497  21.414 225.013  1.00  0.00     0.000 C 
BRANCH  11  12
ATOM     12  C   UNL     1      38.126  19.970 224.643  1.00  0.00     0.000 C 
BRANCH  12  13
ATOM     13  C   UNL     1      39.243  18.963 224.977  1.00  0.00     0.006 C 
BRANCH  13  14
ATOM     14  C   UNL     1      38.743  17.643 225.584  1.00  0.00     0.053 C 
BRANCH  14  15
ATOM     15  C   UNL     1      38.073  17.849 226.909  1.00  0.00     0.041 C 
ATOM     16  O   UNL     1      38.585  18.619 227.762  1.00  0.00    -0.550 OA
ATOM     17  O   UNL     1      36.903  17.165 227.210  1.00  0.00    -0.550 OA
ENDBRANCH  14  15
ENDBRANCH  13  14
ENDBRANCH  12  13
ENDBRANCH  11  12
ENDBRANCH  10  11
ENDBRANCH   9  10
ENDBRANCH   8   9
ENDBRANCH   7   8
ENDBRANCH   6   7
ENDBRANCH   5   6
ENDBRANCH   4   5
ENDBRANCH   3   4
ENDBRANCH   2   3
ENDBRANCH   1   2
BRANCH   1  18
ATOM     18  C   UNL     1      41.493  21.679 221.783  1.00  0.00     0.000 C 
BRANCH  18  19
ATOM     19  C   UNL     1      40.139  22.412 221.764  1.00  0.00     0.000 C 
BRANCH  19  20
ATOM     20  C   UNL     1      40.283  23.944 221.796  1.00  0.00     0.000 C 
BRANCH  20  21
ATOM     21  C   UNL     1      39.667  24.587 223.058  1.00  0.00     0.000 C 
BRANCH  21  22
ATOM     22  C   UNL     1      40.706  25.008 224.115  1.00  0.00     0.000 C 
BRANCH  22  23
ATOM     23  C   UNL     1      40.140  25.825 225.291  1.00  0.00     0.000 C 
BRANCH  23  24
ATOM     24  C   UNL     1      38.651  26.203 225.122  1.00  0.00    -0.000 C 
BRANCH  24  25
ATOM     25  C   UNL     1      37.731  25.434 226.085  1.00  0.00    -0.000 C 
BRANCH  25  26
ATOM     26  C   UNL     1      36.736  24.524 225.346  1.00  0.00    -0.000 C 
BRANCH  26  27
ATOM     27  C   UNL     1      36.351  25.069 223.960  1.00  0.00    -0.000 C 
BRANCH  27  28
ATOM     28  C   UNL     1      36.021  23.938 222.962  1.00  0.00    -0.000 C 
BRANCH  28  29
ATOM     29  C   UNL     1      36.059  24.384 221.489  1.00  0.00    -0.000 C 
BRANCH  29  30
ATOM     30  C   UNL     1      36.891  23.447 220.598  1.00  0.00    -0.000 C 
BRANCH  30  31
ATOM     31  C   UNL     1      36.530  23.570 219.110  1.00  0.00    -0.003 C 
ATOM     32  C   UNL     1      35.174  24.243 218.887  1.00  0.00     0.004 C 
ENDBRANCH  30  31
ENDBRANCH  29  30
ENDBRANCH  28  29
ENDBRANCH  27  28
ENDBRANCH  26  27
ENDBRANCH  25  26
ENDBRANCH  24  25
ENDBRANCH  23  24
ENDBRANCH  22  23
ENDBRANCH  21  22
ENDBRANCH  20  21
ENDBRANCH  19  20
ENDBRANCH  18  19
ENDBRANCH   1  18
TORSDOF 28
ENDMDL
MODEL 2
REMARK VINA RESULT:    -3.663      1.942      3.959
REMARK INTER + INTRA:         -14.935
REMARK INTER:                 -10.471
REMARK INTRA:                  -4.464
REMARK UNBOUND:                -5.276
REMARK SMILES CCCCCCCCCCCCCCCCCCCCCCCCCCCCCC(=O)[O-]
REMARK SMILES IDX 16 1 17 2 18 3 19 4 20 5 21 6 22 7 23 8 24 9 25 10 26 11
REMARK SMILES IDX 27 12 28 13 29 14 30 15 31 16 32 17 15 18 14 19 13 20 12 21
REMARK SMILES IDX 11 22 10 23 9 24 8 25 7 26 6 27 5 28 4 29 3 30 2 31 1 32
REMARK H PARENT
REMARK Flexibility Score: inf
ROOT
ATOM      1  C   UNL     1      43.335  17.763 224.952  1.00  0.00     0.000 C 
ENDROOT
BRANCH   1   2
ATOM      2  C   UNL     1      43.883  18.470 223.698  1.00  0.00     0.000 C 
BRANCH   2   3
ATOM      3  C   UNL     1      44.345  19.912 223.980  1.00  0.00     0.000 C 
BRANCH   3   4
ATOM      4  C   UNL     1      43.569  21.004 223.221  1.00  0.00     0.000 C 
BRANCH   4   5
ATOM      5  C   UNL     1      43.023  20.516 221.867  1.00  0.00     0.000 C 
BRANCH   5   6
ATOM      6  C   UNL     1      41.484  20.527 221.796  1.00  0.00     0.000 C 
BRANCH   6   7
ATOM      7  C   UNL     1      40.780  19.364 222.521  1.00  0.00     0.000 C 
BRANCH   7   8
ATOM      8  C   UNL     1      40.018  19.809 223.781  1.00  0.00     0.000 C 
BRANCH   8   9
ATOM      9  C   UNL     1      39.126  18.694 224.353  1.00  0.00     0.000 C 
BRANCH   9  10
ATOM     10  C   UNL     1      38.452  19.087 225.676  1.00  0.00     0.000 C 
BRANCH  10  11
ATOM     11  C   UNL     1      37.645  17.915 226.247  1.00  0.00     0.000 C 
BRANCH  11  12
ATOM     12  C   UNL     1      38.417  17.212 227.374  1.00  0.00     0.000 C 
BRANCH  12  13
ATOM     13  C   UNL     1      39.388  16.136 226.852  1.00  0.00     0.006 C 
BRANCH  13  14
ATOM     14  C   UNL     1      39.517  14.905 227.762  1.00  0.00     0.053 C 
BRANCH  14  15
ATOM     15  C   UNL     1      38.600  13.796 227.344  1.00  0.00     0.041 C 
ATOM     16  O   UNL     1      39.013  12.608 227.326  1.00  0.00    -0.550 OA
ATOM     17  O   UNL     1      37.301  14.081 226.944  1.00  0.00    -0.550 OA
ENDBRANCH  14  15
ENDBRANCH  13  14
ENDBRANCH  12  13
ENDBRANCH  11  12
ENDBRANCH  10  11
ENDBRANCH   9  10
ENDBRANCH   8   9
ENDBRANCH   7   8
ENDBRANCH   6   7
ENDBRANCH   5   6
ENDBRANCH   4   5
ENDBRANCH   3   4
ENDBRANCH   2   3
ENDBRANCH   1   2
BRANCH   1  18
ATOM     18  C   UNL     1      43.266  18.683 226.185  1.00  0.00     0.000 C 
BRANCH  18  19
ATOM     19  C   UNL     1      41.898  18.739 226.892  1.00  0.00     0.000 C 
BRANCH  19  20
ATOM     20  C   UNL     1      41.518  20.155 227.357  1.00  0.00     0.000 C 
BRANCH  20  21
ATOM     21  C   UNL     1      42.396  21.259 226.728  1.00  0.00     0.000 C 
BRANCH  21  22
ATOM     22  C   UNL     1      41.664  22.600 226.525  1.00  0.00     0.000 C 
BRANCH  22  23
ATOM     23  C   UNL     1      40.605  22.598 225.407  1.00  0.00     0.000 C 
BRANCH  23  24
ATOM     24  C   UNL     1      40.489  23.947 224.662  1.00  0.00    -0.000 C 
BRANCH  24  25
ATOM     25  C   UNL     1      41.196  23.932 223.295  1.00  0.00    -0.000 C 
BRANCH  25  26
ATOM     26  C   UNL     1      40.204  23.959 222.121  1.00  0.00    -0.000 C 
BRANCH  26  27
ATOM     27  C   UNL     1      38.805  24.443 222.537  1.00  0.00    -0.000 C 
BRANCH  27  28
ATOM     28  C   UNL     1      37.707  23.415 222.188  1.00  0.00    -0.000 C 
BRANCH  28  29
ATOM     29  C   UNL     1      37.247  23.477 220.720  1.00  0.00    -0.000 C 
BRANCH  29  30
ATOM     30  C   UNL     1      35.865  24.129 220.550  1.00  0.00    -0.000 C 
BRANCH  30  31
ATOM     31  C   UNL     1      35.413  24.182 219.083  1.00  0.00    -0.003 C 
ATOM     32  C   UNL     1      36.419  23.529 218.133  1.00  0.00     0.004 C 
ENDBRANCH  30  31
ENDBRANCH  29  30
ENDBRANCH  28  29
ENDBRANCH  27  28
ENDBRANCH  26  27
ENDBRANCH  25  26
ENDBRANCH  24  25
ENDBRANCH  23  24
ENDBRANCH  22  23
ENDBRANCH  21  22
ENDBRANCH  20  21
ENDBRANCH  19  20
ENDBRANCH  18  19
ENDBRANCH   1  18
TORSDOF 28
ENDMDL
MODEL 3
REMARK VINA RESULT:    -3.653      3.098      6.676
REMARK INTER + INTRA:         -14.908
REMARK INTER:                  -9.501
REMARK INTRA:                  -5.406
REMARK UNBOUND:                -5.276
REMARK SMILES CCCCCCCCCCCCCCCCCCCCCCCCCCCCCC(=O)[O-]
REMARK SMILES IDX 16 1 17 2 18 3 19 4 20 5 21 6 22 7 23 8 24 9 25 10 26 11
REMARK SMILES IDX 27 12 28 13 29 14 30 15 31 16 32 17 15 18 14 19 13 20 12 21
REMARK SMILES IDX 11 22 10 23 9 24 8 25 7 26 6 27 5 28 4 29 3 30 2 31 1 32
REMARK H PARENT
REMARK Flexibility Score: inf
ROOT
ATOM      1  C   UNL     1      43.254  21.282 223.088  1.00  0.00     0.000 C 
ENDROOT
BRANCH   1   2
ATOM      2  C   UNL     1      42.818  20.646 221.756  1.00  0.00     0.000 C 
BRANCH   2   3
ATOM      3  C   UNL     1      41.318  20.300 221.722  1.00  0.00     0.000 C 
BRANCH   3   4
ATOM      4  C   UNL     1      40.729  19.825 223.064  1.00  0.00     0.000 C 
BRANCH   4   5
ATOM      5  C   UNL     1      39.608  20.744 223.581  1.00  0.00     0.000 C 
BRANCH   5   6
ATOM      6  C   UNL     1      39.603  22.130 222.909  1.00  0.00     0.000 C 
BRANCH   6   7
ATOM      7  C   UNL     1      39.076  23.286 223.781  1.00  0.00     0.000 C 
BRANCH   7   8
ATOM      8  C   UNL     1      39.718  24.641 223.438  1.00  0.00     0.000 C 
BRANCH   8   9
ATOM      9  C   UNL     1      38.731  25.812 223.583  1.00  0.00     0.000 C 
BRANCH   9  10
ATOM     10  C   UNL     1      37.296  25.350 223.881  1.00  0.00     0.000 C 
BRANCH  10  11
ATOM     11  C   UNL     1      36.417  25.455 222.628  1.00  0.00     0.000 C 
BRANCH  11  12
ATOM     12  C   UNL     1      35.392  24.311 222.578  1.00  0.00     0.000 C 
BRANCH  12  13
ATOM     13  C   UNL     1      35.816  23.170 221.634  1.00  0.00     0.006 C 
BRANCH  13  14
ATOM     14  C   UNL     1      36.991  23.519 220.708  1.00  0.00     0.053 C 
BRANCH  14  15
ATOM     15  C   UNL     1      36.586  23.533 219.265  1.00  0.00     0.041 C 
ATOM     16  O   UNL     1      37.307  22.970 218.401  1.00  0.00    -0.550 OA
ATOM     17  O   UNL     1      35.431  24.197 218.873  1.00  0.00    -0.550 OA
ENDBRANCH  14  15
ENDBRANCH  13  14
ENDBRANCH  12  13
ENDBRANCH  11  12
ENDBRANCH  10  11
ENDBRANCH   9  10
ENDBRANCH   8   9
ENDBRANCH   7   8
ENDBRANCH   6   7
ENDBRANCH   5   6
ENDBRANCH   4   5
ENDBRANCH   3   4
ENDBRANCH   2   3
ENDBRANCH   1   2
BRANCH   1  18
ATOM     18  C   UNL     1      44.359  20.485 223.808  1.00  0.00     0.000 C 
BRANCH  18  19
ATOM     19  C   UNL     1      44.626  19.075 223.251  1.00  0.00     0.000 C 
BRANCH  19  20
ATOM     20  C   UNL     1      43.774  17.987 223.929  1.00  0.00     0.000 C 
BRANCH  20  21
ATOM     21  C   UNL     1      43.293  18.384 225.342  1.00  0.00     0.000 C 
BRANCH  21  22
ATOM     22  C   UNL     1      42.056  17.602 225.824  1.00  0.00     0.000 C 
BRANCH  22  23
ATOM     23  C   UNL     1      41.001  18.448 226.561  1.00  0.00     0.000 C 
BRANCH  23  24
ATOM     24  C   UNL     1      41.485  19.875 226.909  1.00  0.00    -0.000 C 
BRANCH  24  25
ATOM     25  C   UNL     1      40.326  20.830 227.237  1.00  0.00    -0.000 C 
BRANCH  25  26
ATOM     26  C   UNL     1      40.641  22.288 226.861  1.00  0.00    -0.000 C 
BRANCH  26  27
ATOM     27  C   UNL     1      41.892  22.414 225.975  1.00  0.00    -0.000 C 
BRANCH  27  28
ATOM     28  C   UNL     1      42.579  23.788 226.131  1.00  0.00    -0.000 C 
BRANCH  28  29
ATOM     29  C   UNL     1      42.084  24.591 227.348  1.00  0.00    -0.000 C 
BRANCH  29  30
ATOM     30  C   UNL     1      41.460  25.942 226.964  1.00  0.00    -0.000 C 
BRANCH  30  31
ATOM     31  C   UNL     1      42.121  26.568 225.726  1.00  0.00    -0.003 C 
ATOM     32  C   UNL     1      41.330  27.755 225.173  1.00  0.00     0.004 C 
ENDBRANCH  30  31
ENDBRANCH  29  30
ENDBRANCH  28  29
ENDBRANCH  27  28
ENDBRANCH  26  27
ENDBRANCH  25  26
ENDBRANCH  24  25
ENDBRANCH  23  24
ENDBRANCH  22  23
ENDBRANCH  21  22
ENDBRANCH  20  21
ENDBRANCH  19  20
ENDBRANCH  18  19
ENDBRANCH   1  18
TORSDOF 28
ENDMDL
MODEL 4
REMARK VINA RESULT:    -3.627      2.696      5.847
REMARK INTER + INTRA:         -14.841
REMARK INTER:                  -8.699
REMARK INTRA:                  -6.141
REMARK UNBOUND:                -5.276
REMARK SMILES CCCCCCCCCCCCCCCCCCCCCCCCCCCCCC(=O)[O-]
REMARK SMILES IDX 16 1 17 2 18 3 19 4 20 5 21 6 22 7 23 8 24 9 25 10 26 11
REMARK SMILES IDX 27 12 28 13 29 14 30 15 31 16 32 17 15 18 14 19 13 20 12 21
REMARK SMILES IDX 11 22 10 23 9 24 8 25 7 26 6 27 5 28 4 29 3 30 2 31 1 32
REMARK H PARENT
REMARK Flexibility Score: inf
ROOT
ATOM      1  C   UNL     1      42.366  21.239 221.794  1.00  0.00     0.000 C 
ENDROOT
BRANCH   1   2
ATOM      2  C   UNL     1      43.416  20.577 222.704  1.00  0.00     0.000 C 
BRANCH   2   3
ATOM      3  C   UNL     1      43.603  21.321 224.040  1.00  0.00     0.000 C 
BRANCH   3   4
ATOM      4  C   UNL     1      42.795  22.626 224.176  1.00  0.00     0.000 C 
BRANCH   4   5
ATOM      5  C   UNL     1      43.206  23.456 225.405  1.00  0.00     0.000 C 
BRANCH   5   6
ATOM      6  C   UNL     1      42.197  23.358 226.565  1.00  0.00     0.000 C 
BRANCH   6   7
ATOM      7  C   UNL     1      41.448  24.662 226.901  1.00  0.00     0.000 C 
BRANCH   7   8
ATOM      8  C   UNL     1      40.076  24.766 226.213  1.00  0.00     0.000 C 
BRANCH   8   9
ATOM      9  C   UNL     1      39.974  25.989 225.287  1.00  0.00     0.000 C 
BRANCH   9  10
ATOM     10  C   UNL     1      39.169  25.708 224.009  1.00  0.00     0.000 C 
BRANCH  10  11
ATOM     11  C   UNL     1      39.648  24.416 223.335  1.00  0.00     0.000 C 
BRANCH  11  12
ATOM     12  C   UNL     1      38.894  24.170 222.018  1.00  0.00     0.000 C 
BRANCH  12  13
ATOM     13  C   UNL     1      37.999  22.918 222.068  1.00  0.00     0.006 C 
BRANCH  13  14
ATOM     14  C   UNL     1      36.833  23.013 223.063  1.00  0.00     0.053 C 
BRANCH  14  15
ATOM     15  C   UNL     1      35.810  24.022 222.638  1.00  0.00     0.041 C 
ATOM     16  O   UNL     1      35.319  23.975 221.481  1.00  0.00    -0.550 OA
ATOM     17  O   UNL     1      35.426  25.032 223.510  1.00  0.00    -0.550 OA
ENDBRANCH  14  15
ENDBRANCH  13  14
ENDBRANCH  12  13
ENDBRANCH  11  12
ENDBRANCH  10  11
ENDBRANCH   9  10
ENDBRANCH   8   9
ENDBRANCH   7   8
ENDBRANCH   6   7
ENDBRANCH   5   6
ENDBRANCH   4   5
ENDBRANCH   3   4
ENDBRANCH   2   3
ENDBRANCH   1   2
BRANCH   1  18
ATOM     18  C   UNL     1      40.989  20.552 221.855  1.00  0.00     0.000 C 
BRANCH  18  19
ATOM     19  C   UNL     1      40.961  19.194 222.580  1.00  0.00     0.000 C 
BRANCH  19  20
ATOM     20  C   UNL     1      40.219  19.245 223.927  1.00  0.00     0.000 C 
BRANCH  20  21
ATOM     21  C   UNL     1      39.600  20.628 224.229  1.00  0.00     0.000 C 
BRANCH  21  22
ATOM     22  C   UNL     1      39.570  20.985 225.728  1.00  0.00     0.000 C 
BRANCH  22  23
ATOM     23  C   UNL     1      38.241  21.585 226.224  1.00  0.00     0.000 C 
BRANCH  23  24
ATOM     24  C   UNL     1      38.055  21.494 227.756  1.00  0.00    -0.000 C 
BRANCH  24  25
ATOM     25  C   UNL     1      39.219  22.131 228.533  1.00  0.00    -0.000 C 
BRANCH  25  26
ATOM     26  C   UNL     1      39.753  21.215 229.647  1.00  0.00    -0.000 C 
BRANCH  26  27
ATOM     27  C   UNL     1      40.574  20.034 229.101  1.00  0.00    -0.000 C 
BRANCH  27  28
ATOM     28  C   UNL     1      39.864  18.681 229.324  1.00  0.00    -0.000 C 
BRANCH  28  29
ATOM     29  C   UNL     1      39.627  17.887 228.026  1.00  0.00    -0.000 C 
BRANCH  29  30
ATOM     30  C   UNL     1      38.155  17.888 227.581  1.00  0.00    -0.000 C 
BRANCH  30  31
ATOM     31  C   UNL     1      37.978  17.437 226.123  1.00  0.00    -0.003 C 
ATOM     32  C   UNL     1      36.779  18.102 225.443  1.00  0.00     0.004 C 
ENDBRANCH  30  31
ENDBRANCH  29  30
ENDBRANCH  28  29
ENDBRANCH  27  28
ENDBRANCH  26  27
ENDBRANCH  25  26
ENDBRANCH  24  25
ENDBRANCH  23  24
ENDBRANCH  22  23
ENDBRANCH  21  22
ENDBRANCH  20  21
ENDBRANCH  19  20
ENDBRANCH  18  19
ENDBRANCH   1  18
TORSDOF 28
ENDMDL
MODEL 5
REMARK VINA RESULT:    -3.618      1.653      3.952
REMARK INTER + INTRA:         -14.817
REMARK INTER:                  -8.536
REMARK INTRA:                  -6.280
REMARK UNBOUND:                -5.276
REMARK SMILES CCCCCCCCCCCCCCCCCCCCCCCCCCCCCC(=O)[O-]
REMARK SMILES IDX 16 1 17 2 18 3 19 4 20 5 21 6 22 7 23 8 24 9 25 10 26 11
REMARK SMILES IDX 27 12 28 13 29 14 30 15 31 16 32 17 15 18 14 19 13 20 12 21
REMARK SMILES IDX 11 22 10 23 9 24 8 25 7 26 6 27 5 28 4 29 3 30 2 31 1 32
REMARK H PARENT
REMARK Flexibility Score: inf
ROOT
ATOM      1  C   UNL     1      41.124  20.947 221.351  1.00  0.00     0.000 C 
ENDROOT
BRANCH   1   2
ATOM      2  C   UNL     1      41.192  19.643 222.166  1.00  0.00     0.000 C 
BRANCH   2   3
ATOM      3  C   UNL     1      42.528  19.476 222.914  1.00  0.00     0.000 C 
BRANCH   3   4
ATOM      4  C   UNL     1      42.421  18.799 224.294  1.00  0.00     0.000 C 
BRANCH   4   5
ATOM      5  C   UNL     1      42.702  19.767 225.457  1.00  0.00     0.000 C 
BRANCH   5   6
ATOM      6  C   UNL     1      41.754  19.565 226.654  1.00  0.00     0.000 C 
BRANCH   6   7
ATOM      7  C   UNL     1      40.899  20.789 227.035  1.00  0.00     0.000 C 
BRANCH   7   8
ATOM      8  C   UNL     1      40.487  21.640 225.821  1.00  0.00     0.000 C 
BRANCH   8   9
ATOM      9  C   UNL     1      39.000  21.472 225.465  1.00  0.00     0.000 C 
BRANCH   9  10
ATOM     10  C   UNL     1      38.753  20.357 224.437  1.00  0.00     0.000 C 
BRANCH  10  11
ATOM     11  C   UNL     1      38.041  19.164 225.086  1.00  0.00     0.000 C 
BRANCH  11  12
ATOM     12  C   UNL     1      38.944  17.920 225.092  1.00  0.00     0.000 C 
BRANCH  12  13
ATOM     13  C   UNL     1      38.732  17.034 226.333  1.00  0.00     0.006 C 
BRANCH  13  14
ATOM     14  C   UNL     1      38.570  17.814 227.647  1.00  0.00     0.053 C 
BRANCH  14  15
ATOM     15  C   UNL     1      39.515  17.335 228.708  1.00  0.00     0.041 C 
ATOM     16  O   UNL     1      39.727  16.104 228.856  1.00  0.00    -0.550 OA
ATOM     17  O   UNL     1      40.133  18.248 229.552  1.00  0.00    -0.550 OA
ENDBRANCH  14  15
ENDBRANCH  13  14
ENDBRANCH  12  13
ENDBRANCH  11  12
ENDBRANCH  10  11
ENDBRANCH   9  10
ENDBRANCH   8   9
ENDBRANCH   7   8
ENDBRANCH   6   7
ENDBRANCH   5   6
ENDBRANCH   4   5
ENDBRANCH   3   4
ENDBRANCH   2   3
ENDBRANCH   1   2
BRANCH   1  18
ATOM     18  C   UNL     1      41.296  22.212 222.213  1.00  0.00     0.000 C 
BRANCH  18  19
ATOM     19  C   UNL     1      40.107  23.191 222.195  1.00  0.00     0.000 C 
BRANCH  19  20
ATOM     20  C   UNL     1      39.112  22.909 221.055  1.00  0.00     0.000 C 
BRANCH  20  21
ATOM     21  C   UNL     1      37.694  23.451 221.337  1.00  0.00     0.000 C 
BRANCH  21  22
ATOM     22  C   UNL     1      37.096  22.974 222.675  1.00  0.00     0.000 C 
BRANCH  22  23
ATOM     23  C   UNL     1      36.913  24.077 223.734  1.00  0.00     0.000 C 
BRANCH  23  24
ATOM     24  C   UNL     1      36.903  25.505 223.144  1.00  0.00    -0.000 C 
BRANCH  24  25
ATOM     25  C   UNL     1      38.258  26.218 223.293  1.00  0.00    -0.000 C 
BRANCH  25  26
ATOM     26  C   UNL     1      38.811  26.136 224.726  1.00  0.00    -0.000 C 
BRANCH  26  27
ATOM     27  C   UNL     1      40.278  25.676 224.770  1.00  0.00    -0.000 C 
BRANCH  27  28
ATOM     28  C   UNL     1      40.681  25.151 226.165  1.00  0.00    -0.000 C 
BRANCH  28  29
ATOM     29  C   UNL     1      39.611  25.388 227.247  1.00  0.00    -0.000 C 
BRANCH  29  30
ATOM     30  C   UNL     1      39.630  24.323 228.355  1.00  0.00    -0.000 C 
BRANCH  30  31
ATOM     31  C   UNL     1      38.310  23.541 228.446  1.00  0.00    -0.003 C 
ATOM     32  C   UNL     1      37.256  24.049 227.460  1.00  0.00     0.004 C 
ENDBRANCH  30  31
ENDBRANCH  29  30
ENDBRANCH  28  29
ENDBRANCH  27  28
ENDBRANCH  26  27
ENDBRANCH  25  26
ENDBRANCH  24  25
ENDBRANCH  23  24
ENDBRANCH  22  23
ENDBRANCH  21  22
ENDBRANCH  20  21
ENDBRANCH  19  20
ENDBRANCH  18  19
ENDBRANCH   1  18
TORSDOF 28
ENDMDL
MODEL 6
REMARK VINA RESULT:    -3.616      1.628      3.478
REMARK INTER + INTRA:         -14.810
REMARK INTER:                  -8.540
REMARK INTRA:                  -6.270
REMARK UNBOUND:                -5.276
REMARK SMILES CCCCCCCCCCCCCCCCCCCCCCCCCCCCCC(=O)[O-]
REMARK SMILES IDX 16 1 17 2 18 3 19 4 20 5 21 6 22 7 23 8 24 9 25 10 26 11
REMARK SMILES IDX 27 12 28 13 29 14 30 15 31 16 32 17 15 18 14 19 13 20 12 21
REMARK SMILES IDX 11 22 10 23 9 24 8 25 7 26 6 27 5 28 4 29 3 30 2 31 1 32
REMARK H PARENT
REMARK Flexibility Score: inf
ROOT
ATOM      1  C   UNL     1      39.526  21.599 225.007  1.00  0.00     0.000 C 
ENDROOT
BRANCH   1   2
ATOM      2  C   UNL     1      39.066  20.302 224.316  1.00  0.00     0.000 C 
BRANCH   2   3
ATOM      3  C   UNL     1      40.242  19.413 223.871  1.00  0.00     0.000 C 
BRANCH   3   4
ATOM      4  C   UNL     1      40.906  19.828 222.544  1.00  0.00     0.000 C 
BRANCH   4   5
ATOM      5  C   UNL     1      42.432  19.629 222.554  1.00  0.00     0.000 C 
BRANCH   5   6
ATOM      6  C   UNL     1      43.214  20.956 222.568  1.00  0.00     0.000 C 
BRANCH   6   7
ATOM      7  C   UNL     1      42.466  22.158 223.176  1.00  0.00     0.000 C 
BRANCH   7   8
ATOM      8  C   UNL     1      43.095  22.660 224.488  1.00  0.00     0.000 C 
BRANCH   8   9
ATOM      9  C   UNL     1      43.880  21.560 225.221  1.00  0.00     0.000 C 
BRANCH   9  10
ATOM     10  C   UNL     1      43.001  20.729 226.169  1.00  0.00     0.000 C 
BRANCH  10  11
ATOM     11  C   UNL     1      43.379  19.244 226.104  1.00  0.00     0.000 C 
BRANCH  11  12
ATOM     12  C   UNL     1      42.572  18.425 227.123  1.00  0.00     0.000 C 
BRANCH  12  13
ATOM     13  C   UNL     1      41.145  18.968 227.329  1.00  0.00     0.006 C 
BRANCH  13  14
ATOM     14  C   UNL     1      40.141  17.926 227.846  1.00  0.00     0.053 C 
BRANCH  14  15
ATOM     15  C   UNL     1      38.810  18.042 227.168  1.00  0.00     0.041 C 
ATOM     16  O   UNL     1      37.961  18.874 227.580  1.00  0.00    -0.550 OA
ATOM     17  O   UNL     1      38.496  17.206 226.104  1.00  0.00    -0.550 OA
ENDBRANCH  14  15
ENDBRANCH  13  14
ENDBRANCH  12  13
ENDBRANCH  11  12
ENDBRANCH  10  11
ENDBRANCH   9  10
ENDBRANCH   8   9
ENDBRANCH   7   8
ENDBRANCH   6   7
ENDBRANCH   5   6
ENDBRANCH   4   5
ENDBRANCH   3   4
ENDBRANCH   2   3
ENDBRANCH   1   2
BRANCH   1  18
ATOM     18  C   UNL     1      38.697  21.947 226.257  1.00  0.00     0.000 C 
BRANCH  18  19
ATOM     19  C   UNL     1      37.628  23.039 226.058  1.00  0.00     0.000 C 
BRANCH  19  20
ATOM     20  C   UNL     1      37.725  24.173 227.093  1.00  0.00     0.000 C 
BRANCH  20  21
ATOM     21  C   UNL     1      38.945  24.040 228.030  1.00  0.00     0.000 C 
BRANCH  21  22
ATOM     22  C   UNL     1      40.016  25.127 227.821  1.00  0.00     0.000 C 
BRANCH  22  23
ATOM     23  C   UNL     1      41.142  24.748 226.841  1.00  0.00     0.000 C 
BRANCH  23  24
ATOM     24  C   UNL     1      41.227  25.674 225.607  1.00  0.00    -0.000 C 
BRANCH  24  25
ATOM     25  C   UNL     1      40.351  25.188 224.440  1.00  0.00    -0.000 C 
BRANCH  25  26
ATOM     26  C   UNL     1      39.092  26.050 224.252  1.00  0.00    -0.000 C 
BRANCH  26  27
ATOM     27  C   UNL     1      38.154  25.500 223.163  1.00  0.00    -0.000 C 
BRANCH  27  28
ATOM     28  C   UNL     1      38.765  24.288 222.427  1.00  0.00    -0.000 C 
BRANCH  28  29
ATOM     29  C   UNL     1      37.744  23.183 222.103  1.00  0.00    -0.000 C 
BRANCH  29  30
ATOM     30  C   UNL     1      36.349  23.463 222.687  1.00  0.00    -0.000 C 
BRANCH  30  31
ATOM     31  C   UNL     1      35.312  23.798 221.605  1.00  0.00    -0.003 C 
ATOM     32  C   UNL     1      35.927  23.888 220.207  1.00  0.00     0.004 C 
ENDBRANCH  30  31
ENDBRANCH  29  30
ENDBRANCH  28  29
ENDBRANCH  27  28
ENDBRANCH  26  27
ENDBRANCH  25  26
ENDBRANCH  24  25
ENDBRANCH  23  24
ENDBRANCH  22  23
ENDBRANCH  21  22
ENDBRANCH  20  21
ENDBRANCH  19  20
ENDBRANCH  18  19
ENDBRANCH   1  18
TORSDOF 28
ENDMDL
MODEL 7
REMARK VINA RESULT:    -3.607      1.610      5.999
REMARK INTER + INTRA:         -14.786
REMARK INTER:                  -8.823
REMARK INTRA:                  -5.963
REMARK UNBOUND:                -5.276
REMARK SMILES CCCCCCCCCCCCCCCCCCCCCCCCCCCCCC(=O)[O-]
REMARK SMILES IDX 16 1 17 2 18 3 19 4 20 5 21 6 22 7 23 8 24 9 25 10 26 11
REMARK SMILES IDX 27 12 28 13 29 14 30 15 31 16 32 17 15 18 14 19 13 20 12 21
REMARK SMILES IDX 11 22 10 23 9 24 8 25 7 26 6 27 5 28 4 29 3 30 2 31 1 32
REMARK H PARENT
REMARK Flexibility Score: inf
ROOT
ATOM      1  C   UNL     1      41.890  20.406 222.182  1.00  0.00     0.000 C 
ENDROOT
BRANCH   1   2
ATOM      2  C   UNL     1      40.803  21.454 221.882  1.00  0.00     0.000 C 
BRANCH   2   3
ATOM      3  C   UNL     1      41.094  22.819 222.535  1.00  0.00     0.000 C 
BRANCH   3   4
ATOM      4  C   UNL     1      40.220  23.981 222.027  1.00  0.00     0.000 C 
BRANCH   4   5
ATOM      5  C   UNL     1      38.893  23.505 221.409  1.00  0.00     0.000 C 
BRANCH   5   6
ATOM      6  C   UNL     1      37.654  24.107 222.099  1.00  0.00     0.000 C 
BRANCH   6   7
ATOM      7  C   UNL     1      36.959  23.191 223.125  1.00  0.00     0.000 C 
BRANCH   7   8
ATOM      8  C   UNL     1      37.313  23.539 224.582  1.00  0.00     0.000 C 
BRANCH   8   9
ATOM      9  C   UNL     1      38.082  22.409 225.285  1.00  0.00     0.000 C 
BRANCH   9  10
ATOM     10  C   UNL     1      38.299  21.183 224.385  1.00  0.00     0.000 C 
BRANCH  10  11
ATOM     11  C   UNL     1      38.617  19.938 225.223  1.00  0.00     0.000 C 
BRANCH  11  12
ATOM     12  C   UNL     1      39.504  18.959 224.439  1.00  0.00     0.000 C 
BRANCH  12  13
ATOM     13  C   UNL     1      39.529  17.549 225.059  1.00  0.00     0.006 C 
BRANCH  13  14
ATOM     14  C   UNL     1      39.830  17.525 226.565  1.00  0.00     0.053 C 
BRANCH  14  15
ATOM     15  C   UNL     1      38.683  16.980 227.361  1.00  0.00     0.041 C 
ATOM     16  O   UNL     1      38.415  15.751 227.323  1.00  0.00    -0.550 OA
ATOM     17  O   UNL     1      37.893  17.835 228.118  1.00  0.00    -0.550 OA
ENDBRANCH  14  15
ENDBRANCH  13  14
ENDBRANCH  12  13
ENDBRANCH  11  12
ENDBRANCH  10  11
ENDBRANCH   9  10
ENDBRANCH   8   9
ENDBRANCH   7   8
ENDBRANCH   6   7
ENDBRANCH   5   6
ENDBRANCH   4   5
ENDBRANCH   3   4
ENDBRANCH   2   3
ENDBRANCH   1   2
BRANCH   1  18
ATOM     18  C   UNL     1      43.232  21.028 222.610  1.00  0.00     0.000 C 
BRANCH  18  19
ATOM     19  C   UNL     1      44.490  20.264 222.156  1.00  0.00     0.000 C 
BRANCH  19  20
ATOM     20  C   UNL     1      45.111  19.407 223.273  1.00  0.00     0.000 C 
BRANCH  20  21
ATOM     21  C   UNL     1      45.090  17.894 222.964  1.00  0.00     0.000 C 
BRANCH  21  22
ATOM     22  C   UNL     1      44.236  17.067 223.944  1.00  0.00     0.000 C 
BRANCH  22  23
ATOM     23  C   UNL     1      43.222  17.883 224.767  1.00  0.00     0.000 C 
BRANCH  23  24
ATOM     24  C   UNL     1      43.553  17.940 226.276  1.00  0.00    -0.000 C 
BRANCH  24  25
ATOM     25  C   UNL     1      43.321  19.335 226.881  1.00  0.00    -0.000 C 
BRANCH  25  26
ATOM     26  C   UNL     1      42.391  20.203 226.017  1.00  0.00    -0.000 C 
BRANCH  26  27
ATOM     27  C   UNL     1      41.596  21.227 226.846  1.00  0.00    -0.000 C 
BRANCH  27  28
ATOM     28  C   UNL     1      41.674  22.647 226.244  1.00  0.00    -0.000 C 
BRANCH  28  29
ATOM     29  C   UNL     1      43.045  22.984 225.630  1.00  0.00    -0.000 C 
BRANCH  29  30
ATOM     30  C   UNL     1      43.207  24.477 225.302  1.00  0.00    -0.000 C 
BRANCH  30  31
ATOM     31  C   UNL     1      42.108  25.344 225.935  1.00  0.00    -0.003 C 
ATOM     32  C   UNL     1      41.306  26.129 224.895  1.00  0.00     0.004 C 
ENDBRANCH  30  31
ENDBRANCH  29  30
ENDBRANCH  28  29
ENDBRANCH  27  28
ENDBRANCH  26  27
ENDBRANCH  25  26
ENDBRANCH  24  25
ENDBRANCH  23  24
ENDBRANCH  22  23
ENDBRANCH  21  22
ENDBRANCH  20  21
ENDBRANCH  19  20
ENDBRANCH  18  19
ENDBRANCH   1  18
TORSDOF 28
ENDMDL
MODEL 8
REMARK VINA RESULT:    -3.605      2.933      6.284
REMARK INTER + INTRA:         -14.781
REMARK INTER:                  -9.009
REMARK INTRA:                  -5.772
REMARK UNBOUND:                -5.276
REMARK SMILES CCCCCCCCCCCCCCCCCCCCCCCCCCCCCC(=O)[O-]
REMARK SMILES IDX 16 1 17 2 18 3 19 4 20 5 21 6 22 7 23 8 24 9 25 10 26 11
REMARK SMILES IDX 27 12 28 13 29 14 30 15 31 16 32 17 15 18 14 19 13 20 12 21
REMARK SMILES IDX 11 22 10 23 9 24 8 25 7 26 6 27 5 28 4 29 3 30 2 31 1 32
REMARK H PARENT
REMARK Flexibility Score: inf
ROOT
ATOM      1  C   UNL     1      42.007  20.882 221.660  1.00  0.00     0.000 C 
ENDROOT
BRANCH   1   2
ATOM      2  C   UNL     1      43.465  20.613 222.073  1.00  0.00     0.000 C 
BRANCH   2   3
ATOM      3  C   UNL     1      43.632  19.296 222.854  1.00  0.00     0.000 C 
BRANCH   3   4
ATOM      4  C   UNL     1      44.054  19.462 224.326  1.00  0.00     0.000 C 
BRANCH   4   5
ATOM      5  C   UNL     1      44.063  20.932 224.782  1.00  0.00     0.000 C 
BRANCH   5   6
ATOM      6  C   UNL     1      43.031  21.227 225.887  1.00  0.00     0.000 C 
BRANCH   6   7
ATOM      7  C   UNL     1      42.298  22.577 225.763  1.00  0.00     0.000 C 
BRANCH   7   8
ATOM      8  C   UNL     1      42.609  23.315 224.449  1.00  0.00     0.000 C 
BRANCH   8   9
ATOM      9  C   UNL     1      41.748  24.576 224.267  1.00  0.00     0.000 C 
BRANCH   9  10
ATOM     10  C   UNL     1      40.342  24.269 223.730  1.00  0.00     0.000 C 
BRANCH  10  11
ATOM     11  C   UNL     1      40.377  24.027 222.215  1.00  0.00     0.000 C 
BRANCH  11  12
ATOM     12  C   UNL     1      38.992  23.612 221.693  1.00  0.00     0.000 C 
BRANCH  12  13
ATOM     13  C   UNL     1      37.838  24.207 222.521  1.00  0.00     0.006 C 
BRANCH  13  14
ATOM     14  C   UNL     1      36.616  24.629 221.691  1.00  0.00     0.053 C 
BRANCH  14  15
ATOM     15  C   UNL     1      35.581  23.548 221.622  1.00  0.00     0.041 C 
ATOM     16  O   UNL     1      35.835  22.400 222.071  1.00  0.00    -0.550 OA
ATOM     17  O   UNL     1      34.349  23.801 221.033  1.00  0.00    -0.550 OA
ENDBRANCH  14  15
ENDBRANCH  13  14
ENDBRANCH  12  13
ENDBRANCH  11  12
ENDBRANCH  10  11
ENDBRANCH   9  10
ENDBRANCH   8   9
ENDBRANCH   7   8
ENDBRANCH   6   7
ENDBRANCH   5   6
ENDBRANCH   4   5
ENDBRANCH   3   4
ENDBRANCH   2   3
ENDBRANCH   1   2
BRANCH   1  18
ATOM     18  C   UNL     1      41.004  19.909 222.308  1.00  0.00     0.000 C 
BRANCH  18  19
ATOM     19  C   UNL     1      40.224  20.469 223.513  1.00  0.00     0.000 C 
BRANCH  19  20
ATOM     20  C   UNL     1      39.565  19.371 224.367  1.00  0.00     0.000 C 
BRANCH  20  21
ATOM     21  C   UNL     1      40.499  18.174 224.646  1.00  0.00     0.000 C 
BRANCH  21  22
ATOM     22  C   UNL     1      40.692  17.868 226.144  1.00  0.00     0.000 C 
BRANCH  22  23
ATOM     23  C   UNL     1      42.141  17.548 226.559  1.00  0.00     0.000 C 
BRANCH  23  24
ATOM     24  C   UNL     1      42.400  17.709 228.074  1.00  0.00    -0.000 C 
BRANCH  24  25
ATOM     25  C   UNL     1      42.063  19.119 228.587  1.00  0.00    -0.000 C 
BRANCH  25  26
ATOM     26  C   UNL     1      41.359  19.094 229.954  1.00  0.00    -0.000 C 
BRANCH  26  27
ATOM     27  C   UNL     1      39.965  18.446 229.891  1.00  0.00    -0.000 C 
BRANCH  27  28
ATOM     28  C   UNL     1      38.845  19.492 229.701  1.00  0.00    -0.000 C 
BRANCH  28  29
ATOM     29  C   UNL     1      38.636  19.914 228.236  1.00  0.00    -0.000 C 
BRANCH  29  30
ATOM     30  C   UNL     1      38.396  21.424 228.073  1.00  0.00    -0.000 C 
BRANCH  30  31
ATOM     31  C   UNL     1      38.815  21.943 226.689  1.00  0.00    -0.003 C 
ATOM     32  C   UNL     1      37.850  22.995 226.138  1.00  0.00     0.004 C 
ENDBRANCH  30  31
ENDBRANCH  29  30
ENDBRANCH  28  29
ENDBRANCH  27  28
ENDBRANCH  26  27
ENDBRANCH  25  26
ENDBRANCH  24  25
ENDBRANCH  23  24
ENDBRANCH  22  23
ENDBRANCH  21  22
ENDBRANCH  20  21
ENDBRANCH  19  20
ENDBRANCH  18  19
ENDBRANCH   1  18
TORSDOF 28
ENDMDL
MODEL 9
REMARK VINA RESULT:    -3.580      2.937      6.300
REMARK INTER + INTRA:         -14.717
REMARK INTER:                  -8.713
REMARK INTRA:                  -6.004
REMARK UNBOUND:                -5.276
REMARK SMILES CCCCCCCCCCCCCCCCCCCCCCCCCCCCCC(=O)[O-]
REMARK SMILES IDX 16 1 17 2 18 3 19 4 20 5 21 6 22 7 23 8 24 9 25 10 26 11
REMARK SMILES IDX 27 12 28 13 29 14 30 15 31 16 32 17 15 18 14 19 13 20 12 21
REMARK SMILES IDX 11 22 10 23 9 24 8 25 7 26 6 27 5 28 4 29 3 30 2 31 1 32
REMARK H PARENT
REMARK Flexibility Score: inf
ROOT
ATOM      1  C   UNL     1      38.973  21.672 225.394  1.00  0.00     0.000 C 
ENDROOT
BRANCH   1   2
ATOM      2  C   UNL     1      38.253  20.397 225.870  1.00  0.00     0.000 C 
BRANCH   2   3
ATOM      3  C   UNL     1      38.881  19.110 225.303  1.00  0.00     0.000 C 
BRANCH   3   4
ATOM      4  C   UNL     1      40.113  19.329 224.404  1.00  0.00     0.000 C 
BRANCH   4   5
ATOM      5  C   UNL     1      41.435  18.977 225.109  1.00  0.00     0.000 C 
BRANCH   5   6
ATOM      6  C   UNL     1      42.600  19.899 224.702  1.00  0.00     0.000 C 
BRANCH   6   7
ATOM      7  C   UNL     1      42.589  20.369 223.234  1.00  0.00     0.000 C 
BRANCH   7   8
ATOM      8  C   UNL     1      42.533  21.900 223.091  1.00  0.00     0.000 C 
BRANCH   8   9
ATOM      9  C   UNL     1      41.222  22.381 222.448  1.00  0.00     0.000 C 
BRANCH   9  10
ATOM     10  C   UNL     1      40.738  23.727 223.010  1.00  0.00     0.000 C 
BRANCH  10  11
ATOM     11  C   UNL     1      39.719  24.378 222.067  1.00  0.00     0.000 C 
BRANCH  11  12
ATOM     12  C   UNL     1      38.820  23.319 221.410  1.00  0.00     0.000 C 
BRANCH  12  13
ATOM     13  C   UNL     1      37.436  23.214 222.078  1.00  0.00     0.006 C 
BRANCH  13  14
ATOM     14  C   UNL     1      36.505  24.402 221.793  1.00  0.00     0.053 C 
BRANCH  14  15
ATOM     15  C   UNL     1      35.529  24.104 220.696  1.00  0.00     0.041 C 
ATOM     16  O   UNL     1      34.334  23.823 220.972  1.00  0.00    -0.550 OA
ATOM     17  O   UNL     1      35.949  24.104 219.372  1.00  0.00    -0.550 OA
ENDBRANCH  14  15
ENDBRANCH  13  14
ENDBRANCH  12  13
ENDBRANCH  11  12
ENDBRANCH  10  11
ENDBRANCH   9  10
ENDBRANCH   8   9
ENDBRANCH   7   8
ENDBRANCH   6   7
ENDBRANCH   5   6
ENDBRANCH   4   5
ENDBRANCH   3   4
ENDBRANCH   2   3
ENDBRANCH   1   2
BRANCH   1  18
ATOM     18  C   UNL     1      38.531  22.938 226.153  1.00  0.00     0.000 C 
BRANCH  18  19
ATOM     19  C   UNL     1      37.236  23.596 225.642  1.00  0.00     0.000 C 
BRANCH  19  20
ATOM     20  C   UNL     1      37.393  25.103 225.369  1.00  0.00     0.000 C 
BRANCH  20  21
ATOM     21  C   UNL     1      38.811  25.632 225.672  1.00  0.00     0.000 C 
BRANCH  21  22
ATOM     22  C   UNL     1      39.287  26.734 224.706  1.00  0.00     0.000 C 
BRANCH  22  23
ATOM     23  C   UNL     1      39.865  27.988 225.388  1.00  0.00     0.000 C 
BRANCH  23  24
ATOM     24  C   UNL     1      41.350  28.250 225.048  1.00  0.00    -0.000 C 
BRANCH  24  25
ATOM     25  C   UNL     1      42.306  27.325 225.819  1.00  0.00    -0.000 C 
BRANCH  25  26
ATOM     26  C   UNL     1      43.221  26.515 224.886  1.00  0.00    -0.000 C 
BRANCH  26  27
ATOM     27  C   UNL     1      43.191  25.007 225.189  1.00  0.00    -0.000 C 
BRANCH  27  28
ATOM     28  C   UNL     1      42.320  24.678 226.420  1.00  0.00    -0.000 C 
BRANCH  28  29
ATOM     29  C   UNL     1      41.963  23.186 226.544  1.00  0.00    -0.000 C 
BRANCH  29  30
ATOM     30  C   UNL     1      41.875  22.708 228.002  1.00  0.00    -0.000 C 
BRANCH  30  31
ATOM     31  C   UNL     1      42.156  21.204 228.150  1.00  0.00    -0.003 C 
ATOM     32  C   UNL     1      40.896  20.398 228.470  1.00  0.00     0.004 C 
ENDBRANCH  30  31
ENDBRANCH  29  30
ENDBRANCH  28  29
ENDBRANCH  27  28
ENDBRANCH  26  27
ENDBRANCH  25  26
ENDBRANCH  24  25
ENDBRANCH  23  24
ENDBRANCH  22  23
ENDBRANCH  21  22
ENDBRANCH  20  21
ENDBRANCH  19  20
ENDBRANCH  18  19
ENDBRANCH   1  18
TORSDOF 28
ENDMDL
