MODEL 1
REMARK VINA RESULT:    -7.845      0.000      0.000
REMARK INTER + INTRA:          -9.506
REMARK INTER:                  -9.221
REMARK INTRA:                  -0.285
REMARK UNBOUND:                -0.285
REMARK SMILES O=c1cc(-c2ccc(O)c(O)c2)oc2cc(O)cc(O)c12
REMARK SMILES IDX 4 1 3 2 2 3 1 4 21 5 19 6 18 7 16 8 15 9 14 10 13 11 5 12
REMARK SMILES IDX 6 13 7 14 8 15 12 16 10 17 9 18 11 20 20 22 17 24
REMARK H PARENT 9 19 11 21 20 23 17 25
REMARK Flexibility Score: inf
ROOT
ATOM      1  C   UNL     1     -13.418 -40.463 -17.936  1.00  0.00     0.138 A 
ATOM      2  C   UNL     1     -14.213 -41.532 -18.368  1.00  0.00     0.100 A 
ATOM      3  C   UNL     1     -15.398 -41.276 -19.061  1.00  0.00     0.197 A 
ATOM      4  O   UNL     1     -16.061 -42.258 -19.485  1.00  0.00    -0.289 OA
ATOM      5  C   UNL     1     -15.804 -39.939 -19.291  1.00  0.00     0.107 A 
ATOM      6  C   UNL     1     -17.008 -39.557 -19.955  1.00  0.00     0.134 A 
ATOM      7  C   UNL     1     -17.255 -38.202 -20.210  1.00  0.00     0.093 A 
ATOM      8  C   UNL     1     -16.372 -37.213 -19.775  1.00  0.00     0.123 A 
ATOM      9  C   UNL     1     -15.218 -37.573 -19.080  1.00  0.00     0.094 A 
ATOM     10  C   UNL     1     -14.925 -38.917 -18.840  1.00  0.00     0.146 A 
ATOM     11  O   UNL     1     -13.805 -39.218 -18.191  1.00  0.00    -0.456 OA
ENDROOT
BRANCH   1  12
ATOM     12  C   UNL     1     -12.151 -40.678 -17.192  1.00  0.00     0.021 A 
ATOM     13  C   UNL     1     -11.068 -39.809 -17.408  1.00  0.00     0.016 A 
ATOM     14  C   UNL     1      -9.862 -39.993 -16.727  1.00  0.00     0.051 A 
ATOM     15  C   UNL     1      -9.714 -41.053 -15.826  1.00  0.00     0.157 A 
ATOM     16  C   UNL     1     -11.991 -41.751 -16.294  1.00  0.00     0.062 A 
ATOM     17  C   UNL     1     -10.783 -41.938 -15.611  1.00  0.00     0.158 A 
BRANCH  15  18
ATOM     18  O   UNL     1      -8.510 -41.234 -15.146  1.00  0.00    -0.504 OA
ATOM     19  H   UNL     1      -8.311 -40.744 -14.282  1.00  0.00     0.293 HD
ENDBRANCH  15  18
BRANCH  17  20
ATOM     20  O   UNL     1     -10.664 -43.012 -14.730  1.00  0.00    -0.504 OA
ATOM     21  H   UNL     1     -10.726 -43.974 -15.041  1.00  0.00     0.293 HD
ENDBRANCH  17  20
ENDBRANCH   1  12
BRANCH   6  22
ATOM     22  O   UNL     1     -17.998 -40.456 -20.363  1.00  0.00    -0.507 OA
ATOM     23  H   UNL     1     -18.656 -40.912 -19.750  1.00  0.00     0.293 HD
ENDBRANCH   6  22
BRANCH   8  24
ATOM     24  O   UNL     1     -16.658 -35.875 -20.034  1.00  0.00    -0.508 OA
ATOM     25  H   UNL     1     -15.954 -35.153 -19.932  1.00  0.00     0.293 HD
ENDBRANCH   8  24
TORSDOF 5
ENDMDL
MODEL 2
REMARK VINA RESULT:    -7.571      1.272      2.757
REMARK INTER + INTRA:          -9.183
REMARK INTER:                  -8.884
REMARK INTRA:                  -0.299
REMARK UNBOUND:                -0.285
REMARK SMILES O=c1cc(-c2ccc(O)c(O)c2)oc2cc(O)cc(O)c12
REMARK SMILES IDX 4 1 3 2 2 3 1 4 21 5 19 6 18 7 16 8 15 9 14 10 13 11 5 12
REMARK SMILES IDX 6 13 7 14 8 15 12 16 10 17 9 18 11 20 20 22 17 24
REMARK H PARENT 9 19 11 21 20 23 17 25
REMARK Flexibility Score: inf
ROOT
ATOM      1  C   UNL     1     -13.468 -40.200 -17.576  1.00  0.00     0.138 A 
ATOM      2  C   UNL     1     -13.904 -38.873 -17.697  1.00  0.00     0.100 A 
ATOM      3  C   UNL     1     -15.132 -38.603 -18.303  1.00  0.00     0.197 A 
ATOM      4  O   UNL     1     -15.521 -37.407 -18.347  1.00  0.00    -0.289 OA
ATOM      5  C   UNL     1     -15.910 -39.665 -18.823  1.00  0.00     0.107 A 
ATOM      6  C   UNL     1     -17.161 -39.507 -19.492  1.00  0.00     0.134 A 
ATOM      7  C   UNL     1     -17.886 -40.642 -19.876  1.00  0.00     0.093 A 
ATOM      8  C   UNL     1     -17.381 -41.925 -19.668  1.00  0.00     0.123 A 
ATOM      9  C   UNL     1     -16.137 -42.090 -19.061  1.00  0.00     0.094 A 
ATOM     10  C   UNL     1     -15.404 -40.980 -18.635  1.00  0.00     0.146 A 
ATOM     11  O   UNL     1     -14.231 -41.182 -18.043  1.00  0.00    -0.456 OA
ENDROOT
BRANCH   1  12
ATOM     12  C   UNL     1     -12.170 -40.544 -16.942  1.00  0.00     0.021 A 
ATOM     13  C   UNL     1     -11.051 -39.725 -17.172  1.00  0.00     0.016 A 
ATOM     14  C   UNL     1      -9.816 -40.030 -16.596  1.00  0.00     0.051 A 
ATOM     15  C   UNL     1      -9.674 -41.164 -15.787  1.00  0.00     0.157 A 
ATOM     16  C   UNL     1     -12.018 -41.691 -16.139  1.00  0.00     0.062 A 
ATOM     17  C   UNL     1     -10.781 -41.999 -15.560  1.00  0.00     0.158 A 
BRANCH  15  18
ATOM     18  O   UNL     1      -8.441 -41.465 -15.210  1.00  0.00    -0.504 OA
ATOM     19  H   UNL     1      -7.825 -40.737 -14.867  1.00  0.00     0.293 HD
ENDBRANCH  15  18
BRANCH  17  20
ATOM     20  O   UNL     1     -10.669 -43.143 -14.770  1.00  0.00    -0.504 OA
ATOM     21  H   UNL     1     -11.150 -44.004 -14.999  1.00  0.00     0.293 HD
ENDBRANCH  17  20
ENDBRANCH   1  12
BRANCH   6  22
ATOM     22  O   UNL     1     -17.722 -38.270 -19.822  1.00  0.00    -0.507 OA
ATOM     23  H   UNL     1     -17.894 -37.943 -20.760  1.00  0.00     0.293 HD
ENDBRANCH   6  22
BRANCH   8  24
ATOM     24  O   UNL     1     -18.125 -43.030 -20.077  1.00  0.00    -0.508 OA
ATOM     25  H   UNL     1     -18.097 -43.362 -21.034  1.00  0.00     0.293 HD
ENDBRANCH   8  24
TORSDOF 5
ENDMDL
MODEL 3
REMARK VINA RESULT:    -7.237      2.530      3.631
REMARK INTER + INTRA:          -8.791
REMARK INTER:                  -8.498
REMARK INTRA:                  -0.293
REMARK UNBOUND:                -0.285
REMARK SMILES O=c1cc(-c2ccc(O)c(O)c2)oc2cc(O)cc(O)c12
REMARK SMILES IDX 4 1 3 2 2 3 1 4 21 5 19 6 18 7 16 8 15 9 14 10 13 11 5 12
REMARK SMILES IDX 6 13 7 14 8 15 12 16 10 17 9 18 11 20 20 22 17 24
REMARK H PARENT 9 19 11 21 20 23 17 25
REMARK Flexibility Score: inf
ROOT
ATOM      1  C   UNL     1     -12.227 -39.550 -18.072  1.00  0.00     0.138 A 
ATOM      2  C   UNL     1     -13.556 -39.139 -17.901  1.00  0.00     0.100 A 
ATOM      3  C   UNL     1     -14.098 -38.183 -18.762  1.00  0.00     0.197 A 
ATOM      4  O   UNL     1     -15.310 -37.875 -18.618  1.00  0.00    -0.289 OA
ATOM      5  C   UNL     1     -13.294 -37.611 -19.777  1.00  0.00     0.107 A 
ATOM      6  C   UNL     1     -13.728 -36.604 -20.690  1.00  0.00     0.134 A 
ATOM      7  C   UNL     1     -12.870 -36.186 -21.715  1.00  0.00     0.093 A 
ATOM      8  C   UNL     1     -11.576 -36.694 -21.825  1.00  0.00     0.123 A 
ATOM      9  C   UNL     1     -11.123 -37.641 -20.907  1.00  0.00     0.094 A 
ATOM     10  C   UNL     1     -11.966 -38.105 -19.894  1.00  0.00     0.146 A 
ATOM     11  O   UNL     1     -11.502 -39.021 -19.052  1.00  0.00    -0.456 OA
ENDROOT
BRANCH   1  12
ATOM     12  C   UNL     1     -11.598 -40.561 -17.183  1.00  0.00     0.021 A 
ATOM     13  C   UNL     1     -12.319 -41.715 -16.833  1.00  0.00     0.016 A 
ATOM     14  C   UNL     1     -11.756 -42.677 -15.992  1.00  0.00     0.051 A 
ATOM     15  C   UNL     1     -10.465 -42.500 -15.480  1.00  0.00     0.157 A 
ATOM     16  C   UNL     1     -10.306 -40.381 -16.654  1.00  0.00     0.062 A 
ATOM     17  C   UNL     1      -9.738 -41.344 -15.811  1.00  0.00     0.158 A 
BRANCH  15  18
ATOM     18  O   UNL     1      -9.903 -43.463 -14.643  1.00  0.00    -0.504 OA
ATOM     19  H   UNL     1      -9.378 -44.246 -15.015  1.00  0.00     0.293 HD
ENDBRANCH  15  18
BRANCH  17  20
ATOM     20  O   UNL     1      -8.456 -41.131 -15.308  1.00  0.00    -0.504 OA
ATOM     21  H   UNL     1      -8.196 -40.271 -14.839  1.00  0.00     0.293 HD
ENDBRANCH  17  20
ENDBRANCH   1  12
BRANCH   6  22
ATOM     22  O   UNL     1     -14.972 -35.971 -20.624  1.00  0.00    -0.507 OA
ATOM     23  H   UNL     1     -15.151 -35.088 -20.170  1.00  0.00     0.293 HD
ENDBRANCH   6  22
BRANCH   8  24
ATOM     24  O   UNL     1     -10.746 -36.243 -22.848  1.00  0.00    -0.508 OA
ATOM     25  H   UNL     1      -9.796 -36.584 -22.950  1.00  0.00     0.293 HD
ENDBRANCH   8  24
TORSDOF 5
ENDMDL
MODEL 4
REMARK VINA RESULT:    -7.032      3.464      4.586
REMARK INTER + INTRA:          -8.550
REMARK INTER:                  -8.239
REMARK INTRA:                  -0.311
REMARK UNBOUND:                -0.285
REMARK SMILES O=c1cc(-c2ccc(O)c(O)c2)oc2cc(O)cc(O)c12
REMARK SMILES IDX 4 1 3 2 2 3 1 4 21 5 19 6 18 7 16 8 15 9 14 10 13 11 5 12
REMARK SMILES IDX 6 13 7 14 8 15 12 16 10 17 9 18 11 20 20 22 17 24
REMARK H PARENT 9 19 11 21 20 23 17 25
REMARK Flexibility Score: inf
ROOT
ATOM      1  C   UNL     1     -13.035 -40.100 -18.975  1.00  0.00     0.138 A 
ATOM      2  C   UNL     1     -13.221 -39.243 -17.882  1.00  0.00     0.100 A 
ATOM      3  C   UNL     1     -14.394 -39.330 -17.129  1.00  0.00     0.197 A 
ATOM      4  O   UNL     1     -14.507 -38.585 -16.121  1.00  0.00    -0.289 OA
ATOM      5  C   UNL     1     -15.399 -40.256 -17.496  1.00  0.00     0.107 A 
ATOM      6  C   UNL     1     -16.649 -40.409 -16.825  1.00  0.00     0.134 A 
ATOM      7  C   UNL     1     -17.525 -41.429 -17.221  1.00  0.00     0.093 A 
ATOM      8  C   UNL     1     -17.223 -42.261 -18.298  1.00  0.00     0.123 A 
ATOM      9  C   UNL     1     -16.027 -42.087 -18.994  1.00  0.00     0.094 A 
ATOM     10  C   UNL     1     -15.117 -41.103 -18.602  1.00  0.00     0.146 A 
ATOM     11  O   UNL     1     -13.980 -40.982 -19.281  1.00  0.00    -0.456 OA
ENDROOT
BRANCH   1  12
ATOM     12  C   UNL     1     -11.809 -40.049 -19.813  1.00  0.00     0.021 A 
ATOM     13  C   UNL     1     -11.049 -38.867 -19.851  1.00  0.00     0.016 A 
ATOM     14  C   UNL     1      -9.897 -38.788 -20.636  1.00  0.00     0.051 A 
ATOM     15  C   UNL     1      -9.487 -39.886 -21.403  1.00  0.00     0.157 A 
ATOM     16  C   UNL     1     -11.400 -41.145 -20.596  1.00  0.00     0.062 A 
ATOM     17  C   UNL     1     -10.245 -41.069 -21.384  1.00  0.00     0.158 A 
BRANCH  15  18
ATOM     18  O   UNL     1      -8.335 -39.806 -22.183  1.00  0.00    -0.504 OA
ATOM     19  H   UNL     1      -7.896 -38.917 -22.391  1.00  0.00     0.293 HD
ENDBRANCH  15  18
BRANCH  17  20
ATOM     20  O   UNL     1      -9.871 -42.175 -22.146  1.00  0.00    -0.504 OA
ATOM     21  H   UNL     1      -9.195 -42.853 -21.815  1.00  0.00     0.293 HD
ENDBRANCH  17  20
ENDBRANCH   1  12
BRANCH   6  22
ATOM     22  O   UNL     1     -17.088 -39.582 -15.786  1.00  0.00    -0.507 OA
ATOM     23  H   UNL     1     -16.487 -39.095 -15.140  1.00  0.00     0.293 HD
ENDBRANCH   6  22
BRANCH   8  24
ATOM     24  O   UNL     1     -18.125 -43.254 -18.672  1.00  0.00    -0.508 OA
ATOM     25  H   UNL     1     -18.334 -44.037 -18.063  1.00  0.00     0.293 HD
ENDBRANCH   8  24
TORSDOF 5
ENDMDL
MODEL 5
REMARK VINA RESULT:    -7.022      1.871      2.871
REMARK INTER + INTRA:          -8.538
REMARK INTER:                  -8.275
REMARK INTRA:                  -0.263
REMARK UNBOUND:                -0.285
REMARK SMILES O=c1cc(-c2ccc(O)c(O)c2)oc2cc(O)cc(O)c12
REMARK SMILES IDX 4 1 3 2 2 3 1 4 21 5 19 6 18 7 16 8 15 9 14 10 13 11 5 12
REMARK SMILES IDX 6 13 7 14 8 15 12 16 10 17 9 18 11 20 20 22 17 24
REMARK H PARENT 9 19 11 21 20 23 17 25
REMARK Flexibility Score: inf
ROOT
ATOM      1  C   UNL     1     -12.976 -39.790 -17.395  1.00  0.00     0.138 A 
ATOM      2  C   UNL     1     -13.756 -38.903 -16.640  1.00  0.00     0.100 A 
ATOM      3  C   UNL     1     -14.660 -38.057 -17.286  1.00  0.00     0.197 A 
ATOM      4  O   UNL     1     -15.385 -37.312 -16.577  1.00  0.00    -0.289 OA
ATOM      5  C   UNL     1     -14.756 -38.077 -18.698  1.00  0.00     0.107 A 
ATOM      6  C   UNL     1     -15.616 -37.236 -19.467  1.00  0.00     0.134 A 
ATOM      7  C   UNL     1     -15.696 -37.415 -20.854  1.00  0.00     0.093 A 
ATOM      8  C   UNL     1     -14.906 -38.362 -21.506  1.00  0.00     0.123 A 
ATOM      9  C   UNL     1     -14.025 -39.154 -20.770  1.00  0.00     0.094 A 
ATOM     10  C   UNL     1     -13.947 -39.024 -19.382  1.00  0.00     0.146 A 
ATOM     11  O   UNL     1     -13.108 -39.811 -18.717  1.00  0.00    -0.456 OA
ENDROOT
BRANCH   1  12
ATOM     12  C   UNL     1     -11.997 -40.709 -16.760  1.00  0.00     0.021 A 
ATOM     13  C   UNL     1     -12.347 -42.054 -16.552  1.00  0.00     0.016 A 
ATOM     14  C   UNL     1     -11.449 -42.938 -15.950  1.00  0.00     0.051 A 
ATOM     15  C   UNL     1     -10.188 -42.491 -15.537  1.00  0.00     0.157 A 
ATOM     16  C   UNL     1     -10.732 -40.263 -16.330  1.00  0.00     0.062 A 
ATOM     17  C   UNL     1      -9.830 -41.146 -15.726  1.00  0.00     0.158 A 
BRANCH  15  18
ATOM     18  O   UNL     1      -9.292 -43.376 -14.938  1.00  0.00    -0.504 OA
ATOM     19  H   UNL     1      -8.339 -43.103 -14.728  1.00  0.00     0.293 HD
ENDBRANCH  15  18
BRANCH  17  20
ATOM     20  O   UNL     1      -8.587 -40.668 -15.314  1.00  0.00    -0.504 OA
ATOM     21  H   UNL     1      -7.743 -40.829 -15.851  1.00  0.00     0.293 HD
ENDBRANCH  17  20
ENDBRANCH   1  12
BRANCH   6  22
ATOM     22  O   UNL     1     -16.391 -36.205 -18.928  1.00  0.00    -0.507 OA
ATOM     23  H   UNL     1     -16.409 -35.941 -17.956  1.00  0.00     0.293 HD
ENDBRANCH   6  22
BRANCH   8  24
ATOM     24  O   UNL     1     -15.002 -38.501 -22.888  1.00  0.00    -0.508 OA
ATOM     25  H   UNL     1     -15.797 -38.141 -23.404  1.00  0.00     0.293 HD
ENDBRANCH   8  24
TORSDOF 5
ENDMDL
MODEL 6
REMARK VINA RESULT:    -6.866     12.978     15.507
REMARK INTER + INTRA:          -8.354
REMARK INTER:                  -8.079
REMARK INTRA:                  -0.275
REMARK UNBOUND:                -0.285
REMARK SMILES O=c1cc(-c2ccc(O)c(O)c2)oc2cc(O)cc(O)c12
REMARK SMILES IDX 4 1 3 2 2 3 1 4 21 5 19 6 18 7 16 8 15 9 14 10 13 11 5 12
REMARK SMILES IDX 6 13 7 14 8 15 12 16 10 17 9 18 11 20 20 22 17 24
REMARK H PARENT 9 19 11 21 20 23 17 25
REMARK Flexibility Score: inf
ROOT
ATOM      1  C   UNL     1      -0.773 -46.736 -20.553  1.00  0.00     0.138 A 
ATOM      2  C   UNL     1       0.370 -47.041 -19.802  1.00  0.00     0.100 A 
ATOM      3  C   UNL     1       0.875 -46.102 -18.901  1.00  0.00     0.197 A 
ATOM      4  O   UNL     1       1.869 -46.427 -18.200  1.00  0.00    -0.289 OA
ATOM      5  C   UNL     1       0.251 -44.837 -18.779  1.00  0.00     0.107 A 
ATOM      6  C   UNL     1       0.697 -43.789 -17.919  1.00  0.00     0.134 A 
ATOM      7  C   UNL     1      -0.061 -42.616 -17.811  1.00  0.00     0.093 A 
ATOM      8  C   UNL     1      -1.213 -42.428 -18.573  1.00  0.00     0.123 A 
ATOM      9  C   UNL     1      -1.630 -43.426 -19.455  1.00  0.00     0.094 A 
ATOM     10  C   UNL     1      -0.917 -44.621 -19.559  1.00  0.00     0.146 A 
ATOM     11  O   UNL     1      -1.359 -45.553 -20.398  1.00  0.00    -0.456 OA
ENDROOT
BRANCH   1  12
ATOM     12  C   UNL     1      -1.350 -47.696 -21.529  1.00  0.00     0.021 A 
ATOM     13  C   UNL     1      -1.677 -47.253 -22.822  1.00  0.00     0.016 A 
ATOM     14  C   UNL     1      -2.229 -48.132 -23.756  1.00  0.00     0.051 A 
ATOM     15  C   UNL     1      -2.472 -49.467 -23.413  1.00  0.00     0.157 A 
ATOM     16  C   UNL     1      -1.610 -49.036 -21.185  1.00  0.00     0.062 A 
ATOM     17  C   UNL     1      -2.163 -49.920 -22.119  1.00  0.00     0.158 A 
BRANCH  15  18
ATOM     18  O   UNL     1      -3.020 -50.344 -24.348  1.00  0.00    -0.504 OA
ATOM     19  H   UNL     1      -2.611 -51.254 -24.525  1.00  0.00     0.293 HD
ENDBRANCH  15  18
BRANCH  17  20
ATOM     20  O   UNL     1      -2.405 -51.240 -21.741  1.00  0.00    -0.504 OA
ATOM     21  H   UNL     1      -2.425 -51.998 -22.414  1.00  0.00     0.293 HD
ENDBRANCH  17  20
ENDBRANCH   1  12
BRANCH   6  22
ATOM     22  O   UNL     1       1.877 -43.837 -17.171  1.00  0.00    -0.507 OA
ATOM     23  H   UNL     1       2.066 -44.492 -16.428  1.00  0.00     0.293 HD
ENDBRANCH   6  22
BRANCH   8  24
ATOM     24  O   UNL     1      -1.932 -41.242 -18.450  1.00  0.00    -0.508 OA
ATOM     25  H   UNL     1      -1.523 -40.347 -18.692  1.00  0.00     0.293 HD
ENDBRANCH   8  24
TORSDOF 5
ENDMDL
MODEL 7
REMARK VINA RESULT:    -6.795      4.520      6.546
REMARK INTER + INTRA:          -8.271
REMARK INTER:                  -8.004
REMARK INTRA:                  -0.267
REMARK UNBOUND:                -0.285
REMARK SMILES O=c1cc(-c2ccc(O)c(O)c2)oc2cc(O)cc(O)c12
REMARK SMILES IDX 4 1 3 2 2 3 1 4 21 5 19 6 18 7 16 8 15 9 14 10 13 11 5 12
REMARK SMILES IDX 6 13 7 14 8 15 12 16 10 17 9 18 11 20 20 22 17 24
REMARK H PARENT 9 19 11 21 20 23 17 25
REMARK Flexibility Score: inf
ROOT
ATOM      1  C   UNL     1     -11.374 -39.466 -19.698  1.00  0.00     0.138 A 
ATOM      2  C   UNL     1     -11.216 -40.726 -20.290  1.00  0.00     0.100 A 
ATOM      3  C   UNL     1     -10.263 -40.901 -21.295  1.00  0.00     0.197 A 
ATOM      4  O   UNL     1     -10.106 -42.056 -21.769  1.00  0.00    -0.289 OA
ATOM      5  C   UNL     1      -9.490 -39.799 -21.732  1.00  0.00     0.107 A 
ATOM      6  C   UNL     1      -8.514 -39.850 -22.772  1.00  0.00     0.134 A 
ATOM      7  C   UNL     1      -7.741 -38.716 -23.050  1.00  0.00     0.093 A 
ATOM      8  C   UNL     1      -7.948 -37.517 -22.368  1.00  0.00     0.123 A 
ATOM      9  C   UNL     1      -8.934 -37.441 -21.385  1.00  0.00     0.094 A 
ATOM     10  C   UNL     1      -9.698 -38.564 -21.060  1.00  0.00     0.146 A 
ATOM     11  O   UNL     1     -10.614 -38.454 -20.104  1.00  0.00    -0.456 OA
ENDROOT
BRANCH   1  12
ATOM     12  C   UNL     1     -12.375 -39.222 -18.627  1.00  0.00     0.021 A 
ATOM     13  C   UNL     1     -12.089 -39.625 -17.311  1.00  0.00     0.016 A 
ATOM     14  C   UNL     1     -13.015 -39.416 -16.287  1.00  0.00     0.051 A 
ATOM     15  C   UNL     1     -14.246 -38.808 -16.560  1.00  0.00     0.157 A 
ATOM     16  C   UNL     1     -13.620 -38.624 -18.899  1.00  0.00     0.062 A 
ATOM     17  C   UNL     1     -14.551 -38.414 -17.874  1.00  0.00     0.158 A 
BRANCH  15  18
ATOM     18  O   UNL     1     -15.168 -38.598 -15.536  1.00  0.00    -0.504 OA
ATOM     19  H   UNL     1     -16.057 -38.144 -15.708  1.00  0.00     0.293 HD
ENDBRANCH  15  18
BRANCH  17  20
ATOM     20  O   UNL     1     -15.773 -37.818 -18.181  1.00  0.00    -0.504 OA
ATOM     21  H   UNL     1     -15.837 -36.979 -18.745  1.00  0.00     0.293 HD
ENDBRANCH  17  20
ENDBRANCH   1  12
BRANCH   6  22
ATOM     22  O   UNL     1      -8.278 -40.973 -23.572  1.00  0.00    -0.507 OA
ATOM     23  H   UNL     1      -7.380 -41.411 -23.706  1.00  0.00     0.293 HD
ENDBRANCH   6  22
BRANCH   8  24
ATOM     24  O   UNL     1      -7.170 -36.405 -22.682  1.00  0.00    -0.508 OA
ATOM     25  H   UNL     1      -7.577 -35.573 -23.095  1.00  0.00     0.293 HD
ENDBRANCH   8  24
TORSDOF 5
ENDMDL
MODEL 8
REMARK VINA RESULT:    -6.790      3.926      6.206
REMARK INTER + INTRA:          -8.265
REMARK INTER:                  -7.998
REMARK INTRA:                  -0.267
REMARK UNBOUND:                -0.285
REMARK SMILES O=c1cc(-c2ccc(O)c(O)c2)oc2cc(O)cc(O)c12
REMARK SMILES IDX 4 1 3 2 2 3 1 4 21 5 19 6 18 7 16 8 15 9 14 10 13 11 5 12
REMARK SMILES IDX 6 13 7 14 8 15 12 16 10 17 9 18 11 20 20 22 17 24
REMARK H PARENT 9 19 11 21 20 23 17 25
REMARK Flexibility Score: inf
ROOT
ATOM      1  C   UNL     1     -13.149 -38.687 -19.497  1.00  0.00     0.138 A 
ATOM      2  C   UNL     1     -13.499 -37.529 -20.206  1.00  0.00     0.100 A 
ATOM      3  C   UNL     1     -12.639 -37.037 -21.190  1.00  0.00     0.197 A 
ATOM      4  O   UNL     1     -13.007 -36.028 -21.848  1.00  0.00    -0.289 OA
ATOM      5  C   UNL     1     -11.408 -37.688 -21.440  1.00  0.00     0.107 A 
ATOM      6  C   UNL     1     -10.437 -37.257 -22.394  1.00  0.00     0.134 A 
ATOM      7  C   UNL     1      -9.299 -38.041 -22.621  1.00  0.00     0.093 A 
ATOM      8  C   UNL     1      -9.066 -39.205 -21.890  1.00  0.00     0.123 A 
ATOM      9  C   UNL     1      -9.983 -39.608 -20.919  1.00  0.00     0.094 A 
ATOM     10  C   UNL     1     -11.145 -38.869 -20.693  1.00  0.00     0.146 A 
ATOM     11  O   UNL     1     -12.002 -39.298 -19.772  1.00  0.00    -0.456 OA
ENDROOT
BRANCH   1  12
ATOM     12  C   UNL     1     -14.024 -39.252 -18.438  1.00  0.00     0.021 A 
ATOM     13  C   UNL     1     -14.546 -40.547 -18.594  1.00  0.00     0.016 A 
ATOM     14  C   UNL     1     -15.378 -41.100 -17.617  1.00  0.00     0.051 A 
ATOM     15  C   UNL     1     -15.709 -40.366 -16.472  1.00  0.00     0.157 A 
ATOM     16  C   UNL     1     -14.371 -38.513 -17.291  1.00  0.00     0.062 A 
ATOM     17  C   UNL     1     -15.205 -39.065 -16.311  1.00  0.00     0.158 A 
BRANCH  15  18
ATOM     18  O   UNL     1     -16.537 -40.921 -15.497  1.00  0.00    -0.504 OA
ATOM     19  H   UNL     1     -17.546 -40.836 -15.548  1.00  0.00     0.293 HD
ENDBRANCH  15  18
BRANCH  17  20
ATOM     20  O   UNL     1     -15.526 -38.302 -15.189  1.00  0.00    -0.504 OA
ATOM     21  H   UNL     1     -16.133 -38.651 -14.456  1.00  0.00     0.293 HD
ENDBRANCH  17  20
ENDBRANCH   1  12
BRANCH   6  22
ATOM     22  O   UNL     1     -10.530 -36.069 -23.124  1.00  0.00    -0.507 OA
ATOM     23  H   UNL     1     -10.397 -35.988 -24.120  1.00  0.00     0.293 HD
ENDBRANCH   6  22
BRANCH   8  24
ATOM     24  O   UNL     1      -7.915 -39.950 -22.133  1.00  0.00    -0.508 OA
ATOM     25  H   UNL     1      -7.004 -39.638 -21.815  1.00  0.00     0.293 HD
ENDBRANCH   8  24
TORSDOF 5
ENDMDL
MODEL 9
REMARK VINA RESULT:    -6.631      3.809      5.855
REMARK INTER + INTRA:          -8.078
REMARK INTER:                  -7.771
REMARK INTRA:                  -0.307
REMARK UNBOUND:                -0.285
REMARK SMILES O=c1cc(-c2ccc(O)c(O)c2)oc2cc(O)cc(O)c12
REMARK SMILES IDX 4 1 3 2 2 3 1 4 21 5 19 6 18 7 16 8 15 9 14 10 13 11 5 12
REMARK SMILES IDX 6 13 7 14 8 15 12 16 10 17 9 18 11 20 20 22 17 24
REMARK H PARENT 9 19 11 21 20 23 17 25
REMARK Flexibility Score: inf
ROOT
ATOM      1  C   UNL     1     -12.887 -40.256 -19.313  1.00  0.00     0.138 A 
ATOM      2  C   UNL     1     -12.444 -41.415 -19.965  1.00  0.00     0.100 A 
ATOM      3  C   UNL     1     -11.371 -41.339 -20.855  1.00  0.00     0.197 A 
ATOM      4  O   UNL     1     -10.961 -42.405 -21.382  1.00  0.00    -0.289 OA
ATOM      5  C   UNL     1     -10.762 -40.088 -21.118  1.00  0.00     0.107 A 
ATOM      6  C   UNL     1      -9.684 -39.884 -22.032  1.00  0.00     0.134 A 
ATOM      7  C   UNL     1      -9.099 -38.616 -22.135  1.00  0.00     0.093 A 
ATOM      8  C   UNL     1      -9.588 -37.533 -21.404  1.00  0.00     0.123 A 
ATOM      9  C   UNL     1     -10.674 -37.711 -20.547  1.00  0.00     0.094 A 
ATOM     10  C   UNL     1     -11.258 -38.970 -20.395  1.00  0.00     0.146 A 
ATOM     11  O   UNL     1     -12.278 -39.100 -19.554  1.00  0.00    -0.456 OA
ENDROOT
BRANCH   1  12
ATOM     12  C   UNL     1     -14.026 -40.279 -18.360  1.00  0.00     0.021 A 
ATOM     13  C   UNL     1     -15.050 -41.226 -18.531  1.00  0.00     0.016 A 
ATOM     14  C   UNL     1     -16.137 -41.264 -17.654  1.00  0.00     0.051 A 
ATOM     15  C   UNL     1     -16.223 -40.352 -16.596  1.00  0.00     0.157 A 
ATOM     16  C   UNL     1     -14.125 -39.355 -17.301  1.00  0.00     0.062 A 
ATOM     17  C   UNL     1     -15.214 -39.391 -16.421  1.00  0.00     0.158 A 
BRANCH  15  18
ATOM     18  O   UNL     1     -17.308 -40.394 -15.720  1.00  0.00    -0.504 OA
ATOM     19  H   UNL     1     -18.047 -39.703 -15.760  1.00  0.00     0.293 HD
ENDBRANCH  15  18
BRANCH  17  20
ATOM     20  O   UNL     1     -15.277 -38.461 -15.385  1.00  0.00    -0.504 OA
ATOM     21  H   UNL     1     -14.694 -37.632 -15.368  1.00  0.00     0.293 HD
ENDBRANCH  17  20
ENDBRANCH   1  12
BRANCH   6  22
ATOM     22  O   UNL     1      -9.168 -40.877 -22.870  1.00  0.00    -0.507 OA
ATOM     23  H   UNL     1      -9.498 -41.828 -22.912  1.00  0.00     0.293 HD
ENDBRANCH   6  22
BRANCH   8  24
ATOM     24  O   UNL     1      -8.991 -36.283 -21.545  1.00  0.00    -0.508 OA
ATOM     25  H   UNL     1      -9.481 -35.506 -21.972  1.00  0.00     0.293 HD
ENDBRANCH   8  24
TORSDOF 5
ENDMDL
