MODEL 1
REMARK VINA RESULT:    -7.446      0.000      0.000
REMARK INTER + INTRA:         -11.169
REMARK INTER:                 -10.275
REMARK INTRA:                  -0.894
REMARK UNBOUND:                -0.894
REMARK SMILES CC[C@@H](CC[C@H](C)[C@@H]1CC[C@H]2[C@H]3CC=C4C[C@@H](O)CC[C@]4(C)[C@H]3CC[C@]21C)C(C)C
REMARK SMILES IDX 5 1 4 2 3 3 2 4 1 5 28 6 29 7 30 8 6 9 7 10 8 11 9 12 26 13
REMARK SMILES IDX 10 14 11 15 25 16 27 17 12 18 24 19 23 20 13 21 21 22 14 23
REMARK SMILES IDX 15 24 20 25 22 26 16 27 19 28 17 29 18 30
REMARK H PARENT 18 31
REMARK Flexibility Score: inf
ROOT
ATOM      1  C   UNL     1     -24.472 -51.555 103.625  1.00  0.00     0.004 C 
ENDROOT
BRANCH   1   2
ATOM      2  C   UNL     1     -25.128 -52.405 102.505  1.00  0.00     0.004 C 
BRANCH   2   3
ATOM      3  C   UNL     1     -25.540 -53.847 102.934  1.00  0.00    -0.009 C 
BRANCH   3   4
ATOM      4  C   UNL     1     -25.315 -54.879 101.789  1.00  0.00     0.000 C 
ATOM      5  C   UNL     1     -24.284 -54.426 100.749  1.00  0.00     0.004 C 
ENDBRANCH   3   4
BRANCH   3   6
ATOM      6  C   UNL     1     -26.990 -53.894 103.543  1.00  0.00    -0.014 C 
ATOM      7  C   UNL     1     -26.976 -53.584 105.053  1.00  0.00     0.007 C 
ATOM      8  C   UNL     1     -27.692 -55.251 103.343  1.00  0.00     0.007 C 
ENDBRANCH   3   6
ENDBRANCH   2   3
ENDBRANCH   1   2
BRANCH   1   9
ATOM      9  C   UNL     1     -23.878 -50.191 103.159  1.00  0.00    -0.011 C 
ATOM     10  C   UNL     1     -23.591 -50.176 101.647  1.00  0.00     0.008 C 
BRANCH   9  11
ATOM     11  C   UNL     1     -22.652 -49.640 103.978  1.00  0.00    -0.002 C 
ATOM     12  C   UNL     1     -22.096 -50.522 105.104  1.00  0.00     0.005 C 
ATOM     13  C   UNL     1     -22.814 -48.229 104.608  1.00  0.00    -0.026 C 
ATOM     14  C   UNL     1     -21.346 -49.587 106.057  1.00  0.00     0.005 C 
ATOM     15  C   UNL     1     -21.605 -48.144 105.582  1.00  0.00    -0.001 C 
ATOM     16  C   UNL     1     -22.788 -47.096 103.539  1.00  0.00     0.007 C 
ATOM     17  C   UNL     1     -24.127 -48.115 105.432  1.00  0.00     0.012 C 
ATOM     18  C   UNL     1     -20.345 -47.408 105.012  1.00  0.00     0.000 C 
ATOM     19  C   UNL     1     -22.181 -45.800 104.101  1.00  0.00     0.005 C 
ATOM     20  C   UNL     1     -20.682 -45.962 104.489  1.00  0.00     0.003 C 
ATOM     21  C   UNL     1     -19.485 -48.185 103.988  1.00  0.00     0.031 C 
ATOM     22  C   UNL     1     -19.651 -45.380 103.414  1.00  0.00    -0.008 C 
ATOM     23  C   UNL     1     -18.228 -47.397 103.753  1.00  0.00    -0.027 C 
ATOM     24  C   UNL     1     -18.288 -46.063 103.569  1.00  0.00    -0.065 C 
ATOM     25  C   UNL     1     -19.476 -43.852 103.659  1.00  0.00     0.014 C 
ATOM     26  C   UNL     1     -20.112 -45.597 101.942  1.00  0.00     0.016 C 
ATOM     27  C   UNL     1     -17.026 -45.242 103.737  1.00  0.00     0.063 C 
ATOM     28  C   UNL     1     -18.375 -43.220 102.791  1.00  0.00     0.033 C 
ATOM     29  C   UNL     1     -17.012 -43.957 102.879  1.00  0.00     0.118 C 
BRANCH  29  30
ATOM     30  O   UNL     1     -16.506 -44.218 101.593  1.00  0.00    -0.393 OA
ATOM     31  H   UNL     1     -16.154 -45.145 101.589  1.00  0.00     0.210 HD
ENDBRANCH  29  30
ENDBRANCH   9  11
ENDBRANCH   1   9
TORSDOF 7
ENDMDL
MODEL 2
REMARK VINA RESULT:    -7.051      5.282      9.768
REMARK INTER + INTRA:         -10.624
REMARK INTER:                  -8.756
REMARK INTRA:                  -1.869
REMARK UNBOUND:                -0.894
REMARK SMILES CC[C@@H](CC[C@H](C)[C@@H]1CC[C@H]2[C@H]3CC=C4C[C@@H](O)CC[C@]4(C)[C@H]3CC[C@]21C)C(C)C
REMARK SMILES IDX 5 1 4 2 3 3 2 4 1 5 28 6 29 7 30 8 6 9 7 10 8 11 9 12 26 13
REMARK SMILES IDX 10 14 11 15 25 16 27 17 12 18 24 19 23 20 13 21 21 22 14 23
REMARK SMILES IDX 15 24 20 25 22 26 16 27 19 28 17 29 18 30
REMARK H PARENT 18 31
REMARK Flexibility Score: inf
ROOT
ATOM      1  C   UNL     1     -15.827 -46.835 109.452  1.00  0.00     0.004 C 
ENDROOT
BRANCH   1   2
ATOM      2  C   UNL     1     -15.394 -45.737 110.459  1.00  0.00     0.004 C 
BRANCH   2   3
ATOM      3  C   UNL     1     -14.671 -44.512 109.819  1.00  0.00    -0.009 C 
BRANCH   3   4
ATOM      4  C   UNL     1     -13.344 -44.925 109.115  1.00  0.00     0.000 C 
ATOM      5  C   UNL     1     -12.962 -44.016 107.943  1.00  0.00     0.004 C 
ENDBRANCH   3   4
BRANCH   3   6
ATOM      6  C   UNL     1     -14.495 -43.327 110.840  1.00  0.00    -0.014 C 
ATOM      7  C   UNL     1     -14.701 -43.802 112.293  1.00  0.00     0.007 C 
ATOM      8  C   UNL     1     -15.458 -42.152 110.584  1.00  0.00     0.007 C 
ENDBRANCH   3   6
ENDBRANCH   2   3
ENDBRANCH   1   2
BRANCH   1   9
ATOM      9  C   UNL     1     -17.044 -46.465 108.550  1.00  0.00    -0.011 C 
ATOM     10  C   UNL     1     -18.252 -47.382 108.811  1.00  0.00     0.008 C 
BRANCH   9  11
ATOM     11  C   UNL     1     -16.760 -46.321 107.008  1.00  0.00    -0.002 C 
ATOM     12  C   UNL     1     -15.315 -46.515 106.531  1.00  0.00     0.005 C 
ATOM     13  C   UNL     1     -17.239 -45.005 106.333  1.00  0.00    -0.026 C 
ATOM     14  C   UNL     1     -15.205 -45.800 105.181  1.00  0.00     0.005 C 
ATOM     15  C   UNL     1     -16.530 -45.048 104.951  1.00  0.00    -0.001 C 
ATOM     16  C   UNL     1     -18.789 -44.939 106.196  1.00  0.00     0.007 C 
ATOM     17  C   UNL     1     -16.746 -43.750 107.108  1.00  0.00     0.012 C 
ATOM     18  C   UNL     1     -17.401 -45.607 103.775  1.00  0.00     0.000 C 
ATOM     19  C   UNL     1     -19.215 -44.151 104.947  1.00  0.00     0.005 C 
ATOM     20  C   UNL     1     -18.767 -44.839 103.625  1.00  0.00     0.003 C 
ATOM     21  C   UNL     1     -17.616 -47.139 103.730  1.00  0.00     0.031 C 
ATOM     22  C   UNL     1     -19.920 -45.659 102.879  1.00  0.00    -0.008 C 
ATOM     23  C   UNL     1     -18.273 -47.472 102.421  1.00  0.00    -0.027 C 
ATOM     24  C   UNL     1     -19.302 -46.727 101.970  1.00  0.00    -0.065 C 
ATOM     25  C   UNL     1     -20.751 -44.676 102.003  1.00  0.00     0.014 C 
ATOM     26  C   UNL     1     -20.886 -46.388 103.859  1.00  0.00     0.016 C 
ATOM     27  C   UNL     1     -19.682 -46.810 100.506  1.00  0.00     0.063 C 
ATOM     28  C   UNL     1     -21.781 -45.384 101.106  1.00  0.00     0.033 C 
ATOM     29  C   UNL     1     -21.177 -46.524 100.244  1.00  0.00     0.118 C 
BRANCH  29  30
ATOM     30  O   UNL     1     -21.942 -47.697 100.367  1.00  0.00    -0.393 OA
ATOM     31  H   UNL     1     -21.491 -48.285 101.026  1.00  0.00     0.210 HD
ENDBRANCH  29  30
ENDBRANCH   9  11
ENDBRANCH   1   9
TORSDOF 7
ENDMDL
MODEL 3
REMARK VINA RESULT:    -6.902      4.828      9.044
REMARK INTER + INTRA:         -10.419
REMARK INTER:                  -8.804
REMARK INTRA:                  -1.615
REMARK UNBOUND:                -0.894
REMARK SMILES CC[C@@H](CC[C@H](C)[C@@H]1CC[C@H]2[C@H]3CC=C4C[C@@H](O)CC[C@]4(C)[C@H]3CC[C@]21C)C(C)C
REMARK SMILES IDX 5 1 4 2 3 3 2 4 1 5 28 6 29 7 30 8 6 9 7 10 8 11 9 12 26 13
REMARK SMILES IDX 10 14 11 15 25 16 27 17 12 18 24 19 23 20 13 21 21 22 14 23
REMARK SMILES IDX 15 24 20 25 22 26 16 27 19 28 17 29 18 30
REMARK H PARENT 18 31
REMARK Flexibility Score: inf
ROOT
ATOM      1  C   UNL     1     -14.369 -46.772 107.885  1.00  0.00     0.004 C 
ENDROOT
BRANCH   1   2
ATOM      2  C   UNL     1     -14.726 -47.482 109.217  1.00  0.00     0.004 C 
BRANCH   2   3
ATOM      3  C   UNL     1     -15.527 -46.608 110.231  1.00  0.00    -0.009 C 
BRANCH   3   4
ATOM      4  C   UNL     1     -14.924 -45.179 110.367  1.00  0.00     0.000 C 
ATOM      5  C   UNL     1     -14.680 -44.751 111.818  1.00  0.00     0.004 C 
ENDBRANCH   3   4
BRANCH   3   6
ATOM      6  C   UNL     1     -15.730 -47.336 111.611  1.00  0.00    -0.014 C 
ATOM      7  C   UNL     1     -14.941 -48.659 111.670  1.00  0.00     0.007 C 
ATOM      8  C   UNL     1     -17.206 -47.649 111.925  1.00  0.00     0.007 C 
ENDBRANCH   3   6
ENDBRANCH   2   3
ENDBRANCH   1   2
BRANCH   1   9
ATOM      9  C   UNL     1     -15.235 -47.192 106.658  1.00  0.00    -0.011 C 
ATOM     10  C   UNL     1     -14.368 -47.499 105.423  1.00  0.00     0.008 C 
BRANCH   9  11
ATOM     11  C   UNL     1     -16.439 -46.248 106.289  1.00  0.00    -0.002 C 
ATOM     12  C   UNL     1     -16.570 -44.929 107.062  1.00  0.00     0.005 C 
ATOM     13  C   UNL     1     -17.857 -46.884 106.324  1.00  0.00    -0.026 C 
ATOM     14  C   UNL     1     -18.035 -44.499 106.939  1.00  0.00     0.005 C 
ATOM     15  C   UNL     1     -18.793 -45.646 106.243  1.00  0.00    -0.001 C 
ATOM     16  C   UNL     1     -18.091 -47.875 105.146  1.00  0.00     0.007 C 
ATOM     17  C   UNL     1     -18.122 -47.623 107.666  1.00  0.00     0.012 C 
ATOM     18  C   UNL     1     -19.318 -45.303 104.806  1.00  0.00     0.000 C 
ATOM     19  C   UNL     1     -19.564 -47.895 104.704  1.00  0.00     0.005 C 
ATOM     20  C   UNL     1     -20.030 -46.529 104.122  1.00  0.00     0.003 C 
ATOM     21  C   UNL     1     -18.316 -44.629 103.839  1.00  0.00     0.031 C 
ATOM     22  C   UNL     1     -20.080 -46.470 102.525  1.00  0.00    -0.008 C 
ATOM     23  C   UNL     1     -19.080 -44.189 102.622  1.00  0.00    -0.027 C 
ATOM     24  C   UNL     1     -19.977 -45.017 102.049  1.00  0.00    -0.065 C 
ATOM     25  C   UNL     1     -21.437 -47.060 102.041  1.00  0.00     0.014 C 
ATOM     26  C   UNL     1     -18.924 -47.262 101.846  1.00  0.00     0.016 C 
ATOM     27  C   UNL     1     -21.007 -44.438 101.101  1.00  0.00     0.063 C 
ATOM     28  C   UNL     1     -21.666 -46.895 100.528  1.00  0.00     0.033 C 
ATOM     29  C   UNL     1     -21.480 -45.440 100.024  1.00  0.00     0.118 C 
BRANCH  29  30
ATOM     30  O   UNL     1     -20.633 -45.408  98.903  1.00  0.00    -0.393 OA
ATOM     31  H   UNL     1     -19.870 -44.812  99.117  1.00  0.00     0.210 HD
ENDBRANCH  29  30
ENDBRANCH   9  11
ENDBRANCH   1   9
TORSDOF 7
ENDMDL
MODEL 4
REMARK VINA RESULT:    -6.889      4.865      9.999
REMARK INTER + INTRA:         -10.400
REMARK INTER:                  -9.325
REMARK INTRA:                  -1.075
REMARK UNBOUND:                -0.894
REMARK SMILES CC[C@@H](CC[C@H](C)[C@@H]1CC[C@H]2[C@H]3CC=C4C[C@@H](O)CC[C@]4(C)[C@H]3CC[C@]21C)C(C)C
REMARK SMILES IDX 5 1 4 2 3 3 2 4 1 5 28 6 29 7 30 8 6 9 7 10 8 11 9 12 26 13
REMARK SMILES IDX 10 14 11 15 25 16 27 17 12 18 24 19 23 20 13 21 21 22 14 23
REMARK SMILES IDX 15 24 20 25 22 26 16 27 19 28 17 29 18 30
REMARK H PARENT 18 31
REMARK Flexibility Score: inf
ROOT
ATOM      1  C   UNL     1     -15.787 -45.052 108.969  1.00  0.00     0.004 C 
ENDROOT
BRANCH   1   2
ATOM      2  C   UNL     1     -14.634 -44.137 109.460  1.00  0.00     0.004 C 
BRANCH   2   3
ATOM      3  C   UNL     1     -14.280 -44.283 110.972  1.00  0.00    -0.009 C 
BRANCH   3   4
ATOM      4  C   UNL     1     -15.001 -45.503 111.619  1.00  0.00     0.000 C 
ATOM      5  C   UNL     1     -14.048 -46.626 112.042  1.00  0.00     0.004 C 
ENDBRANCH   3   4
BRANCH   3   6
ATOM      6  C   UNL     1     -14.491 -42.940 111.764  1.00  0.00    -0.014 C 
ATOM      7  C   UNL     1     -15.054 -43.201 113.175  1.00  0.00     0.007 C 
ATOM      8  C   UNL     1     -15.435 -41.953 111.051  1.00  0.00     0.007 C 
ENDBRANCH   3   6
ENDBRANCH   2   3
ENDBRANCH   1   2
BRANCH   1   9
ATOM      9  C   UNL     1     -16.266 -44.789 107.509  1.00  0.00    -0.011 C 
ATOM     10  C   UNL     1     -16.711 -43.329 107.305  1.00  0.00     0.008 C 
BRANCH   9  11
ATOM     11  C   UNL     1     -17.325 -45.795 106.923  1.00  0.00    -0.002 C 
ATOM     12  C   UNL     1     -18.081 -46.689 107.916  1.00  0.00     0.005 C 
ATOM     13  C   UNL     1     -16.827 -46.756 105.807  1.00  0.00    -0.026 C 
ATOM     14  C   UNL     1     -18.585 -47.894 107.117  1.00  0.00     0.005 C 
ATOM     15  C   UNL     1     -17.982 -47.791 105.702  1.00  0.00    -0.001 C 
ATOM     16  C   UNL     1     -16.575 -46.019 104.459  1.00  0.00     0.007 C 
ATOM     17  C   UNL     1     -15.528 -47.500 106.227  1.00  0.00     0.012 C 
ATOM     18  C   UNL     1     -19.025 -47.509 104.568  1.00  0.00     0.000 C 
ATOM     19  C   UNL     1     -16.851 -46.931 103.253  1.00  0.00     0.005 C 
ATOM     20  C   UNL     1     -18.346 -47.355 103.156  1.00  0.00     0.003 C 
ATOM     21  C   UNL     1     -20.045 -46.373 104.822  1.00  0.00     0.031 C 
ATOM     22  C   UNL     1     -19.202 -46.532 102.085  1.00  0.00    -0.008 C 
ATOM     23  C   UNL     1     -21.073 -46.427 103.728  1.00  0.00    -0.027 C 
ATOM     24  C   UNL     1     -20.690 -46.590 102.445  1.00  0.00    -0.065 C 
ATOM     25  C   UNL     1     -19.002 -47.172 100.680  1.00  0.00     0.014 C 
ATOM     26  C   UNL     1     -18.803 -45.028 102.007  1.00  0.00     0.016 C 
ATOM     27  C   UNL     1     -21.717 -47.040 101.426  1.00  0.00     0.063 C 
ATOM     28  C   UNL     1     -19.915 -46.565  99.601  1.00  0.00     0.033 C 
ATOM     29  C   UNL     1     -21.416 -46.544  99.994  1.00  0.00     0.118 C 
BRANCH  29  30
ATOM     30  O   UNL     1     -21.966 -45.268  99.779  1.00  0.00    -0.393 OA
ATOM     31  H   UNL     1     -21.312 -44.597 100.105  1.00  0.00     0.210 HD
ENDBRANCH  29  30
ENDBRANCH   9  11
ENDBRANCH   1   9
TORSDOF 7
ENDMDL
MODEL 5
REMARK VINA RESULT:    -6.886      5.128      9.386
REMARK INTER + INTRA:         -10.396
REMARK INTER:                  -8.474
REMARK INTRA:                  -1.922
REMARK UNBOUND:                -0.894
REMARK SMILES CC[C@@H](CC[C@H](C)[C@@H]1CC[C@H]2[C@H]3CC=C4C[C@@H](O)CC[C@]4(C)[C@H]3CC[C@]21C)C(C)C
REMARK SMILES IDX 5 1 4 2 3 3 2 4 1 5 28 6 29 7 30 8 6 9 7 10 8 11 9 12 26 13
REMARK SMILES IDX 10 14 11 15 25 16 27 17 12 18 24 19 23 20 13 21 21 22 14 23
REMARK SMILES IDX 15 24 20 25 22 26 16 27 19 28 17 29 18 30
REMARK H PARENT 18 31
REMARK Flexibility Score: inf
ROOT
ATOM      1  C   UNL     1     -15.104 -43.559 108.186  1.00  0.00     0.004 C 
ENDROOT
BRANCH   1   2
ATOM      2  C   UNL     1     -14.536 -44.448 109.323  1.00  0.00     0.004 C 
BRANCH   2   3
ATOM      3  C   UNL     1     -14.970 -45.945 109.261  1.00  0.00    -0.009 C 
BRANCH   3   4
ATOM      4  C   UNL     1     -15.740 -46.379 110.544  1.00  0.00     0.000 C 
ATOM      5  C   UNL     1     -16.598 -47.633 110.351  1.00  0.00     0.004 C 
ENDBRANCH   3   4
BRANCH   3   6
ATOM      6  C   UNL     1     -13.770 -46.897 108.900  1.00  0.00    -0.014 C 
ATOM      7  C   UNL     1     -12.438 -46.122 108.837  1.00  0.00     0.007 C 
ATOM      8  C   UNL     1     -13.956 -47.631 107.558  1.00  0.00     0.007 C 
ENDBRANCH   3   6
ENDBRANCH   2   3
ENDBRANCH   1   2
BRANCH   1   9
ATOM      9  C   UNL     1     -15.683 -44.334 106.963  1.00  0.00    -0.011 C 
ATOM     10  C   UNL     1     -14.656 -44.453 105.821  1.00  0.00     0.008 C 
BRANCH   9  11
ATOM     11  C   UNL     1     -17.082 -43.858 106.425  1.00  0.00    -0.002 C 
ATOM     12  C   UNL     1     -17.666 -42.565 107.010  1.00  0.00     0.005 C 
ATOM     13  C   UNL     1     -18.241 -44.893 106.488  1.00  0.00    -0.026 C 
ATOM     14  C   UNL     1     -19.178 -42.626 106.774  1.00  0.00     0.005 C 
ATOM     15  C   UNL     1     -19.497 -44.023 106.207  1.00  0.00    -0.001 C 
ATOM     16  C   UNL     1     -18.072 -46.037 105.445  1.00  0.00     0.007 C 
ATOM     17  C   UNL     1     -18.374 -45.518 107.906  1.00  0.00     0.012 C 
ATOM     18  C   UNL     1     -19.987 -44.026 104.718  1.00  0.00     0.000 C 
ATOM     19  C   UNL     1     -19.431 -46.561 104.952  1.00  0.00     0.005 C 
ATOM     20  C   UNL     1     -20.240 -45.482 104.176  1.00  0.00     0.003 C 
ATOM     21  C   UNL     1     -19.163 -43.191 103.710  1.00  0.00     0.031 C 
ATOM     22  C   UNL     1     -20.180 -45.625 102.584  1.00  0.00    -0.008 C 
ATOM     23  C   UNL     1     -19.926 -43.152 102.416  1.00  0.00    -0.027 C 
ATOM     24  C   UNL     1     -20.483 -44.276 101.923  1.00  0.00    -0.065 C 
ATOM     25  C   UNL     1     -21.254 -46.657 102.130  1.00  0.00     0.014 C 
ATOM     26  C   UNL     1     -18.790 -46.093 102.062  1.00  0.00     0.016 C 
ATOM     27  C   UNL     1     -21.563 -44.157 100.867  1.00  0.00     0.063 C 
ATOM     28  C   UNL     1     -21.402 -46.746 100.601  1.00  0.00     0.033 C 
ATOM     29  C   UNL     1     -21.626 -45.373  99.915  1.00  0.00     0.118 C 
BRANCH  29  30
ATOM     30  O   UNL     1     -20.743 -45.209  98.834  1.00  0.00    -0.393 OA
ATOM     31  H   UNL     1     -20.779 -44.258  98.555  1.00  0.00     0.210 HD
ENDBRANCH  29  30
ENDBRANCH   9  11
ENDBRANCH   1   9
TORSDOF 7
ENDMDL
MODEL 6
REMARK VINA RESULT:    -6.843      3.255      6.175
REMARK INTER + INTRA:         -10.337
REMARK INTER:                  -8.945
REMARK INTRA:                  -1.392
REMARK UNBOUND:                -0.894
REMARK SMILES CC[C@@H](CC[C@H](C)[C@@H]1CC[C@H]2[C@H]3CC=C4C[C@@H](O)CC[C@]4(C)[C@H]3CC[C@]21C)C(C)C
REMARK SMILES IDX 5 1 4 2 3 3 2 4 1 5 28 6 29 7 30 8 6 9 7 10 8 11 9 12 26 13
REMARK SMILES IDX 10 14 11 15 25 16 27 17 12 18 24 19 23 20 13 21 21 22 14 23
REMARK SMILES IDX 15 24 20 25 22 26 16 27 19 28 17 29 18 30
REMARK H PARENT 18 31
REMARK Flexibility Score: inf
ROOT
ATOM      1  C   UNL     1     -21.930 -46.356 102.602  1.00  0.00     0.004 C 
ENDROOT
BRANCH   1   2
ATOM      2  C   UNL     1     -22.273 -47.830 102.262  1.00  0.00     0.004 C 
BRANCH   2   3
ATOM      3  C   UNL     1     -22.585 -48.731 103.498  1.00  0.00    -0.009 C 
BRANCH   3   4
ATOM      4  C   UNL     1     -24.024 -49.324 103.433  1.00  0.00     0.000 C 
ATOM      5  C   UNL     1     -24.054 -50.853 103.334  1.00  0.00     0.004 C 
ENDBRANCH   3   4
BRANCH   3   6
ATOM      6  C   UNL     1     -22.267 -48.004 104.857  1.00  0.00    -0.014 C 
ATOM      7  C   UNL     1     -20.988 -48.565 105.509  1.00  0.00     0.007 C 
ATOM      8  C   UNL     1     -23.410 -48.109 105.886  1.00  0.00     0.007 C 
ENDBRANCH   3   6
ENDBRANCH   2   3
ENDBRANCH   1   2
BRANCH   1   9
ATOM      9  C   UNL     1     -20.410 -46.009 102.589  1.00  0.00    -0.011 C 
ATOM     10  C   UNL     1     -19.567 -47.147 101.984  1.00  0.00     0.008 C 
BRANCH   9  11
ATOM     11  C   UNL     1     -19.791 -45.498 103.943  1.00  0.00    -0.002 C 
ATOM     12  C   UNL     1     -20.685 -44.649 104.856  1.00  0.00     0.005 C 
ATOM     13  C   UNL     1     -18.451 -44.718 103.844  1.00  0.00    -0.026 C 
ATOM     14  C   UNL     1     -19.744 -43.847 105.759  1.00  0.00     0.005 C 
ATOM     15  C   UNL     1     -18.307 -44.097 105.262  1.00  0.00    -0.001 C 
ATOM     16  C   UNL     1     -17.251 -45.643 103.483  1.00  0.00     0.007 C 
ATOM     17  C   UNL     1     -18.532 -43.567 102.802  1.00  0.00     0.012 C 
ATOM     18  C   UNL     1     -17.406 -44.910 106.253  1.00  0.00     0.000 C 
ATOM     19  C   UNL     1     -15.940 -45.144 104.112  1.00  0.00     0.005 C 
ATOM     20  C   UNL     1     -15.971 -45.185 105.667  1.00  0.00     0.003 C 
ATOM     21  C   UNL     1     -18.017 -46.195 106.860  1.00  0.00     0.031 C 
ATOM     22  C   UNL     1     -15.212 -46.436 106.313  1.00  0.00    -0.008 C 
ATOM     23  C   UNL     1     -17.087 -46.680 107.936  1.00  0.00    -0.027 C 
ATOM     24  C   UNL     1     -15.757 -46.714 107.718  1.00  0.00    -0.065 C 
ATOM     25  C   UNL     1     -13.694 -46.104 106.422  1.00  0.00     0.014 C 
ATOM     26  C   UNL     1     -15.375 -47.746 105.486  1.00  0.00     0.016 C 
ATOM     27  C   UNL     1     -14.822 -46.812 108.906  1.00  0.00     0.063 C 
ATOM     28  C   UNL     1     -12.893 -47.170 107.188  1.00  0.00     0.033 C 
ATOM     29  C   UNL     1     -13.487 -47.518 108.578  1.00  0.00     0.118 C 
BRANCH  29  30
ATOM     30  O   UNL     1     -13.605 -48.910 108.732  1.00  0.00    -0.393 OA
ATOM     31  H   UNL     1     -14.432 -49.089 109.250  1.00  0.00     0.210 HD
ENDBRANCH  29  30
ENDBRANCH   9  11
ENDBRANCH   1   9
TORSDOF 7
ENDMDL
MODEL 7
REMARK VINA RESULT:    -6.840     10.755     14.611
REMARK INTER + INTRA:         -10.333
REMARK INTER:                  -8.520
REMARK INTRA:                  -1.812
REMARK UNBOUND:                -0.894
REMARK SMILES CC[C@@H](CC[C@H](C)[C@@H]1CC[C@H]2[C@H]3CC=C4C[C@@H](O)CC[C@]4(C)[C@H]3CC[C@]21C)C(C)C
REMARK SMILES IDX 5 1 4 2 3 3 2 4 1 5 28 6 29 7 30 8 6 9 7 10 8 11 9 12 26 13
REMARK SMILES IDX 10 14 11 15 25 16 27 17 12 18 24 19 23 20 13 21 21 22 14 23
REMARK SMILES IDX 15 24 20 25 22 26 16 27 19 28 17 29 18 30
REMARK H PARENT 18 31
REMARK Flexibility Score: inf
ROOT
ATOM      1  C   UNL     1     -11.998 -46.891 111.203  1.00  0.00     0.004 C 
ENDROOT
BRANCH   1   2
ATOM      2  C   UNL     1     -12.578 -45.716 110.373  1.00  0.00     0.004 C 
BRANCH   2   3
ATOM      3  C   UNL     1     -12.839 -44.409 111.185  1.00  0.00    -0.009 C 
BRANCH   3   4
ATOM      4  C   UNL     1     -12.024 -44.378 112.512  1.00  0.00     0.000 C 
ATOM      5  C   UNL     1     -12.879 -44.092 113.751  1.00  0.00     0.004 C 
ENDBRANCH   3   4
BRANCH   3   6
ATOM      6  C   UNL     1     -14.375 -44.134 111.387  1.00  0.00    -0.014 C 
ATOM      7  C   UNL     1     -15.235 -45.236 110.736  1.00  0.00     0.007 C 
ATOM      8  C   UNL     1     -14.832 -42.777 110.818  1.00  0.00     0.007 C 
ENDBRANCH   3   6
ENDBRANCH   2   3
ENDBRANCH   1   2
BRANCH   1   9
ATOM      9  C   UNL     1     -12.752 -48.247 111.049  1.00  0.00    -0.011 C 
ATOM     10  C   UNL     1     -13.522 -48.327 109.718  1.00  0.00     0.008 C 
BRANCH   9  11
ATOM     11  C   UNL     1     -13.656 -48.691 112.258  1.00  0.00    -0.002 C 
ATOM     12  C   UNL     1     -14.017 -47.628 113.304  1.00  0.00     0.005 C 
ATOM     13  C   UNL     1     -13.167 -49.919 113.078  1.00  0.00    -0.026 C 
ATOM     14  C   UNL     1     -14.383 -48.385 114.584  1.00  0.00     0.005 C 
ATOM     15  C   UNL     1     -14.073 -49.875 114.340  1.00  0.00    -0.001 C 
ATOM     16  C   UNL     1     -13.319 -51.255 112.292  1.00  0.00     0.007 C 
ATOM     17  C   UNL     1     -11.686 -49.759 113.521  1.00  0.00     0.012 C 
ATOM     18  C   UNL     1     -15.335 -50.803 114.284  1.00  0.00     0.000 C 
ATOM     19  C   UNL     1     -13.600 -52.438 113.233  1.00  0.00     0.005 C 
ATOM     20  C   UNL     1     -14.962 -52.300 113.973  1.00  0.00     0.003 C 
ATOM     21  C   UNL     1     -16.513 -50.327 113.402  1.00  0.00     0.031 C 
ATOM     22  C   UNL     1     -16.149 -53.171 113.349  1.00  0.00    -0.008 C 
ATOM     23  C   UNL     1     -17.681 -51.233 113.670  1.00  0.00    -0.027 C 
ATOM     24  C   UNL     1     -17.504 -52.568 113.735  1.00  0.00    -0.065 C 
ATOM     25  C   UNL     1     -16.065 -54.618 113.918  1.00  0.00     0.014 C 
ATOM     26  C   UNL     1     -16.102 -53.246 111.794  1.00  0.00     0.016 C 
ATOM     27  C   UNL     1     -18.571 -53.419 114.391  1.00  0.00     0.063 C 
ATOM     28  C   UNL     1     -17.262 -55.498 113.518  1.00  0.00     0.033 C 
ATOM     29  C   UNL     1     -18.639 -54.857 113.829  1.00  0.00     0.118 C 
BRANCH  29  30
ATOM     30  O   UNL     1     -19.480 -54.916 112.703  1.00  0.00    -0.393 OA
ATOM     31  H   UNL     1     -20.114 -55.666 112.837  1.00  0.00     0.210 HD
ENDBRANCH  29  30
ENDBRANCH   9  11
ENDBRANCH   1   9
TORSDOF 7
ENDMDL
MODEL 8
REMARK VINA RESULT:    -6.832      3.869      6.172
REMARK INTER + INTRA:         -10.322
REMARK INTER:                  -9.855
REMARK INTRA:                  -0.467
REMARK UNBOUND:                -0.894
REMARK SMILES CC[C@@H](CC[C@H](C)[C@@H]1CC[C@H]2[C@H]3CC=C4C[C@@H](O)CC[C@]4(C)[C@H]3CC[C@]21C)C(C)C
REMARK SMILES IDX 5 1 4 2 3 3 2 4 1 5 28 6 29 7 30 8 6 9 7 10 8 11 9 12 26 13
REMARK SMILES IDX 10 14 11 15 25 16 27 17 12 18 24 19 23 20 13 21 21 22 14 23
REMARK SMILES IDX 15 24 20 25 22 26 16 27 19 28 17 29 18 30
REMARK H PARENT 18 31
REMARK Flexibility Score: inf
ROOT
ATOM      1  C   UNL     1     -19.124 -47.990 108.080  1.00  0.00     0.004 C 
ENDROOT
BRANCH   1   2
ATOM      2  C   UNL     1     -19.665 -49.213 107.294  1.00  0.00     0.004 C 
BRANCH   2   3
ATOM      3  C   UNL     1     -21.220 -49.313 107.229  1.00  0.00    -0.009 C 
BRANCH   3   4
ATOM      4  C   UNL     1     -21.745 -50.618 107.898  1.00  0.00     0.000 C 
ATOM      5  C   UNL     1     -21.387 -51.891 107.125  1.00  0.00     0.004 C 
ENDBRANCH   3   4
BRANCH   3   6
ATOM      6  C   UNL     1     -21.768 -49.094 105.770  1.00  0.00    -0.014 C 
ATOM      7  C   UNL     1     -20.720 -48.406 104.873  1.00  0.00     0.007 C 
ATOM      8  C   UNL     1     -23.058 -48.253 105.723  1.00  0.00     0.007 C 
ENDBRANCH   3   6
ENDBRANCH   2   3
ENDBRANCH   1   2
BRANCH   1   9
ATOM      9  C   UNL     1     -17.613 -47.674 107.858  1.00  0.00    -0.011 C 
ATOM     10  C   UNL     1     -17.050 -46.758 108.961  1.00  0.00     0.008 C 
BRANCH   9  11
ATOM     11  C   UNL     1     -17.203 -47.162 106.427  1.00  0.00    -0.002 C 
ATOM     12  C   UNL     1     -15.839 -47.604 105.879  1.00  0.00     0.005 C 
ATOM     13  C   UNL     1     -17.256 -45.626 106.197  1.00  0.00    -0.026 C 
ATOM     14  C   UNL     1     -15.450 -46.580 104.809  1.00  0.00     0.005 C 
ATOM     15  C   UNL     1     -16.499 -45.452 104.851  1.00  0.00    -0.001 C 
ATOM     16  C   UNL     1     -18.716 -45.088 106.124  1.00  0.00     0.007 C 
ATOM     17  C   UNL     1     -16.487 -44.852 107.305  1.00  0.00     0.012 C 
ATOM     18  C   UNL     1     -17.413 -45.365 103.581  1.00  0.00     0.000 C 
ATOM     19  C   UNL     1     -18.827 -43.875 105.185  1.00  0.00     0.005 C 
ATOM     20  C   UNL     1     -18.502 -44.234 103.706  1.00  0.00     0.003 C 
ATOM     21  C   UNL     1     -18.038 -46.687 103.077  1.00  0.00     0.031 C 
ATOM     22  C   UNL     1     -19.785 -44.434 102.773  1.00  0.00    -0.008 C 
ATOM     23  C   UNL     1     -18.676 -46.414 101.745  1.00  0.00    -0.027 C 
ATOM     24  C   UNL     1     -19.429 -45.310 101.567  1.00  0.00    -0.065 C 
ATOM     25  C   UNL     1     -20.256 -43.041 102.259  1.00  0.00     0.014 C 
ATOM     26  C   UNL     1     -20.976 -45.119 103.507  1.00  0.00     0.016 C 
ATOM     27  C   UNL     1     -19.722 -44.842 100.157  1.00  0.00     0.063 C 
ATOM     28  C   UNL     1     -21.381 -43.129 101.213  1.00  0.00     0.033 C 
ATOM     29  C   UNL     1     -21.061 -44.080 100.030  1.00  0.00     0.118 C 
BRANCH  29  30
ATOM     30  O   UNL     1     -22.126 -44.971  99.808  1.00  0.00    -0.393 OA
ATOM     31  H   UNL     1     -22.686 -44.598  99.079  1.00  0.00     0.210 HD
ENDBRANCH  29  30
ENDBRANCH   9  11
ENDBRANCH   1   9
TORSDOF 7
ENDMDL
MODEL 9
REMARK VINA RESULT:    -6.805      3.552      8.763
REMARK INTER + INTRA:         -10.285
REMARK INTER:                  -8.653
REMARK INTRA:                  -1.632
REMARK UNBOUND:                -0.894
REMARK SMILES CC[C@@H](CC[C@H](C)[C@@H]1CC[C@H]2[C@H]3CC=C4C[C@@H](O)CC[C@]4(C)[C@H]3CC[C@]21C)C(C)C
REMARK SMILES IDX 5 1 4 2 3 3 2 4 1 5 28 6 29 7 30 8 6 9 7 10 8 11 9 12 26 13
REMARK SMILES IDX 10 14 11 15 25 16 27 17 12 18 24 19 23 20 13 21 21 22 14 23
REMARK SMILES IDX 15 24 20 25 22 26 16 27 19 28 17 29 18 30
REMARK H PARENT 18 31
REMARK Flexibility Score: inf
ROOT
ATOM      1  C   UNL     1     -15.865 -43.847 105.386  1.00  0.00     0.004 C 
ENDROOT
BRANCH   1   2
ATOM      2  C   UNL     1     -15.205 -45.234 105.608  1.00  0.00     0.004 C 
BRANCH   2   3
ATOM      3  C   UNL     1     -16.126 -46.454 105.296  1.00  0.00    -0.009 C 
BRANCH   3   4
ATOM      4  C   UNL     1     -16.425 -47.295 106.572  1.00  0.00     0.000 C 
ATOM      5  C   UNL     1     -17.418 -46.626 107.529  1.00  0.00     0.004 C 
ENDBRANCH   3   4
BRANCH   3   6
ATOM      6  C   UNL     1     -15.586 -47.313 104.093  1.00  0.00    -0.014 C 
ATOM      7  C   UNL     1     -14.363 -46.647 103.431  1.00  0.00     0.007 C 
ATOM      8  C   UNL     1     -16.642 -47.561 102.998  1.00  0.00     0.007 C 
ENDBRANCH   3   6
ENDBRANCH   2   3
ENDBRANCH   1   2
BRANCH   1   9
ATOM      9  C   UNL     1     -15.872 -43.344 103.911  1.00  0.00    -0.011 C 
ATOM     10  C   UNL     1     -15.423 -41.875 103.804  1.00  0.00     0.008 C 
BRANCH   9  11
ATOM     11  C   UNL     1     -17.186 -43.601 103.084  1.00  0.00    -0.002 C 
ATOM     12  C   UNL     1     -17.329 -42.882 101.736  1.00  0.00     0.005 C 
ATOM     13  C   UNL     1     -18.531 -43.353 103.823  1.00  0.00    -0.026 C 
ATOM     14  C   UNL     1     -18.828 -42.835 101.427  1.00  0.00     0.005 C 
ATOM     15  C   UNL     1     -19.570 -43.372 102.667  1.00  0.00    -0.001 C 
ATOM     16  C   UNL     1     -18.827 -44.441 104.897  1.00  0.00     0.007 C 
ATOM     17  C   UNL     1     -18.565 -41.953 104.500  1.00  0.00     0.012 C 
ATOM     18  C   UNL     1     -20.295 -44.744 102.450  1.00  0.00     0.000 C 
ATOM     19  C   UNL     1     -20.337 -44.688 105.054  1.00  0.00     0.005 C 
ATOM     20  C   UNL     1     -20.983 -45.270 103.764  1.00  0.00     0.003 C 
ATOM     21  C   UNL     1     -19.482 -45.864 101.759  1.00  0.00     0.031 C 
ATOM     22  C   UNL     1     -21.236 -46.849 103.803  1.00  0.00    -0.008 C 
ATOM     23  C   UNL     1     -20.424 -46.992 101.451  1.00  0.00    -0.027 C 
ATOM     24  C   UNL     1     -21.314 -47.405 102.377  1.00  0.00    -0.065 C 
ATOM     25  C   UNL     1     -22.590 -47.125 104.522  1.00  0.00     0.014 C 
ATOM     26  C   UNL     1     -20.112 -47.632 104.543  1.00  0.00     0.016 C 
ATOM     27  C   UNL     1     -22.499 -48.238 101.934  1.00  0.00     0.063 C 
ATOM     28  C   UNL     1     -23.017 -48.602 104.464  1.00  0.00     0.033 C 
ATOM     29  C   UNL     1     -23.018 -49.196 103.031  1.00  0.00     0.118 C 
BRANCH  29  30
ATOM     30  O   UNL     1     -22.322 -50.417 103.000  1.00  0.00    -0.393 OA
ATOM     31  H   UNL     1     -21.647 -50.400 103.726  1.00  0.00     0.210 HD
ENDBRANCH  29  30
ENDBRANCH   9  11
ENDBRANCH   1   9
TORSDOF 7
ENDMDL
