MODEL 1
REMARK VINA RESULT:    -6.621      0.000      0.000
REMARK INTER + INTRA:          -9.471
REMARK INTER:                  -9.717
REMARK INTRA:                   0.246
REMARK UNBOUND:                 0.246
REMARK SMILES O=c1c(O[C@@H]2O[C@H](CO)[C@@H](O)[C@@H](O)[C@H]2O)c(-c2ccc(O)c(O)c2)oc2cc(O)cc(O)c12
REMARK SMILES IDX 4 1 3 2 16 3 25 4 2 5 26 6 1 7 33 8 27 9 31 10 28 11 30 12
REMARK SMILES IDX 17 13 18 14 19 15 20 16 24 17 22 18 21 19 23 21 32 23 29 25
REMARK SMILES IDX 5 27 14 28 6 29 12 30 7 31 10 32 15 33 13 35 8 37 9 38 11 40
REMARK H PARENT 21 20 23 22 32 24 29 26 15 34 13 36 9 39 11 41
REMARK Flexibility Score: inf
ROOT
ATOM      1  O   UNL     1       7.489  10.292 -17.529  1.00  0.00    -0.454 OA
ENDROOT
BRANCH   1   2
ATOM      2  C   UNL     1       7.424   8.950 -17.117  1.00  0.00     0.214 A 
ATOM      3  C   UNL     1       7.538   8.663 -15.738  1.00  0.00     0.180 A 
ATOM      4  O   UNL     1       7.514   7.403 -15.318  1.00  0.00    -0.452 OA
ATOM      5  C   UNL     1       7.293   7.868 -18.017  1.00  0.00     0.239 A 
ATOM      6  C   UNL     1       7.386   6.361 -16.128  1.00  0.00     0.146 A 
ATOM      7  O   UNL     1       7.232   8.077 -19.257  1.00  0.00    -0.285 OA
ATOM      8  C   UNL     1       7.263   6.546 -17.523  1.00  0.00     0.111 A 
ATOM      9  C   UNL     1       7.374   5.074 -15.583  1.00  0.00     0.094 A 
ATOM     10  C   UNL     1       7.128   5.409 -18.359  1.00  0.00     0.134 A 
ATOM     11  C   UNL     1       7.241   3.956 -16.411  1.00  0.00     0.123 A 
ATOM     12  C   UNL     1       7.115   4.125 -17.793  1.00  0.00     0.093 A 
BRANCH   3  13
ATOM     13  C   UNL     1       7.727   9.725 -14.719  1.00  0.00     0.025 A 
ATOM     14  C   UNL     1       7.150   9.636 -13.438  1.00  0.00     0.016 A 
ATOM     15  C   UNL     1       7.311  10.672 -12.516  1.00  0.00     0.051 A 
ATOM     16  C   UNL     1       8.083  11.795 -12.841  1.00  0.00     0.157 A 
ATOM     17  C   UNL     1       8.546  10.828 -15.018  1.00  0.00     0.062 A 
ATOM     18  C   UNL     1       8.724  11.858 -14.088  1.00  0.00     0.158 A 
BRANCH  16  19
ATOM     19  O   UNL     1       8.243  12.825 -11.916  1.00  0.00    -0.504 OA
ATOM     20  H   UNL     1       7.448  13.329 -11.540  1.00  0.00     0.293 HD
ENDBRANCH  16  19
BRANCH  18  21
ATOM     21  O   UNL     1       9.547  12.935 -14.418  1.00  0.00    -0.504 OA
ATOM     22  H   UNL     1       9.245  13.642 -15.080  1.00  0.00     0.293 HD
ENDBRANCH  18  21
ENDBRANCH   3  13
BRANCH  10  23
ATOM     23  O   UNL     1       7.011   5.542 -19.744  1.00  0.00    -0.507 OA
ATOM     24  H   UNL     1       6.125   5.751 -20.189  1.00  0.00     0.293 HD
ENDBRANCH  10  23
BRANCH  11  25
ATOM     25  O   UNL     1       7.231   2.671 -15.870  1.00  0.00    -0.508 OA
ATOM     26  H   UNL     1       6.366   2.180 -15.693  1.00  0.00     0.293 HD
ENDBRANCH  11  25
ENDBRANCH   1   2
BRANCH   1  27
ATOM     27  C   UNL     1       7.591  10.781 -18.867  1.00  0.00     0.339 C 
ATOM     28  C   UNL     1       7.013  12.202 -18.942  1.00  0.00     0.214 C 
ATOM     29  O   UNL     1       8.924  10.705 -19.354  1.00  0.00    -0.332 OA
ATOM     30  C   UNL     1       7.927  13.179 -18.182  1.00  0.00     0.180 C 
ATOM     31  C   UNL     1       9.841  11.585 -18.712  1.00  0.00     0.179 C 
ATOM     32  C   UNL     1       9.370  13.063 -18.692  1.00  0.00     0.177 C 
BRANCH  28  33
ATOM     33  O   UNL     1       6.875  12.589 -20.287  1.00  0.00    -0.384 OA
ATOM     34  H   UNL     1       5.998  13.048 -20.366  1.00  0.00     0.211 HD
ENDBRANCH  28  33
BRANCH  30  35
ATOM     35  O   UNL     1       7.476  14.502 -18.325  1.00  0.00    -0.387 OA
ATOM     36  H   UNL     1       6.836  14.502 -19.083  1.00  0.00     0.211 HD
ENDBRANCH  30  35
BRANCH  31  37
ATOM     37  C   UNL     1      10.300  11.059 -17.329  1.00  0.00     0.191 C 
BRANCH  37  38
ATOM     38  O   UNL     1      11.350  11.828 -16.795  1.00  0.00    -0.394 OA
ATOM     39  H   UNL     1      11.603  12.507 -17.472  1.00  0.00     0.210 HD
ENDBRANCH  37  38
ENDBRANCH  31  37
BRANCH  32  40
ATOM     40  O   UNL     1       9.451  13.598 -19.988  1.00  0.00    -0.387 OA
ATOM     41  H   UNL     1       8.526  13.629 -20.347  1.00  0.00     0.211 HD
ENDBRANCH  32  40
ENDBRANCH   1  27
TORSDOF 12
ENDMDL
MODEL 2
REMARK VINA RESULT:    -6.244      1.813      4.722
REMARK INTER + INTRA:          -8.918
REMARK INTER:                  -7.391
REMARK INTRA:                  -1.527
REMARK UNBOUND:                 0.246
REMARK SMILES O=c1c(O[C@@H]2O[C@H](CO)[C@@H](O)[C@@H](O)[C@H]2O)c(-c2ccc(O)c(O)c2)oc2cc(O)cc(O)c12
REMARK SMILES IDX 4 1 3 2 16 3 25 4 2 5 26 6 1 7 33 8 27 9 31 10 28 11 30 12
REMARK SMILES IDX 17 13 18 14 19 15 20 16 24 17 22 18 21 19 23 21 32 23 29 25
REMARK SMILES IDX 5 27 14 28 6 29 12 30 7 31 10 32 15 33 13 35 8 37 9 38 11 40
REMARK H PARENT 21 20 23 22 32 24 29 26 15 34 13 36 9 39 11 41
REMARK Flexibility Score: inf
ROOT
ATOM      1  O   UNL     1       8.523  11.387 -15.897  1.00  0.00    -0.454 OA
ENDROOT
BRANCH   1   2
ATOM      2  C   UNL     1       8.244  10.080 -16.330  1.00  0.00     0.214 A 
ATOM      3  C   UNL     1       7.933   9.875 -17.693  1.00  0.00     0.180 A 
ATOM      4  O   UNL     1       7.632   8.657 -18.129  1.00  0.00    -0.452 OA
ATOM      5  C   UNL     1       8.216   8.965 -15.462  1.00  0.00     0.239 A 
ATOM      6  C   UNL     1       7.601   7.584 -17.350  1.00  0.00     0.146 A 
ATOM      7  O   UNL     1       8.444   9.111 -14.233  1.00  0.00    -0.285 OA
ATOM      8  C   UNL     1       7.899   7.688 -15.973  1.00  0.00     0.111 A 
ATOM      9  C   UNL     1       7.271   6.347 -17.909  1.00  0.00     0.094 A 
ATOM     10  C   UNL     1       7.857   6.520 -15.169  1.00  0.00     0.134 A 
ATOM     11  C   UNL     1       7.229   5.198 -17.112  1.00  0.00     0.123 A 
ATOM     12  C   UNL     1       7.525   5.286 -15.750  1.00  0.00     0.093 A 
BRANCH   3  13
ATOM     13  C   UNL     1       7.889  10.987 -18.674  1.00  0.00     0.025 A 
ATOM     14  C   UNL     1       6.917  12.001 -18.605  1.00  0.00     0.016 A 
ATOM     15  C   UNL     1       6.876  13.010 -19.569  1.00  0.00     0.051 A 
ATOM     16  C   UNL     1       7.829  13.048 -20.594  1.00  0.00     0.157 A 
ATOM     17  C   UNL     1       8.876  11.062 -19.674  1.00  0.00     0.062 A 
ATOM     18  C   UNL     1       8.848  12.083 -20.629  1.00  0.00     0.158 A 
BRANCH  16  19
ATOM     19  O   UNL     1       7.785  14.059 -21.553  1.00  0.00    -0.504 OA
ATOM     20  H   UNL     1       6.906  14.448 -21.874  1.00  0.00     0.293 HD
ENDBRANCH  16  19
BRANCH  18  21
ATOM     21  O   UNL     1       9.846  12.128 -21.603  1.00  0.00    -0.504 OA
ATOM     22  H   UNL     1      10.068  11.313 -22.164  1.00  0.00     0.293 HD
ENDBRANCH  18  21
ENDBRANCH   3  13
BRANCH  10  23
ATOM     23  O   UNL     1       8.135   6.575 -13.802  1.00  0.00    -0.507 OA
ATOM     24  H   UNL     1       8.743   7.285 -13.408  1.00  0.00     0.293 HD
ENDBRANCH  10  23
BRANCH  11  25
ATOM     25  O   UNL     1       6.897   3.964 -17.668  1.00  0.00    -0.508 OA
ATOM     26  H   UNL     1       7.506   3.163 -17.576  1.00  0.00     0.293 HD
ENDBRANCH  11  25
ENDBRANCH   1   2
BRANCH   1  27
ATOM     27  C   UNL     1       9.783  11.905 -15.468  1.00  0.00     0.339 C 
ATOM     28  C   UNL     1      10.620  12.307 -16.691  1.00  0.00     0.214 C 
ATOM     29  O   UNL     1       9.626  12.969 -14.538  1.00  0.00    -0.332 OA
ATOM     30  C   UNL     1       9.994  13.536 -17.372  1.00  0.00     0.180 C 
ATOM     31  C   UNL     1       9.059  14.156 -15.086  1.00  0.00     0.179 C 
ATOM     32  C   UNL     1       9.795  14.665 -16.352  1.00  0.00     0.177 C 
BRANCH  28  33
ATOM     33  O   UNL     1      11.943  12.573 -16.296  1.00  0.00    -0.384 OA
ATOM     34  H   UNL     1      12.304  11.730 -15.913  1.00  0.00     0.211 HD
ENDBRANCH  28  33
BRANCH  30  35
ATOM     35  O   UNL     1      10.798  13.987 -18.432  1.00  0.00    -0.387 OA
ATOM     36  H   UNL     1      11.726  13.705 -18.222  1.00  0.00     0.211 HD
ENDBRANCH  30  35
BRANCH  31  37
ATOM     37  C   UNL     1       7.522  14.056 -15.256  1.00  0.00     0.191 C 
BRANCH  37  38
ATOM     38  O   UNL     1       6.914  13.404 -14.169  1.00  0.00    -0.394 OA
ATOM     39  H   UNL     1       6.684  14.092 -13.492  1.00  0.00     0.210 HD
ENDBRANCH  37  38
ENDBRANCH  31  37
BRANCH  32  40
ATOM     40  O   UNL     1      11.047  15.189 -15.987  1.00  0.00    -0.387 OA
ATOM     41  H   UNL     1      11.409  15.657 -16.783  1.00  0.00     0.211 HD
ENDBRANCH  32  40
ENDBRANCH   1  27
TORSDOF 12
ENDMDL
MODEL 3
REMARK VINA RESULT:    -6.216      2.585      7.096
REMARK INTER + INTRA:          -8.877
REMARK INTER:                  -7.835
REMARK INTRA:                  -1.042
REMARK UNBOUND:                 0.246
REMARK SMILES O=c1c(O[C@@H]2O[C@H](CO)[C@@H](O)[C@@H](O)[C@H]2O)c(-c2ccc(O)c(O)c2)oc2cc(O)cc(O)c12
REMARK SMILES IDX 4 1 3 2 16 3 25 4 2 5 26 6 1 7 33 8 27 9 31 10 28 11 30 12
REMARK SMILES IDX 17 13 18 14 19 15 20 16 24 17 22 18 21 19 23 21 32 23 29 25
REMARK SMILES IDX 5 27 14 28 6 29 12 30 7 31 10 32 15 33 13 35 8 37 9 38 11 40
REMARK H PARENT 21 20 23 22 32 24 29 26 15 34 13 36 9 39 11 41
REMARK Flexibility Score: inf
ROOT
ATOM      1  O   UNL     1       8.818  11.475 -18.281  1.00  0.00    -0.454 OA
ENDROOT
BRANCH   1   2
ATOM      2  C   UNL     1       8.535  12.851 -18.258  1.00  0.00     0.214 A 
ATOM      3  C   UNL     1       8.046  13.417 -17.058  1.00  0.00     0.180 A 
ATOM      4  O   UNL     1       7.737  14.708 -17.012  1.00  0.00    -0.452 OA
ATOM      5  C   UNL     1       8.673  13.691 -19.386  1.00  0.00     0.239 A 
ATOM      6  C   UNL     1       7.859  15.530 -18.045  1.00  0.00     0.146 A 
ATOM      7  O   UNL     1       9.063  13.217 -20.485  1.00  0.00    -0.285 OA
ATOM      8  C   UNL     1       8.341  15.059 -19.286  1.00  0.00     0.111 A 
ATOM      9  C   UNL     1       7.505  16.874 -17.889  1.00  0.00     0.094 A 
ATOM     10  C   UNL     1       8.458  15.966 -20.369  1.00  0.00     0.134 A 
ATOM     11  C   UNL     1       7.621  17.765 -18.961  1.00  0.00     0.123 A 
ATOM     12  C   UNL     1       8.099  17.312 -20.193  1.00  0.00     0.093 A 
BRANCH   3  13
ATOM     13  C   UNL     1       7.821  12.611 -15.833  1.00  0.00     0.025 A 
ATOM     14  C   UNL     1       7.108  11.399 -15.862  1.00  0.00     0.016 A 
ATOM     15  C   UNL     1       6.876  10.686 -14.685  1.00  0.00     0.051 A 
ATOM     16  C   UNL     1       7.386  11.148 -13.465  1.00  0.00     0.157 A 
ATOM     17  C   UNL     1       8.377  13.041 -14.615  1.00  0.00     0.062 A 
ATOM     18  C   UNL     1       8.162  12.318 -13.437  1.00  0.00     0.158 A 
BRANCH  16  19
ATOM     19  O   UNL     1       7.154  10.431 -12.292  1.00  0.00    -0.504 OA
ATOM     20  H   UNL     1       6.379   9.784 -12.211  1.00  0.00     0.293 HD
ENDBRANCH  16  19
BRANCH  18  21
ATOM     21  O   UNL     1       8.733  12.772 -12.249  1.00  0.00    -0.504 OA
ATOM     22  H   UNL     1       8.887  13.761 -12.085  1.00  0.00     0.293 HD
ENDBRANCH  18  21
ENDBRANCH   3  13
BRANCH  10  23
ATOM     23  O   UNL     1       8.921  15.544 -21.617  1.00  0.00    -0.507 OA
ATOM     24  H   UNL     1       9.820  15.839 -21.982  1.00  0.00     0.293 HD
ENDBRANCH  10  23
BRANCH  11  25
ATOM     25  O   UNL     1       7.265  19.104 -18.809  1.00  0.00    -0.508 OA
ATOM     26  H   UNL     1       7.315  19.754 -19.582  1.00  0.00     0.293 HD
ENDBRANCH  11  25
ENDBRANCH   1   2
BRANCH   1  27
ATOM     27  C   UNL     1      10.103  10.859 -18.372  1.00  0.00     0.339 C 
ATOM     28  C   UNL     1      10.780  10.872 -16.994  1.00  0.00     0.214 C 
ATOM     29  O   UNL     1      10.021   9.553 -18.930  1.00  0.00    -0.332 OA
ATOM     30  C   UNL     1      10.043   9.915 -16.040  1.00  0.00     0.180 C 
ATOM     31  C   UNL     1       9.360   8.597 -18.108  1.00  0.00     0.179 C 
ATOM     32  C   UNL     1       9.930   8.520 -16.668  1.00  0.00     0.177 C 
BRANCH  28  33
ATOM     33  O   UNL     1      12.131  10.504 -17.125  1.00  0.00    -0.384 OA
ATOM     34  H   UNL     1      12.665  11.338 -17.042  1.00  0.00     0.211 HD
ENDBRANCH  28  33
BRANCH  30  35
ATOM     35  O   UNL     1      10.706   9.830 -14.804  1.00  0.00    -0.387 OA
ATOM     36  H   UNL     1      11.605  10.226 -14.938  1.00  0.00     0.211 HD
ENDBRANCH  30  35
BRANCH  31  37
ATOM     37  C   UNL     1       7.818   8.733 -18.162  1.00  0.00     0.191 C 
BRANCH  37  38
ATOM     38  O   UNL     1       7.387   9.381 -19.333  1.00  0.00    -0.394 OA
ATOM     39  H   UNL     1       6.653   8.843 -19.726  1.00  0.00     0.210 HD
ENDBRANCH  37  38
ENDBRANCH  31  37
BRANCH  32  40
ATOM     40  O   UNL     1      11.199   7.918 -16.697  1.00  0.00    -0.387 OA
ATOM     41  H   UNL     1      11.192   7.194 -16.019  1.00  0.00     0.211 HD
ENDBRANCH  32  40
ENDBRANCH   1  27
TORSDOF 12
ENDMDL
MODEL 4
REMARK VINA RESULT:    -5.917      2.951      7.945
REMARK INTER + INTRA:          -8.438
REMARK INTER:                  -7.156
REMARK INTRA:                  -1.281
REMARK UNBOUND:                 0.246
REMARK SMILES O=c1c(O[C@@H]2O[C@H](CO)[C@@H](O)[C@@H](O)[C@H]2O)c(-c2ccc(O)c(O)c2)oc2cc(O)cc(O)c12
REMARK SMILES IDX 4 1 3 2 16 3 25 4 2 5 26 6 1 7 33 8 27 9 31 10 28 11 30 12
REMARK SMILES IDX 17 13 18 14 19 15 20 16 24 17 22 18 21 19 23 21 32 23 29 25
REMARK SMILES IDX 5 27 14 28 6 29 12 30 7 31 10 32 15 33 13 35 8 37 9 38 11 40
REMARK H PARENT 21 20 23 22 32 24 29 26 15 34 13 36 9 39 11 41
REMARK Flexibility Score: inf
ROOT
ATOM      1  O   UNL     1       9.297  13.919 -17.417  1.00  0.00    -0.454 OA
ENDROOT
BRANCH   1   2
ATOM      2  C   UNL     1       9.090  14.146 -18.788  1.00  0.00     0.214 A 
ATOM      3  C   UNL     1       8.879  13.031 -19.630  1.00  0.00     0.180 A 
ATOM      4  O   UNL     1       8.713  13.208 -20.937  1.00  0.00    -0.452 OA
ATOM      5  C   UNL     1       9.123  15.431 -19.375  1.00  0.00     0.239 A 
ATOM      6  C   UNL     1       8.731  14.396 -21.525  1.00  0.00     0.146 A 
ATOM      7  O   UNL     1       9.352  16.447 -18.667  1.00  0.00    -0.285 OA
ATOM      8  C   UNL     1       8.933  15.571 -20.766  1.00  0.00     0.111 A 
ATOM      9  C   UNL     1       8.547  14.473 -22.908  1.00  0.00     0.094 A 
ATOM     10  C   UNL     1       8.946  16.825 -21.429  1.00  0.00     0.134 A 
ATOM     11  C   UNL     1       8.561  15.711 -23.557  1.00  0.00     0.123 A 
ATOM     12  C   UNL     1       8.757  16.881 -22.818  1.00  0.00     0.093 A 
BRANCH   3  13
ATOM     13  C   UNL     1       8.873  11.639 -19.119  1.00  0.00     0.025 A 
ATOM     14  C   UNL     1       7.685  10.894 -19.003  1.00  0.00     0.016 A 
ATOM     15  C   UNL     1       7.708   9.601 -18.478  1.00  0.00     0.051 A 
ATOM     16  C   UNL     1       8.921   9.013 -18.098  1.00  0.00     0.157 A 
ATOM     17  C   UNL     1      10.093  11.022 -18.788  1.00  0.00     0.062 A 
ATOM     18  C   UNL     1      10.120   9.719 -18.280  1.00  0.00     0.158 A 
BRANCH  16  19
ATOM     19  O   UNL     1       8.939   7.720 -17.576  1.00  0.00    -0.504 OA
ATOM     20  H   UNL     1       9.125   6.915 -18.162  1.00  0.00     0.293 HD
ENDBRANCH  16  19
BRANCH  18  21
ATOM     21  O   UNL     1      11.349   9.139 -17.966  1.00  0.00    -0.504 OA
ATOM     22  H   UNL     1      12.064   9.011 -18.674  1.00  0.00     0.293 HD
ENDBRANCH  18  21
ENDBRANCH   3  13
BRANCH  10  23
ATOM     23  O   UNL     1       9.150  18.011 -20.722  1.00  0.00    -0.507 OA
ATOM     24  H   UNL     1       9.554  18.018 -19.792  1.00  0.00     0.293 HD
ENDBRANCH  10  23
BRANCH  11  25
ATOM     25  O   UNL     1       8.381  15.789 -24.938  1.00  0.00    -0.508 OA
ATOM     26  H   UNL     1       9.163  15.736 -25.575  1.00  0.00     0.293 HD
ENDBRANCH  11  25
ENDBRANCH   1   2
BRANCH   1  27
ATOM     27  C   UNL     1       8.314  13.932 -16.381  1.00  0.00     0.339 C 
ATOM     28  C   UNL     1       8.013  12.493 -15.938  1.00  0.00     0.214 C 
ATOM     29  O   UNL     1       8.703  14.769 -15.299  1.00  0.00    -0.332 OA
ATOM     30  C   UNL     1       9.231  11.905 -15.204  1.00  0.00     0.180 C 
ATOM     31  C   UNL     1       9.822  14.295 -14.555  1.00  0.00     0.179 C 
ATOM     32  C   UNL     1       9.662  12.834 -14.062  1.00  0.00     0.177 C 
BRANCH  28  33
ATOM     33  O   UNL     1       6.875  12.479 -15.110  1.00  0.00    -0.384 OA
ATOM     34  H   UNL     1       6.097  12.704 -15.686  1.00  0.00     0.211 HD
ENDBRANCH  28  33
BRANCH  30  35
ATOM     35  O   UNL     1       8.942  10.627 -14.697  1.00  0.00    -0.387 OA
ATOM     36  H   UNL     1       9.719  10.053 -14.918  1.00  0.00     0.211 HD
ENDBRANCH  30  35
BRANCH  31  37
ATOM     37  C   UNL     1      11.168  14.569 -15.270  1.00  0.00     0.191 C 
BRANCH  37  38
ATOM     38  O   UNL     1      12.114  15.148 -14.406  1.00  0.00    -0.394 OA
ATOM     39  H   UNL     1      12.764  15.653 -14.961  1.00  0.00     0.210 HD
ENDBRANCH  37  38
ENDBRANCH  31  37
BRANCH  32  40
ATOM     40  O   UNL     1       8.704  12.788 -13.036  1.00  0.00    -0.387 OA
ATOM     41  H   UNL     1       8.717  11.867 -12.668  1.00  0.00     0.211 HD
ENDBRANCH  32  40
ENDBRANCH   1  27
TORSDOF 12
ENDMDL
MODEL 5
REMARK VINA RESULT:    -5.822      2.043      3.178
REMARK INTER + INTRA:          -8.298
REMARK INTER:                  -6.811
REMARK INTRA:                  -1.487
REMARK UNBOUND:                 0.246
REMARK SMILES O=c1c(O[C@@H]2O[C@H](CO)[C@@H](O)[C@@H](O)[C@H]2O)c(-c2ccc(O)c(O)c2)oc2cc(O)cc(O)c12
REMARK SMILES IDX 4 1 3 2 16 3 25 4 2 5 26 6 1 7 33 8 27 9 31 10 28 11 30 12
REMARK SMILES IDX 17 13 18 14 19 15 20 16 24 17 22 18 21 19 23 21 32 23 29 25
REMARK SMILES IDX 5 27 14 28 6 29 12 30 7 31 10 32 15 33 13 35 8 37 9 38 11 40
REMARK H PARENT 21 20 23 22 32 24 29 26 15 34 13 36 9 39 11 41
REMARK Flexibility Score: inf
ROOT
ATOM      1  O   UNL     1       8.488  12.118 -18.578  1.00  0.00    -0.454 OA
ENDROOT
BRANCH   1   2
ATOM      2  C   UNL     1       8.425  10.942 -17.810  1.00  0.00     0.214 A 
ATOM      3  C   UNL     1       8.938  10.971 -16.495  1.00  0.00     0.180 A 
ATOM      4  O   UNL     1       8.924   9.868 -15.753  1.00  0.00    -0.452 OA
ATOM      5  C   UNL     1       7.912   9.721 -18.303  1.00  0.00     0.239 A 
ATOM      6  C   UNL     1       8.447   8.706 -16.174  1.00  0.00     0.146 A 
ATOM      7  O   UNL     1       7.485   9.642 -19.484  1.00  0.00    -0.285 OA
ATOM      8  C   UNL     1       7.909   8.578 -17.475  1.00  0.00     0.111 A 
ATOM      9  C   UNL     1       8.480   7.605 -15.314  1.00  0.00     0.094 A 
ATOM     10  C   UNL     1       7.408   7.319 -17.892  1.00  0.00     0.134 A 
ATOM     11  C   UNL     1       7.984   6.365 -15.730  1.00  0.00     0.123 A 
ATOM     12  C   UNL     1       7.448   6.226 -17.013  1.00  0.00     0.093 A 
BRANCH   3  13
ATOM     13  C   UNL     1       9.541  12.190 -15.902  1.00  0.00     0.025 A 
ATOM     14  C   UNL     1       9.124  12.696 -14.657  1.00  0.00     0.016 A 
ATOM     15  C   UNL     1       9.681  13.870 -14.147  1.00  0.00     0.051 A 
ATOM     16  C   UNL     1      10.692  14.537 -14.850  1.00  0.00     0.157 A 
ATOM     17  C   UNL     1      10.595  12.834 -16.576  1.00  0.00     0.062 A 
ATOM     18  C   UNL     1      11.168  13.999 -16.057  1.00  0.00     0.158 A 
BRANCH  16  19
ATOM     19  O   UNL     1      11.247  15.708 -14.336  1.00  0.00    -0.504 OA
ATOM     20  H   UNL     1      11.809  15.702 -13.492  1.00  0.00     0.293 HD
ENDBRANCH  16  19
BRANCH  18  21
ATOM     21  O   UNL     1      12.213  14.608 -16.751  1.00  0.00    -0.504 OA
ATOM     22  H   UNL     1      12.256  14.581 -17.764  1.00  0.00     0.293 HD
ENDBRANCH  18  21
ENDBRANCH   3  13
BRANCH  10  23
ATOM     23  O   UNL     1       6.875   7.144 -19.171  1.00  0.00    -0.507 OA
ATOM     24  H   UNL     1       5.875   7.098 -19.333  1.00  0.00     0.293 HD
ENDBRANCH  10  23
BRANCH  11  25
ATOM     25  O   UNL     1       8.020   5.265 -14.874  1.00  0.00    -0.508 OA
ATOM     26  H   UNL     1       7.209   4.678 -14.737  1.00  0.00     0.293 HD
ENDBRANCH  11  25
ENDBRANCH   1   2
BRANCH   1  27
ATOM     27  C   UNL     1       7.471  13.110 -18.725  1.00  0.00     0.339 C 
ATOM     28  C   UNL     1       7.953  14.436 -18.119  1.00  0.00     0.214 C 
ATOM     29  O   UNL     1       7.059  13.244 -20.079  1.00  0.00    -0.332 OA
ATOM     30  C   UNL     1       9.086  15.022 -18.979  1.00  0.00     0.180 C 
ATOM     31  C   UNL     1       8.046  13.789 -20.949  1.00  0.00     0.179 C 
ATOM     32  C   UNL     1       8.643  15.129 -20.443  1.00  0.00     0.177 C 
BRANCH  28  33
ATOM     33  O   UNL     1       6.876  15.336 -18.029  1.00  0.00    -0.384 OA
ATOM     34  H   UNL     1       6.044  14.801 -18.125  1.00  0.00     0.211 HD
ENDBRANCH  28  33
BRANCH  30  35
ATOM     35  O   UNL     1       9.473  16.287 -18.504  1.00  0.00    -0.387 OA
ATOM     36  H   UNL     1       8.769  16.924 -18.792  1.00  0.00     0.211 HD
ENDBRANCH  30  35
BRANCH  31  37
ATOM     37  C   UNL     1       9.116  12.747 -21.361  1.00  0.00     0.191 C 
BRANCH  37  38
ATOM     38  O   UNL     1       8.596  11.440 -21.381  1.00  0.00    -0.394 OA
ATOM     39  H   UNL     1       7.661  11.481 -21.052  1.00  0.00     0.210 HD
ENDBRANCH  37  38
ENDBRANCH  31  37
BRANCH  32  40
ATOM     40  O   UNL     1       7.681  16.146 -20.566  1.00  0.00    -0.387 OA
ATOM     41  H   UNL     1       8.173  17.005 -20.619  1.00  0.00     0.211 HD
ENDBRANCH  32  40
ENDBRANCH   1  27
TORSDOF 12
ENDMDL
MODEL 6
REMARK VINA RESULT:    -5.623      1.697      2.541
REMARK INTER + INTRA:          -8.006
REMARK INTER:                  -7.284
REMARK INTRA:                  -0.722
REMARK UNBOUND:                 0.246
REMARK SMILES O=c1c(O[C@@H]2O[C@H](CO)[C@@H](O)[C@@H](O)[C@H]2O)c(-c2ccc(O)c(O)c2)oc2cc(O)cc(O)c12
REMARK SMILES IDX 4 1 3 2 16 3 25 4 2 5 26 6 1 7 33 8 27 9 31 10 28 11 30 12
REMARK SMILES IDX 17 13 18 14 19 15 20 16 24 17 22 18 21 19 23 21 32 23 29 25
REMARK SMILES IDX 5 27 14 28 6 29 12 30 7 31 10 32 15 33 13 35 8 37 9 38 11 40
REMARK H PARENT 21 20 23 22 32 24 29 26 15 34 13 36 9 39 11 41
REMARK Flexibility Score: inf
ROOT
ATOM      1  O   UNL     1       8.028  11.185 -18.341  1.00  0.00    -0.454 OA
ENDROOT
BRANCH   1   2
ATOM      2  C   UNL     1       8.089  10.015 -17.565  1.00  0.00     0.214 A 
ATOM      3  C   UNL     1       8.621  10.102 -16.259  1.00  0.00     0.180 A 
ATOM      4  O   UNL     1       8.723   9.009 -15.510  1.00  0.00    -0.452 OA
ATOM      5  C   UNL     1       7.683   8.748 -18.040  1.00  0.00     0.239 A 
ATOM      6  C   UNL     1       8.349   7.804 -15.916  1.00  0.00     0.146 A 
ATOM      7  O   UNL     1       7.244   8.620 -19.213  1.00  0.00    -0.285 OA
ATOM      8  C   UNL     1       7.802   7.616 -17.205  1.00  0.00     0.111 A 
ATOM      9  C   UNL     1       8.500   6.718 -15.048  1.00  0.00     0.094 A 
ATOM     10  C   UNL     1       7.412   6.313 -17.604  1.00  0.00     0.134 A 
ATOM     11  C   UNL     1       8.114   5.434 -15.448  1.00  0.00     0.123 A 
ATOM     12  C   UNL     1       7.570   5.236 -16.719  1.00  0.00     0.093 A 
BRANCH   3  13
ATOM     13  C   UNL     1       9.118  11.377 -15.686  1.00  0.00     0.025 A 
ATOM     14  C   UNL     1       8.488  11.995 -14.590  1.00  0.00     0.016 A 
ATOM     15  C   UNL     1       8.955  13.217 -14.102  1.00  0.00     0.051 A 
ATOM     16  C   UNL     1      10.082  13.822 -14.671  1.00  0.00     0.157 A 
ATOM     17  C   UNL     1      10.282  11.963 -16.217  1.00  0.00     0.062 A 
ATOM     18  C   UNL     1      10.763  13.177 -15.716  1.00  0.00     0.158 A 
BRANCH  16  19
ATOM     19  O   UNL     1      10.546  15.041 -14.178  1.00  0.00    -0.504 OA
ATOM     20  H   UNL     1      10.069  15.912 -14.382  1.00  0.00     0.293 HD
ENDBRANCH  16  19
BRANCH  18  21
ATOM     21  O   UNL     1      11.922  13.725 -16.264  1.00  0.00    -0.504 OA
ATOM     22  H   UNL     1      11.975  13.960 -17.250  1.00  0.00     0.293 HD
ENDBRANCH  18  21
ENDBRANCH   3  13
BRANCH  10  23
ATOM     23  O   UNL     1       6.875   6.078 -18.872  1.00  0.00    -0.507 OA
ATOM     24  H   UNL     1       6.043   6.556 -19.197  1.00  0.00     0.293 HD
ENDBRANCH  10  23
BRANCH  11  25
ATOM     25  O   UNL     1       8.268   4.349 -14.585  1.00  0.00    -0.508 OA
ATOM     26  H   UNL     1       8.903   3.593 -14.798  1.00  0.00     0.293 HD
ENDBRANCH  11  25
ENDBRANCH   1   2
BRANCH   1  27
ATOM     27  C   UNL     1       9.014  11.669 -19.254  1.00  0.00     0.339 C 
ATOM     28  C   UNL     1       8.414  11.755 -20.665  1.00  0.00     0.214 C 
ATOM     29  O   UNL     1       9.573  12.902 -18.820  1.00  0.00    -0.332 OA
ATOM     30  C   UNL     1       7.363  12.878 -20.718  1.00  0.00     0.180 C 
ATOM     31  C   UNL     1       8.670  14.003 -18.845  1.00  0.00     0.179 C 
ATOM     32  C   UNL     1       7.967  14.195 -20.214  1.00  0.00     0.177 C 
BRANCH  28  33
ATOM     33  O   UNL     1       9.437  11.981 -21.603  1.00  0.00    -0.384 OA
ATOM     34  H   UNL     1       9.021  11.920 -22.503  1.00  0.00     0.211 HD
ENDBRANCH  28  33
BRANCH  30  35
ATOM     35  O   UNL     1       6.876  13.045 -22.025  1.00  0.00    -0.387 OA
ATOM     36  H   UNL     1       5.951  13.395 -21.939  1.00  0.00     0.211 HD
ENDBRANCH  30  35
BRANCH  31  37
ATOM     37  C   UNL     1       7.697  14.002 -17.640  1.00  0.00     0.191 C 
BRANCH  37  38
ATOM     38  O   UNL     1       7.774  15.195 -16.899  1.00  0.00    -0.394 OA
ATOM     39  H   UNL     1       8.730  15.457 -16.845  1.00  0.00     0.210 HD
ENDBRANCH  37  38
ENDBRANCH  31  37
BRANCH  32  40
ATOM     40  O   UNL     1       8.895  14.673 -21.154  1.00  0.00    -0.387 OA
ATOM     41  H   UNL     1       9.387  13.885 -21.502  1.00  0.00     0.211 HD
ENDBRANCH  32  40
ENDBRANCH   1  27
TORSDOF 12
ENDMDL
MODEL 7
REMARK VINA RESULT:    -5.507      1.750      2.291
REMARK INTER + INTRA:          -7.836
REMARK INTER:                  -8.119
REMARK INTRA:                   0.283
REMARK UNBOUND:                 0.246
REMARK SMILES O=c1c(O[C@@H]2O[C@H](CO)[C@@H](O)[C@@H](O)[C@H]2O)c(-c2ccc(O)c(O)c2)oc2cc(O)cc(O)c12
REMARK SMILES IDX 4 1 3 2 16 3 25 4 2 5 26 6 1 7 33 8 27 9 31 10 28 11 30 12
REMARK SMILES IDX 17 13 18 14 19 15 20 16 24 17 22 18 21 19 23 21 32 23 29 25
REMARK SMILES IDX 5 27 14 28 6 29 12 30 7 31 10 32 15 33 13 35 8 37 9 38 11 40
REMARK H PARENT 21 20 23 22 32 24 29 26 15 34 13 36 9 39 11 41
REMARK Flexibility Score: inf
ROOT
ATOM      1  O   UNL     1       7.546   9.481 -16.516  1.00  0.00    -0.454 OA
ENDROOT
BRANCH   1   2
ATOM      2  C   UNL     1       7.383   8.097 -16.696  1.00  0.00     0.214 A 
ATOM      3  C   UNL     1       7.197   7.287 -15.554  1.00  0.00     0.180 A 
ATOM      4  O   UNL     1       7.073   5.971 -15.686  1.00  0.00    -0.452 OA
ATOM      5  C   UNL     1       7.439   7.468 -17.961  1.00  0.00     0.239 A 
ATOM      6  C   UNL     1       7.113   5.343 -16.853  1.00  0.00     0.146 A 
ATOM      7  O   UNL     1       7.647   8.148 -18.999  1.00  0.00    -0.285 OA
ATOM      8  C   UNL     1       7.293   6.067 -18.053  1.00  0.00     0.111 A 
ATOM      9  C   UNL     1       6.973   3.953 -16.882  1.00  0.00     0.094 A 
ATOM     10  C   UNL     1       7.331   5.363 -19.283  1.00  0.00     0.134 A 
ATOM     11  C   UNL     1       7.011   3.263 -18.098  1.00  0.00     0.123 A 
ATOM     12  C   UNL     1       7.186   3.967 -19.292  1.00  0.00     0.093 A 
BRANCH   3  13
ATOM     13  C   UNL     1       7.171   7.845 -14.179  1.00  0.00     0.025 A 
ATOM     14  C   UNL     1       7.102   7.019 -13.042  1.00  0.00     0.016 A 
ATOM     15  C   UNL     1       7.036   7.576 -11.765  1.00  0.00     0.051 A 
ATOM     16  C   UNL     1       7.079   8.966 -11.596  1.00  0.00     0.157 A 
ATOM     17  C   UNL     1       7.270   9.237 -13.999  1.00  0.00     0.062 A 
ATOM     18  C   UNL     1       7.224   9.796 -12.719  1.00  0.00     0.158 A 
BRANCH  16  19
ATOM     19  O   UNL     1       7.016   9.518 -10.317  1.00  0.00    -0.504 OA
ATOM     20  H   UNL     1       6.389  10.284 -10.101  1.00  0.00     0.293 HD
ENDBRANCH  16  19
BRANCH  18  21
ATOM     21  O   UNL     1       7.329  11.180 -12.579  1.00  0.00    -0.504 OA
ATOM     22  H   UNL     1       8.211  11.617 -12.334  1.00  0.00     0.293 HD
ENDBRANCH  18  21
ENDBRANCH   3  13
BRANCH  10  23
ATOM     23  O   UNL     1       7.515   6.035 -20.493  1.00  0.00    -0.507 OA
ATOM     24  H   UNL     1       6.739   6.443 -21.002  1.00  0.00     0.293 HD
ENDBRANCH  10  23
BRANCH  11  25
ATOM     25  O   UNL     1       6.875   1.876 -18.129  1.00  0.00    -0.508 OA
ATOM     26  H   UNL     1       7.467   1.301 -18.713  1.00  0.00     0.293 HD
ENDBRANCH  11  25
ENDBRANCH   1   2
BRANCH   1  27
ATOM     27  C   UNL     1       7.988  10.433 -17.484  1.00  0.00     0.339 C 
ATOM     28  C   UNL     1       7.681  11.853 -16.989  1.00  0.00     0.214 C 
ATOM     29  O   UNL     1       9.360  10.251 -17.811  1.00  0.00    -0.332 OA
ATOM     30  C   UNL     1       8.578  12.193 -15.786  1.00  0.00     0.180 C 
ATOM     31  C   UNL     1      10.267  10.552 -16.754  1.00  0.00     0.179 C 
ATOM     32  C   UNL     1      10.053  11.959 -16.138  1.00  0.00     0.177 C 
BRANCH  28  33
ATOM     33  O   UNL     1       7.877  12.774 -18.035  1.00  0.00    -0.384 OA
ATOM     34  H   UNL     1       7.291  12.487 -18.784  1.00  0.00     0.211 HD
ENDBRANCH  28  33
BRANCH  30  35
ATOM     35  O   UNL     1       8.390  13.525 -15.381  1.00  0.00    -0.387 OA
ATOM     36  H   UNL     1       8.046  14.015 -16.171  1.00  0.00     0.211 HD
ENDBRANCH  30  35
BRANCH  31  37
ATOM     37  C   UNL     1      10.351   9.417 -15.702  1.00  0.00     0.191 C 
BRANCH  37  38
ATOM     38  O   UNL     1      10.911   8.244 -16.238  1.00  0.00    -0.394 OA
ATOM     39  H   UNL     1      10.447   7.470 -15.825  1.00  0.00     0.210 HD
ENDBRANCH  37  38
ENDBRANCH  31  37
BRANCH  32  40
ATOM     40  O   UNL     1      10.475  12.939 -17.052  1.00  0.00    -0.387 OA
ATOM     41  H   UNL     1      11.399  13.195 -16.797  1.00  0.00     0.211 HD
ENDBRANCH  32  40
ENDBRANCH   1  27
TORSDOF 12
ENDMDL
MODEL 8
REMARK VINA RESULT:    -5.493      3.006      7.833
REMARK INTER + INTRA:          -7.816
REMARK INTER:                  -7.163
REMARK INTRA:                  -0.653
REMARK UNBOUND:                 0.246
REMARK SMILES O=c1c(O[C@@H]2O[C@H](CO)[C@@H](O)[C@@H](O)[C@H]2O)c(-c2ccc(O)c(O)c2)oc2cc(O)cc(O)c12
REMARK SMILES IDX 4 1 3 2 16 3 25 4 2 5 26 6 1 7 33 8 27 9 31 10 28 11 30 12
REMARK SMILES IDX 17 13 18 14 19 15 20 16 24 17 22 18 21 19 23 21 32 23 29 25
REMARK SMILES IDX 5 27 14 28 6 29 12 30 7 31 10 32 15 33 13 35 8 37 9 38 11 40
REMARK H PARENT 21 20 23 22 32 24 29 26 15 34 13 36 9 39 11 41
REMARK Flexibility Score: inf
ROOT
ATOM      1  O   UNL     1       8.247  13.422 -17.226  1.00  0.00    -0.454 OA
ENDROOT
BRANCH   1   2
ATOM      2  C   UNL     1       8.334  13.746 -18.590  1.00  0.00     0.214 A 
ATOM      3  C   UNL     1       8.465  12.694 -19.524  1.00  0.00     0.180 A 
ATOM      4  O   UNL     1       8.583  12.967 -20.819  1.00  0.00    -0.452 OA
ATOM      5  C   UNL     1       8.340  15.074 -19.073  1.00  0.00     0.239 A 
ATOM      6  C   UNL     1       8.586  14.198 -21.313  1.00  0.00     0.146 A 
ATOM      7  O   UNL     1       8.269  16.042 -18.271  1.00  0.00    -0.285 OA
ATOM      8  C   UNL     1       8.458  15.315 -20.459  1.00  0.00     0.111 A 
ATOM      9  C   UNL     1       8.716  14.376 -22.693  1.00  0.00     0.094 A 
ATOM     10  C   UNL     1       8.465  16.617 -21.022  1.00  0.00     0.134 A 
ATOM     11  C   UNL     1       8.724  15.661 -23.244  1.00  0.00     0.123 A 
ATOM     12  C   UNL     1       8.595  16.775 -22.410  1.00  0.00     0.093 A 
BRANCH   3  13
ATOM     13  C   UNL     1       8.518  11.269 -19.115  1.00  0.00     0.025 A 
ATOM     14  C   UNL     1       7.350  10.514 -18.899  1.00  0.00     0.016 A 
ATOM     15  C   UNL     1       7.433   9.188 -18.473  1.00  0.00     0.051 A 
ATOM     16  C   UNL     1       8.682   8.579 -18.293  1.00  0.00     0.157 A 
ATOM     17  C   UNL     1       9.767  10.636 -18.985  1.00  0.00     0.062 A 
ATOM     18  C   UNL     1       9.852   9.301 -18.577  1.00  0.00     0.158 A 
BRANCH  16  19
ATOM     19  O   UNL     1       8.759   7.253 -17.869  1.00  0.00    -0.504 OA
ATOM     20  H   UNL     1       8.430   6.969 -16.954  1.00  0.00     0.293 HD
ENDBRANCH  16  19
BRANCH  18  21
ATOM     21  O   UNL     1      11.108   8.705 -18.464  1.00  0.00    -0.504 OA
ATOM     22  H   UNL     1      11.535   8.551 -17.557  1.00  0.00     0.293 HD
ENDBRANCH  18  21
ENDBRANCH   3  13
BRANCH  10  23
ATOM     23  O   UNL     1       8.350  17.751 -20.216  1.00  0.00    -0.507 OA
ATOM     24  H   UNL     1       7.926  18.608 -20.555  1.00  0.00     0.293 HD
ENDBRANCH  10  23
BRANCH  11  25
ATOM     25  O   UNL     1       8.857  15.841 -24.620  1.00  0.00    -0.508 OA
ATOM     26  H   UNL     1       8.468  16.649 -25.086  1.00  0.00     0.293 HD
ENDBRANCH  11  25
ENDBRANCH   1   2
BRANCH   1  27
ATOM     27  C   UNL     1       9.268  12.851 -16.407  1.00  0.00     0.339 C 
ATOM     28  C   UNL     1      10.648  13.234 -16.960  1.00  0.00     0.214 C 
ATOM     29  O   UNL     1       9.107  13.209 -15.040  1.00  0.00    -0.332 OA
ATOM     30  C   UNL     1      10.893  14.740 -16.758  1.00  0.00     0.180 C 
ATOM     31  C   UNL     1       9.324  14.588 -14.758  1.00  0.00     0.179 C 
ATOM     32  C   UNL     1      10.682  15.121 -15.287  1.00  0.00     0.177 C 
BRANCH  28  33
ATOM     33  O   UNL     1      11.645  12.475 -16.320  1.00  0.00    -0.384 OA
ATOM     34  H   UNL     1      11.300  11.545 -16.254  1.00  0.00     0.211 HD
ENDBRANCH  28  33
BRANCH  30  35
ATOM     35  O   UNL     1      12.191  15.095 -17.161  1.00  0.00    -0.387 OA
ATOM     36  H   UNL     1      12.120  15.410 -18.099  1.00  0.00     0.211 HD
ENDBRANCH  30  35
BRANCH  31  37
ATOM     37  C   UNL     1       8.113  15.471 -15.148  1.00  0.00     0.191 C 
BRANCH  37  38
ATOM     38  O   UNL     1       6.891  14.799 -14.967  1.00  0.00    -0.394 OA
ATOM     39  H   UNL     1       6.330  14.969 -15.767  1.00  0.00     0.210 HD
ENDBRANCH  37  38
ENDBRANCH  31  37
BRANCH  32  40
ATOM     40  O   UNL     1      11.727  14.589 -14.513  1.00  0.00    -0.387 OA
ATOM     41  H   UNL     1      12.197  13.923 -15.079  1.00  0.00     0.211 HD
ENDBRANCH  32  40
ENDBRANCH   1  27
TORSDOF 12
ENDMDL
MODEL 9
REMARK VINA RESULT:    -4.903      3.191      7.521
REMARK INTER + INTRA:          -6.950
REMARK INTER:                  -6.276
REMARK INTRA:                  -0.674
REMARK UNBOUND:                 0.246
REMARK SMILES O=c1c(O[C@@H]2O[C@H](CO)[C@@H](O)[C@@H](O)[C@H]2O)c(-c2ccc(O)c(O)c2)oc2cc(O)cc(O)c12
REMARK SMILES IDX 4 1 3 2 16 3 25 4 2 5 26 6 1 7 33 8 27 9 31 10 28 11 30 12
REMARK SMILES IDX 17 13 18 14 19 15 20 16 24 17 22 18 21 19 23 21 32 23 29 25
REMARK SMILES IDX 5 27 14 28 6 29 12 30 7 31 10 32 15 33 13 35 8 37 9 38 11 40
REMARK H PARENT 21 20 23 22 32 24 29 26 15 34 13 36 9 39 11 41
REMARK Flexibility Score: inf
ROOT
ATOM      1  O   UNL     1       8.529  12.463 -18.054  1.00  0.00    -0.454 OA
ENDROOT
BRANCH   1   2
ATOM      2  C   UNL     1       8.735  13.437 -19.046  1.00  0.00     0.214 A 
ATOM      3  C   UNL     1       9.588  14.525 -18.752  1.00  0.00     0.180 A 
ATOM      4  O   UNL     1       9.779  15.481 -19.654  1.00  0.00    -0.452 OA
ATOM      5  C   UNL     1       8.099  13.407 -20.307  1.00  0.00     0.239 A 
ATOM      6  C   UNL     1       9.207  15.487 -20.850  1.00  0.00     0.146 A 
ATOM      7  O   UNL     1       7.298  12.479 -20.592  1.00  0.00    -0.285 OA
ATOM      8  C   UNL     1       8.339  14.441 -21.238  1.00  0.00     0.111 A 
ATOM      9  C   UNL     1       9.474  16.543 -21.727  1.00  0.00     0.094 A 
ATOM     10  C   UNL     1       7.745  14.480 -22.524  1.00  0.00     0.134 A 
ATOM     11  C   UNL     1       8.885  16.577 -22.995  1.00  0.00     0.123 A 
ATOM     12  C   UNL     1       8.028  15.547 -23.391  1.00  0.00     0.093 A 
BRANCH   3  13
ATOM     13  C   UNL     1      10.265  14.673 -17.440  1.00  0.00     0.025 A 
ATOM     14  C   UNL     1      11.517  15.303 -17.316  1.00  0.00     0.016 A 
ATOM     15  C   UNL     1      12.147  15.388 -16.074  1.00  0.00     0.051 A 
ATOM     16  C   UNL     1      11.522  14.883 -14.927  1.00  0.00     0.157 A 
ATOM     17  C   UNL     1       9.619  14.217 -16.277  1.00  0.00     0.062 A 
ATOM     18  C   UNL     1      10.240  14.319 -15.028  1.00  0.00     0.158 A 
BRANCH  16  19
ATOM     19  O   UNL     1      12.154  14.972 -13.688  1.00  0.00    -0.504 OA
ATOM     20  H   UNL     1      11.794  14.490 -12.873  1.00  0.00     0.293 HD
ENDBRANCH  16  19
BRANCH  18  21
ATOM     21  O   UNL     1       9.566  13.860 -13.896  1.00  0.00    -0.504 OA
ATOM     22  H   UNL     1       9.443  14.454 -13.083  1.00  0.00     0.293 HD
ENDBRANCH  18  21
ENDBRANCH   3  13
BRANCH  10  23
ATOM     23  O   UNL     1       6.875  13.473 -22.947  1.00  0.00    -0.507 OA
ATOM     24  H   UNL     1       7.169  12.505 -23.014  1.00  0.00     0.293 HD
ENDBRANCH  10  23
BRANCH  11  25
ATOM     25  O   UNL     1       9.148  17.631 -23.869  1.00  0.00    -0.508 OA
ATOM     26  H   UNL     1       9.800  18.364 -23.629  1.00  0.00     0.293 HD
ENDBRANCH  11  25
ENDBRANCH   1   2
BRANCH   1  27
ATOM     27  C   UNL     1       8.515  11.045 -18.226  1.00  0.00     0.339 C 
ATOM     28  C   UNL     1       9.896  10.470 -17.880  1.00  0.00     0.214 C 
ATOM     29  O   UNL     1       7.466  10.436 -17.484  1.00  0.00    -0.332 OA
ATOM     30  C   UNL     1      10.152  10.598 -16.368  1.00  0.00     0.180 C 
ATOM     31  C   UNL     1       7.626  10.499 -16.070  1.00  0.00     0.179 C 
ATOM     32  C   UNL     1       8.998   9.969 -15.578  1.00  0.00     0.177 C 
BRANCH  28  33
ATOM     33  O   UNL     1       9.967   9.125 -18.288  1.00  0.00    -0.384 OA
ATOM     34  H   UNL     1       9.801   8.571 -17.480  1.00  0.00     0.211 HD
ENDBRANCH  28  33
BRANCH  30  35
ATOM     35  O   UNL     1      11.365   9.984 -16.011  1.00  0.00    -0.387 OA
ATOM     36  H   UNL     1      11.239   9.620 -15.098  1.00  0.00     0.211 HD
ENDBRANCH  30  35
BRANCH  31  37
ATOM     37  C   UNL     1       7.250  11.887 -15.492  1.00  0.00     0.191 C 
BRANCH  37  38
ATOM     38  O   UNL     1       7.532  11.978 -14.118  1.00  0.00    -0.394 OA
ATOM     39  H   UNL     1       7.857  11.090 -13.815  1.00  0.00     0.210 HD
ENDBRANCH  37  38
ENDBRANCH  31  37
BRANCH  32  40
ATOM     40  O   UNL     1       9.039   8.572 -15.724  1.00  0.00    -0.387 OA
ATOM     41  H   UNL     1       8.881   8.183 -14.825  1.00  0.00     0.211 HD
ENDBRANCH  32  40
ENDBRANCH   1  27
TORSDOF 12
ENDMDL
