MODEL 1
REMARK VINA RESULT:    -6.440      0.000      0.000
REMARK INTER + INTRA:          -7.453
REMARK INTER:                  -9.451
REMARK INTRA:                   1.998
REMARK UNBOUND:                 1.998
REMARK SMILES O=c1c(O[C@@H]2O[C@H](CO)[C@@H](O)[C@H](O)[C@@H]2O)c(-c2ccc(O)c(O)c2)oc2cc(O)cc(O)c12
REMARK SMILES IDX 4 1 3 2 16 3 25 4 2 5 26 6 1 7 33 8 27 9 31 10 28 11 30 12
REMARK SMILES IDX 17 13 18 14 19 15 20 16 24 17 22 18 21 19 23 21 32 23 29 25
REMARK SMILES IDX 5 27 14 28 6 29 12 30 7 31 10 32 15 33 13 35 8 37 9 38 11 40
REMARK H PARENT 21 20 23 22 32 24 29 26 15 34 13 36 9 39 11 41
REMARK Flexibility Score: inf
ROOT
ATOM      1  O   UNL     1       7.403  13.398 -15.758  1.00  0.00    -0.454 OA
ENDROOT
BRANCH   1   2
ATOM      2  C   UNL     1       7.431  11.998 -15.749  1.00  0.00     0.214 A 
ATOM      3  C   UNL     1       7.540  11.284 -16.955  1.00  0.00     0.180 A 
ATOM      4  O   UNL     1       7.454   9.959 -16.949  1.00  0.00    -0.452 OA
ATOM      5  C   UNL     1       7.264  11.286 -14.550  1.00  0.00     0.239 A 
ATOM      6  C   UNL     1       7.316   9.241 -15.838  1.00  0.00     0.146 A 
ATOM      7  O   UNL     1       7.043  11.929 -13.491  1.00  0.00    -0.285 OA
ATOM      8  C   UNL     1       7.267   9.871 -14.566  1.00  0.00     0.111 A 
ATOM      9  C   UNL     1       7.210   7.852 -15.947  1.00  0.00     0.094 A 
ATOM     10  C   UNL     1       7.169   9.051 -13.403  1.00  0.00     0.134 A 
ATOM     11  C   UNL     1       7.043   7.064 -14.807  1.00  0.00     0.123 A 
ATOM     12  C   UNL     1       7.017   7.665 -13.548  1.00  0.00     0.093 A 
BRANCH   3  13
ATOM     13  C   UNL     1       7.717  11.970 -18.248  1.00  0.00     0.025 A 
ATOM     14  C   UNL     1       6.875  13.035 -18.595  1.00  0.00     0.016 A 
ATOM     15  C   UNL     1       7.027  13.681 -19.826  1.00  0.00     0.051 A 
ATOM     16  C   UNL     1       8.002  13.261 -20.736  1.00  0.00     0.157 A 
ATOM     17  C   UNL     1       8.692  11.543 -19.159  1.00  0.00     0.062 A 
ATOM     18  C   UNL     1       8.854  12.184 -20.393  1.00  0.00     0.158 A 
BRANCH  16  19
ATOM     19  O   UNL     1       8.092  13.933 -21.959  1.00  0.00    -0.504 OA
ATOM     20  H   UNL     1       8.967  14.097 -22.442  1.00  0.00     0.293 HD
ENDBRANCH  16  19
BRANCH  18  21
ATOM     21  O   UNL     1       9.875  11.734 -21.231  1.00  0.00    -0.504 OA
ATOM     22  H   UNL     1       9.715  11.258 -22.108  1.00  0.00     0.293 HD
ENDBRANCH  18  21
ENDBRANCH   3  13
BRANCH  10  23
ATOM     23  O   UNL     1       7.245   9.543 -12.098  1.00  0.00    -0.507 OA
ATOM     24  H   UNL     1       6.695  10.310 -11.740  1.00  0.00     0.293 HD
ENDBRANCH  10  23
BRANCH  11  25
ATOM     25  O   UNL     1       6.899   5.683 -14.911  1.00  0.00    -0.508 OA
ATOM     26  H   UNL     1       7.016   5.072 -14.107  1.00  0.00     0.293 HD
ENDBRANCH  11  25
ENDBRANCH   1   2
BRANCH   1  27
ATOM     27  C   UNL     1       8.553  14.237 -15.937  1.00  0.00     0.339 C 
ATOM     28  C   UNL     1       9.687  13.887 -14.927  1.00  0.00     0.214 C 
ATOM     29  O   UNL     1       9.001  14.202 -17.285  1.00  0.00    -0.332 OA
ATOM     30  C   UNL     1      11.044  13.609 -15.628  1.00  0.00     0.180 C 
ATOM     31  C   UNL     1      10.047  15.141 -17.456  1.00  0.00     0.179 C 
ATOM     32  C   UNL     1      11.346  14.625 -16.770  1.00  0.00     0.177 C 
BRANCH  28  33
ATOM     33  O   UNL     1       9.319  12.791 -14.126  1.00  0.00    -0.384 OA
ATOM     34  H   UNL     1      10.018  12.095 -14.247  1.00  0.00     0.211 HD
ENDBRANCH  28  33
BRANCH  30  35
ATOM     35  O   UNL     1      11.099  12.284 -16.096  1.00  0.00    -0.387 OA
ATOM     36  H   UNL     1      11.354  11.695 -15.339  1.00  0.00     0.211 HD
ENDBRANCH  30  35
BRANCH  31  37
ATOM     37  C   UNL     1      10.274  15.384 -18.960  1.00  0.00     0.191 C 
BRANCH  37  38
ATOM     38  O   UNL     1      11.438  16.136 -19.207  1.00  0.00    -0.394 OA
ATOM     39  H   UNL     1      11.250  17.081 -18.961  1.00  0.00     0.210 HD
ENDBRANCH  37  38
ENDBRANCH  31  37
BRANCH  32  40
ATOM     40  O   UNL     1      12.102  15.709 -16.288  1.00  0.00    -0.387 OA
ATOM     41  H   UNL     1      11.472  16.446 -16.074  1.00  0.00     0.211 HD
ENDBRANCH  32  40
ENDBRANCH   1  27
TORSDOF 12
ENDMDL
MODEL 2
REMARK VINA RESULT:    -6.343      3.512      7.952
REMARK INTER + INTRA:          -7.311
REMARK INTER:                  -8.086
REMARK INTRA:                   0.775
REMARK UNBOUND:                 1.998
REMARK SMILES O=c1c(O[C@@H]2O[C@H](CO)[C@@H](O)[C@H](O)[C@@H]2O)c(-c2ccc(O)c(O)c2)oc2cc(O)cc(O)c12
REMARK SMILES IDX 4 1 3 2 16 3 25 4 2 5 26 6 1 7 33 8 27 9 31 10 28 11 30 12
REMARK SMILES IDX 17 13 18 14 19 15 20 16 24 17 22 18 21 19 23 21 32 23 29 25
REMARK SMILES IDX 5 27 14 28 6 29 12 30 7 31 10 32 15 33 13 35 8 37 9 38 11 40
REMARK H PARENT 21 20 23 22 32 24 29 26 15 34 13 36 9 39 11 41
REMARK Flexibility Score: inf
ROOT
ATOM      1  O   UNL     1       8.076  15.678 -17.501  1.00  0.00    -0.454 OA
ENDROOT
BRANCH   1   2
ATOM      2  C   UNL     1       8.346  16.036 -18.829  1.00  0.00     0.214 A 
ATOM      3  C   UNL     1       8.292  17.384 -19.223  1.00  0.00     0.180 A 
ATOM      4  O   UNL     1       8.438  17.704 -20.504  1.00  0.00    -0.452 OA
ATOM      5  C   UNL     1       8.587  15.051 -19.801  1.00  0.00     0.239 A 
ATOM      6  C   UNL     1       8.688  16.810 -21.456  1.00  0.00     0.146 A 
ATOM      7  O   UNL     1       8.512  13.841 -19.468  1.00  0.00    -0.285 OA
ATOM      8  C   UNL     1       8.829  15.432 -21.142  1.00  0.00     0.111 A 
ATOM      9  C   UNL     1       8.799  17.254 -22.777  1.00  0.00     0.094 A 
ATOM     10  C   UNL     1       9.146  14.524 -22.194  1.00  0.00     0.134 A 
ATOM     11  C   UNL     1       9.040  16.344 -23.809  1.00  0.00     0.123 A 
ATOM     12  C   UNL     1       9.205  14.991 -23.515  1.00  0.00     0.093 A 
BRANCH   3  13
ATOM     13  C   UNL     1       8.043  18.466 -18.253  1.00  0.00     0.025 A 
ATOM     14  C   UNL     1       7.127  18.272 -17.210  1.00  0.00     0.016 A 
ATOM     15  C   UNL     1       6.875  19.298 -16.294  1.00  0.00     0.051 A 
ATOM     16  C   UNL     1       7.511  20.537 -16.418  1.00  0.00     0.157 A 
ATOM     17  C   UNL     1       8.678  19.707 -18.384  1.00  0.00     0.062 A 
ATOM     18  C   UNL     1       8.434  20.740 -17.471  1.00  0.00     0.158 A 
BRANCH  16  19
ATOM     19  O   UNL     1       7.202  21.530 -15.485  1.00  0.00    -0.504 OA
ATOM     20  H   UNL     1       7.238  21.386 -14.483  1.00  0.00     0.293 HD
ENDBRANCH  16  19
BRANCH  18  21
ATOM     21  O   UNL     1       9.137  21.934 -17.637  1.00  0.00    -0.504 OA
ATOM     22  H   UNL     1       8.886  22.647 -18.308  1.00  0.00     0.293 HD
ENDBRANCH  18  21
ENDBRANCH   3  13
BRANCH  10  23
ATOM     23  O   UNL     1       9.438  13.173 -21.991  1.00  0.00    -0.507 OA
ATOM     24  H   UNL     1      10.128  12.650 -22.510  1.00  0.00     0.293 HD
ENDBRANCH  10  23
BRANCH  11  25
ATOM     25  O   UNL     1       9.115  16.774 -25.132  1.00  0.00    -0.508 OA
ATOM     26  H   UNL     1       8.446  17.436 -25.517  1.00  0.00     0.293 HD
ENDBRANCH  11  25
ENDBRANCH   1   2
BRANCH   1  27
ATOM     27  C   UNL     1       8.397  14.407 -16.918  1.00  0.00     0.339 C 
ATOM     28  C   UNL     1       9.935  14.225 -16.738  1.00  0.00     0.214 C 
ATOM     29  O   UNL     1       7.685  14.212 -15.705  1.00  0.00    -0.332 OA
ATOM     30  C   UNL     1      10.323  13.848 -15.283  1.00  0.00     0.180 C 
ATOM     31  C   UNL     1       7.919  12.899 -15.228  1.00  0.00     0.179 C 
ATOM     32  C   UNL     1       9.366  12.785 -14.664  1.00  0.00     0.177 C 
BRANCH  28  33
ATOM     33  O   UNL     1      10.624  15.383 -17.141  1.00  0.00    -0.384 OA
ATOM     34  H   UNL     1      10.773  15.306 -18.121  1.00  0.00     0.211 HD
ENDBRANCH  28  33
BRANCH  30  35
ATOM     35  O   UNL     1      10.399  14.997 -14.475  1.00  0.00    -0.387 OA
ATOM     36  H   UNL     1      10.759  14.732 -13.588  1.00  0.00     0.211 HD
ENDBRANCH  30  35
BRANCH  31  37
ATOM     37  C   UNL     1       6.875  12.554 -14.150  1.00  0.00     0.191 C 
BRANCH  37  38
ATOM     38  O   UNL     1       7.473  12.122 -12.951  1.00  0.00    -0.394 OA
ATOM     39  H   UNL     1       6.752  11.794 -12.350  1.00  0.00     0.210 HD
ENDBRANCH  37  38
ENDBRANCH  31  37
BRANCH  32  40
ATOM     40  O   UNL     1       9.863  11.485 -14.868  1.00  0.00    -0.387 OA
ATOM     41  H   UNL     1       9.231  11.010 -15.469  1.00  0.00     0.211 HD
ENDBRANCH  32  40
ENDBRANCH   1  27
TORSDOF 12
ENDMDL
MODEL 3
REMARK VINA RESULT:    -6.043      2.006      4.794
REMARK INTER + INTRA:          -6.871
REMARK INTER:                  -6.352
REMARK INTRA:                  -0.519
REMARK UNBOUND:                 1.998
REMARK SMILES O=c1c(O[C@@H]2O[C@H](CO)[C@@H](O)[C@H](O)[C@@H]2O)c(-c2ccc(O)c(O)c2)oc2cc(O)cc(O)c12
REMARK SMILES IDX 4 1 3 2 16 3 25 4 2 5 26 6 1 7 33 8 27 9 31 10 28 11 30 12
REMARK SMILES IDX 17 13 18 14 19 15 20 16 24 17 22 18 21 19 23 21 32 23 29 25
REMARK SMILES IDX 5 27 14 28 6 29 12 30 7 31 10 32 15 33 13 35 8 37 9 38 11 40
REMARK H PARENT 21 20 23 22 32 24 29 26 15 34 13 36 9 39 11 41
REMARK Flexibility Score: inf
ROOT
ATOM      1  O   UNL     1       9.758  11.111 -18.686  1.00  0.00    -0.454 OA
ENDROOT
BRANCH   1   2
ATOM      2  C   UNL     1       9.258  10.404 -17.585  1.00  0.00     0.214 A 
ATOM      3  C   UNL     1       9.493  10.868 -16.280  1.00  0.00     0.180 A 
ATOM      4  O   UNL     1       9.114  10.136 -15.239  1.00  0.00    -0.452 OA
ATOM      5  C   UNL     1       8.594   9.180 -17.762  1.00  0.00     0.239 A 
ATOM      6  C   UNL     1       8.464   8.981 -15.357  1.00  0.00     0.146 A 
ATOM      7  O   UNL     1       8.496   8.707 -18.924  1.00  0.00    -0.285 OA
ATOM      8  C   UNL     1       8.122   8.466 -16.635  1.00  0.00     0.111 A 
ATOM      9  C   UNL     1       8.134   8.278 -14.195  1.00  0.00     0.094 A 
ATOM     10  C   UNL     1       7.382   7.249 -16.702  1.00  0.00     0.134 A 
ATOM     11  C   UNL     1       7.471   7.052 -14.276  1.00  0.00     0.123 A 
ATOM     12  C   UNL     1       7.107   6.543 -15.523  1.00  0.00     0.093 A 
BRANCH   3  13
ATOM     13  C   UNL     1      10.185  12.146 -16.024  1.00  0.00     0.025 A 
ATOM     14  C   UNL     1      11.546  12.275 -16.326  1.00  0.00     0.016 A 
ATOM     15  C   UNL     1      12.213  13.478 -16.074  1.00  0.00     0.051 A 
ATOM     16  C   UNL     1      11.539  14.559 -15.495  1.00  0.00     0.157 A 
ATOM     17  C   UNL     1       9.507  13.224 -15.440  1.00  0.00     0.062 A 
ATOM     18  C   UNL     1      10.164  14.433 -15.185  1.00  0.00     0.158 A 
BRANCH  16  19
ATOM     19  O   UNL     1      12.264  15.728 -15.247  1.00  0.00    -0.504 OA
ATOM     20  H   UNL     1      13.275  15.772 -15.266  1.00  0.00     0.293 HD
ENDBRANCH  16  19
BRANCH  18  21
ATOM     21  O   UNL     1       9.416  15.479 -14.644  1.00  0.00    -0.504 OA
ATOM     22  H   UNL     1       8.425  15.604 -14.803  1.00  0.00     0.293 HD
ENDBRANCH  18  21
ENDBRANCH   3  13
BRANCH  10  23
ATOM     23  O   UNL     1       6.875   6.714 -17.889  1.00  0.00    -0.507 OA
ATOM     24  H   UNL     1       7.117   7.037 -18.814  1.00  0.00     0.293 HD
ENDBRANCH  10  23
BRANCH  11  25
ATOM     25  O   UNL     1       7.172   6.327 -13.125  1.00  0.00    -0.508 OA
ATOM     26  H   UNL     1       7.071   6.781 -12.220  1.00  0.00     0.293 HD
ENDBRANCH  11  25
ENDBRANCH   1   2
BRANCH   1  27
ATOM     27  C   UNL     1       9.416  12.466 -19.010  1.00  0.00     0.339 C 
ATOM     28  C   UNL     1       9.390  12.704 -20.550  1.00  0.00     0.214 C 
ATOM     29  O   UNL     1       8.198  12.845 -18.384  1.00  0.00    -0.332 OA
ATOM     30  C   UNL     1       8.051  13.323 -21.034  1.00  0.00     0.180 C 
ATOM     31  C   UNL     1       7.962  14.223 -18.612  1.00  0.00     0.179 C 
ATOM     32  C   UNL     1       7.540  14.455 -20.093  1.00  0.00     0.177 C 
BRANCH  28  33
ATOM     33  O   UNL     1       9.653  11.509 -21.243  1.00  0.00    -0.384 OA
ATOM     34  H   UNL     1       8.775  11.138 -21.527  1.00  0.00     0.211 HD
ENDBRANCH  28  33
BRANCH  30  35
ATOM     35  O   UNL     1       7.075  12.325 -21.206  1.00  0.00    -0.387 OA
ATOM     36  H   UNL     1       6.537  12.549 -22.010  1.00  0.00     0.211 HD
ENDBRANCH  30  35
BRANCH  31  37
ATOM     37  C   UNL     1       6.875  14.721 -17.642  1.00  0.00     0.191 C 
BRANCH  37  38
ATOM     38  O   UNL     1       6.915  16.118 -17.472  1.00  0.00    -0.394 OA
ATOM     39  H   UNL     1       6.683  16.318 -16.526  1.00  0.00     0.210 HD
ENDBRANCH  37  38
ENDBRANCH  31  37
BRANCH  32  40
ATOM     40  O   UNL     1       7.991  15.712 -20.532  1.00  0.00    -0.387 OA
ATOM     41  H   UNL     1       7.336  16.393 -20.227  1.00  0.00     0.211 HD
ENDBRANCH  32  40
ENDBRANCH   1  27
TORSDOF 12
ENDMDL
MODEL 4
REMARK VINA RESULT:    -5.939      2.363      6.562
REMARK INTER + INTRA:          -6.717
REMARK INTER:                  -5.558
REMARK INTRA:                  -1.159
REMARK UNBOUND:                 1.998
REMARK SMILES O=c1c(O[C@@H]2O[C@H](CO)[C@@H](O)[C@H](O)[C@@H]2O)c(-c2ccc(O)c(O)c2)oc2cc(O)cc(O)c12
REMARK SMILES IDX 4 1 3 2 16 3 25 4 2 5 26 6 1 7 33 8 27 9 31 10 28 11 30 12
REMARK SMILES IDX 17 13 18 14 19 15 20 16 24 17 22 18 21 19 23 21 32 23 29 25
REMARK SMILES IDX 5 27 14 28 6 29 12 30 7 31 10 32 15 33 13 35 8 37 9 38 11 40
REMARK H PARENT 21 20 23 22 32 24 29 26 15 34 13 36 9 39 11 41
REMARK Flexibility Score: inf
ROOT
ATOM      1  O   UNL     1       7.385  14.069 -17.755  1.00  0.00    -0.454 OA
ENDROOT
BRANCH   1   2
ATOM      2  C   UNL     1       7.826  14.230 -19.076  1.00  0.00     0.214 A 
ATOM      3  C   UNL     1       8.258  13.117 -19.818  1.00  0.00     0.180 A 
ATOM      4  O   UNL     1       8.778  13.290 -21.027  1.00  0.00    -0.452 OA
ATOM      5  C   UNL     1       7.925  15.508 -19.647  1.00  0.00     0.239 A 
ATOM      6  C   UNL     1       8.874  14.478 -21.617  1.00  0.00     0.146 A 
ATOM      7  O   UNL     1       7.655  16.511 -18.937  1.00  0.00    -0.285 OA
ATOM      8  C   UNL     1       8.399  15.651 -20.972  1.00  0.00     0.111 A 
ATOM      9  C   UNL     1       9.462  14.551 -22.883  1.00  0.00     0.094 A 
ATOM     10  C   UNL     1       8.481  16.892 -21.671  1.00  0.00     0.134 A 
ATOM     11  C   UNL     1       9.600  15.781 -23.528  1.00  0.00     0.123 A 
ATOM     12  C   UNL     1       9.118  16.940 -22.919  1.00  0.00     0.093 A 
BRANCH   3  13
ATOM     13  C   UNL     1       8.181  11.747 -19.276  1.00  0.00     0.025 A 
ATOM     14  C   UNL     1       6.961  11.058 -19.293  1.00  0.00     0.016 A 
ATOM     15  C   UNL     1       6.876   9.764 -18.768  1.00  0.00     0.051 A 
ATOM     16  C   UNL     1       7.996   9.150 -18.200  1.00  0.00     0.157 A 
ATOM     17  C   UNL     1       9.304  11.138 -18.703  1.00  0.00     0.062 A 
ATOM     18  C   UNL     1       9.230   9.842 -18.177  1.00  0.00     0.158 A 
BRANCH  16  19
ATOM     19  O   UNL     1       7.844   7.864 -17.673  1.00  0.00    -0.504 OA
ATOM     20  H   UNL     1       7.337   7.125 -18.144  1.00  0.00     0.293 HD
ENDBRANCH  16  19
BRANCH  18  21
ATOM     21  O   UNL     1      10.400   9.281 -17.664  1.00  0.00    -0.504 OA
ATOM     22  H   UNL     1      11.328   9.628 -17.867  1.00  0.00     0.293 HD
ENDBRANCH  18  21
ENDBRANCH   3  13
BRANCH  10  23
ATOM     23  O   UNL     1       7.931  18.086 -21.198  1.00  0.00    -0.507 OA
ATOM     24  H   UNL     1       8.361  18.994 -21.293  1.00  0.00     0.293 HD
ENDBRANCH  10  23
BRANCH  11  25
ATOM     25  O   UNL     1      10.219  15.867 -24.773  1.00  0.00    -0.508 OA
ATOM     26  H   UNL     1       9.696  15.754 -25.637  1.00  0.00     0.293 HD
ENDBRANCH  11  25
ENDBRANCH   1   2
BRANCH   1  27
ATOM     27  C   UNL     1       8.170  14.363 -16.592  1.00  0.00     0.339 C 
ATOM     28  C   UNL     1       7.833  13.404 -15.409  1.00  0.00     0.214 C 
ATOM     29  O   UNL     1       9.556  14.369 -16.903  1.00  0.00    -0.332 OA
ATOM     30  C   UNL     1       9.092  12.703 -14.834  1.00  0.00     0.180 C 
ATOM     31  C   UNL     1      10.290  14.793 -15.769  1.00  0.00     0.179 C 
ATOM     32  C   UNL     1      10.304  13.672 -14.689  1.00  0.00     0.177 C 
BRANCH  28  33
ATOM     33  O   UNL     1       6.879  12.448 -15.801  1.00  0.00    -0.384 OA
ATOM     34  H   UNL     1       6.986  11.666 -15.196  1.00  0.00     0.211 HD
ENDBRANCH  28  33
BRANCH  30  35
ATOM     35  O   UNL     1       9.430  11.576 -15.606  1.00  0.00    -0.387 OA
ATOM     36  H   UNL     1       9.100  10.765 -15.136  1.00  0.00     0.211 HD
ENDBRANCH  30  35
BRANCH  31  37
ATOM     37  C   UNL     1      11.722  15.166 -16.197  1.00  0.00     0.191 C 
BRANCH  37  38
ATOM     38  O   UNL     1      11.826  15.363 -17.587  1.00  0.00    -0.394 OA
ATOM     39  H   UNL     1      12.278  14.568 -17.977  1.00  0.00     0.210 HD
ENDBRANCH  37  38
ENDBRANCH  31  37
BRANCH  32  40
ATOM     40  O   UNL     1      10.339  14.239 -13.403  1.00  0.00    -0.387 OA
ATOM     41  H   UNL     1      11.158  13.908 -12.948  1.00  0.00     0.211 HD
ENDBRANCH  32  40
ENDBRANCH   1  27
TORSDOF 12
ENDMDL
MODEL 5
REMARK VINA RESULT:    -5.811      3.525      7.575
REMARK INTER + INTRA:          -6.530
REMARK INTER:                  -6.156
REMARK INTRA:                  -0.373
REMARK UNBOUND:                 1.998
REMARK SMILES O=c1c(O[C@@H]2O[C@H](CO)[C@@H](O)[C@H](O)[C@@H]2O)c(-c2ccc(O)c(O)c2)oc2cc(O)cc(O)c12
REMARK SMILES IDX 4 1 3 2 16 3 25 4 2 5 26 6 1 7 33 8 27 9 31 10 28 11 30 12
REMARK SMILES IDX 17 13 18 14 19 15 20 16 24 17 22 18 21 19 23 21 32 23 29 25
REMARK SMILES IDX 5 27 14 28 6 29 12 30 7 31 10 32 15 33 13 35 8 37 9 38 11 40
REMARK H PARENT 21 20 23 22 32 24 29 26 15 34 13 36 9 39 11 41
REMARK Flexibility Score: inf
ROOT
ATOM      1  O   UNL     1       8.042  14.614 -20.208  1.00  0.00    -0.454 OA
ENDROOT
BRANCH   1   2
ATOM      2  C   UNL     1       8.096  15.970 -19.858  1.00  0.00     0.214 A 
ATOM      3  C   UNL     1       8.546  16.924 -20.787  1.00  0.00     0.180 A 
ATOM      4  O   UNL     1       8.700  18.189 -20.414  1.00  0.00    -0.452 OA
ATOM      5  C   UNL     1       7.786  16.385 -18.553  1.00  0.00     0.239 A 
ATOM      6  C   UNL     1       8.400  18.632 -19.196  1.00  0.00     0.146 A 
ATOM      7  O   UNL     1       7.503  15.512 -17.691  1.00  0.00    -0.285 OA
ATOM      8  C   UNL     1       7.873  17.755 -18.211  1.00  0.00     0.111 A 
ATOM      9  C   UNL     1       8.625  19.980 -18.901  1.00  0.00     0.094 A 
ATOM     10  C   UNL     1       7.523  18.293 -16.938  1.00  0.00     0.134 A 
ATOM     11  C   UNL     1       8.344  20.481 -17.628  1.00  0.00     0.123 A 
ATOM     12  C   UNL     1       7.803  19.638 -16.657  1.00  0.00     0.093 A 
BRANCH   3  13
ATOM     13  C   UNL     1       8.888  16.554 -22.173  1.00  0.00     0.025 A 
ATOM     14  C   UNL     1       7.885  16.110 -23.045  1.00  0.00     0.016 A 
ATOM     15  C   UNL     1       8.203  15.745 -24.357  1.00  0.00     0.051 A 
ATOM     16  C   UNL     1       9.525  15.792 -24.810  1.00  0.00     0.157 A 
ATOM     17  C   UNL     1      10.214  16.599 -22.621  1.00  0.00     0.062 A 
ATOM     18  C   UNL     1      10.543  16.237 -23.933  1.00  0.00     0.158 A 
BRANCH  16  19
ATOM     19  O   UNL     1       9.783  15.394 -26.124  1.00  0.00    -0.504 OA
ATOM     20  H   UNL     1       9.984  14.438 -26.389  1.00  0.00     0.293 HD
ENDBRANCH  16  19
BRANCH  18  21
ATOM     21  O   UNL     1      11.877  16.349 -24.324  1.00  0.00    -0.504 OA
ATOM     22  H   UNL     1      12.548  15.595 -24.263  1.00  0.00     0.293 HD
ENDBRANCH  18  21
ENDBRANCH   3  13
BRANCH  10  23
ATOM     23  O   UNL     1       6.877  17.562 -15.938  1.00  0.00    -0.507 OA
ATOM     24  H   UNL     1       6.828  17.836 -14.967  1.00  0.00     0.293 HD
ENDBRANCH  10  23
BRANCH  11  25
ATOM     25  O   UNL     1       8.600  21.814 -17.316  1.00  0.00    -0.508 OA
ATOM     26  H   UNL     1       9.010  22.083 -16.426  1.00  0.00     0.293 HD
ENDBRANCH  11  25
ENDBRANCH   1   2
BRANCH   1  27
ATOM     27  C   UNL     1       8.208  13.526 -19.288  1.00  0.00     0.339 C 
ATOM     28  C   UNL     1       7.774  12.167 -19.916  1.00  0.00     0.214 C 
ATOM     29  O   UNL     1       9.535  13.488 -18.782  1.00  0.00    -0.332 OA
ATOM     30  C   UNL     1       8.882  11.085 -19.816  1.00  0.00     0.180 C 
ATOM     31  C   UNL     1       9.626  12.492 -17.780  1.00  0.00     0.179 C 
ATOM     32  C   UNL     1       9.587  11.076 -18.427  1.00  0.00     0.177 C 
BRANCH  28  33
ATOM     33  O   UNL     1       7.381  12.340 -21.255  1.00  0.00    -0.384 OA
ATOM     34  H   UNL     1       7.421  13.315 -21.446  1.00  0.00     0.211 HD
ENDBRANCH  28  33
BRANCH  30  35
ATOM     35  O   UNL     1       9.814  11.230 -20.860  1.00  0.00    -0.387 OA
ATOM     36  H   UNL     1       9.395  10.907 -21.701  1.00  0.00     0.211 HD
ENDBRANCH  30  35
BRANCH  31  37
ATOM     37  C   UNL     1      10.922  12.696 -16.973  1.00  0.00     0.191 C 
BRANCH  37  38
ATOM     38  O   UNL     1      11.058  11.753 -15.937  1.00  0.00    -0.394 OA
ATOM     39  H   UNL     1      10.542  12.081 -15.154  1.00  0.00     0.210 HD
ENDBRANCH  37  38
ENDBRANCH  31  37
BRANCH  32  40
ATOM     40  O   UNL     1       8.966  10.163 -17.556  1.00  0.00    -0.387 OA
ATOM     41  H   UNL     1       8.129   9.853 -17.990  1.00  0.00     0.211 HD
ENDBRANCH  32  40
ENDBRANCH   1  27
TORSDOF 12
ENDMDL
MODEL 6
REMARK VINA RESULT:    -5.743      1.943      6.845
REMARK INTER + INTRA:          -6.430
REMARK INTER:                  -8.248
REMARK INTRA:                   1.818
REMARK UNBOUND:                 1.998
REMARK SMILES O=c1c(O[C@@H]2O[C@H](CO)[C@@H](O)[C@H](O)[C@@H]2O)c(-c2ccc(O)c(O)c2)oc2cc(O)cc(O)c12
REMARK SMILES IDX 4 1 3 2 16 3 25 4 2 5 26 6 1 7 33 8 27 9 31 10 28 11 30 12
REMARK SMILES IDX 17 13 18 14 19 15 20 16 24 17 22 18 21 19 23 21 32 23 29 25
REMARK SMILES IDX 5 27 14 28 6 29 12 30 7 31 10 32 15 33 13 35 8 37 9 38 11 40
REMARK H PARENT 21 20 23 22 32 24 29 26 15 34 13 36 9 39 11 41
REMARK Flexibility Score: inf
ROOT
ATOM      1  O   UNL     1      10.684  13.291 -16.919  1.00  0.00    -0.454 OA
ENDROOT
BRANCH   1   2
ATOM      2  C   UNL     1      10.063  13.772 -18.079  1.00  0.00     0.214 A 
ATOM      3  C   UNL     1       9.315  12.904 -18.894  1.00  0.00     0.180 A 
ATOM      4  O   UNL     1       8.823  13.340 -20.047  1.00  0.00    -0.452 OA
ATOM      5  C   UNL     1      10.247  15.102 -18.491  1.00  0.00     0.239 A 
ATOM      6  C   UNL     1       8.954  14.594 -20.470  1.00  0.00     0.146 A 
ATOM      7  O   UNL     1      11.018  15.840 -17.825  1.00  0.00    -0.285 OA
ATOM      8  C   UNL     1       9.634  15.560 -19.681  1.00  0.00     0.111 A 
ATOM      9  C   UNL     1       8.418  14.941 -21.713  1.00  0.00     0.094 A 
ATOM     10  C   UNL     1       9.703  16.902 -20.159  1.00  0.00     0.134 A 
ATOM     11  C   UNL     1       8.553  16.242 -22.203  1.00  0.00     0.123 A 
ATOM     12  C   UNL     1       9.197  17.209 -21.430  1.00  0.00     0.093 A 
BRANCH   3  13
ATOM     13  C   UNL     1       9.084  11.497 -18.519  1.00  0.00     0.025 A 
ATOM     14  C   UNL     1       7.775  11.008 -18.416  1.00  0.00     0.016 A 
ATOM     15  C   UNL     1       7.546   9.679 -18.047  1.00  0.00     0.051 A 
ATOM     16  C   UNL     1       8.614   8.827 -17.752  1.00  0.00     0.157 A 
ATOM     17  C   UNL     1      10.157  10.648 -18.220  1.00  0.00     0.062 A 
ATOM     18  C   UNL     1       9.939   9.315 -17.851  1.00  0.00     0.158 A 
BRANCH  16  19
ATOM     19  O   UNL     1       8.322   7.515 -17.368  1.00  0.00    -0.504 OA
ATOM     20  H   UNL     1       9.017   6.780 -17.318  1.00  0.00     0.293 HD
ENDBRANCH  16  19
BRANCH  18  21
ATOM     21  O   UNL     1      11.057   8.515 -17.612  1.00  0.00    -0.504 OA
ATOM     22  H   UNL     1      11.083   7.519 -17.782  1.00  0.00     0.293 HD
ENDBRANCH  18  21
ENDBRANCH   3  13
BRANCH  10  23
ATOM     23  O   UNL     1      10.226  17.964 -19.417  1.00  0.00    -0.507 OA
ATOM     24  H   UNL     1       9.696  18.767 -19.110  1.00  0.00     0.293 HD
ENDBRANCH  10  23
BRANCH  11  25
ATOM     25  O   UNL     1       8.055  16.585 -23.457  1.00  0.00    -0.508 OA
ATOM     26  H   UNL     1       7.080  16.841 -23.592  1.00  0.00     0.293 HD
ENDBRANCH  11  25
ENDBRANCH   1   2
BRANCH   1  27
ATOM     27  C   UNL     1      10.005  12.996 -15.692  1.00  0.00     0.339 C 
ATOM     28  C   UNL     1       9.021  14.136 -15.286  1.00  0.00     0.214 C 
ATOM     29  O   UNL     1       9.366  11.730 -15.757  1.00  0.00    -0.332 OA
ATOM     30  C   UNL     1       7.583  13.615 -15.025  1.00  0.00     0.180 C 
ATOM     31  C   UNL     1       8.822  11.411 -14.488  1.00  0.00     0.179 C 
ATOM     32  C   UNL     1       7.566  12.287 -14.209  1.00  0.00     0.177 C 
BRANCH  28  33
ATOM     33  O   UNL     1       9.003  15.148 -16.263  1.00  0.00    -0.384 OA
ATOM     34  H   UNL     1       9.790  14.998 -16.851  1.00  0.00     0.211 HD
ENDBRANCH  28  33
BRANCH  30  35
ATOM     35  O   UNL     1       6.875  13.480 -16.233  1.00  0.00    -0.387 OA
ATOM     36  H   UNL     1       7.511  13.613 -16.984  1.00  0.00     0.211 HD
ENDBRANCH  30  35
BRANCH  31  37
ATOM     37  C   UNL     1       8.473   9.912 -14.444  1.00  0.00     0.191 C 
BRANCH  37  38
ATOM     38  O   UNL     1       7.586   9.603 -13.396  1.00  0.00    -0.394 OA
ATOM     39  H   UNL     1       7.280  10.458 -12.992  1.00  0.00     0.210 HD
ENDBRANCH  37  38
ENDBRANCH  31  37
BRANCH  32  40
ATOM     40  O   UNL     1       7.453  12.547 -12.832  1.00  0.00    -0.387 OA
ATOM     41  H   UNL     1       8.369  12.543 -12.448  1.00  0.00     0.211 HD
ENDBRANCH  32  40
ENDBRANCH   1  27
TORSDOF 12
ENDMDL
MODEL 7
REMARK VINA RESULT:    -5.684      2.767      6.813
REMARK INTER + INTRA:          -6.344
REMARK INTER:                  -5.820
REMARK INTRA:                  -0.524
REMARK UNBOUND:                 1.998
REMARK SMILES O=c1c(O[C@@H]2O[C@H](CO)[C@@H](O)[C@H](O)[C@@H]2O)c(-c2ccc(O)c(O)c2)oc2cc(O)cc(O)c12
REMARK SMILES IDX 4 1 3 2 16 3 25 4 2 5 26 6 1 7 33 8 27 9 31 10 28 11 30 12
REMARK SMILES IDX 17 13 18 14 19 15 20 16 24 17 22 18 21 19 23 21 32 23 29 25
REMARK SMILES IDX 5 27 14 28 6 29 12 30 7 31 10 32 15 33 13 35 8 37 9 38 11 40
REMARK H PARENT 21 20 23 22 32 24 29 26 15 34 13 36 9 39 11 41
REMARK Flexibility Score: inf
ROOT
ATOM      1  O   UNL     1       6.933  14.048 -16.761  1.00  0.00    -0.454 OA
ENDROOT
BRANCH   1   2
ATOM      2  C   UNL     1       7.293  15.279 -17.325  1.00  0.00     0.214 A 
ATOM      3  C   UNL     1       7.812  15.335 -18.630  1.00  0.00     0.180 A 
ATOM      4  O   UNL     1       8.254  16.488 -19.117  1.00  0.00    -0.452 OA
ATOM      5  C   UNL     1       7.224  16.460 -16.569  1.00  0.00     0.239 A 
ATOM      6  C   UNL     1       8.191  17.635 -18.447  1.00  0.00     0.146 A 
ATOM      7  O   UNL     1       6.877  16.387 -15.362  1.00  0.00    -0.285 OA
ATOM      8  C   UNL     1       7.619  17.689 -17.148  1.00  0.00     0.111 A 
ATOM      9  C   UNL     1       8.709  18.788 -19.044  1.00  0.00     0.094 A 
ATOM     10  C   UNL     1       7.532  18.954 -16.495  1.00  0.00     0.134 A 
ATOM     11  C   UNL     1       8.682  20.008 -18.366  1.00  0.00     0.123 A 
ATOM     12  C   UNL     1       8.103  20.083 -17.099  1.00  0.00     0.093 A 
BRANCH   3  13
ATOM     13  C   UNL     1       7.911  14.131 -19.477  1.00  0.00     0.025 A 
ATOM     14  C   UNL     1       6.877  13.818 -20.369  1.00  0.00     0.016 A 
ATOM     15  C   UNL     1       6.956  12.671 -21.165  1.00  0.00     0.051 A 
ATOM     16  C   UNL     1       8.053  11.809 -21.066  1.00  0.00     0.157 A 
ATOM     17  C   UNL     1       9.009  13.268 -19.371  1.00  0.00     0.062 A 
ATOM     18  C   UNL     1       9.099  12.118 -20.164  1.00  0.00     0.158 A 
BRANCH  16  19
ATOM     19  O   UNL     1       8.066  10.668 -21.872  1.00  0.00    -0.504 OA
ATOM     20  H   UNL     1       7.227  10.222 -22.223  1.00  0.00     0.293 HD
ENDBRANCH  16  19
BRANCH  18  21
ATOM     21  O   UNL     1      10.242  11.329 -20.038  1.00  0.00    -0.504 OA
ATOM     22  H   UNL     1      10.302  10.370 -20.352  1.00  0.00     0.293 HD
ENDBRANCH  18  21
ENDBRANCH   3  13
BRANCH  10  23
ATOM     23  O   UNL     1       6.875  19.155 -15.279  1.00  0.00    -0.507 OA
ATOM     24  H   UNL     1       6.093  18.607 -14.950  1.00  0.00     0.293 HD
ENDBRANCH  10  23
BRANCH  11  25
ATOM     25  O   UNL     1       9.230  21.153 -18.939  1.00  0.00    -0.508 OA
ATOM     26  H   UNL     1       9.533  21.172 -19.909  1.00  0.00     0.293 HD
ENDBRANCH  11  25
ENDBRANCH   1   2
BRANCH   1  27
ATOM     27  C   UNL     1       7.764  12.879 -16.756  1.00  0.00     0.339 C 
ATOM     28  C   UNL     1       8.582  12.756 -15.435  1.00  0.00     0.214 C 
ATOM     29  O   UNL     1       6.999  11.713 -17.027  1.00  0.00    -0.332 OA
ATOM     30  C   UNL     1       8.391  11.381 -14.742  1.00  0.00     0.180 C 
ATOM     31  C   UNL     1       7.867  10.600 -17.150  1.00  0.00     0.179 C 
ATOM     32  C   UNL     1       8.416  10.193 -15.751  1.00  0.00     0.177 C 
BRANCH  28  33
ATOM     33  O   UNL     1       8.256  13.798 -14.548  1.00  0.00    -0.384 OA
ATOM     34  H   UNL     1       7.991  14.579 -15.103  1.00  0.00     0.211 HD
ENDBRANCH  28  33
BRANCH  30  35
ATOM     35  O   UNL     1       7.213  11.371 -13.973  1.00  0.00    -0.387 OA
ATOM     36  H   UNL     1       6.555  10.772 -14.415  1.00  0.00     0.211 HD
ENDBRANCH  30  35
BRANCH  31  37
ATOM     37  C   UNL     1       7.110   9.432 -17.809  1.00  0.00     0.191 C 
BRANCH  37  38
ATOM     38  O   UNL     1       7.970   8.578 -18.525  1.00  0.00    -0.394 OA
ATOM     39  H   UNL     1       7.482   7.730 -18.702  1.00  0.00     0.210 HD
ENDBRANCH  37  38
ENDBRANCH  31  37
BRANCH  32  40
ATOM     40  O   UNL     1       9.714   9.669 -15.874  1.00  0.00    -0.387 OA
ATOM     41  H   UNL     1      10.352  10.363 -15.562  1.00  0.00     0.211 HD
ENDBRANCH  32  40
ENDBRANCH   1  27
TORSDOF 12
ENDMDL
MODEL 8
REMARK VINA RESULT:    -5.527      2.362      6.108
REMARK INTER + INTRA:          -6.113
REMARK INTER:                  -7.138
REMARK INTRA:                   1.024
REMARK UNBOUND:                 1.998
REMARK SMILES O=c1c(O[C@@H]2O[C@H](CO)[C@@H](O)[C@H](O)[C@@H]2O)c(-c2ccc(O)c(O)c2)oc2cc(O)cc(O)c12
REMARK SMILES IDX 4 1 3 2 16 3 25 4 2 5 26 6 1 7 33 8 27 9 31 10 28 11 30 12
REMARK SMILES IDX 17 13 18 14 19 15 20 16 24 17 22 18 21 19 23 21 32 23 29 25
REMARK SMILES IDX 5 27 14 28 6 29 12 30 7 31 10 32 15 33 13 35 8 37 9 38 11 40
REMARK H PARENT 21 20 23 22 32 24 29 26 15 34 13 36 9 39 11 41
REMARK Flexibility Score: inf
ROOT
ATOM      1  O   UNL     1       7.727   9.758 -16.276  1.00  0.00    -0.454 OA
ENDROOT
BRANCH   1   2
ATOM      2  C   UNL     1       7.459   8.404 -16.514  1.00  0.00     0.214 A 
ATOM      3  C   UNL     1       7.262   7.522 -15.438  1.00  0.00     0.180 A 
ATOM      4  O   UNL     1       7.119   6.221 -15.667  1.00  0.00    -0.452 OA
ATOM      5  C   UNL     1       7.468   7.892 -17.821  1.00  0.00     0.239 A 
ATOM      6  C   UNL     1       7.101   5.693 -16.887  1.00  0.00     0.146 A 
ATOM      7  O   UNL     1       7.767   8.661 -18.771  1.00  0.00    -0.285 OA
ATOM      8  C   UNL     1       7.222   6.515 -18.038  1.00  0.00     0.111 A 
ATOM      9  C   UNL     1       6.970   4.307 -17.013  1.00  0.00     0.094 A 
ATOM     10  C   UNL     1       7.146   5.902 -19.323  1.00  0.00     0.134 A 
ATOM     11  C   UNL     1       6.968   3.710 -18.276  1.00  0.00     0.123 A 
ATOM     12  C   UNL     1       7.062   4.506 -19.418  1.00  0.00     0.093 A 
BRANCH   3  13
ATOM     13  C   UNL     1       7.241   7.995 -14.041  1.00  0.00     0.025 A 
ATOM     14  C   UNL     1       7.031   7.083 -12.998  1.00  0.00     0.016 A 
ATOM     15  C   UNL     1       6.994   7.526 -11.672  1.00  0.00     0.051 A 
ATOM     16  C   UNL     1       7.143   8.883 -11.369  1.00  0.00     0.157 A 
ATOM     17  C   UNL     1       7.385   9.356 -13.743  1.00  0.00     0.062 A 
ATOM     18  C   UNL     1       7.352   9.809 -12.418  1.00  0.00     0.158 A 
BRANCH  16  19
ATOM     19  O   UNL     1       7.076   9.268 -10.027  1.00  0.00    -0.504 OA
ATOM     20  H   UNL     1       6.544  10.064  -9.700  1.00  0.00     0.293 HD
ENDBRANCH  16  19
BRANCH  18  21
ATOM     21  O   UNL     1       7.549  11.172 -12.192  1.00  0.00    -0.504 OA
ATOM     22  H   UNL     1       7.060  11.702 -11.483  1.00  0.00     0.293 HD
ENDBRANCH  18  21
ENDBRANCH   3  13
BRANCH  10  23
ATOM     23  O   UNL     1       7.120   6.617 -20.523  1.00  0.00    -0.507 OA
ATOM     24  H   UNL     1       7.833   6.568 -21.237  1.00  0.00     0.293 HD
ENDBRANCH  10  23
BRANCH  11  25
ATOM     25  O   UNL     1       6.875   2.327 -18.408  1.00  0.00    -0.508 OA
ATOM     26  H   UNL     1       7.121   1.856 -19.276  1.00  0.00     0.293 HD
ENDBRANCH  11  25
ENDBRANCH   1   2
BRANCH   1  27
ATOM     27  C   UNL     1       7.386  10.827 -17.169  1.00  0.00     0.339 C 
ATOM     28  C   UNL     1       6.878  12.084 -16.399  1.00  0.00     0.214 C 
ATOM     29  O   UNL     1       8.469  11.127 -18.038  1.00  0.00    -0.332 OA
ATOM     30  C   UNL     1       7.657  13.371 -16.783  1.00  0.00     0.180 C 
ATOM     31  C   UNL     1       8.053  12.089 -18.991  1.00  0.00     0.179 C 
ATOM     32  C   UNL     1       7.909  13.484 -18.317  1.00  0.00     0.177 C 
BRANCH  28  33
ATOM     33  O   UNL     1       6.938  11.875 -15.010  1.00  0.00    -0.384 OA
ATOM     34  H   UNL     1       6.311  11.133 -14.801  1.00  0.00     0.211 HD
ENDBRANCH  28  33
BRANCH  30  35
ATOM     35  O   UNL     1       8.861  13.458 -16.061  1.00  0.00    -0.387 OA
ATOM     36  H   UNL     1       8.660  13.314 -15.099  1.00  0.00     0.211 HD
ENDBRANCH  30  35
BRANCH  31  37
ATOM     37  C   UNL     1       9.070  12.135 -20.147  1.00  0.00     0.191 C 
BRANCH  37  38
ATOM     38  O   UNL     1      10.166  11.280 -19.924  1.00  0.00    -0.394 OA
ATOM     39  H   UNL     1      10.048  10.856 -19.033  1.00  0.00     0.210 HD
ENDBRANCH  37  38
ENDBRANCH  31  37
BRANCH  32  40
ATOM     40  O   UNL     1       6.884  14.219 -18.939  1.00  0.00    -0.387 OA
ATOM     41  H   UNL     1       6.084  13.634 -18.996  1.00  0.00     0.211 HD
ENDBRANCH  32  40
ENDBRANCH   1  27
TORSDOF 12
ENDMDL
