MODEL 1
REMARK VINA RESULT:    -5.836      0.000      0.000
REMARK INTER + INTRA:         -13.359
REMARK INTER:                 -10.954
REMARK INTRA:                  -2.405
REMARK UNBOUND:                -2.405
REMARK SMILES CCCCCCCCC=CCCCCCCCC(=O)[O-]
REMARK SMILES IDX 10 1 9 2 11 3 12 4 13 5 14 6 15 7 16 8 17 9 18 10 19 11
REMARK SMILES IDX 20 12 8 13 7 14 6 15 5 16 4 17 3 18 2 19 1 20
REMARK H PARENT
REMARK Flexibility Score: inf
ROOT
ATOM      1  C   UNL     1     -19.191  42.141  -8.722  1.00  0.00    -0.031 C 
ATOM      2  C   UNL     1     -18.684  42.726  -7.627  1.00  0.00    -0.031 C 
ENDROOT
BRANCH   1   3
ATOM      3  C   UNL     1     -18.844  40.723  -9.092  1.00  0.00     0.027 C 
BRANCH   3   4
ATOM      4  C   UNL     1     -19.812  39.705  -8.469  1.00  0.00     0.004 C 
BRANCH   4   5
ATOM      5  C   UNL     1     -21.253  40.241  -8.405  1.00  0.00     0.000 C 
BRANCH   5   6
ATOM      6  C   UNL     1     -21.916  39.986  -7.042  1.00  0.00     0.000 C 
BRANCH   6   7
ATOM      7  C   UNL     1     -21.298  40.833  -5.915  1.00  0.00     0.000 C 
BRANCH   7   8
ATOM      8  C   UNL     1     -21.840  42.274  -5.889  1.00  0.00     0.006 C 
BRANCH   8   9
ATOM      9  C   UNL     1     -23.372  42.373  -5.975  1.00  0.00     0.053 C 
BRANCH   9  10
ATOM     10  C   UNL     1     -23.814  43.287  -7.075  1.00  0.00     0.041 C 
ATOM     11  O   UNL     1     -24.579  44.256  -6.825  1.00  0.00    -0.550 OA
ATOM     12  O   UNL     1     -23.410  43.050  -8.384  1.00  0.00    -0.550 OA
ENDBRANCH   9  10
ENDBRANCH   8   9
ENDBRANCH   7   8
ENDBRANCH   6   7
ENDBRANCH   5   6
ENDBRANCH   4   5
ENDBRANCH   3   4
ENDBRANCH   1   3
BRANCH   2  13
ATOM     13  C   UNL     1     -19.024  44.146  -7.267  1.00  0.00     0.027 C 
BRANCH  13  14
ATOM     14  C   UNL     1     -18.628  44.454  -5.815  1.00  0.00     0.004 C 
BRANCH  14  15
ATOM     15  C   UNL     1     -17.591  43.462  -5.264  1.00  0.00     0.000 C 
BRANCH  15  16
ATOM     16  C   UNL     1     -17.837  43.113  -3.786  1.00  0.00     0.000 C 
BRANCH  16  17
ATOM     17  C   UNL     1     -16.679  42.310  -3.164  1.00  0.00    -0.000 C 
BRANCH  17  18
ATOM     18  C   UNL     1     -15.958  41.352  -4.132  1.00  0.00    -0.000 C 
BRANCH  18  19
ATOM     19  C   UNL     1     -16.630  39.979  -4.309  1.00  0.00    -0.003 C 
ATOM     20  C   UNL     1     -17.417  39.865  -5.613  1.00  0.00     0.004 C 
ENDBRANCH  18  19
ENDBRANCH  17  18
ENDBRANCH  16  17
ENDBRANCH  15  16
ENDBRANCH  14  15
ENDBRANCH  13  14
ENDBRANCH   2  13
TORSDOF 15
ENDMDL
MODEL 2
REMARK VINA RESULT:    -5.566      1.961      3.866
REMARK INTER + INTRA:         -12.852
REMARK INTER:                 -10.298
REMARK INTRA:                  -2.553
REMARK UNBOUND:                -2.405
REMARK SMILES CCCCCCCCC=CCCCCCCCC(=O)[O-]
REMARK SMILES IDX 10 1 9 2 11 3 12 4 13 5 14 6 15 7 16 8 17 9 18 10 19 11
REMARK SMILES IDX 20 12 8 13 7 14 6 15 5 16 4 17 3 18 2 19 1 20
REMARK H PARENT
REMARK Flexibility Score: inf
ROOT
ATOM      1  C   UNL     1     -19.057  44.533  -6.641  1.00  0.00    -0.031 C 
ATOM      2  C   UNL     1     -19.396  43.908  -7.780  1.00  0.00    -0.031 C 
ENDROOT
BRANCH   1   3
ATOM      3  C   UNL     1     -19.359  45.991  -6.420  1.00  0.00     0.027 C 
BRANCH   3   4
ATOM      4  C   UNL     1     -20.600  46.453  -7.201  1.00  0.00     0.004 C 
BRANCH   4   5
ATOM      5  C   UNL     1     -21.785  46.768  -6.271  1.00  0.00     0.000 C 
BRANCH   5   6
ATOM      6  C   UNL     1     -23.004  45.874  -6.548  1.00  0.00     0.000 C 
BRANCH   6   7
ATOM      7  C   UNL     1     -22.970  44.561  -5.747  1.00  0.00     0.000 C 
BRANCH   7   8
ATOM      8  C   UNL     1     -22.922  43.315  -6.650  1.00  0.00     0.006 C 
BRANCH   8   9
ATOM      9  C   UNL     1     -22.352  42.062  -5.967  1.00  0.00     0.053 C 
BRANCH   9  10
ATOM     10  C   UNL     1     -22.457  40.850  -6.839  1.00  0.00     0.041 C 
ATOM     11  O   UNL     1     -22.522  40.975  -8.091  1.00  0.00    -0.550 OA
ATOM     12  O   UNL     1     -22.518  39.584  -6.269  1.00  0.00    -0.550 OA
ENDBRANCH   9  10
ENDBRANCH   8   9
ENDBRANCH   7   8
ENDBRANCH   6   7
ENDBRANCH   5   6
ENDBRANCH   4   5
ENDBRANCH   3   4
ENDBRANCH   1   3
BRANCH   2  13
ATOM     13  C   UNL     1     -19.082  42.455  -8.001  1.00  0.00     0.027 C 
BRANCH  13  14
ATOM     14  C   UNL     1     -18.186  41.909  -6.878  1.00  0.00     0.004 C 
BRANCH  14  15
ATOM     15  C   UNL     1     -18.716  40.593  -6.289  1.00  0.00     0.000 C 
BRANCH  15  16
ATOM     16  C   UNL     1     -19.086  40.720  -4.801  1.00  0.00     0.000 C 
BRANCH  16  17
ATOM     17  C   UNL     1     -19.024  42.173  -4.295  1.00  0.00    -0.000 C 
BRANCH  17  18
ATOM     18  C   UNL     1     -17.892  42.463  -3.288  1.00  0.00    -0.000 C 
BRANCH  18  19
ATOM     19  C   UNL     1     -16.506  42.693  -3.916  1.00  0.00    -0.003 C 
ATOM     20  C   UNL     1     -15.672  41.416  -4.001  1.00  0.00     0.004 C 
ENDBRANCH  18  19
ENDBRANCH  17  18
ENDBRANCH  16  17
ENDBRANCH  15  16
ENDBRANCH  14  15
ENDBRANCH  13  14
ENDBRANCH   2  13
TORSDOF 15
ENDMDL
MODEL 3
REMARK VINA RESULT:    -5.564      1.917      3.502
REMARK INTER + INTRA:         -12.848
REMARK INTER:                 -10.965
REMARK INTRA:                  -1.883
REMARK UNBOUND:                -2.405
REMARK SMILES CCCCCCCCC=CCCCCCCCC(=O)[O-]
REMARK SMILES IDX 10 1 9 2 11 3 12 4 13 5 14 6 15 7 16 8 17 9 18 10 19 11
REMARK SMILES IDX 20 12 8 13 7 14 6 15 5 16 4 17 3 18 2 19 1 20
REMARK H PARENT
REMARK Flexibility Score: inf
ROOT
ATOM      1  C   UNL     1     -21.622  40.649  -7.290  1.00  0.00    -0.031 C 
ATOM      2  C   UNL     1     -20.415  40.743  -6.711  1.00  0.00    -0.031 C 
ENDROOT
BRANCH   1   3
ATOM      3  C   UNL     1     -22.892  40.717  -6.484  1.00  0.00     0.027 C 
BRANCH   3   4
ATOM      4  C   UNL     1     -23.572  42.091  -6.583  1.00  0.00     0.004 C 
BRANCH   4   5
ATOM      5  C   UNL     1     -22.790  43.179  -5.825  1.00  0.00     0.000 C 
BRANCH   5   6
ATOM      6  C   UNL     1     -22.253  44.276  -6.758  1.00  0.00     0.000 C 
BRANCH   6   7
ATOM      7  C   UNL     1     -22.215  45.660  -6.085  1.00  0.00     0.000 C 
BRANCH   7   8
ATOM      8  C   UNL     1     -23.579  46.074  -5.503  1.00  0.00     0.006 C 
BRANCH   8   9
ATOM      9  C   UNL     1     -24.489  46.816  -6.495  1.00  0.00     0.053 C 
BRANCH   9  10
ATOM     10  C   UNL     1     -25.768  46.078  -6.743  1.00  0.00     0.041 C 
ATOM     11  O   UNL     1     -25.743  44.893  -7.168  1.00  0.00    -0.550 OA
ATOM     12  O   UNL     1     -26.988  46.710  -6.536  1.00  0.00    -0.550 OA
ENDBRANCH   9  10
ENDBRANCH   8   9
ENDBRANCH   7   8
ENDBRANCH   6   7
ENDBRANCH   5   6
ENDBRANCH   4   5
ENDBRANCH   3   4
ENDBRANCH   1   3
BRANCH   2  13
ATOM     13  C   UNL     1     -19.149  40.664  -7.517  1.00  0.00     0.027 C 
BRANCH  13  14
ATOM     14  C   UNL     1     -18.147  41.740  -7.072  1.00  0.00     0.004 C 
BRANCH  14  15
ATOM     15  C   UNL     1     -18.835  43.043  -6.637  1.00  0.00     0.000 C 
BRANCH  15  16
ATOM     16  C   UNL     1     -18.114  43.727  -5.463  1.00  0.00     0.000 C 
BRANCH  16  17
ATOM     17  C   UNL     1     -17.877  42.776  -4.275  1.00  0.00    -0.000 C 
BRANCH  17  18
ATOM     18  C   UNL     1     -16.401  42.609  -3.860  1.00  0.00    -0.000 C 
BRANCH  18  19
ATOM     19  C   UNL     1     -15.790  41.231  -4.171  1.00  0.00    -0.003 C 
ATOM     20  C   UNL     1     -16.795  40.089  -4.033  1.00  0.00     0.004 C 
ENDBRANCH  18  19
ENDBRANCH  17  18
ENDBRANCH  16  17
ENDBRANCH  15  16
ENDBRANCH  14  15
ENDBRANCH  13  14
ENDBRANCH   2  13
TORSDOF 15
ENDMDL
MODEL 4
REMARK VINA RESULT:    -5.514      1.402      5.143
REMARK INTER + INTRA:         -12.754
REMARK INTER:                 -10.107
REMARK INTRA:                  -2.647
REMARK UNBOUND:                -2.405
REMARK SMILES CCCCCCCCC=CCCCCCCCC(=O)[O-]
REMARK SMILES IDX 10 1 9 2 11 3 12 4 13 5 14 6 15 7 16 8 17 9 18 10 19 11
REMARK SMILES IDX 20 12 8 13 7 14 6 15 5 16 4 17 3 18 2 19 1 20
REMARK H PARENT
REMARK Flexibility Score: inf
ROOT
ATOM      1  C   UNL     1     -17.288  39.627  -5.287  1.00  0.00    -0.031 C 
ATOM      2  C   UNL     1     -17.477  40.099  -6.529  1.00  0.00    -0.031 C 
ENDROOT
BRANCH   1   3
ATOM      3  C   UNL     1     -17.220  40.544  -4.095  1.00  0.00     0.027 C 
BRANCH   3   4
ATOM      4  C   UNL     1     -15.980  41.451  -4.128  1.00  0.00     0.004 C 
BRANCH   4   5
ATOM      5  C   UNL     1     -16.354  42.944  -4.110  1.00  0.00     0.000 C 
BRANCH   5   6
ATOM      6  C   UNL     1     -17.833  43.184  -4.449  1.00  0.00     0.000 C 
BRANCH   6   7
ATOM      7  C   UNL     1     -18.047  43.578  -5.921  1.00  0.00     0.000 C 
BRANCH   7   8
ATOM      8  C   UNL     1     -19.005  44.773  -6.082  1.00  0.00     0.006 C 
BRANCH   8   9
ATOM      9  C   UNL     1     -19.553  44.953  -7.507  1.00  0.00     0.053 C 
BRANCH   9  10
ATOM     10  C   UNL     1     -21.032  45.185  -7.515  1.00  0.00     0.041 C 
ATOM     11  O   UNL     1     -21.753  44.646  -8.395  1.00  0.00    -0.550 OA
ATOM     12  O   UNL     1     -21.611  46.024  -6.570  1.00  0.00    -0.550 OA
ENDBRANCH   9  10
ENDBRANCH   8   9
ENDBRANCH   7   8
ENDBRANCH   6   7
ENDBRANCH   5   6
ENDBRANCH   4   5
ENDBRANCH   3   4
ENDBRANCH   1   3
BRANCH   2  13
ATOM     13  C   UNL     1     -17.533  39.181  -7.718  1.00  0.00     0.027 C 
BRANCH  13  14
ATOM     14  C   UNL     1     -18.408  39.776  -8.831  1.00  0.00     0.004 C 
BRANCH  14  15
ATOM     15  C   UNL     1     -18.850  41.216  -8.526  1.00  0.00     0.000 C 
BRANCH  15  16
ATOM     16  C   UNL     1     -20.380  41.374  -8.521  1.00  0.00     0.000 C 
BRANCH  16  17
ATOM     17  C   UNL     1     -21.048  40.660  -7.332  1.00  0.00    -0.000 C 
BRANCH  17  18
ATOM     18  C   UNL     1     -21.024  41.445  -6.004  1.00  0.00    -0.000 C 
BRANCH  18  19
ATOM     19  C   UNL     1     -22.269  42.308  -5.737  1.00  0.00    -0.003 C 
ATOM     20  C   UNL     1     -23.461  41.921  -6.610  1.00  0.00     0.004 C 
ENDBRANCH  18  19
ENDBRANCH  17  18
ENDBRANCH  16  17
ENDBRANCH  15  16
ENDBRANCH  14  15
ENDBRANCH  13  14
ENDBRANCH   2  13
TORSDOF 15
ENDMDL
MODEL 5
REMARK VINA RESULT:    -5.464      2.575      5.369
REMARK INTER + INTRA:         -12.660
REMARK INTER:                 -10.713
REMARK INTRA:                  -1.948
REMARK UNBOUND:                -2.405
REMARK SMILES CCCCCCCCC=CCCCCCCCC(=O)[O-]
REMARK SMILES IDX 10 1 9 2 11 3 12 4 13 5 14 6 15 7 16 8 17 9 18 10 19 11
REMARK SMILES IDX 20 12 8 13 7 14 6 15 5 16 4 17 3 18 2 19 1 20
REMARK H PARENT
REMARK Flexibility Score: inf
ROOT
ATOM      1  C   UNL     1     -19.121  43.197  -7.759  1.00  0.00    -0.031 C 
ATOM      2  C   UNL     1     -19.871  44.297  -7.924  1.00  0.00    -0.031 C 
ENDROOT
BRANCH   1   3
ATOM      3  C   UNL     1     -19.137  42.072  -8.760  1.00  0.00     0.027 C 
BRANCH   3   4
ATOM      4  C   UNL     1     -18.448  40.807  -8.225  1.00  0.00     0.004 C 
BRANCH   4   5
ATOM      5  C   UNL     1     -17.883  41.010  -6.808  1.00  0.00     0.000 C 
BRANCH   5   6
ATOM      6  C   UNL     1     -17.490  39.685  -6.135  1.00  0.00     0.000 C 
BRANCH   6   7
ATOM      7  C   UNL     1     -17.138  39.858  -4.648  1.00  0.00     0.000 C 
BRANCH   7   8
ATOM      8  C   UNL     1     -15.961  40.825  -4.424  1.00  0.00     0.006 C 
BRANCH   8   9
ATOM      9  C   UNL     1     -16.220  41.897  -3.353  1.00  0.00     0.053 C 
BRANCH   9  10
ATOM     10  C   UNL     1     -17.343  42.811  -3.734  1.00  0.00     0.041 C 
ATOM     11  O   UNL     1     -18.415  42.807  -3.074  1.00  0.00    -0.550 OA
ATOM     12  O   UNL     1     -17.218  43.645  -4.839  1.00  0.00    -0.550 OA
ENDBRANCH   9  10
ENDBRANCH   8   9
ENDBRANCH   7   8
ENDBRANCH   6   7
ENDBRANCH   5   6
ENDBRANCH   4   5
ENDBRANCH   3   4
ENDBRANCH   1   3
BRANCH   2  13
ATOM     13  C   UNL     1     -19.860  45.413  -6.917  1.00  0.00     0.027 C 
BRANCH  13  14
ATOM     14  C   UNL     1     -21.288  45.767  -6.474  1.00  0.00     0.004 C 
BRANCH  14  15
ATOM     15  C   UNL     1     -22.343  44.827  -7.080  1.00  0.00     0.000 C 
BRANCH  15  16
ATOM     16  C   UNL     1     -23.465  44.481  -6.087  1.00  0.00     0.000 C 
BRANCH  16  17
ATOM     17  C   UNL     1     -23.550  42.973  -5.786  1.00  0.00    -0.000 C 
BRANCH  17  18
ATOM     18  C   UNL     1     -23.245  42.053  -6.985  1.00  0.00    -0.000 C 
BRANCH  18  19
ATOM     19  C   UNL     1     -22.793  40.629  -6.614  1.00  0.00    -0.003 C 
ATOM     20  C   UNL     1     -21.402  40.591  -5.984  1.00  0.00     0.004 C 
ENDBRANCH  18  19
ENDBRANCH  17  18
ENDBRANCH  16  17
ENDBRANCH  15  16
ENDBRANCH  14  15
ENDBRANCH  13  14
ENDBRANCH   2  13
TORSDOF 15
ENDMDL
MODEL 6
REMARK VINA RESULT:    -5.444     12.245     14.349
REMARK INTER + INTRA:         -12.623
REMARK INTER:                 -11.640
REMARK INTRA:                  -0.983
REMARK UNBOUND:                -2.405
REMARK SMILES CCCCCCCCC=CCCCCCCCC(=O)[O-]
REMARK SMILES IDX 10 1 9 2 11 3 12 4 13 5 14 6 15 7 16 8 17 9 18 10 19 11
REMARK SMILES IDX 20 12 8 13 7 14 6 15 5 16 4 17 3 18 2 19 1 20
REMARK H PARENT
REMARK Flexibility Score: inf
ROOT
ATOM      1  C   UNL     1     -22.771  37.927   5.858  1.00  0.00    -0.031 C 
ATOM      2  C   UNL     1     -21.673  38.535   6.332  1.00  0.00    -0.031 C 
ENDROOT
BRANCH   1   3
ATOM      3  C   UNL     1     -23.045  36.471   6.127  1.00  0.00     0.027 C 
BRANCH   3   4
ATOM      4  C   UNL     1     -23.951  36.265   7.351  1.00  0.00     0.004 C 
BRANCH   4   5
ATOM      5  C   UNL     1     -23.937  37.482   8.293  1.00  0.00     0.000 C 
BRANCH   5   6
ATOM      6  C   UNL     1     -23.319  37.158   9.663  1.00  0.00     0.000 C 
BRANCH   6   7
ATOM      7  C   UNL     1     -21.784  37.272   9.662  1.00  0.00     0.000 C 
BRANCH   7   8
ATOM      8  C   UNL     1     -21.093  35.965   9.232  1.00  0.00     0.006 C 
BRANCH   8   9
ATOM      9  C   UNL     1     -19.634  36.143   8.782  1.00  0.00     0.053 C 
BRANCH   9  10
ATOM     10  C   UNL     1     -19.501  36.134   7.290  1.00  0.00     0.041 C 
ATOM     11  O   UNL     1     -18.712  36.932   6.720  1.00  0.00    -0.550 OA
ATOM     12  O   UNL     1     -20.275  35.268   6.527  1.00  0.00    -0.550 OA
ENDBRANCH   9  10
ENDBRANCH   8   9
ENDBRANCH   7   8
ENDBRANCH   6   7
ENDBRANCH   5   6
ENDBRANCH   4   5
ENDBRANCH   3   4
ENDBRANCH   1   3
BRANCH   2  13
ATOM     13  C   UNL     1     -21.397  39.986   6.052  1.00  0.00     0.027 C 
BRANCH  13  14
ATOM     14  C   UNL     1     -22.369  40.536   4.997  1.00  0.00     0.004 C 
BRANCH  14  15
ATOM     15  C   UNL     1     -21.679  40.826   3.655  1.00  0.00     0.000 C 
BRANCH  15  16
ATOM     16  C   UNL     1     -20.310  41.505   3.830  1.00  0.00     0.000 C 
BRANCH  16  17
ATOM     17  C   UNL     1     -20.128  42.725   2.908  1.00  0.00    -0.000 C 
BRANCH  17  18
ATOM     18  C   UNL     1     -19.122  43.778   3.413  1.00  0.00    -0.000 C 
BRANCH  18  19
ATOM     19  C   UNL     1     -18.650  43.583   4.865  1.00  0.00    -0.003 C 
ATOM     20  C   UNL     1     -18.154  44.877   5.509  1.00  0.00     0.004 C 
ENDBRANCH  18  19
ENDBRANCH  17  18
ENDBRANCH  16  17
ENDBRANCH  15  16
ENDBRANCH  14  15
ENDBRANCH  13  14
ENDBRANCH   2  13
TORSDOF 15
ENDMDL
MODEL 7
REMARK VINA RESULT:    -5.306      2.136      3.954
REMARK INTER + INTRA:         -12.363
REMARK INTER:                 -10.001
REMARK INTRA:                  -2.362
REMARK UNBOUND:                -2.405
REMARK SMILES CCCCCCCCC=CCCCCCCCC(=O)[O-]
REMARK SMILES IDX 10 1 9 2 11 3 12 4 13 5 14 6 15 7 16 8 17 9 18 10 19 11
REMARK SMILES IDX 20 12 8 13 7 14 6 15 5 16 4 17 3 18 2 19 1 20
REMARK H PARENT
REMARK Flexibility Score: inf
ROOT
ATOM      1  C   UNL     1     -20.779  45.838  -6.549  1.00  0.00    -0.031 C 
ATOM      2  C   UNL     1     -20.443  44.539  -6.538  1.00  0.00    -0.031 C 
ENDROOT
BRANCH   1   3
ATOM      3  C   UNL     1     -22.094  46.319  -5.995  1.00  0.00     0.027 C 
BRANCH   3   4
ATOM      4  C   UNL     1     -23.061  45.161  -5.703  1.00  0.00     0.004 C 
BRANCH   4   5
ATOM      5  C   UNL     1     -24.275  45.169  -6.650  1.00  0.00     0.000 C 
BRANCH   5   6
ATOM      6  C   UNL     1     -24.474  43.822  -7.363  1.00  0.00     0.000 C 
BRANCH   6   7
ATOM      7  C   UNL     1     -23.452  43.591  -8.489  1.00  0.00     0.000 C 
BRANCH   7   8
ATOM      8  C   UNL     1     -22.698  42.256  -8.343  1.00  0.00     0.006 C 
BRANCH   8   9
ATOM      9  C   UNL     1     -22.883  41.575  -6.977  1.00  0.00     0.053 C 
BRANCH   9  10
ATOM     10  C   UNL     1     -22.218  40.234  -6.925  1.00  0.00     0.041 C 
ATOM     11  O   UNL     1     -22.644  39.346  -6.140  1.00  0.00    -0.550 OA
ATOM     12  O   UNL     1     -21.107  39.975  -7.719  1.00  0.00    -0.550 OA
ENDBRANCH   9  10
ENDBRANCH   8   9
ENDBRANCH   7   8
ENDBRANCH   6   7
ENDBRANCH   5   6
ENDBRANCH   4   5
ENDBRANCH   3   4
ENDBRANCH   1   3
BRANCH   2  13
ATOM     13  C   UNL     1     -19.135  44.062  -7.103  1.00  0.00     0.027 C 
BRANCH  13  14
ATOM     14  C   UNL     1     -18.748  42.696  -6.515  1.00  0.00     0.004 C 
BRANCH  14  15
ATOM     15  C   UNL     1     -19.705  42.242  -5.401  1.00  0.00     0.000 C 
BRANCH  15  16
ATOM     16  C   UNL     1     -19.226  40.961  -4.699  1.00  0.00     0.000 C 
BRANCH  16  17
ATOM     17  C   UNL     1     -17.929  40.397  -5.309  1.00  0.00    -0.000 C 
BRANCH  17  18
ATOM     18  C   UNL     1     -16.754  40.254  -4.321  1.00  0.00    -0.000 C 
BRANCH  18  19
ATOM     19  C   UNL     1     -16.569  41.437  -3.355  1.00  0.00    -0.003 C 
ATOM     20  C   UNL     1     -16.152  42.724  -4.064  1.00  0.00     0.004 C 
ENDBRANCH  18  19
ENDBRANCH  17  18
ENDBRANCH  16  17
ENDBRANCH  15  16
ENDBRANCH  14  15
ENDBRANCH  13  14
ENDBRANCH   2  13
TORSDOF 15
ENDMDL
MODEL 8
REMARK VINA RESULT:    -5.163      3.052      6.568
REMARK INTER + INTRA:         -12.094
REMARK INTER:                  -9.708
REMARK INTRA:                  -2.386
REMARK UNBOUND:                -2.405
REMARK SMILES CCCCCCCCC=CCCCCCCCC(=O)[O-]
REMARK SMILES IDX 10 1 9 2 11 3 12 4 13 5 14 6 15 7 16 8 17 9 18 10 19 11
REMARK SMILES IDX 20 12 8 13 7 14 6 15 5 16 4 17 3 18 2 19 1 20
REMARK H PARENT
REMARK Flexibility Score: inf
ROOT
ATOM      1  C   UNL     1     -20.679  40.759  -6.989  1.00  0.00    -0.031 C 
ATOM      2  C   UNL     1     -21.941  40.773  -7.445  1.00  0.00    -0.031 C 
ENDROOT
BRANCH   1   3
ATOM      3  C   UNL     1     -19.501  40.741  -7.927  1.00  0.00     0.027 C 
BRANCH   3   4
ATOM      4  C   UNL     1     -18.530  41.902  -7.664  1.00  0.00     0.004 C 
BRANCH   4   5
ATOM      5  C   UNL     1     -19.262  43.249  -7.527  1.00  0.00     0.000 C 
BRANCH   5   6
ATOM      6  C   UNL     1     -18.932  43.967  -6.209  1.00  0.00     0.000 C 
BRANCH   6   7
ATOM      7  C   UNL     1     -17.784  43.293  -5.438  1.00  0.00     0.000 C 
BRANCH   7   8
ATOM      8  C   UNL     1     -18.231  42.736  -4.074  1.00  0.00     0.006 C 
BRANCH   8   9
ATOM      9  C   UNL     1     -18.576  41.238  -4.087  1.00  0.00     0.053 C 
BRANCH   9  10
ATOM     10  C   UNL     1     -17.376  40.389  -4.372  1.00  0.00     0.041 C 
ATOM     11  O   UNL     1     -17.392  39.571  -5.329  1.00  0.00    -0.550 OA
ATOM     12  O   UNL     1     -16.251  40.476  -3.559  1.00  0.00    -0.550 OA
ENDBRANCH   9  10
ENDBRANCH   8   9
ENDBRANCH   7   8
ENDBRANCH   6   7
ENDBRANCH   5   6
ENDBRANCH   4   5
ENDBRANCH   3   4
ENDBRANCH   1   3
BRANCH   2  13
ATOM     13  C   UNL     1     -23.114  40.779  -6.506  1.00  0.00     0.027 C 
BRANCH  13  14
ATOM     14  C   UNL     1     -23.770  42.167  -6.456  1.00  0.00     0.004 C 
BRANCH  14  15
ATOM     15  C   UNL     1     -23.078  43.111  -5.460  1.00  0.00     0.000 C 
BRANCH  15  16
ATOM     16  C   UNL     1     -22.542  44.387  -6.131  1.00  0.00     0.000 C 
BRANCH  16  17
ATOM     17  C   UNL     1     -22.914  44.475  -7.623  1.00  0.00    -0.000 C 
BRANCH  17  18
ATOM     18  C   UNL     1     -23.885  45.617  -7.985  1.00  0.00    -0.000 C 
BRANCH  18  19
ATOM     19  C   UNL     1     -25.356  45.193  -8.145  1.00  0.00    -0.003 C 
ATOM     20  C   UNL     1     -26.296  45.933  -7.195  1.00  0.00     0.004 C 
ENDBRANCH  18  19
ENDBRANCH  17  18
ENDBRANCH  16  17
ENDBRANCH  15  16
ENDBRANCH  14  15
ENDBRANCH  13  14
ENDBRANCH   2  13
TORSDOF 15
ENDMDL
MODEL 9
REMARK VINA RESULT:    -5.149      1.872      3.368
REMARK INTER + INTRA:         -12.069
REMARK INTER:                 -10.023
REMARK INTRA:                  -2.046
REMARK UNBOUND:                -2.405
REMARK SMILES CCCCCCCCC=CCCCCCCCC(=O)[O-]
REMARK SMILES IDX 10 1 9 2 11 3 12 4 13 5 14 6 15 7 16 8 17 9 18 10 19 11
REMARK SMILES IDX 20 12 8 13 7 14 6 15 5 16 4 17 3 18 2 19 1 20
REMARK H PARENT
REMARK Flexibility Score: inf
ROOT
ATOM      1  C   UNL     1     -19.522  45.283  -7.358  1.00  0.00    -0.031 C 
ATOM      2  C   UNL     1     -19.574  43.964  -7.597  1.00  0.00    -0.031 C 
ENDROOT
BRANCH   1   3
ATOM      3  C   UNL     1     -20.495  46.240  -7.996  1.00  0.00     0.027 C 
BRANCH   3   4
ATOM      4  C   UNL     1     -21.678  45.514  -8.656  1.00  0.00     0.004 C 
BRANCH   4   5
ATOM      5  C   UNL     1     -23.030  45.963  -8.074  1.00  0.00     0.000 C 
BRANCH   5   6
ATOM      6  C   UNL     1     -23.063  45.894  -6.539  1.00  0.00     0.000 C 
BRANCH   6   7
ATOM      7  C   UNL     1     -23.721  44.604  -6.018  1.00  0.00     0.000 C 
BRANCH   7   8
ATOM      8  C   UNL     1     -22.698  43.490  -5.728  1.00  0.00     0.006 C 
BRANCH   8   9
ATOM      9  C   UNL     1     -23.158  42.086  -6.150  1.00  0.00     0.053 C 
BRANCH   9  10
ATOM     10  C   UNL     1     -22.011  41.223  -6.575  1.00  0.00     0.041 C 
ATOM     11  O   UNL     1     -21.184  40.805  -5.722  1.00  0.00    -0.550 OA
ATOM     12  O   UNL     1     -21.834  40.908  -7.917  1.00  0.00    -0.550 OA
ENDBRANCH   9  10
ENDBRANCH   8   9
ENDBRANCH   7   8
ENDBRANCH   6   7
ENDBRANCH   5   6
ENDBRANCH   4   5
ENDBRANCH   3   4
ENDBRANCH   1   3
BRANCH   2  13
ATOM     13  C   UNL     1     -18.594  43.014  -6.967  1.00  0.00     0.027 C 
BRANCH  13  14
ATOM     14  C   UNL     1     -18.035  43.589  -5.657  1.00  0.00     0.004 C 
BRANCH  14  15
ATOM     15  C   UNL     1     -18.637  42.915  -4.413  1.00  0.00     0.000 C 
BRANCH  15  16
ATOM     16  C   UNL     1     -17.585  42.641  -3.325  1.00  0.00     0.000 C 
BRANCH  16  17
ATOM     17  C   UNL     1     -16.156  42.536  -3.891  1.00  0.00    -0.000 C 
BRANCH  17  18
ATOM     18  C   UNL     1     -15.699  41.105  -4.240  1.00  0.00    -0.000 C 
BRANCH  18  19
ATOM     19  C   UNL     1     -16.817  40.048  -4.246  1.00  0.00    -0.003 C 
ATOM     20  C   UNL     1     -17.364  39.767  -5.644  1.00  0.00     0.004 C 
ENDBRANCH  18  19
ENDBRANCH  17  18
ENDBRANCH  16  17
ENDBRANCH  15  16
ENDBRANCH  14  15
ENDBRANCH  13  14
ENDBRANCH   2  13
TORSDOF 15
ENDMDL
