MODEL 1
REMARK VINA RESULT:    10.964      0.000      0.000
REMARK INTER + INTRA:          22.611
REMARK INTER:                  23.783
REMARK INTRA:                  -1.172
REMARK UNBOUND:                -1.172
REMARK SMILES CCCCCCCCCCCCCCCCCCCCCC(=O)[O-]
REMARK SMILES IDX 12 1 11 2 10 3 9 4 8 5 7 6 6 7 5 8 4 9 3 10 2 11 1 12 13 13
REMARK SMILES IDX 14 14 15 15 16 16 17 17 18 18 19 19 20 20 21 21 22 22 23 23
REMARK SMILES IDX 24 24
REMARK H PARENT
REMARK Flexibility Score: inf
ROOT
ATOM      1  C   UNL     1      15.603  34.865  50.271  1.00  0.00     0.000 C 
ENDROOT
BRANCH   1   2
ATOM      2  C   UNL     1      15.284  33.381  50.011  1.00  0.00     0.000 C 
BRANCH   2   3
ATOM      3  C   UNL     1      16.258  32.382  50.665  1.00  0.00     0.000 C 
BRANCH   3   4
ATOM      4  C   UNL     1      15.627  31.051  51.119  1.00  0.00    -0.000 C 
BRANCH   4   5
ATOM      5  C   UNL     1      14.263  30.722  50.487  1.00  0.00    -0.000 C 
BRANCH   5   6
ATOM      6  C   UNL     1      13.538  29.566  51.195  1.00  0.00    -0.000 C 
BRANCH   6   7
ATOM      7  C   UNL     1      13.536  28.269  50.368  1.00  0.00    -0.000 C 
BRANCH   7   8
ATOM      8  C   UNL     1      12.848  28.412  48.993  1.00  0.00    -0.000 C 
BRANCH   8   9
ATOM      9  C   UNL     1      11.851  27.269  48.722  1.00  0.00    -0.000 C 
BRANCH   9  10
ATOM     10  C   UNL     1      10.551  27.771  48.057  1.00  0.00    -0.000 C 
BRANCH  10  11
ATOM     11  C   UNL     1       9.299  26.988  48.484  1.00  0.00    -0.003 C 
ATOM     12  C   UNL     1       9.334  25.523  48.056  1.00  0.00     0.004 C 
ENDBRANCH  10  11
ENDBRANCH   9  10
ENDBRANCH   8   9
ENDBRANCH   7   8
ENDBRANCH   6   7
ENDBRANCH   5   6
ENDBRANCH   4   5
ENDBRANCH   3   4
ENDBRANCH   2   3
ENDBRANCH   1   2
BRANCH   1  13
ATOM     13  C   UNL     1      15.278  35.766  49.070  1.00  0.00     0.000 C 
BRANCH  13  14
ATOM     14  C   UNL     1      14.120  35.182  48.247  1.00  0.00     0.000 C 
BRANCH  14  15
ATOM     15  C   UNL     1      13.135  36.258  47.761  1.00  0.00     0.000 C 
BRANCH  15  16
ATOM     16  C   UNL     1      13.735  37.673  47.819  1.00  0.00     0.000 C 
BRANCH  16  17
ATOM     17  C   UNL     1      13.327  38.541  46.617  1.00  0.00     0.000 C 
BRANCH  17  18
ATOM     18  C   UNL     1      14.445  39.501  46.174  1.00  0.00     0.000 C 
BRANCH  18  19
ATOM     19  C   UNL     1      15.725  39.344  47.012  1.00  0.00     0.000 C 
BRANCH  19  20
ATOM     20  C   UNL     1      16.786  38.476  46.313  1.00  0.00     0.006 C 
BRANCH  20  21
ATOM     21  C   UNL     1      18.209  39.004  46.544  1.00  0.00     0.053 C 
BRANCH  21  22
ATOM     22  C   UNL     1      19.201  37.888  46.669  1.00  0.00     0.041 C 
ATOM     23  O   UNL     1      18.992  36.786  46.097  1.00  0.00    -0.550 OA
ATOM     24  O   UNL     1      20.344  38.057  47.442  1.00  0.00    -0.550 OA
ENDBRANCH  21  22
ENDBRANCH  20  21
ENDBRANCH  19  20
ENDBRANCH  18  19
ENDBRANCH  17  18
ENDBRANCH  16  17
ENDBRANCH  15  16
ENDBRANCH  14  15
ENDBRANCH  13  14
ENDBRANCH   1  13
TORSDOF 20
ENDMDL
MODEL 2
REMARK VINA RESULT:    11.354      4.035     10.281
REMARK INTER + INTRA:          23.458
REMARK INTER:                  24.201
REMARK INTRA:                  -0.743
REMARK UNBOUND:                -1.172
REMARK SMILES CCCCCCCCCCCCCCCCCCCCCC(=O)[O-]
REMARK SMILES IDX 12 1 11 2 10 3 9 4 8 5 7 6 6 7 5 8 4 9 3 10 2 11 1 12 13 13
REMARK SMILES IDX 14 14 15 15 16 16 17 17 18 18 19 19 20 20 21 21 22 22 23 23
REMARK SMILES IDX 24 24
REMARK H PARENT
REMARK Flexibility Score: inf
ROOT
ATOM      1  C   UNL     1      14.050  35.864  48.138  1.00  0.00     0.000 C 
ENDROOT
BRANCH   1   2
ATOM      2  C   UNL     1      13.009  36.932  47.753  1.00  0.00     0.000 C 
BRANCH   2   3
ATOM      3  C   UNL     1      13.402  37.824  46.559  1.00  0.00     0.000 C 
BRANCH   3   4
ATOM      4  C   UNL     1      13.723  39.290  46.912  1.00  0.00    -0.000 C 
BRANCH   4   5
ATOM      5  C   UNL     1      15.180  39.719  46.671  1.00  0.00    -0.000 C 
BRANCH   5   6
ATOM      6  C   UNL     1      16.200  38.774  47.328  1.00  0.00    -0.000 C 
BRANCH   6   7
ATOM      7  C   UNL     1      17.372  38.422  46.397  1.00  0.00    -0.000 C 
BRANCH   7   8
ATOM      8  C   UNL     1      18.748  38.869  46.937  1.00  0.00    -0.000 C 
BRANCH   8   9
ATOM      9  C   UNL     1      19.844  37.822  46.666  1.00  0.00    -0.000 C 
BRANCH   9  10
ATOM     10  C   UNL     1      19.376  36.722  45.688  1.00  0.00    -0.000 C 
BRANCH  10  11
ATOM     11  C   UNL     1      20.183  35.418  45.795  1.00  0.00    -0.003 C 
ATOM     12  C   UNL     1      20.853  35.020  44.481  1.00  0.00     0.004 C 
ENDBRANCH  10  11
ENDBRANCH   9  10
ENDBRANCH   8   9
ENDBRANCH   7   8
ENDBRANCH   6   7
ENDBRANCH   5   6
ENDBRANCH   4   5
ENDBRANCH   3   4
ENDBRANCH   2   3
ENDBRANCH   1   2
BRANCH   1  13
ATOM     13  C   UNL     1      15.205  36.430  48.978  1.00  0.00     0.000 C 
BRANCH  13  14
ATOM     14  C   UNL     1      15.609  35.444  50.084  1.00  0.00     0.000 C 
BRANCH  14  15
ATOM     15  C   UNL     1      15.453  33.975  49.657  1.00  0.00     0.000 C 
BRANCH  15  16
ATOM     16  C   UNL     1      15.538  33.006  50.849  1.00  0.00     0.000 C 
BRANCH  16  17
ATOM     17  C   UNL     1      15.482  31.530  50.420  1.00  0.00     0.000 C 
BRANCH  17  18
ATOM     18  C   UNL     1      14.154  30.853  50.799  1.00  0.00     0.000 C 
BRANCH  18  19
ATOM     19  C   UNL     1      13.445  30.225  49.587  1.00  0.00     0.000 C 
BRANCH  19  20
ATOM     20  C   UNL     1      13.095  28.744  49.809  1.00  0.00     0.006 C 
BRANCH  20  21
ATOM     21  C   UNL     1      14.101  28.043  50.733  1.00  0.00     0.053 C 
BRANCH  21  22
ATOM     22  C   UNL     1      13.496  27.718  52.065  1.00  0.00     0.041 C 
ATOM     23  O   UNL     1      13.396  26.520  52.441  1.00  0.00    -0.550 OA
ATOM     24  O   UNL     1      13.016  28.737  52.879  1.00  0.00    -0.550 OA
ENDBRANCH  21  22
ENDBRANCH  20  21
ENDBRANCH  19  20
ENDBRANCH  18  19
ENDBRANCH  17  18
ENDBRANCH  16  17
ENDBRANCH  15  16
ENDBRANCH  14  15
ENDBRANCH  13  14
ENDBRANCH   1  13
TORSDOF 20
ENDMDL
MODEL 3
REMARK VINA RESULT:    11.440      3.454     10.109
REMARK INTER + INTRA:          23.644
REMARK INTER:                  23.480
REMARK INTRA:                   0.164
REMARK UNBOUND:                -1.172
REMARK SMILES CCCCCCCCCCCCCCCCCCCCCC(=O)[O-]
REMARK SMILES IDX 12 1 11 2 10 3 9 4 8 5 7 6 6 7 5 8 4 9 3 10 2 11 1 12 13 13
REMARK SMILES IDX 14 14 15 15 16 16 17 17 18 18 19 19 20 20 21 21 22 22 23 23
REMARK SMILES IDX 24 24
REMARK H PARENT
REMARK Flexibility Score: inf
ROOT
ATOM      1  C   UNL     1      13.021  36.081  47.632  1.00  0.00     0.000 C 
ENDROOT
BRANCH   1   2
ATOM      2  C   UNL     1      13.639  37.472  47.860  1.00  0.00     0.000 C 
BRANCH   2   3
ATOM      3  C   UNL     1      13.420  38.478  46.712  1.00  0.00     0.000 C 
BRANCH   3   4
ATOM      4  C   UNL     1      14.394  39.673  46.691  1.00  0.00    -0.000 C 
BRANCH   4   5
ATOM      5  C   UNL     1      15.823  39.363  47.171  1.00  0.00    -0.000 C 
BRANCH   5   6
ATOM      6  C   UNL     1      16.742  38.874  46.039  1.00  0.00    -0.000 C 
BRANCH   6   7
ATOM      7  C   UNL     1      17.591  37.659  46.446  1.00  0.00    -0.000 C 
BRANCH   7   8
ATOM      8  C   UNL     1      18.999  38.031  46.961  1.00  0.00    -0.000 C 
BRANCH   8   9
ATOM      9  C   UNL     1      20.029  36.920  46.684  1.00  0.00    -0.000 C 
BRANCH   9  10
ATOM     10  C   UNL     1      19.849  36.289  45.286  1.00  0.00    -0.000 C 
BRANCH  10  11
ATOM     11  C   UNL     1      20.557  34.933  45.126  1.00  0.00    -0.003 C 
ATOM     12  C   UNL     1      21.238  34.770  43.769  1.00  0.00     0.004 C 
ENDBRANCH  10  11
ENDBRANCH   9  10
ENDBRANCH   8   9
ENDBRANCH   7   8
ENDBRANCH   6   7
ENDBRANCH   5   6
ENDBRANCH   4   5
ENDBRANCH   3   4
ENDBRANCH   2   3
ENDBRANCH   1   2
BRANCH   1  13
ATOM     13  C   UNL     1      13.851  34.948  48.252  1.00  0.00     0.000 C 
BRANCH  13  14
ATOM     14  C   UNL     1      15.061  35.511  49.013  1.00  0.00     0.000 C 
BRANCH  14  15
ATOM     15  C   UNL     1      15.407  34.694  50.269  1.00  0.00     0.000 C 
BRANCH  15  16
ATOM     16  C   UNL     1      15.540  33.191  49.972  1.00  0.00     0.000 C 
BRANCH  16  17
ATOM     17  C   UNL     1      15.521  32.329  51.246  1.00  0.00     0.000 C 
BRANCH  17  18
ATOM     18  C   UNL     1      15.405  30.825  50.943  1.00  0.00     0.000 C 
BRANCH  18  19
ATOM     19  C   UNL     1      13.945  30.365  50.791  1.00  0.00     0.000 C 
BRANCH  19  20
ATOM     20  C   UNL     1      13.627  29.120  51.636  1.00  0.00     0.006 C 
BRANCH  20  21
ATOM     21  C   UNL     1      13.373  27.880  50.767  1.00  0.00     0.053 C 
BRANCH  21  22
ATOM     22  C   UNL     1      12.777  28.244  49.442  1.00  0.00     0.041 C 
ATOM     23  O   UNL     1      12.091  27.404  48.802  1.00  0.00    -0.550 OA
ATOM     24  O   UNL     1      13.005  29.503  48.899  1.00  0.00    -0.550 OA
ENDBRANCH  21  22
ENDBRANCH  20  21
ENDBRANCH  19  20
ENDBRANCH  18  19
ENDBRANCH  17  18
ENDBRANCH  16  17
ENDBRANCH  15  16
ENDBRANCH  14  15
ENDBRANCH  13  14
ENDBRANCH   1  13
TORSDOF 20
ENDMDL
MODEL 4
REMARK VINA RESULT:    11.448      3.408     10.500
REMARK INTER + INTRA:          23.660
REMARK INTER:                  24.950
REMARK INTRA:                  -1.290
REMARK UNBOUND:                -1.172
REMARK SMILES CCCCCCCCCCCCCCCCCCCCCC(=O)[O-]
REMARK SMILES IDX 12 1 11 2 10 3 9 4 8 5 7 6 6 7 5 8 4 9 3 10 2 11 1 12 13 13
REMARK SMILES IDX 14 14 15 15 16 16 17 17 18 18 19 19 20 20 21 21 22 22 23 23
REMARK SMILES IDX 24 24
REMARK H PARENT
REMARK Flexibility Score: inf
ROOT
ATOM      1  C   UNL     1      15.248  36.003  48.982  1.00  0.00     0.000 C 
ENDROOT
BRANCH   1   2
ATOM      2  C   UNL     1      13.997  35.316  48.404  1.00  0.00     0.000 C 
BRANCH   2   3
ATOM      3  C   UNL     1      13.122  36.208  47.503  1.00  0.00     0.000 C 
BRANCH   3   4
ATOM      4  C   UNL     1      13.364  37.724  47.645  1.00  0.00    -0.000 C 
BRANCH   4   5
ATOM      5  C   UNL     1      13.175  38.542  46.356  1.00  0.00    -0.000 C 
BRANCH   5   6
ATOM      6  C   UNL     1      13.996  39.843  46.346  1.00  0.00    -0.000 C 
BRANCH   6   7
ATOM      7  C   UNL     1      15.334  39.707  47.091  1.00  0.00    -0.000 C 
BRANCH   7   8
ATOM      8  C   UNL     1      16.483  39.168  46.210  1.00  0.00    -0.000 C 
BRANCH   8   9
ATOM      9  C   UNL     1      17.081  37.864  46.771  1.00  0.00    -0.000 C 
BRANCH   9  10
ATOM     10  C   UNL     1      18.523  37.621  46.277  1.00  0.00    -0.000 C 
BRANCH  10  11
ATOM     11  C   UNL     1      19.594  38.313  47.136  1.00  0.00    -0.003 C 
ATOM     12  C   UNL     1      19.818  39.773  46.753  1.00  0.00     0.004 C 
ENDBRANCH  10  11
ENDBRANCH   9  10
ENDBRANCH   8   9
ENDBRANCH   7   8
ENDBRANCH   6   7
ENDBRANCH   5   6
ENDBRANCH   4   5
ENDBRANCH   3   4
ENDBRANCH   2   3
ENDBRANCH   1   2
BRANCH   1  13
ATOM     13  C   UNL     1      15.860  35.236  50.163  1.00  0.00     0.000 C 
BRANCH  13  14
ATOM     14  C   UNL     1      15.332  33.795  50.212  1.00  0.00     0.000 C 
BRANCH  14  15
ATOM     15  C   UNL     1      16.409  32.781  50.634  1.00  0.00     0.000 C 
BRANCH  15  16
ATOM     16  C   UNL     1      15.807  31.440  51.087  1.00  0.00     0.000 C 
BRANCH  16  17
ATOM     17  C   UNL     1      14.521  31.078  50.326  1.00  0.00     0.000 C 
BRANCH  17  18
ATOM     18  C   UNL     1      13.592  30.158  51.136  1.00  0.00     0.000 C 
BRANCH  18  19
ATOM     19  C   UNL     1      14.173  28.745  51.316  1.00  0.00     0.000 C 
BRANCH  19  20
ATOM     20  C   UNL     1      13.113  27.644  51.141  1.00  0.00     0.006 C 
BRANCH  20  21
ATOM     21  C   UNL     1      13.114  27.059  49.721  1.00  0.00     0.053 C 
BRANCH  21  22
ATOM     22  C   UNL     1      12.263  27.867  48.788  1.00  0.00     0.041 C 
ATOM     23  O   UNL     1      11.096  27.489  48.506  1.00  0.00    -0.550 OA
ATOM     24  O   UNL     1      12.772  29.024  48.208  1.00  0.00    -0.550 OA
ENDBRANCH  21  22
ENDBRANCH  20  21
ENDBRANCH  19  20
ENDBRANCH  18  19
ENDBRANCH  17  18
ENDBRANCH  16  17
ENDBRANCH  15  16
ENDBRANCH  14  15
ENDBRANCH  13  14
ENDBRANCH   1  13
TORSDOF 20
ENDMDL
MODEL 5
REMARK VINA RESULT:    11.497      2.313      4.475
REMARK INTER + INTRA:          23.767
REMARK INTER:                  25.047
REMARK INTRA:                  -1.281
REMARK UNBOUND:                -1.172
REMARK SMILES CCCCCCCCCCCCCCCCCCCCCC(=O)[O-]
REMARK SMILES IDX 12 1 11 2 10 3 9 4 8 5 7 6 6 7 5 8 4 9 3 10 2 11 1 12 13 13
REMARK SMILES IDX 14 14 15 15 16 16 17 17 18 18 19 19 20 20 21 21 22 22 23 23
REMARK SMILES IDX 24 24
REMARK H PARENT
REMARK Flexibility Score: inf
ROOT
ATOM      1  C   UNL     1      13.384  37.693  47.129  1.00  0.00     0.000 C 
ENDROOT
BRANCH   1   2
ATOM      2  C   UNL     1      13.352  36.367  47.911  1.00  0.00     0.000 C 
BRANCH   2   3
ATOM      3  C   UNL     1      14.644  36.036  48.684  1.00  0.00     0.000 C 
BRANCH   3   4
ATOM      4  C   UNL     1      14.917  34.534  48.896  1.00  0.00    -0.000 C 
BRANCH   4   5
ATOM      5  C   UNL     1      15.612  34.174  50.221  1.00  0.00    -0.000 C 
BRANCH   5   6
ATOM      6  C   UNL     1      16.234  32.768  50.209  1.00  0.00    -0.000 C 
BRANCH   6   7
ATOM      7  C   UNL     1      15.400  31.741  50.992  1.00  0.00    -0.000 C 
BRANCH   7   8
ATOM      8  C   UNL     1      14.148  31.250  50.233  1.00  0.00    -0.000 C 
BRANCH   8   9
ATOM      9  C   UNL     1      13.518  30.010  50.895  1.00  0.00    -0.000 C 
BRANCH   9  10
ATOM     10  C   UNL     1      13.469  28.797  49.940  1.00  0.00    -0.000 C 
BRANCH  10  11
ATOM     11  C   UNL     1      13.612  27.443  50.655  1.00  0.00    -0.003 C 
ATOM     12  C   UNL     1      13.473  27.550  52.172  1.00  0.00     0.004 C 
ENDBRANCH  10  11
ENDBRANCH   9  10
ENDBRANCH   8   9
ENDBRANCH   7   8
ENDBRANCH   6   7
ENDBRANCH   5   6
ENDBRANCH   4   5
ENDBRANCH   3   4
ENDBRANCH   2   3
ENDBRANCH   1   2
BRANCH   1  13
ATOM     13  C   UNL     1      14.208  38.782  47.831  1.00  0.00     0.000 C 
BRANCH  13  14
ATOM     14  C   UNL     1      14.867  39.715  46.805  1.00  0.00     0.000 C 
BRANCH  14  15
ATOM     15  C   UNL     1      15.924  39.001  45.945  1.00  0.00     0.000 C 
BRANCH  15  16
ATOM     16  C   UNL     1      16.985  38.282  46.796  1.00  0.00     0.000 C 
BRANCH  16  17
ATOM     17  C   UNL     1      18.359  38.970  46.740  1.00  0.00     0.000 C 
BRANCH  17  18
ATOM     18  C   UNL     1      19.513  37.973  46.543  1.00  0.00     0.000 C 
BRANCH  18  19
ATOM     19  C   UNL     1      19.033  36.512  46.516  1.00  0.00     0.000 C 
BRANCH  19  20
ATOM     20  C   UNL     1      20.123  35.540  46.035  1.00  0.00     0.006 C 
BRANCH  20  21
ATOM     21  C   UNL     1      20.632  35.890  44.629  1.00  0.00     0.053 C 
BRANCH  21  22
ATOM     22  C   UNL     1      21.237  34.700  43.946  1.00  0.00     0.041 C 
ATOM     23  O   UNL     1      21.616  33.707  44.620  1.00  0.00    -0.550 OA
ATOM     24  O   UNL     1      21.408  34.703  42.567  1.00  0.00    -0.550 OA
ENDBRANCH  21  22
ENDBRANCH  20  21
ENDBRANCH  19  20
ENDBRANCH  18  19
ENDBRANCH  17  18
ENDBRANCH  16  17
ENDBRANCH  15  16
ENDBRANCH  14  15
ENDBRANCH  13  14
ENDBRANCH   1  13
TORSDOF 20
ENDMDL
MODEL 6
REMARK VINA RESULT:    11.560      1.543      2.408
REMARK INTER + INTRA:          23.903
REMARK INTER:                  24.341
REMARK INTRA:                  -0.438
REMARK UNBOUND:                -1.172
REMARK SMILES CCCCCCCCCCCCCCCCCCCCCC(=O)[O-]
REMARK SMILES IDX 12 1 11 2 10 3 9 4 8 5 7 6 6 7 5 8 4 9 3 10 2 11 1 12 13 13
REMARK SMILES IDX 14 14 15 15 16 16 17 17 18 18 19 19 20 20 21 21 22 22 23 23
REMARK SMILES IDX 24 24
REMARK H PARENT
REMARK Flexibility Score: inf
ROOT
ATOM      1  C   UNL     1      14.407  34.420  48.948  1.00  0.00     0.000 C 
ENDROOT
BRANCH   1   2
ATOM      2  C   UNL     1      15.303  34.074  50.151  1.00  0.00     0.000 C 
BRANCH   2   3
ATOM      3  C   UNL     1      15.952  32.677  50.099  1.00  0.00     0.000 C 
BRANCH   3   4
ATOM      4  C   UNL     1      15.604  31.746  51.277  1.00  0.00    -0.000 C 
BRANCH   4   5
ATOM      5  C   UNL     1      14.884  30.441  50.891  1.00  0.00    -0.000 C 
BRANCH   5   6
ATOM      6  C   UNL     1      13.580  30.683  50.114  1.00  0.00    -0.000 C 
BRANCH   6   7
ATOM      7  C   UNL     1      13.381  29.686  48.961  1.00  0.00    -0.000 C 
BRANCH   7   8
ATOM      8  C   UNL     1      12.379  28.556  49.285  1.00  0.00    -0.000 C 
BRANCH   8   9
ATOM      9  C   UNL     1      13.088  27.261  49.725  1.00  0.00    -0.000 C 
BRANCH   9  10
ATOM     10  C   UNL     1      14.041  27.491  50.918  1.00  0.00    -0.000 C 
BRANCH  10  11
ATOM     11  C   UNL     1      13.386  27.239  52.287  1.00  0.00    -0.003 C 
ATOM     12  C   UNL     1      13.036  28.526  53.029  1.00  0.00     0.004 C 
ENDBRANCH  10  11
ENDBRANCH   9  10
ENDBRANCH   8   9
ENDBRANCH   7   8
ENDBRANCH   6   7
ENDBRANCH   5   6
ENDBRANCH   4   5
ENDBRANCH   3   4
ENDBRANCH   2   3
ENDBRANCH   1   2
BRANCH   1  13
ATOM     13  C   UNL     1      14.502  35.896  48.536  1.00  0.00     0.000 C 
BRANCH  13  14
ATOM     14  C   UNL     1      13.267  36.318  47.726  1.00  0.00     0.000 C 
BRANCH  14  15
ATOM     15  C   UNL     1      13.332  37.782  47.262  1.00  0.00     0.000 C 
BRANCH  15  16
ATOM     16  C   UNL     1      14.331  38.614  48.083  1.00  0.00     0.000 C 
BRANCH  16  17
ATOM     17  C   UNL     1      14.539  40.027  47.513  1.00  0.00     0.000 C 
BRANCH  17  18
ATOM     18  C   UNL     1      14.704  40.030  45.984  1.00  0.00     0.000 C 
BRANCH  18  19
ATOM     19  C   UNL     1      15.819  39.084  45.509  1.00  0.00     0.000 C 
BRANCH  19  20
ATOM     20  C   UNL     1      16.862  38.803  46.604  1.00  0.00     0.006 C 
BRANCH  20  21
ATOM     21  C   UNL     1      17.706  37.558  46.294  1.00  0.00     0.053 C 
BRANCH  21  22
ATOM     22  C   UNL     1      19.137  37.743  46.700  1.00  0.00     0.041 C 
ATOM     23  O   UNL     1      19.556  38.878  47.046  1.00  0.00    -0.550 OA
ATOM     24  O   UNL     1      20.014  36.665  46.666  1.00  0.00    -0.550 OA
ENDBRANCH  21  22
ENDBRANCH  20  21
ENDBRANCH  19  20
ENDBRANCH  18  19
ENDBRANCH  17  18
ENDBRANCH  16  17
ENDBRANCH  15  16
ENDBRANCH  14  15
ENDBRANCH  13  14
ENDBRANCH   1  13
TORSDOF 20
ENDMDL
MODEL 7
REMARK VINA RESULT:    11.585      3.902      9.901
REMARK INTER + INTRA:          23.958
REMARK INTER:                  25.030
REMARK INTRA:                  -1.072
REMARK UNBOUND:                -1.172
REMARK SMILES CCCCCCCCCCCCCCCCCCCCCC(=O)[O-]
REMARK SMILES IDX 12 1 11 2 10 3 9 4 8 5 7 6 6 7 5 8 4 9 3 10 2 11 1 12 13 13
REMARK SMILES IDX 14 14 15 15 16 16 17 17 18 18 19 19 20 20 21 21 22 22 23 23
REMARK SMILES IDX 24 24
REMARK H PARENT
REMARK Flexibility Score: inf
ROOT
ATOM      1  C   UNL     1      13.405  37.850  47.023  1.00  0.00     0.000 C 
ENDROOT
BRANCH   1   2
ATOM      2  C   UNL     1      14.293  38.819  47.826  1.00  0.00     0.000 C 
BRANCH   2   3
ATOM      3  C   UNL     1      15.184  39.742  46.973  1.00  0.00     0.000 C 
BRANCH   3   4
ATOM      4  C   UNL     1      16.160  39.020  46.023  1.00  0.00    -0.000 C 
BRANCH   4   5
ATOM      5  C   UNL     1      17.232  38.159  46.714  1.00  0.00    -0.000 C 
BRANCH   5   6
ATOM      6  C   UNL     1      18.537  38.928  46.980  1.00  0.00    -0.000 C 
BRANCH   6   7
ATOM      7  C   UNL     1      19.785  38.035  46.878  1.00  0.00    -0.000 C 
BRANCH   7   8
ATOM      8  C   UNL     1      19.474  36.582  46.455  1.00  0.00    -0.000 C 
BRANCH   8   9
ATOM      9  C   UNL     1      20.096  36.230  45.091  1.00  0.00    -0.000 C 
BRANCH   9  10
ATOM     10  C   UNL     1      20.799  34.856  45.104  1.00  0.00    -0.000 C 
BRANCH  10  11
ATOM     11  C   UNL     1      20.835  34.168  43.729  1.00  0.00    -0.003 C 
ATOM     12  C   UNL     1      21.953  34.687  42.829  1.00  0.00     0.004 C 
ENDBRANCH  10  11
ENDBRANCH   9  10
ENDBRANCH   8   9
ENDBRANCH   7   8
ENDBRANCH   6   7
ENDBRANCH   5   6
ENDBRANCH   4   5
ENDBRANCH   3   4
ENDBRANCH   2   3
ENDBRANCH   1   2
BRANCH   1  13
ATOM     13  C   UNL     1      12.794  36.740  47.891  1.00  0.00     0.000 C 
BRANCH  13  14
ATOM     14  C   UNL     1      13.711  35.508  47.928  1.00  0.00     0.000 C 
BRANCH  14  15
ATOM     15  C   UNL     1      15.049  35.784  48.633  1.00  0.00     0.000 C 
BRANCH  15  16
ATOM     16  C   UNL     1      15.212  34.964  49.924  1.00  0.00     0.000 C 
BRANCH  16  17
ATOM     17  C   UNL     1      15.195  33.447  49.672  1.00  0.00     0.000 C 
BRANCH  17  18
ATOM     18  C   UNL     1      16.185  32.687  50.571  1.00  0.00     0.000 C 
BRANCH  18  19
ATOM     19  C   UNL     1      15.529  31.502  51.300  1.00  0.00     0.000 C 
BRANCH  19  20
ATOM     20  C   UNL     1      14.681  30.627  50.361  1.00  0.00     0.006 C 
BRANCH  20  21
ATOM     21  C   UNL     1      13.507  29.961  51.093  1.00  0.00     0.053 C 
BRANCH  21  22
ATOM     22  C   UNL     1      13.370  28.516  50.723  1.00  0.00     0.041 C 
ATOM     23  O   UNL     1      13.569  27.619  51.584  1.00  0.00    -0.550 OA
ATOM     24  O   UNL     1      13.051  28.159  49.418  1.00  0.00    -0.550 OA
ENDBRANCH  21  22
ENDBRANCH  20  21
ENDBRANCH  19  20
ENDBRANCH  18  19
ENDBRANCH  17  18
ENDBRANCH  16  17
ENDBRANCH  15  16
ENDBRANCH  14  15
ENDBRANCH  13  14
ENDBRANCH   1  13
TORSDOF 20
ENDMDL
MODEL 8
REMARK VINA RESULT:    11.878      4.174     11.090
REMARK INTER + INTRA:          24.594
REMARK INTER:                  25.709
REMARK INTRA:                  -1.115
REMARK UNBOUND:                -1.172
REMARK SMILES CCCCCCCCCCCCCCCCCCCCCC(=O)[O-]
REMARK SMILES IDX 12 1 11 2 10 3 9 4 8 5 7 6 6 7 5 8 4 9 3 10 2 11 1 12 13 13
REMARK SMILES IDX 14 14 15 15 16 16 17 17 18 18 19 19 20 20 21 21 22 22 23 23
REMARK SMILES IDX 24 24
REMARK H PARENT
REMARK Flexibility Score: inf
ROOT
ATOM      1  C   UNL     1      15.026  35.243  49.339  1.00  0.00     0.000 C 
ENDROOT
BRANCH   1   2
ATOM      2  C   UNL     1      13.976  34.804  48.302  1.00  0.00     0.000 C 
BRANCH   2   3
ATOM      3  C   UNL     1      13.080  35.937  47.764  1.00  0.00     0.000 C 
BRANCH   3   4
ATOM      4  C   UNL     1      13.678  37.354  47.868  1.00  0.00    -0.000 C 
BRANCH   4   5
ATOM      5  C   UNL     1      13.130  38.373  46.854  1.00  0.00    -0.000 C 
BRANCH   5   6
ATOM      6  C   UNL     1      14.110  39.525  46.574  1.00  0.00    -0.000 C 
BRANCH   6   7
ATOM      7  C   UNL     1      15.544  39.211  47.031  1.00  0.00    -0.000 C 
BRANCH   7   8
ATOM      8  C   UNL     1      16.455  38.690  45.898  1.00  0.00    -0.000 C 
BRANCH   8   9
ATOM      9  C   UNL     1      17.818  38.205  46.428  1.00  0.00    -0.000 C 
BRANCH   9  10
ATOM     10  C   UNL     1      18.772  39.375  46.751  1.00  0.00    -0.000 C 
BRANCH  10  11
ATOM     11  C   UNL     1      20.239  38.947  46.920  1.00  0.00    -0.003 C 
ATOM     12  C   UNL     1      20.389  37.528  47.462  1.00  0.00     0.004 C 
ENDBRANCH  10  11
ENDBRANCH   9  10
ENDBRANCH   8   9
ENDBRANCH   7   8
ENDBRANCH   6   7
ENDBRANCH   5   6
ENDBRANCH   4   5
ENDBRANCH   3   4
ENDBRANCH   2   3
ENDBRANCH   1   2
BRANCH   1  13
ATOM     13  C   UNL     1      15.334  34.153  50.376  1.00  0.00     0.000 C 
BRANCH  13  14
ATOM     14  C   UNL     1      15.379  32.767  49.715  1.00  0.00     0.000 C 
BRANCH  14  15
ATOM     15  C   UNL     1      15.303  31.619  50.735  1.00  0.00     0.000 C 
BRANCH  15  16
ATOM     16  C   UNL     1      14.191  30.610  50.401  1.00  0.00     0.000 C 
BRANCH  16  17
ATOM     17  C   UNL     1      14.045  29.511  51.466  1.00  0.00     0.000 C 
BRANCH  17  18
ATOM     18  C   UNL     1      13.284  28.279  50.946  1.00  0.00     0.000 C 
BRANCH  18  19
ATOM     19  C   UNL     1      13.300  28.180  49.412  1.00  0.00     0.000 C 
BRANCH  19  20
ATOM     20  C   UNL     1      11.887  28.204  48.803  1.00  0.00     0.006 C 
BRANCH  20  21
ATOM     21  C   UNL     1      11.353  26.792  48.524  1.00  0.00     0.053 C 
BRANCH  21  22
ATOM     22  C   UNL     1       9.874  26.796  48.284  1.00  0.00     0.041 C 
ATOM     23  O   UNL     1       9.253  27.886  48.171  1.00  0.00    -0.550 OA
ATOM     24  O   UNL     1       9.177  25.596  48.215  1.00  0.00    -0.550 OA
ENDBRANCH  21  22
ENDBRANCH  20  21
ENDBRANCH  19  20
ENDBRANCH  18  19
ENDBRANCH  17  18
ENDBRANCH  16  17
ENDBRANCH  15  16
ENDBRANCH  14  15
ENDBRANCH  13  14
ENDBRANCH   1  13
TORSDOF 20
ENDMDL
MODEL 9
REMARK VINA RESULT:    12.133      0.994      2.393
REMARK INTER + INTRA:          25.146
REMARK INTER:                  25.584
REMARK INTRA:                  -0.437
REMARK UNBOUND:                -1.172
REMARK SMILES CCCCCCCCCCCCCCCCCCCCCC(=O)[O-]
REMARK SMILES IDX 12 1 11 2 10 3 9 4 8 5 7 6 6 7 5 8 4 9 3 10 2 11 1 12 13 13
REMARK SMILES IDX 14 14 15 15 16 16 17 17 18 18 19 19 20 20 21 21 22 22 23 23
REMARK SMILES IDX 24 24
REMARK H PARENT
REMARK Flexibility Score: inf
ROOT
ATOM      1  C   UNL     1      13.856  35.795  48.191  1.00  0.00     0.000 C 
ENDROOT
BRANCH   1   2
ATOM      2  C   UNL     1      15.242  35.606  48.833  1.00  0.00     0.000 C 
BRANCH   2   3
ATOM      3  C   UNL     1      15.270  34.673  50.060  1.00  0.00     0.000 C 
BRANCH   3   4
ATOM      4  C   UNL     1      15.524  33.185  49.748  1.00  0.00    -0.000 C 
BRANCH   4   5
ATOM      5  C   UNL     1      16.113  32.363  50.908  1.00  0.00    -0.000 C 
BRANCH   5   6
ATOM      6  C   UNL     1      15.390  31.023  51.120  1.00  0.00    -0.000 C 
BRANCH   6   7
ATOM      7  C   UNL     1      13.938  31.044  50.614  1.00  0.00    -0.000 C 
BRANCH   7   8
ATOM      8  C   UNL     1      13.601  29.885  49.650  1.00  0.00    -0.000 C 
BRANCH   8   9
ATOM      9  C   UNL     1      13.842  28.507  50.295  1.00  0.00    -0.000 C 
BRANCH   9  10
ATOM     10  C   UNL     1      12.746  27.485  49.920  1.00  0.00    -0.000 C 
BRANCH  10  11
ATOM     11  C   UNL     1      12.175  27.684  48.506  1.00  0.00    -0.003 C 
ATOM     12  C   UNL     1      10.655  27.552  48.450  1.00  0.00     0.004 C 
ENDBRANCH  10  11
ENDBRANCH   9  10
ENDBRANCH   8   9
ENDBRANCH   7   8
ENDBRANCH   6   7
ENDBRANCH   5   6
ENDBRANCH   4   5
ENDBRANCH   3   4
ENDBRANCH   2   3
ENDBRANCH   1   2
BRANCH   1  13
ATOM     13  C   UNL     1      13.395  37.259  48.183  1.00  0.00     0.000 C 
BRANCH  13  14
ATOM     14  C   UNL     1      13.006  37.701  46.764  1.00  0.00     0.000 C 
BRANCH  14  15
ATOM     15  C   UNL     1      12.511  39.157  46.710  1.00  0.00     0.000 C 
BRANCH  15  16
ATOM     16  C   UNL     1      13.270  39.995  45.668  1.00  0.00     0.000 C 
BRANCH  16  17
ATOM     17  C   UNL     1      14.769  40.124  45.984  1.00  0.00     0.000 C 
BRANCH  17  18
ATOM     18  C   UNL     1      15.109  39.702  47.424  1.00  0.00     0.000 C 
BRANCH  18  19
ATOM     19  C   UNL     1      16.500  39.056  47.536  1.00  0.00     0.000 C 
BRANCH  19  20
ATOM     20  C   UNL     1      16.970  38.430  46.211  1.00  0.00     0.006 C 
BRANCH  20  21
ATOM     21  C   UNL     1      18.229  37.570  46.392  1.00  0.00     0.053 C 
BRANCH  21  22
ATOM     22  C   UNL     1      19.386  38.378  46.895  1.00  0.00     0.041 C 
ATOM     23  O   UNL     1      20.418  37.805  47.333  1.00  0.00    -0.550 OA
ATOM     24  O   UNL     1      19.311  39.766  46.908  1.00  0.00    -0.550 OA
ENDBRANCH  21  22
ENDBRANCH  20  21
ENDBRANCH  19  20
ENDBRANCH  18  19
ENDBRANCH  17  18
ENDBRANCH  16  17
ENDBRANCH  15  16
ENDBRANCH  14  15
ENDBRANCH  13  14
ENDBRANCH   1  13
TORSDOF 20
ENDMDL
