MODEL 1
REMARK VINA RESULT:    -3.139      0.000      0.000
REMARK INTER + INTRA:          -8.829
REMARK INTER:                  -7.177
REMARK INTRA:                  -1.652
REMARK UNBOUND:                -1.652
REMARK SMILES CCCCCCCCCCCCCCCCCCCCCCCC(=O)[O-]
REMARK SMILES IDX 13 1 14 2 15 3 16 4 17 5 18 6 19 7 20 8 21 9 22 10 23 11
REMARK SMILES IDX 24 12 25 13 26 14 12 15 11 16 10 17 9 18 8 19 7 20 6 21 5 22
REMARK SMILES IDX 4 23 3 24 2 25 1 26
REMARK H PARENT
REMARK Flexibility Score: inf
ROOT
ATOM      1  C   UNL     1       8.944  -5.240   3.657  1.00  0.00     0.000 C 
ENDROOT
BRANCH   1   2
ATOM      2  C   UNL     1       8.028  -6.201   2.875  1.00  0.00     0.000 C 
BRANCH   2   3
ATOM      3  C   UNL     1       7.047  -6.990   3.770  1.00  0.00     0.000 C 
BRANCH   3   4
ATOM      4  C   UNL     1       6.304  -6.085   4.769  1.00  0.00     0.000 C 
BRANCH   4   5
ATOM      5  C   UNL     1       5.276  -5.171   4.081  1.00  0.00     0.000 C 
BRANCH   5   6
ATOM      6  C   UNL     1       3.826  -5.590   4.383  1.00  0.00     0.000 C 
BRANCH   6   7
ATOM      7  C   UNL     1       3.149  -6.287   3.192  1.00  0.00     0.000 C 
BRANCH   7   8
ATOM      8  C   UNL     1       3.529  -7.774   3.078  1.00  0.00     0.000 C 
BRANCH   8   9
ATOM      9  C   UNL     1       2.487  -8.695   3.734  1.00  0.00     0.000 C 
BRANCH   9  10
ATOM     10  C   UNL     1       3.123  -9.696   4.715  1.00  0.00     0.006 C 
BRANCH  10  11
ATOM     11  C   UNL     1       4.488  -9.219   5.227  1.00  0.00     0.053 C 
BRANCH  11  12
ATOM     12  C   UNL     1       4.434  -8.825   6.672  1.00  0.00     0.041 C 
ATOM     13  O   UNL     1       3.647  -9.412   7.460  1.00  0.00    -0.550 OA
ATOM     14  O   UNL     1       5.275  -7.827   7.152  1.00  0.00    -0.550 OA
ENDBRANCH  11  12
ENDBRANCH  10  11
ENDBRANCH   9  10
ENDBRANCH   8   9
ENDBRANCH   7   8
ENDBRANCH   6   7
ENDBRANCH   5   6
ENDBRANCH   4   5
ENDBRANCH   3   4
ENDBRANCH   2   3
ENDBRANCH   1   2
BRANCH   1  15
ATOM     15  C   UNL     1      10.415  -5.233   3.202  1.00  0.00     0.000 C 
BRANCH  15  16
ATOM     16  C   UNL     1      11.006  -6.622   2.880  1.00  0.00     0.000 C 
BRANCH  16  17
ATOM     17  C   UNL     1      12.455  -6.838   3.353  1.00  0.00     0.000 C 
BRANCH  17  18
ATOM     18  C   UNL     1      12.775  -6.081   4.653  1.00  0.00    -0.000 C 
BRANCH  18  19
ATOM     19  C   UNL     1      13.873  -5.021   4.458  1.00  0.00    -0.000 C 
BRANCH  19  20
ATOM     20  C   UNL     1      15.309  -5.585   4.578  1.00  0.00    -0.000 C 
BRANCH  20  21
ATOM     21  C   UNL     1      16.034  -5.724   3.226  1.00  0.00    -0.000 C 
BRANCH  21  22
ATOM     22  C   UNL     1      17.533  -6.062   3.331  1.00  0.00    -0.000 C 
BRANCH  22  23
ATOM     23  C   UNL     1      17.869  -7.567   3.283  1.00  0.00    -0.000 C 
BRANCH  23  24
ATOM     24  C   UNL     1      16.884  -8.482   4.038  1.00  0.00    -0.000 C 
BRANCH  24  25
ATOM     25  C   UNL     1      15.668  -8.941   3.216  1.00  0.00    -0.003 C 
ATOM     26  C   UNL     1      14.919 -10.105   3.863  1.00  0.00     0.004 C 
ENDBRANCH  24  25
ENDBRANCH  23  24
ENDBRANCH  22  23
ENDBRANCH  21  22
ENDBRANCH  20  21
ENDBRANCH  19  20
ENDBRANCH  18  19
ENDBRANCH  17  18
ENDBRANCH  16  17
ENDBRANCH  15  16
ENDBRANCH   1  15
TORSDOF 22
ENDMDL
MODEL 2
REMARK VINA RESULT:    -2.881      3.776     10.681
REMARK INTER + INTRA:          -8.238
REMARK INTER:                  -6.591
REMARK INTRA:                  -1.646
REMARK UNBOUND:                -1.652
REMARK SMILES CCCCCCCCCCCCCCCCCCCCCCCC(=O)[O-]
REMARK SMILES IDX 13 1 14 2 15 3 16 4 17 5 18 6 19 7 20 8 21 9 22 10 23 11
REMARK SMILES IDX 24 12 25 13 26 14 12 15 11 16 10 17 9 18 8 19 7 20 6 21 5 22
REMARK SMILES IDX 4 23 3 24 2 25 1 26
REMARK H PARENT
REMARK Flexibility Score: inf
ROOT
ATOM      1  C   UNL     1       7.312  -6.004   5.175  1.00  0.00     0.000 C 
ENDROOT
BRANCH   1   2
ATOM      2  C   UNL     1       8.173  -6.107   3.901  1.00  0.00     0.000 C 
BRANCH   2   3
ATOM      3  C   UNL     1       8.925  -4.804   3.553  1.00  0.00     0.000 C 
BRANCH   3   4
ATOM      4  C   UNL     1      10.322  -5.071   2.966  1.00  0.00     0.000 C 
BRANCH   4   5
ATOM      5  C   UNL     1      10.645  -6.571   2.875  1.00  0.00     0.000 C 
BRANCH   5   6
ATOM      6  C   UNL     1      12.111  -6.878   3.235  1.00  0.00     0.000 C 
BRANCH   6   7
ATOM      7  C   UNL     1      12.561  -6.188   4.532  1.00  0.00     0.000 C 
BRANCH   7   8
ATOM      8  C   UNL     1      13.698  -5.177   4.303  1.00  0.00     0.000 C 
BRANCH   8   9
ATOM      9  C   UNL     1      14.558  -4.968   5.561  1.00  0.00     0.000 C 
BRANCH   9  10
ATOM     10  C   UNL     1      15.883  -5.747   5.504  1.00  0.00     0.006 C 
BRANCH  10  11
ATOM     11  C   UNL     1      16.200  -6.247   4.088  1.00  0.00     0.053 C 
BRANCH  11  12
ATOM     12  C   UNL     1      16.951  -7.544   4.111  1.00  0.00     0.041 C 
ATOM     13  O   UNL     1      16.714  -8.429   3.248  1.00  0.00    -0.550 OA
ATOM     14  O   UNL     1      17.933  -7.762   5.070  1.00  0.00    -0.550 OA
ENDBRANCH  11  12
ENDBRANCH  10  11
ENDBRANCH   9  10
ENDBRANCH   8   9
ENDBRANCH   7   8
ENDBRANCH   6   7
ENDBRANCH   5   6
ENDBRANCH   4   5
ENDBRANCH   3   4
ENDBRANCH   2   3
ENDBRANCH   1   2
BRANCH   1  15
ATOM     15  C   UNL     1       5.808  -6.254   4.964  1.00  0.00     0.000 C 
BRANCH  15  16
ATOM     16  C   UNL     1       5.153  -5.400   3.857  1.00  0.00     0.000 C 
BRANCH  16  17
ATOM     17  C   UNL     1       4.163  -4.333   4.358  1.00  0.00     0.000 C 
BRANCH  17  18
ATOM     18  C   UNL     1       3.071  -4.003   3.326  1.00  0.00    -0.000 C 
BRANCH  18  19
ATOM     19  C   UNL     1       1.900  -4.999   3.374  1.00  0.00    -0.000 C 
BRANCH  19  20
ATOM     20  C   UNL     1       2.284  -6.383   3.949  1.00  0.00    -0.000 C 
BRANCH  20  21
ATOM     21  C   UNL     1       1.945  -7.557   3.011  1.00  0.00    -0.000 C 
BRANCH  21  22
ATOM     22  C   UNL     1       2.353  -8.944   3.542  1.00  0.00    -0.000 C 
BRANCH  22  23
ATOM     23  C   UNL     1       3.867  -9.236   3.510  1.00  0.00    -0.000 C 
BRANCH  23  24
ATOM     24  C   UNL     1       4.490  -9.623   4.866  1.00  0.00    -0.000 C 
BRANCH  24  25
ATOM     25  C   UNL     1       3.762  -9.057   6.097  1.00  0.00    -0.003 C 
ATOM     26  C   UNL     1       4.685  -8.874   7.301  1.00  0.00     0.004 C 
ENDBRANCH  24  25
ENDBRANCH  23  24
ENDBRANCH  22  23
ENDBRANCH  21  22
ENDBRANCH  20  21
ENDBRANCH  19  20
ENDBRANCH  18  19
ENDBRANCH  17  18
ENDBRANCH  16  17
ENDBRANCH  15  16
ENDBRANCH   1  15
TORSDOF 22
ENDMDL
MODEL 3
REMARK VINA RESULT:    -2.839      2.119      3.873
REMARK INTER + INTRA:          -8.144
REMARK INTER:                  -6.158
REMARK INTRA:                  -1.986
REMARK UNBOUND:                -1.652
REMARK SMILES CCCCCCCCCCCCCCCCCCCCCCCC(=O)[O-]
REMARK SMILES IDX 13 1 14 2 15 3 16 4 17 5 18 6 19 7 20 8 21 9 22 10 23 11
REMARK SMILES IDX 24 12 25 13 26 14 12 15 11 16 10 17 9 18 8 19 7 20 6 21 5 22
REMARK SMILES IDX 4 23 3 24 2 25 1 26
REMARK H PARENT
REMARK Flexibility Score: inf
ROOT
ATOM      1  C   UNL     1      11.275  -6.100   4.621  1.00  0.00     0.000 C 
ENDROOT
BRANCH   1   2
ATOM      2  C   UNL     1      10.984  -5.271   3.356  1.00  0.00     0.000 C 
BRANCH   2   3
ATOM      3  C   UNL     1       9.502  -5.301   2.922  1.00  0.00     0.000 C 
BRANCH   3   4
ATOM      4  C   UNL     1       8.615  -6.081   3.909  1.00  0.00     0.000 C 
BRANCH   4   5
ATOM      5  C   UNL     1       7.186  -6.283   3.380  1.00  0.00     0.000 C 
BRANCH   5   6
ATOM      6  C   UNL     1       6.616  -7.667   3.744  1.00  0.00     0.000 C 
BRANCH   6   7
ATOM      7  C   UNL     1       5.205  -7.588   4.346  1.00  0.00     0.000 C 
BRANCH   7   8
ATOM      8  C   UNL     1       4.174  -6.997   3.368  1.00  0.00     0.000 C 
BRANCH   8   9
ATOM      9  C   UNL     1       2.730  -7.160   3.870  1.00  0.00     0.000 C 
BRANCH   9  10
ATOM     10  C   UNL     1       1.876  -5.905   3.622  1.00  0.00     0.006 C 
BRANCH  10  11
ATOM     11  C   UNL     1       2.699  -4.752   3.030  1.00  0.00     0.053 C 
BRANCH  11  12
ATOM     12  C   UNL     1       2.826  -3.609   3.991  1.00  0.00     0.041 C 
ATOM     13  O   UNL     1       3.500  -3.739   5.046  1.00  0.00    -0.550 OA
ATOM     14  O   UNL     1       2.223  -2.390   3.704  1.00  0.00    -0.550 OA
ENDBRANCH  11  12
ENDBRANCH  10  11
ENDBRANCH   9  10
ENDBRANCH   8   9
ENDBRANCH   7   8
ENDBRANCH   6   7
ENDBRANCH   5   6
ENDBRANCH   4   5
ENDBRANCH   3   4
ENDBRANCH   2   3
ENDBRANCH   1   2
BRANCH   1  15
ATOM     15  C   UNL     1      12.759  -6.443   4.844  1.00  0.00     0.000 C 
BRANCH  15  16
ATOM     16  C   UNL     1      13.636  -6.411   3.574  1.00  0.00     0.000 C 
BRANCH  16  17
ATOM     17  C   UNL     1      13.863  -7.779   2.905  1.00  0.00     0.000 C 
BRANCH  17  18
ATOM     18  C   UNL     1      13.010  -8.895   3.531  1.00  0.00    -0.000 C 
BRANCH  18  19
ATOM     19  C   UNL     1      13.868 -10.049   4.079  1.00  0.00    -0.000 C 
BRANCH  19  20
ATOM     20  C   UNL     1      15.304 -10.083   3.504  1.00  0.00    -0.000 C 
BRANCH  20  21
ATOM     21  C   UNL     1      16.384  -9.659   4.516  1.00  0.00    -0.000 C 
BRANCH  21  22
ATOM     22  C   UNL     1      17.719  -9.217   3.887  1.00  0.00    -0.000 C 
BRANCH  22  23
ATOM     23  C   UNL     1      17.850  -7.701   3.631  1.00  0.00    -0.000 C 
BRANCH  23  24
ATOM     24  C   UNL     1      17.079  -6.801   4.616  1.00  0.00    -0.000 C 
BRANCH  24  25
ATOM     25  C   UNL     1      17.100  -5.301   4.274  1.00  0.00    -0.003 C 
ATOM     26  C   UNL     1      17.651  -5.018   2.877  1.00  0.00     0.004 C 
ENDBRANCH  24  25
ENDBRANCH  23  24
ENDBRANCH  22  23
ENDBRANCH  21  22
ENDBRANCH  20  21
ENDBRANCH  19  20
ENDBRANCH  18  19
ENDBRANCH  17  18
ENDBRANCH  16  17
ENDBRANCH  15  16
ENDBRANCH   1  15
TORSDOF 22
ENDMDL
MODEL 4
REMARK VINA RESULT:    -2.466      3.746     11.271
REMARK INTER + INTRA:          -7.291
REMARK INTER:                  -6.601
REMARK INTRA:                  -0.690
REMARK UNBOUND:                -1.652
REMARK SMILES CCCCCCCCCCCCCCCCCCCCCCCC(=O)[O-]
REMARK SMILES IDX 13 1 14 2 15 3 16 4 17 5 18 6 19 7 20 8 21 9 22 10 23 11
REMARK SMILES IDX 24 12 25 13 26 14 12 15 11 16 10 17 9 18 8 19 7 20 6 21 5 22
REMARK SMILES IDX 4 23 3 24 2 25 1 26
REMARK H PARENT
REMARK Flexibility Score: inf
ROOT
ATOM      1  C   UNL     1      10.179  -5.558   3.559  1.00  0.00     0.000 C 
ENDROOT
BRANCH   1   2
ATOM      2  C   UNL     1      11.048  -6.042   4.737  1.00  0.00     0.000 C 
BRANCH   2   3
ATOM      3  C   UNL     1      12.492  -6.409   4.333  1.00  0.00     0.000 C 
BRANCH   3   4
ATOM      4  C   UNL     1      13.360  -5.167   4.060  1.00  0.00     0.000 C 
BRANCH   4   5
ATOM      5  C   UNL     1      14.472  -5.442   3.034  1.00  0.00     0.000 C 
BRANCH   5   6
ATOM      6  C   UNL     1      15.581  -6.347   3.601  1.00  0.00     0.000 C 
BRANCH   6   7
ATOM      7  C   UNL     1      16.992  -5.813   3.306  1.00  0.00     0.000 C 
BRANCH   7   8
ATOM      8  C   UNL     1      17.969  -6.921   2.875  1.00  0.00     0.000 C 
BRANCH   8   9
ATOM      9  C   UNL     1      18.288  -7.898   4.019  1.00  0.00     0.000 C 
BRANCH   9  10
ATOM     10  C   UNL     1      17.161  -8.918   4.253  1.00  0.00     0.006 C 
BRANCH  10  11
ATOM     11  C   UNL     1      17.268  -9.595   5.626  1.00  0.00     0.053 C 
BRANCH  11  12
ATOM     12  C   UNL     1      17.520  -8.601   6.719  1.00  0.00     0.041 C 
ATOM     13  O   UNL     1      18.016  -8.975   7.814  1.00  0.00    -0.550 OA
ATOM     14  O   UNL     1      17.234  -7.256   6.515  1.00  0.00    -0.550 OA
ENDBRANCH  11  12
ENDBRANCH  10  11
ENDBRANCH   9  10
ENDBRANCH   8   9
ENDBRANCH   7   8
ENDBRANCH   6   7
ENDBRANCH   5   6
ENDBRANCH   4   5
ENDBRANCH   3   4
ENDBRANCH   2   3
ENDBRANCH   1   2
BRANCH   1  15
ATOM     15  C   UNL     1       8.798  -5.007   3.956  1.00  0.00     0.000 C 
BRANCH  15  16
ATOM     16  C   UNL     1       7.595  -5.737   3.322  1.00  0.00     0.000 C 
BRANCH  16  17
ATOM     17  C   UNL     1       6.562  -6.282   4.324  1.00  0.00     0.000 C 
BRANCH  17  18
ATOM     18  C   UNL     1       7.091  -7.480   5.131  1.00  0.00    -0.000 C 
BRANCH  18  19
ATOM     19  C   UNL     1       5.959  -8.392   5.634  1.00  0.00    -0.000 C 
BRANCH  19  20
ATOM     20  C   UNL     1       5.328  -9.268   4.526  1.00  0.00    -0.000 C 
BRANCH  20  21
ATOM     21  C   UNL     1       3.833  -9.563   4.749  1.00  0.00    -0.000 C 
BRANCH  21  22
ATOM     22  C   UNL     1       2.918  -8.324   4.709  1.00  0.00    -0.000 C 
BRANCH  22  23
ATOM     23  C   UNL     1       2.708  -7.712   3.309  1.00  0.00    -0.000 C 
BRANCH  23  24
ATOM     24  C   UNL     1       3.434  -6.375   3.062  1.00  0.00    -0.000 C 
BRANCH  24  25
ATOM     25  C   UNL     1       3.010  -5.228   3.995  1.00  0.00    -0.003 C 
ATOM     26  C   UNL     1       2.326  -4.080   3.253  1.00  0.00     0.004 C 
ENDBRANCH  24  25
ENDBRANCH  23  24
ENDBRANCH  22  23
ENDBRANCH  21  22
ENDBRANCH  20  21
ENDBRANCH  19  20
ENDBRANCH  18  19
ENDBRANCH  17  18
ENDBRANCH  16  17
ENDBRANCH  15  16
ENDBRANCH   1  15
TORSDOF 22
ENDMDL
MODEL 5
REMARK VINA RESULT:    -1.931      3.390     11.269
REMARK INTER + INTRA:          -6.067
REMARK INTER:                  -4.210
REMARK INTRA:                  -1.857
REMARK UNBOUND:                -1.652
REMARK SMILES CCCCCCCCCCCCCCCCCCCCCCCC(=O)[O-]
REMARK SMILES IDX 13 1 14 2 15 3 16 4 17 5 18 6 19 7 20 8 21 9 22 10 23 11
REMARK SMILES IDX 24 12 25 13 26 14 12 15 11 16 10 17 9 18 8 19 7 20 6 21 5 22
REMARK SMILES IDX 4 23 3 24 2 25 1 26
REMARK H PARENT
REMARK Flexibility Score: inf
ROOT
ATOM      1  C   UNL     1      12.735  -6.324   3.930  1.00  0.00     0.000 C 
ENDROOT
BRANCH   1   2
ATOM      2  C   UNL     1      12.746  -6.370   5.470  1.00  0.00     0.000 C 
BRANCH   2   3
ATOM      3  C   UNL     1      13.844  -5.493   6.109  1.00  0.00     0.000 C 
BRANCH   3   4
ATOM      4  C   UNL     1      15.093  -5.371   5.218  1.00  0.00     0.000 C 
BRANCH   4   5
ATOM      5  C   UNL     1      16.396  -5.330   6.035  1.00  0.00     0.000 C 
BRANCH   5   6
ATOM      6  C   UNL     1      17.608  -4.912   5.183  1.00  0.00     0.000 C 
BRANCH   6   7
ATOM      7  C   UNL     1      17.299  -4.895   3.678  1.00  0.00     0.000 C 
BRANCH   7   8
ATOM      8  C   UNL     1      18.183  -5.867   2.878  1.00  0.00     0.000 C 
BRANCH   8   9
ATOM      9  C   UNL     1      18.340  -7.227   3.579  1.00  0.00     0.000 C 
BRANCH   9  10
ATOM     10  C   UNL     1      17.552  -8.345   2.875  1.00  0.00     0.006 C 
BRANCH  10  11
ATOM     11  C   UNL     1      16.051  -8.281   3.189  1.00  0.00     0.053 C 
BRANCH  11  12
ATOM     12  C   UNL     1      15.621  -9.403   4.085  1.00  0.00     0.041 C 
ATOM     13  O   UNL     1      14.409  -9.738   4.144  1.00  0.00    -0.550 OA
ATOM     14  O   UNL     1      16.565 -10.096   4.833  1.00  0.00    -0.550 OA
ENDBRANCH  11  12
ENDBRANCH  10  11
ENDBRANCH   9  10
ENDBRANCH   8   9
ENDBRANCH   7   8
ENDBRANCH   6   7
ENDBRANCH   5   6
ENDBRANCH   4   5
ENDBRANCH   3   4
ENDBRANCH   2   3
ENDBRANCH   1   2
BRANCH   1  15
ATOM     15  C   UNL     1      11.493  -5.661   3.309  1.00  0.00     0.000 C 
BRANCH  15  16
ATOM     16  C   UNL     1      10.233  -5.669   4.201  1.00  0.00     0.000 C 
BRANCH  16  17
ATOM     17  C   UNL     1       8.898  -5.760   3.441  1.00  0.00     0.000 C 
BRANCH  17  18
ATOM     18  C   UNL     1       8.382  -7.203   3.316  1.00  0.00    -0.000 C 
BRANCH  18  19
ATOM     19  C   UNL     1       6.973  -7.376   3.908  1.00  0.00    -0.000 C 
BRANCH  19  20
ATOM     20  C   UNL     1       5.838  -6.980   2.934  1.00  0.00    -0.000 C 
BRANCH  20  21
ATOM     21  C   UNL     1       4.609  -6.369   3.634  1.00  0.00    -0.000 C 
BRANCH  21  22
ATOM     22  C   UNL     1       4.770  -4.895   4.050  1.00  0.00    -0.000 C 
BRANCH  22  23
ATOM     23  C   UNL     1       3.576  -4.301   4.827  1.00  0.00    -0.000 C 
BRANCH  23  24
ATOM     24  C   UNL     1       2.273  -4.159   4.017  1.00  0.00    -0.000 C 
BRANCH  24  25
ATOM     25  C   UNL     1       2.326  -3.122   2.883  1.00  0.00    -0.003 C 
ATOM     26  C   UNL     1       2.023  -1.702   3.362  1.00  0.00     0.004 C 
ENDBRANCH  24  25
ENDBRANCH  23  24
ENDBRANCH  22  23
ENDBRANCH  21  22
ENDBRANCH  20  21
ENDBRANCH  19  20
ENDBRANCH  18  19
ENDBRANCH  17  18
ENDBRANCH  16  17
ENDBRANCH  15  16
ENDBRANCH   1  15
TORSDOF 22
ENDMDL
MODEL 6
REMARK VINA RESULT:    -1.914      1.714      3.239
REMARK INTER + INTRA:          -6.029
REMARK INTER:                  -5.189
REMARK INTRA:                  -0.839
REMARK UNBOUND:                -1.652
REMARK SMILES CCCCCCCCCCCCCCCCCCCCCCCC(=O)[O-]
REMARK SMILES IDX 13 1 14 2 15 3 16 4 17 5 18 6 19 7 20 8 21 9 22 10 23 11
REMARK SMILES IDX 24 12 25 13 26 14 12 15 11 16 10 17 9 18 8 19 7 20 6 21 5 22
REMARK SMILES IDX 4 23 3 24 2 25 1 26
REMARK H PARENT
REMARK Flexibility Score: inf
ROOT
ATOM      1  C   UNL     1      11.492  -5.333   3.683  1.00  0.00     0.000 C 
ENDROOT
BRANCH   1   2
ATOM      2  C   UNL     1      10.097  -5.898   4.013  1.00  0.00     0.000 C 
BRANCH   2   3
ATOM      3  C   UNL     1       9.041  -5.624   2.920  1.00  0.00     0.000 C 
BRANCH   3   4
ATOM      4  C   UNL     1       8.211  -4.360   3.206  1.00  0.00     0.000 C 
BRANCH   4   5
ATOM      5  C   UNL     1       6.711  -4.571   2.943  1.00  0.00     0.000 C 
BRANCH   5   6
ATOM      6  C   UNL     1       6.323  -6.061   2.923  1.00  0.00     0.000 C 
BRANCH   6   7
ATOM      7  C   UNL     1       5.682  -6.525   4.241  1.00  0.00     0.000 C 
BRANCH   7   8
ATOM      8  C   UNL     1       6.719  -7.012   5.268  1.00  0.00     0.000 C 
BRANCH   8   9
ATOM      9  C   UNL     1       6.334  -8.362   5.894  1.00  0.00     0.000 C 
BRANCH   9  10
ATOM     10  C   UNL     1       5.326  -9.143   5.033  1.00  0.00     0.006 C 
BRANCH  10  11
ATOM     11  C   UNL     1       3.875  -8.744   5.336  1.00  0.00     0.053 C 
BRANCH  11  12
ATOM     12  C   UNL     1       2.985  -8.937   4.145  1.00  0.00     0.041 C 
ATOM     13  O   UNL     1       2.015  -9.737   4.202  1.00  0.00    -0.550 OA
ATOM     14  O   UNL     1       3.212  -8.211   2.982  1.00  0.00    -0.550 OA
ENDBRANCH  11  12
ENDBRANCH  10  11
ENDBRANCH   9  10
ENDBRANCH   8   9
ENDBRANCH   7   8
ENDBRANCH   6   7
ENDBRANCH   5   6
ENDBRANCH   4   5
ENDBRANCH   3   4
ENDBRANCH   2   3
ENDBRANCH   1   2
BRANCH   1  15
ATOM     15  C   UNL     1      12.634  -6.365   3.721  1.00  0.00     0.000 C 
BRANCH  15  16
ATOM     16  C   UNL     1      12.289  -7.745   3.122  1.00  0.00     0.000 C 
BRANCH  16  17
ATOM     17  C   UNL     1      13.495  -8.668   2.875  1.00  0.00     0.000 C 
BRANCH  17  18
ATOM     18  C   UNL     1      14.543  -8.591   3.999  1.00  0.00    -0.000 C 
BRANCH  18  19
ATOM     19  C   UNL     1      15.784  -9.450   3.702  1.00  0.00    -0.000 C 
BRANCH  19  20
ATOM     20  C   UNL     1      17.122  -8.724   3.979  1.00  0.00    -0.000 C 
BRANCH  20  21
ATOM     21  C   UNL     1      17.385  -7.534   3.037  1.00  0.00    -0.000 C 
BRANCH  21  22
ATOM     22  C   UNL     1      16.300  -6.441   3.060  1.00  0.00    -0.000 C 
BRANCH  22  23
ATOM     23  C   UNL     1      16.547  -5.297   4.065  1.00  0.00    -0.000 C 
BRANCH  23  24
ATOM     24  C   UNL     1      16.806  -5.744   5.517  1.00  0.00    -0.000 C 
BRANCH  24  25
ATOM     25  C   UNL     1      15.900  -5.082   6.569  1.00  0.00    -0.003 C 
ATOM     26  C   UNL     1      14.415  -5.358   6.333  1.00  0.00     0.004 C 
ENDBRANCH  24  25
ENDBRANCH  23  24
ENDBRANCH  22  23
ENDBRANCH  21  22
ENDBRANCH  20  21
ENDBRANCH  19  20
ENDBRANCH  18  19
ENDBRANCH  17  18
ENDBRANCH  16  17
ENDBRANCH  15  16
ENDBRANCH   1  15
TORSDOF 22
ENDMDL
MODEL 7
REMARK VINA RESULT:    -1.895      3.479     10.951
REMARK INTER + INTRA:          -5.986
REMARK INTER:                  -5.920
REMARK INTRA:                  -0.066
REMARK UNBOUND:                -1.652
REMARK SMILES CCCCCCCCCCCCCCCCCCCCCCCC(=O)[O-]
REMARK SMILES IDX 13 1 14 2 15 3 16 4 17 5 18 6 19 7 20 8 21 9 22 10 23 11
REMARK SMILES IDX 24 12 25 13 26 14 12 15 11 16 10 17 9 18 8 19 7 20 6 21 5 22
REMARK SMILES IDX 4 23 3 24 2 25 1 26
REMARK H PARENT
REMARK Flexibility Score: inf
ROOT
ATOM      1  C   UNL     1      13.635  -7.344   3.513  1.00  0.00     0.000 C 
ENDROOT
BRANCH   1   2
ATOM      2  C   UNL     1      13.114  -8.705   3.012  1.00  0.00     0.000 C 
BRANCH   2   3
ATOM      3  C   UNL     1      13.762  -9.915   3.719  1.00  0.00     0.000 C 
BRANCH   3   4
ATOM      4  C   UNL     1      15.132  -9.575   4.333  1.00  0.00     0.000 C 
BRANCH   4   5
ATOM      5  C   UNL     1      16.302 -10.072   3.469  1.00  0.00     0.000 C 
BRANCH   5   6
ATOM      6  C   UNL     1      17.128  -8.914   2.879  1.00  0.00     0.000 C 
BRANCH   6   7
ATOM      7  C   UNL     1      17.625  -7.933   3.951  1.00  0.00     0.000 C 
BRANCH   7   8
ATOM      8  C   UNL     1      18.261  -6.667   3.350  1.00  0.00     0.000 C 
BRANCH   8   9
ATOM      9  C   UNL     1      17.208  -5.652   2.875  1.00  0.00     0.000 C 
BRANCH   9  10
ATOM     10  C   UNL     1      16.051  -5.493   3.877  1.00  0.00     0.006 C 
BRANCH  10  11
ATOM     11  C   UNL     1      16.360  -6.154   5.227  1.00  0.00     0.053 C 
BRANCH  11  12
ATOM     12  C   UNL     1      16.020  -5.256   6.378  1.00  0.00     0.041 C 
ATOM     13  O   UNL     1      14.819  -4.972   6.627  1.00  0.00    -0.550 OA
ATOM     14  O   UNL     1      17.030  -4.755   7.191  1.00  0.00    -0.550 OA
ENDBRANCH  11  12
ENDBRANCH  10  11
ENDBRANCH   9  10
ENDBRANCH   8   9
ENDBRANCH   7   8
ENDBRANCH   6   7
ENDBRANCH   5   6
ENDBRANCH   4   5
ENDBRANCH   3   4
ENDBRANCH   2   3
ENDBRANCH   1   2
BRANCH   1  15
ATOM     15  C   UNL     1      12.960  -6.117   2.875  1.00  0.00     0.000 C 
BRANCH  15  16
ATOM     16  C   UNL     1      11.809  -5.501   3.699  1.00  0.00     0.000 C 
BRANCH  16  17
ATOM     17  C   UNL     1      10.396  -5.795   3.164  1.00  0.00     0.000 C 
BRANCH  17  18
ATOM     18  C   UNL     1       9.322  -4.894   3.797  1.00  0.00    -0.000 C 
BRANCH  18  19
ATOM     19  C   UNL     1       7.906  -5.478   3.649  1.00  0.00    -0.000 C 
BRANCH  19  20
ATOM     20  C   UNL     1       7.708  -6.821   4.391  1.00  0.00    -0.000 C 
BRANCH  20  21
ATOM     21  C   UNL     1       6.657  -6.757   5.515  1.00  0.00    -0.000 C 
BRANCH  21  22
ATOM     22  C   UNL     1       5.195  -6.732   5.030  1.00  0.00    -0.000 C 
BRANCH  22  23
ATOM     23  C   UNL     1       4.555  -5.330   4.954  1.00  0.00    -0.000 C 
BRANCH  23  24
ATOM     24  C   UNL     1       3.414  -5.185   3.928  1.00  0.00    -0.000 C 
BRANCH  24  25
ATOM     25  C   UNL     1       2.616  -3.874   4.031  1.00  0.00    -0.003 C 
ATOM     26  C   UNL     1       2.915  -2.906   2.887  1.00  0.00     0.004 C 
ENDBRANCH  24  25
ENDBRANCH  23  24
ENDBRANCH  22  23
ENDBRANCH  21  22
ENDBRANCH  20  21
ENDBRANCH  19  20
ENDBRANCH  18  19
ENDBRANCH  17  18
ENDBRANCH  16  17
ENDBRANCH  15  16
ENDBRANCH   1  15
TORSDOF 22
ENDMDL
MODEL 8
REMARK VINA RESULT:    -1.734      1.207      3.556
REMARK INTER + INTRA:          -5.616
REMARK INTER:                  -4.715
REMARK INTRA:                  -0.901
REMARK UNBOUND:                -1.652
REMARK SMILES CCCCCCCCCCCCCCCCCCCCCCCC(=O)[O-]
REMARK SMILES IDX 13 1 14 2 15 3 16 4 17 5 18 6 19 7 20 8 21 9 22 10 23 11
REMARK SMILES IDX 24 12 25 13 26 14 12 15 11 16 10 17 9 18 8 19 7 20 6 21 5 22
REMARK SMILES IDX 4 23 3 24 2 25 1 26
REMARK H PARENT
REMARK Flexibility Score: inf
ROOT
ATOM      1  C   UNL     1      12.682  -6.750   3.666  1.00  0.00     0.000 C 
ENDROOT
BRANCH   1   2
ATOM      2  C   UNL     1      11.407  -6.337   2.906  1.00  0.00     0.000 C 
BRANCH   2   3
ATOM      3  C   UNL     1      10.557  -5.281   3.645  1.00  0.00     0.000 C 
BRANCH   3   4
ATOM      4  C   UNL     1       9.046  -5.532   3.496  1.00  0.00     0.000 C 
BRANCH   4   5
ATOM      5  C   UNL     1       8.735  -6.934   2.947  1.00  0.00     0.000 C 
BRANCH   5   6
ATOM      6  C   UNL     1       7.360  -7.452   3.407  1.00  0.00     0.000 C 
BRANCH   6   7
ATOM      7  C   UNL     1       7.050  -7.094   4.869  1.00  0.00     0.000 C 
BRANCH   7   8
ATOM      8  C   UNL     1       5.664  -6.448   5.041  1.00  0.00     0.000 C 
BRANCH   8   9
ATOM      9  C   UNL     1       4.712  -6.788   3.883  1.00  0.00     0.000 C 
BRANCH   9  10
ATOM     10  C   UNL     1       3.405  -7.439   4.368  1.00  0.00     0.006 C 
BRANCH  10  11
ATOM     11  C   UNL     1       3.583  -8.931   4.679  1.00  0.00     0.053 C 
BRANCH  11  12
ATOM     12  C   UNL     1       3.997  -9.158   6.102  1.00  0.00     0.041 C 
ATOM     13  O   UNL     1       3.146  -9.502   6.963  1.00  0.00    -0.550 OA
ATOM     14  O   UNL     1       5.330  -9.015   6.468  1.00  0.00    -0.550 OA
ENDBRANCH  11  12
ENDBRANCH  10  11
ENDBRANCH   9  10
ENDBRANCH   8   9
ENDBRANCH   7   8
ENDBRANCH   6   7
ENDBRANCH   5   6
ENDBRANCH   4   5
ENDBRANCH   3   4
ENDBRANCH   2   3
ENDBRANCH   1   2
BRANCH   1  15
ATOM     15  C   UNL     1      13.645  -7.652   2.875  1.00  0.00     0.000 C 
BRANCH  15  16
ATOM     16  C   UNL     1      13.551  -9.157   3.204  1.00  0.00     0.000 C 
BRANCH  16  17
ATOM     17  C   UNL     1      14.365  -9.609   4.429  1.00  0.00     0.000 C 
BRANCH  17  18
ATOM     18  C   UNL     1      15.793 -10.050   4.064  1.00  0.00    -0.000 C 
BRANCH  18  19
ATOM     19  C   UNL     1      16.508  -9.031   3.161  1.00  0.00    -0.000 C 
BRANCH  19  20
ATOM     20  C   UNL     1      17.399  -8.032   3.937  1.00  0.00    -0.000 C 
BRANCH  20  21
ATOM     21  C   UNL     1      17.900  -6.855   3.079  1.00  0.00    -0.000 C 
BRANCH  21  22
ATOM     22  C   UNL     1      16.877  -5.719   2.883  1.00  0.00    -0.000 C 
BRANCH  22  23
ATOM     23  C   UNL     1      16.534  -4.923   4.160  1.00  0.00    -0.000 C 
BRANCH  23  24
ATOM     24  C   UNL     1      15.547  -5.616   5.119  1.00  0.00    -0.000 C 
BRANCH  24  25
ATOM     25  C   UNL     1      15.821  -5.376   6.613  1.00  0.00    -0.003 C 
ATOM     26  C   UNL     1      17.179  -4.725   6.871  1.00  0.00     0.004 C 
ENDBRANCH  24  25
ENDBRANCH  23  24
ENDBRANCH  22  23
ENDBRANCH  21  22
ENDBRANCH  20  21
ENDBRANCH  19  20
ENDBRANCH  18  19
ENDBRANCH  17  18
ENDBRANCH  16  17
ENDBRANCH  15  16
ENDBRANCH   1  15
TORSDOF 22
ENDMDL
