MODEL 1
REMARK VINA RESULT:    -6.247      0.000      0.000
REMARK INTER + INTRA:          -7.834
REMARK INTER:                  -7.525
REMARK INTRA:                  -0.309
REMARK UNBOUND:                -0.309
REMARK SMILES O=c1c(O)c(-c2ccc(O)c(O)c2)oc2cc(O)cc(O)c12
REMARK SMILES IDX 5 1 3 2 2 3 1 4 22 5 20 6 19 7 17 8 16 9 15 10 14 11 6 12
REMARK SMILES IDX 7 13 8 14 9 15 13 16 11 17 10 18 12 20 4 22 21 24 18 26
REMARK H PARENT 10 19 12 21 4 23 21 25 18 27
REMARK Flexibility Score: inf
ROOT
ATOM      1  C   UNL     1     253.431 -24.351  46.848  1.00  0.00     0.180 A 
ATOM      2  C   UNL     1     252.537 -23.444  46.254  1.00  0.00     0.208 A 
ATOM      3  C   UNL     1     252.641 -23.187  44.878  1.00  0.00     0.238 A 
ATOM      4  O   UNL     1     251.886 -22.319  44.368  1.00  0.00    -0.285 OA
ATOM      5  C   UNL     1     253.600 -23.883  44.101  1.00  0.00     0.111 A 
ATOM      6  C   UNL     1     253.764 -23.734  42.691  1.00  0.00     0.134 A 
ATOM      7  C   UNL     1     254.818 -24.395  42.045  1.00  0.00     0.093 A 
ATOM      8  C   UNL     1     255.672 -25.245  42.745  1.00  0.00     0.123 A 
ATOM      9  C   UNL     1     255.487 -25.440  44.114  1.00  0.00     0.094 A 
ATOM     10  C   UNL     1     254.469 -24.766  44.794  1.00  0.00     0.146 A 
ATOM     11  O   UNL     1     254.341 -24.964  46.100  1.00  0.00    -0.452 OA
ENDROOT
BRANCH   1  12
ATOM     12  C   UNL     1     253.394 -24.663  48.295  1.00  0.00     0.025 A 
ATOM     13  C   UNL     1     252.493 -25.630  48.770  1.00  0.00     0.016 A 
ATOM     14  C   UNL     1     252.454 -25.954  50.128  1.00  0.00     0.051 A 
ATOM     15  C   UNL     1     253.327 -25.328  51.028  1.00  0.00     0.157 A 
ATOM     16  C   UNL     1     254.281 -24.052  49.199  1.00  0.00     0.062 A 
ATOM     17  C   UNL     1     254.245 -24.380  50.563  1.00  0.00     0.158 A 
BRANCH  15  18
ATOM     18  O   UNL     1     253.291 -25.648  52.384  1.00  0.00    -0.504 OA
ATOM     19  H   UNL     1     253.798 -25.103  53.072  1.00  0.00     0.293 HD
ENDBRANCH  15  18
BRANCH  17  20
ATOM     20  O   UNL     1     255.121 -23.769  51.459  1.00  0.00    -0.504 OA
ATOM     21  H   UNL     1     255.215 -22.761  51.505  1.00  0.00     0.293 HD
ENDBRANCH  17  20
ENDBRANCH   1  12
BRANCH   2  22
ATOM     22  O   UNL     1     251.547 -22.827  47.023  1.00  0.00    -0.502 OA
ATOM     23  H   UNL     1     251.532 -21.828  47.191  1.00  0.00     0.293 HD
ENDBRANCH   2  22
BRANCH   6  24
ATOM     24  O   UNL     1     252.914 -22.980  41.878  1.00  0.00    -0.507 OA
ATOM     25  H   UNL     1     252.664 -23.212  40.929  1.00  0.00     0.293 HD
ENDBRANCH   6  24
BRANCH   8  26
ATOM     26  O   UNL     1     256.698 -25.899  42.067  1.00  0.00    -0.508 OA
ATOM     27  H   UNL     1     257.631 -25.507  42.013  1.00  0.00     0.293 HD
ENDBRANCH   8  26
TORSDOF 6
ENDMDL
MODEL 2
REMARK VINA RESULT:    -6.189      0.733      1.449
REMARK INTER + INTRA:          -7.764
REMARK INTER:                  -7.441
REMARK INTRA:                  -0.323
REMARK UNBOUND:                -0.309
REMARK SMILES O=c1c(O)c(-c2ccc(O)c(O)c2)oc2cc(O)cc(O)c12
REMARK SMILES IDX 5 1 3 2 2 3 1 4 22 5 20 6 19 7 17 8 16 9 15 10 14 11 6 12
REMARK SMILES IDX 7 13 8 14 9 15 13 16 11 17 10 18 12 20 4 22 21 24 18 26
REMARK H PARENT 10 19 12 21 4 23 21 25 18 27
REMARK Flexibility Score: inf
ROOT
ATOM      1  C   UNL     1     253.584 -24.357  47.030  1.00  0.00     0.180 A 
ATOM      2  C   UNL     1     252.487 -23.626  46.542  1.00  0.00     0.208 A 
ATOM      3  C   UNL     1     252.353 -23.441  45.157  1.00  0.00     0.238 A 
ATOM      4  O   UNL     1     251.410 -22.724  44.733  1.00  0.00    -0.285 OA
ATOM      5  C   UNL     1     253.284 -24.037  44.272  1.00  0.00     0.111 A 
ATOM      6  C   UNL     1     253.220 -23.953  42.849  1.00  0.00     0.134 A 
ATOM      7  C   UNL     1     254.258 -24.494  42.078  1.00  0.00     0.093 A 
ATOM      8  C   UNL     1     255.323 -25.168  42.674  1.00  0.00     0.123 A 
ATOM      9  C   UNL     1     255.367 -25.303  44.062  1.00  0.00     0.094 A 
ATOM     10  C   UNL     1     254.367 -24.742  44.860  1.00  0.00     0.146 A 
ATOM     11  O   UNL     1     254.459 -24.876  46.178  1.00  0.00    -0.452 OA
ENDROOT
BRANCH   1  12
ATOM     12  C   UNL     1     253.802 -24.581  48.477  1.00  0.00     0.025 A 
ATOM     13  C   UNL     1     254.548 -23.647  49.215  1.00  0.00     0.016 A 
ATOM     14  C   UNL     1     254.750 -23.828  50.586  1.00  0.00     0.051 A 
ATOM     15  C   UNL     1     254.195 -24.936  51.240  1.00  0.00     0.157 A 
ATOM     16  C   UNL     1     253.231 -25.680  49.142  1.00  0.00     0.062 A 
ATOM     17  C   UNL     1     253.430 -25.860  50.520  1.00  0.00     0.158 A 
BRANCH  15  18
ATOM     18  O   UNL     1     254.395 -25.120  52.607  1.00  0.00    -0.504 OA
ATOM     19  H   UNL     1     255.231 -24.784  53.071  1.00  0.00     0.293 HD
ENDBRANCH  15  18
BRANCH  17  20
ATOM     20  O   UNL     1     252.868 -26.954  51.176  1.00  0.00    -0.504 OA
ATOM     21  H   UNL     1     252.336 -26.843  52.032  1.00  0.00     0.293 HD
ENDBRANCH  17  20
ENDBRANCH   1  12
BRANCH   2  22
ATOM     22  O   UNL     1     251.535 -23.111  47.427  1.00  0.00    -0.502 OA
ATOM     23  H   UNL     1     250.540 -23.232  47.286  1.00  0.00     0.293 HD
ENDBRANCH   2  22
BRANCH   6  24
ATOM     24  O   UNL     1     252.158 -23.380  42.145  1.00  0.00    -0.507 OA
ATOM     25  H   UNL     1     251.294 -23.063  42.558  1.00  0.00     0.293 HD
ENDBRANCH   6  24
BRANCH   8  26
ATOM     26  O   UNL     1     256.328 -25.707  41.875  1.00  0.00    -0.508 OA
ATOM     27  H   UNL     1     257.306 -25.634  42.132  1.00  0.00     0.293 HD
ENDBRANCH   8  26
TORSDOF 6
ENDMDL
MODEL 3
REMARK VINA RESULT:    -6.160     13.298     14.878
REMARK INTER + INTRA:          -7.729
REMARK INTER:                  -7.398
REMARK INTRA:                  -0.331
REMARK UNBOUND:                -0.309
REMARK SMILES O=c1c(O)c(-c2ccc(O)c(O)c2)oc2cc(O)cc(O)c12
REMARK SMILES IDX 5 1 3 2 2 3 1 4 22 5 20 6 19 7 17 8 16 9 15 10 14 11 6 12
REMARK SMILES IDX 7 13 8 14 9 15 13 16 11 17 10 18 12 20 4 22 21 24 18 26
REMARK H PARENT 10 19 12 21 4 23 21 25 18 27
REMARK Flexibility Score: inf
ROOT
ATOM      1  C   UNL     1     262.231 -28.007  57.499  1.00  0.00     0.180 A 
ATOM      2  C   UNL     1     262.102 -27.226  56.337  1.00  0.00     0.208 A 
ATOM      3  C   UNL     1     263.086 -27.320  55.340  1.00  0.00     0.238 A 
ATOM      4  O   UNL     1     263.003 -26.564  54.338  1.00  0.00    -0.285 OA
ATOM      5  C   UNL     1     264.157 -28.235  55.490  1.00  0.00     0.111 A 
ATOM      6  C   UNL     1     265.186 -28.446  54.523  1.00  0.00     0.134 A 
ATOM      7  C   UNL     1     266.254 -29.300  54.827  1.00  0.00     0.093 A 
ATOM      8  C   UNL     1     266.298 -29.998  56.033  1.00  0.00     0.123 A 
ATOM      9  C   UNL     1     265.270 -29.841  56.962  1.00  0.00     0.094 A 
ATOM     10  C   UNL     1     264.210 -28.967  56.705  1.00  0.00     0.146 A 
ATOM     11  O   UNL     1     263.264 -28.832  57.626  1.00  0.00    -0.452 OA
ENDROOT
BRANCH   1  12
ATOM     12  C   UNL     1     261.244 -27.952  58.600  1.00  0.00     0.025 A 
ATOM     13  C   UNL     1     260.163 -28.848  58.603  1.00  0.00     0.016 A 
ATOM     14  C   UNL     1     259.230 -28.828  59.643  1.00  0.00     0.051 A 
ATOM     15  C   UNL     1     259.373 -27.922  60.702  1.00  0.00     0.157 A 
ATOM     16  C   UNL     1     261.394 -27.058  59.676  1.00  0.00     0.062 A 
ATOM     17  C   UNL     1     260.459 -27.040  60.721  1.00  0.00     0.158 A 
BRANCH  15  18
ATOM     18  O   UNL     1     258.443 -27.898  61.740  1.00  0.00    -0.504 OA
ATOM     19  H   UNL     1     257.689 -28.572  61.792  1.00  0.00     0.293 HD
ENDBRANCH  15  18
BRANCH  17  20
ATOM     20  O   UNL     1     260.606 -26.149  61.783  1.00  0.00    -0.504 OA
ATOM     21  H   UNL     1     259.833 -25.926  62.400  1.00  0.00     0.293 HD
ENDBRANCH  17  20
ENDBRANCH   1  12
BRANCH   2  22
ATOM     22  O   UNL     1     260.997 -26.386  56.173  1.00  0.00    -0.502 OA
ATOM     23  H   UNL     1     260.486 -26.000  56.958  1.00  0.00     0.293 HD
ENDBRANCH   2  22
BRANCH   6  24
ATOM     24  O   UNL     1     265.195 -27.868  53.251  1.00  0.00    -0.507 OA
ATOM     25  H   UNL     1     265.901 -27.234  52.908  1.00  0.00     0.293 HD
ENDBRANCH   6  24
BRANCH   8  26
ATOM     26  O   UNL     1     267.367 -30.852  56.293  1.00  0.00    -0.508 OA
ATOM     27  H   UNL     1     267.233 -31.743  56.758  1.00  0.00     0.293 HD
ENDBRANCH   8  26
TORSDOF 6
ENDMDL
MODEL 4
REMARK VINA RESULT:    -6.109     13.270     14.825
REMARK INTER + INTRA:          -7.668
REMARK INTER:                  -7.430
REMARK INTRA:                  -0.238
REMARK UNBOUND:                -0.309
REMARK SMILES O=c1c(O)c(-c2ccc(O)c(O)c2)oc2cc(O)cc(O)c12
REMARK SMILES IDX 5 1 3 2 2 3 1 4 22 5 20 6 19 7 17 8 16 9 15 10 14 11 6 12
REMARK SMILES IDX 7 13 8 14 9 15 13 16 11 17 10 18 12 20 4 22 21 24 18 26
REMARK H PARENT 10 19 12 21 4 23 21 25 18 27
REMARK Flexibility Score: inf
ROOT
ATOM      1  C   UNL     1     262.145 -27.873  57.595  1.00  0.00     0.180 A 
ATOM      2  C   UNL     1     262.010 -27.120  56.416  1.00  0.00     0.208 A 
ATOM      3  C   UNL     1     262.990 -27.236  55.417  1.00  0.00     0.238 A 
ATOM      4  O   UNL     1     262.901 -26.504  54.398  1.00  0.00    -0.285 OA
ATOM      5  C   UNL     1     264.063 -28.146  55.583  1.00  0.00     0.111 A 
ATOM      6  C   UNL     1     265.088 -28.377  54.617  1.00  0.00     0.134 A 
ATOM      7  C   UNL     1     266.158 -29.223  54.936  1.00  0.00     0.093 A 
ATOM      8  C   UNL     1     266.209 -29.892  56.158  1.00  0.00     0.123 A 
ATOM      9  C   UNL     1     265.184 -29.715  57.088  1.00  0.00     0.094 A 
ATOM     10  C   UNL     1     264.122 -28.849  56.815  1.00  0.00     0.146 A 
ATOM     11  O   UNL     1     263.179 -28.693  57.736  1.00  0.00    -0.452 OA
ENDROOT
BRANCH   1  12
ATOM     12  C   UNL     1     261.162 -27.794  58.699  1.00  0.00     0.025 A 
ATOM     13  C   UNL     1     261.498 -27.100  59.873  1.00  0.00     0.016 A 
ATOM     14  C   UNL     1     260.578 -26.995  60.919  1.00  0.00     0.051 A 
ATOM     15  C   UNL     1     259.305 -27.568  60.801  1.00  0.00     0.157 A 
ATOM     16  C   UNL     1     259.876 -28.350  58.576  1.00  0.00     0.062 A 
ATOM     17  C   UNL     1     258.951 -28.241  59.626  1.00  0.00     0.158 A 
BRANCH  15  18
ATOM     18  O   UNL     1     258.386 -27.466  61.843  1.00  0.00    -0.504 OA
ATOM     19  H   UNL     1     258.358 -28.146  62.594  1.00  0.00     0.293 HD
ENDBRANCH  15  18
BRANCH  17  20
ATOM     20  O   UNL     1     257.679 -28.799  59.505  1.00  0.00    -0.504 OA
ATOM     21  H   UNL     1     257.071 -28.569  58.728  1.00  0.00     0.293 HD
ENDBRANCH  17  20
ENDBRANCH   1  12
BRANCH   2  22
ATOM     22  O   UNL     1     260.902 -26.286  56.237  1.00  0.00    -0.502 OA
ATOM     23  H   UNL     1     260.773 -25.725  55.404  1.00  0.00     0.293 HD
ENDBRANCH   2  22
BRANCH   6  24
ATOM     24  O   UNL     1     265.091 -27.830  53.332  1.00  0.00    -0.507 OA
ATOM     25  H   UNL     1     264.345 -27.277  52.936  1.00  0.00     0.293 HD
ENDBRANCH   6  24
BRANCH   8  26
ATOM     26  O   UNL     1     267.280 -30.738  56.434  1.00  0.00    -0.508 OA
ATOM     27  H   UNL     1     267.617 -31.407  55.751  1.00  0.00     0.293 HD
ENDBRANCH   8  26
TORSDOF 6
ENDMDL
MODEL 5
REMARK VINA RESULT:    -5.904     14.167     16.476
REMARK INTER + INTRA:          -7.421
REMARK INTER:                  -7.091
REMARK INTRA:                  -0.330
REMARK UNBOUND:                -0.309
REMARK SMILES O=c1c(O)c(-c2ccc(O)c(O)c2)oc2cc(O)cc(O)c12
REMARK SMILES IDX 5 1 3 2 2 3 1 4 22 5 20 6 19 7 17 8 16 9 15 10 14 11 6 12
REMARK SMILES IDX 7 13 8 14 9 15 13 16 11 17 10 18 12 20 4 22 21 24 18 26
REMARK H PARENT 10 19 12 21 4 23 21 25 18 27
REMARK Flexibility Score: inf
ROOT
ATOM      1  C   UNL     1     263.040 -28.135  58.040  1.00  0.00     0.180 A 
ATOM      2  C   UNL     1     263.453 -27.241  59.043  1.00  0.00     0.208 A 
ATOM      3  C   UNL     1     262.523 -26.826  60.010  1.00  0.00     0.238 A 
ATOM      4  O   UNL     1     262.880 -25.970  60.860  1.00  0.00    -0.285 OA
ATOM      5  C   UNL     1     261.208 -27.352  59.996  1.00  0.00     0.111 A 
ATOM      6  C   UNL     1     260.197 -27.036  60.953  1.00  0.00     0.134 A 
ATOM      7  C   UNL     1     258.900 -27.535  60.777  1.00  0.00     0.093 A 
ATOM      8  C   UNL     1     258.593 -28.388  59.717  1.00  0.00     0.123 A 
ATOM      9  C   UNL     1     259.587 -28.747  58.807  1.00  0.00     0.094 A 
ATOM     10  C   UNL     1     260.881 -28.235  58.934  1.00  0.00     0.146 A 
ATOM     11  O   UNL     1     261.791 -28.586  58.033  1.00  0.00    -0.452 OA
ENDROOT
BRANCH   1  12
ATOM     12  C   UNL     1     263.957 -28.607  56.978  1.00  0.00     0.025 A 
ATOM     13  C   UNL     1     264.700 -29.782  57.179  1.00  0.00     0.016 A 
ATOM     14  C   UNL     1     265.556 -30.257  56.183  1.00  0.00     0.051 A 
ATOM     15  C   UNL     1     265.671 -29.573  54.965  1.00  0.00     0.157 A 
ATOM     16  C   UNL     1     264.060 -27.935  55.746  1.00  0.00     0.062 A 
ATOM     17  C   UNL     1     264.918 -28.414  54.745  1.00  0.00     0.158 A 
BRANCH  15  18
ATOM     18  O   UNL     1     266.525 -30.043  53.970  1.00  0.00    -0.504 OA
ATOM     19  H   UNL     1     266.625 -31.033  53.780  1.00  0.00     0.293 HD
ENDBRANCH  15  18
BRANCH  17  20
ATOM     20  O   UNL     1     265.023 -27.743  53.527  1.00  0.00    -0.504 OA
ATOM     21  H   UNL     1     265.212 -28.238  52.663  1.00  0.00     0.293 HD
ENDBRANCH  17  20
ENDBRANCH   1  12
BRANCH   2  22
ATOM     22  O   UNL     1     264.776 -26.793  59.086  1.00  0.00    -0.502 OA
ATOM     23  H   UNL     1     265.124 -26.196  59.825  1.00  0.00     0.293 HD
ENDBRANCH   2  22
BRANCH   6  24
ATOM     24  O   UNL     1     260.416 -26.266  62.098  1.00  0.00    -0.507 OA
ATOM     25  H   UNL     1     261.145 -26.431  62.776  1.00  0.00     0.293 HD
ENDBRANCH   6  24
BRANCH   8  26
ATOM     26  O   UNL     1     257.296 -28.878  59.583  1.00  0.00    -0.508 OA
ATOM     27  H   UNL     1     257.094 -29.691  59.013  1.00  0.00     0.293 HD
ENDBRANCH   8  26
TORSDOF 6
ENDMDL
MODEL 6
REMARK VINA RESULT:    -5.878     10.712     13.833
REMARK INTER + INTRA:          -7.390
REMARK INTER:                  -7.212
REMARK INTRA:                  -0.178
REMARK UNBOUND:                -0.309
REMARK SMILES O=c1c(O)c(-c2ccc(O)c(O)c2)oc2cc(O)cc(O)c12
REMARK SMILES IDX 5 1 3 2 2 3 1 4 22 5 20 6 19 7 17 8 16 9 15 10 14 11 6 12
REMARK SMILES IDX 7 13 8 14 9 15 13 16 11 17 10 18 12 20 4 22 21 24 18 26
REMARK H PARENT 10 19 12 21 4 23 21 25 18 27
REMARK Flexibility Score: inf
ROOT
ATOM      1  C   UNL     1     261.995 -27.730  57.092  1.00  0.00     0.180 A 
ATOM      2  C   UNL     1     263.389 -27.905  57.143  1.00  0.00     0.208 A 
ATOM      3  C   UNL     1     264.131 -27.809  55.955  1.00  0.00     0.238 A 
ATOM      4  O   UNL     1     265.368 -28.039  55.998  1.00  0.00    -0.285 OA
ATOM      5  C   UNL     1     263.480 -27.483  54.740  1.00  0.00     0.111 A 
ATOM      6  C   UNL     1     264.140 -27.316  53.485  1.00  0.00     0.134 A 
ATOM      7  C   UNL     1     263.379 -27.099  52.329  1.00  0.00     0.093 A 
ATOM      8  C   UNL     1     261.991 -26.981  52.391  1.00  0.00     0.123 A 
ATOM      9  C   UNL     1     261.341 -27.088  53.621  1.00  0.00     0.094 A 
ATOM     10  C   UNL     1     262.068 -27.342  54.787  1.00  0.00     0.146 A 
ATOM     11  O   UNL     1     261.408 -27.458  55.932  1.00  0.00    -0.452 OA
ENDROOT
BRANCH   1  12
ATOM     12  C   UNL     1     261.143 -27.831  58.298  1.00  0.00     0.025 A 
ATOM     13  C   UNL     1     260.250 -28.909  58.424  1.00  0.00     0.016 A 
ATOM     14  C   UNL     1     259.450 -29.035  59.562  1.00  0.00     0.051 A 
ATOM     15  C   UNL     1     259.543 -28.096  60.598  1.00  0.00     0.157 A 
ATOM     16  C   UNL     1     261.246 -26.902  59.349  1.00  0.00     0.062 A 
ATOM     17  C   UNL     1     260.446 -27.032  60.494  1.00  0.00     0.158 A 
BRANCH  15  18
ATOM     18  O   UNL     1     258.746 -28.218  61.735  1.00  0.00    -0.504 OA
ATOM     19  H   UNL     1     258.033 -27.534  61.958  1.00  0.00     0.293 HD
ENDBRANCH  15  18
BRANCH  17  20
ATOM     20  O   UNL     1     260.545 -26.106  61.532  1.00  0.00    -0.504 OA
ATOM     21  H   UNL     1     259.904 -26.118  62.316  1.00  0.00     0.293 HD
ENDBRANCH  17  20
ENDBRANCH   1  12
BRANCH   2  22
ATOM     22  O   UNL     1     264.023 -28.149  58.365  1.00  0.00    -0.502 OA
ATOM     23  H   UNL     1     264.858 -28.715  58.440  1.00  0.00     0.293 HD
ENDBRANCH   2  22
BRANCH   6  24
ATOM     24  O   UNL     1     265.527 -27.326  53.322  1.00  0.00    -0.507 OA
ATOM     25  H   UNL     1     266.026 -27.884  52.646  1.00  0.00     0.293 HD
ENDBRANCH   6  24
BRANCH   8  26
ATOM     26  O   UNL     1     261.268 -26.748  51.224  1.00  0.00    -0.508 OA
ATOM     27  H   UNL     1     261.419 -27.301  50.388  1.00  0.00     0.293 HD
ENDBRANCH   8  26
TORSDOF 6
ENDMDL
MODEL 7
REMARK VINA RESULT:    -5.704     15.297     16.668
REMARK INTER + INTRA:          -7.180
REMARK INTER:                  -6.931
REMARK INTRA:                  -0.249
REMARK UNBOUND:                -0.309
REMARK SMILES O=c1c(O)c(-c2ccc(O)c(O)c2)oc2cc(O)cc(O)c12
REMARK SMILES IDX 5 1 3 2 2 3 1 4 22 5 20 6 19 7 17 8 16 9 15 10 14 11 6 12
REMARK SMILES IDX 7 13 8 14 9 15 13 16 11 17 10 18 12 20 4 22 21 24 18 26
REMARK H PARENT 10 19 12 21 4 23 21 25 18 27
REMARK Flexibility Score: inf
ROOT
ATOM      1  C   UNL     1     267.136 -33.809  47.579  1.00  0.00     0.180 A 
ATOM      2  C   UNL     1     267.158 -32.803  46.598  1.00  0.00     0.208 A 
ATOM      3  C   UNL     1     267.190 -33.173  45.243  1.00  0.00     0.238 A 
ATOM      4  O   UNL     1     267.284 -32.269  44.374  1.00  0.00    -0.285 OA
ATOM      5  C   UNL     1     267.142 -34.543  44.885  1.00  0.00     0.111 A 
ATOM      6  C   UNL     1     267.124 -35.030  43.544  1.00  0.00     0.134 A 
ATOM      7  C   UNL     1     267.184 -36.411  43.310  1.00  0.00     0.093 A 
ATOM      8  C   UNL     1     267.198 -37.320  44.367  1.00  0.00     0.123 A 
ATOM      9  C   UNL     1     267.160 -36.856  45.682  1.00  0.00     0.094 A 
ATOM     10  C   UNL     1     267.139 -35.484  45.947  1.00  0.00     0.146 A 
ATOM     11  O   UNL     1     267.125 -35.085  47.213  1.00  0.00    -0.452 OA
ENDROOT
BRANCH   1  12
ATOM     12  C   UNL     1     267.117 -33.498  49.026  1.00  0.00     0.025 A 
ATOM     13  C   UNL     1     268.291 -33.656  49.781  1.00  0.00     0.016 A 
ATOM     14  C   UNL     1     268.301 -33.349  51.144  1.00  0.00     0.051 A 
ATOM     15  C   UNL     1     267.144 -32.866  51.768  1.00  0.00     0.157 A 
ATOM     16  C   UNL     1     265.963 -32.994  49.653  1.00  0.00     0.062 A 
ATOM     17  C   UNL     1     265.975 -32.683  51.021  1.00  0.00     0.158 A 
BRANCH  15  18
ATOM     18  O   UNL     1     267.150 -32.560  53.128  1.00  0.00    -0.504 OA
ATOM     19  H   UNL     1     267.971 -32.712  53.702  1.00  0.00     0.293 HD
ENDBRANCH  15  18
BRANCH  17  20
ATOM     20  O   UNL     1     264.828 -32.189  51.641  1.00  0.00    -0.504 OA
ATOM     21  H   UNL     1     264.882 -31.520  52.400  1.00  0.00     0.293 HD
ENDBRANCH  17  20
ENDBRANCH   1  12
BRANCH   2  22
ATOM     22  O   UNL     1     267.126 -31.456  46.970  1.00  0.00    -0.502 OA
ATOM     23  H   UNL     1     266.534 -31.111  47.715  1.00  0.00     0.293 HD
ENDBRANCH   2  22
BRANCH   6  24
ATOM     24  O   UNL     1     267.022 -34.214  42.414  1.00  0.00    -0.507 OA
ATOM     25  H   UNL     1     267.639 -33.445  42.199  1.00  0.00     0.293 HD
ENDBRANCH   6  24
BRANCH   8  26
ATOM     26  O   UNL     1     267.240 -38.686  44.097  1.00  0.00    -0.508 OA
ATOM     27  H   UNL     1     267.308 -39.371  44.840  1.00  0.00     0.293 HD
ENDBRANCH   8  26
TORSDOF 6
ENDMDL
MODEL 8
REMARK VINA RESULT:    -5.662      2.018      7.195
REMARK INTER + INTRA:          -7.130
REMARK INTER:                  -6.991
REMARK INTRA:                  -0.139
REMARK UNBOUND:                -0.309
REMARK SMILES O=c1c(O)c(-c2ccc(O)c(O)c2)oc2cc(O)cc(O)c12
REMARK SMILES IDX 5 1 3 2 2 3 1 4 22 5 20 6 19 7 17 8 16 9 15 10 14 11 6 12
REMARK SMILES IDX 7 13 8 14 9 15 13 16 11 17 10 18 12 20 4 22 21 24 18 26
REMARK H PARENT 10 19 12 21 4 23 21 25 18 27
REMARK Flexibility Score: inf
ROOT
ATOM      1  C   UNL     1     253.067 -24.358  48.350  1.00  0.00     0.180 A 
ATOM      2  C   UNL     1     252.153 -23.369  48.751  1.00  0.00     0.208 A 
ATOM      3  C   UNL     1     251.855 -23.231  50.116  1.00  0.00     0.238 A 
ATOM      4  O   UNL     1     250.981 -22.393  50.460  1.00  0.00    -0.285 OA
ATOM      5  C   UNL     1     252.516 -24.044  51.069  1.00  0.00     0.111 A 
ATOM      6  C   UNL     1     252.325 -23.959  52.481  1.00  0.00     0.134 A 
ATOM      7  C   UNL     1     252.955 -24.887  53.320  1.00  0.00     0.093 A 
ATOM      8  C   UNL     1     253.816 -25.856  52.806  1.00  0.00     0.123 A 
ATOM      9  C   UNL     1     254.052 -25.913  51.432  1.00  0.00     0.094 A 
ATOM     10  C   UNL     1     253.410 -25.025  50.565  1.00  0.00     0.146 A 
ATOM     11  O   UNL     1     253.647 -25.128  49.263  1.00  0.00    -0.452 OA
ENDROOT
BRANCH   1  12
ATOM     12  C   UNL     1     253.421 -24.576  46.929  1.00  0.00     0.025 A 
ATOM     13  C   UNL     1     254.765 -24.482  46.530  1.00  0.00     0.016 A 
ATOM     14  C   UNL     1     255.125 -24.703  45.198  1.00  0.00     0.051 A 
ATOM     15  C   UNL     1     254.149 -25.036  44.250  1.00  0.00     0.157 A 
ATOM     16  C   UNL     1     252.448 -24.931  45.977  1.00  0.00     0.062 A 
ATOM     17  C   UNL     1     252.810 -25.156  44.640  1.00  0.00     0.158 A 
BRANCH  15  18
ATOM     18  O   UNL     1     254.504 -25.256  42.920  1.00  0.00    -0.504 OA
ATOM     19  H   UNL     1     254.003 -25.920  42.341  1.00  0.00     0.293 HD
ENDBRANCH  15  18
BRANCH  17  20
ATOM     20  O   UNL     1     251.844 -25.501  43.697  1.00  0.00    -0.504 OA
ATOM     21  H   UNL     1     251.258 -24.801  43.257  1.00  0.00     0.293 HD
ENDBRANCH  17  20
ENDBRANCH   1  12
BRANCH   2  22
ATOM     22  O   UNL     1     251.569 -22.524  47.803  1.00  0.00    -0.502 OA
ATOM     23  H   UNL     1     251.922 -21.595  47.612  1.00  0.00     0.293 HD
ENDBRANCH   2  22
BRANCH   6  24
ATOM     24  O   UNL     1     251.556 -22.975  53.109  1.00  0.00    -0.507 OA
ATOM     25  H   UNL     1     251.686 -21.981  52.999  1.00  0.00     0.293 HD
ENDBRANCH   6  24
BRANCH   8  26
ATOM     26  O   UNL     1     254.438 -26.752  53.671  1.00  0.00    -0.508 OA
ATOM     27  H   UNL     1     254.243 -26.749  54.666  1.00  0.00     0.293 HD
ENDBRANCH   8  26
TORSDOF 6
ENDMDL
MODEL 9
REMARK VINA RESULT:    -5.623     14.175     16.582
REMARK INTER + INTRA:          -7.082
REMARK INTER:                  -6.770
REMARK INTRA:                  -0.312
REMARK UNBOUND:                -0.309
REMARK SMILES O=c1c(O)c(-c2ccc(O)c(O)c2)oc2cc(O)cc(O)c12
REMARK SMILES IDX 5 1 3 2 2 3 1 4 22 5 20 6 19 7 17 8 16 9 15 10 14 11 6 12
REMARK SMILES IDX 7 13 8 14 9 15 13 16 11 17 10 18 12 20 4 22 21 24 18 26
REMARK H PARENT 10 19 12 21 4 23 21 25 18 27
REMARK Flexibility Score: inf
ROOT
ATOM      1  C   UNL     1     263.294 -28.179  57.674  1.00  0.00     0.180 A 
ATOM      2  C   UNL     1     263.848 -27.478  58.759  1.00  0.00     0.208 A 
ATOM      3  C   UNL     1     263.020 -27.125  59.837  1.00  0.00     0.238 A 
ATOM      4  O   UNL     1     263.506 -26.434  60.769  1.00  0.00    -0.285 OA
ATOM      5  C   UNL     1     261.661 -27.526  59.843  1.00  0.00     0.111 A 
ATOM      6  C   UNL     1     260.742 -27.262  60.903  1.00  0.00     0.134 A 
ATOM      7  C   UNL     1     259.395 -27.614  60.752  1.00  0.00     0.093 A 
ATOM      8  C   UNL     1     258.946 -28.275  59.609  1.00  0.00     0.123 A 
ATOM      9  C   UNL     1     259.847 -28.587  58.591  1.00  0.00     0.094 A 
ATOM     10  C   UNL     1     261.190 -28.215  58.695  1.00  0.00     0.146 A 
ATOM     11  O   UNL     1     262.009 -28.512  57.694  1.00  0.00    -0.452 OA
ENDROOT
BRANCH   1  12
ATOM     12  C   UNL     1     264.099 -28.573  56.496  1.00  0.00     0.025 A 
ATOM     13  C   UNL     1     264.132 -27.732  55.371  1.00  0.00     0.016 A 
ATOM     14  C   UNL     1     264.901 -28.074  54.255  1.00  0.00     0.051 A 
ATOM     15  C   UNL     1     265.659 -29.252  54.255  1.00  0.00     0.157 A 
ATOM     16  C   UNL     1     264.877 -29.744  56.498  1.00  0.00     0.062 A 
ATOM     17  C   UNL     1     265.652 -30.085  55.379  1.00  0.00     0.158 A 
BRANCH  15  18
ATOM     18  O   UNL     1     266.426 -29.597  53.144  1.00  0.00    -0.504 OA
ATOM     19  H   UNL     1     266.548 -28.960  52.365  1.00  0.00     0.293 HD
ENDBRANCH  15  18
BRANCH  17  20
ATOM     20  O   UNL     1     266.418 -31.250  55.381  1.00  0.00    -0.504 OA
ATOM     21  H   UNL     1     266.202 -32.029  54.770  1.00  0.00     0.293 HD
ENDBRANCH  17  20
ENDBRANCH   1  12
BRANCH   2  22
ATOM     22  O   UNL     1     265.209 -27.160  58.770  1.00  0.00    -0.502 OA
ATOM     23  H   UNL     1     265.545 -26.214  58.901  1.00  0.00     0.293 HD
ENDBRANCH   2  22
BRANCH   6  24
ATOM     24  O   UNL     1     261.100 -26.686  62.125  1.00  0.00    -0.507 OA
ATOM     25  H   UNL     1     262.037 -26.419  62.387  1.00  0.00     0.293 HD
ENDBRANCH   6  24
BRANCH   8  26
ATOM     26  O   UNL     1     257.603 -28.625  59.501  1.00  0.00    -0.508 OA
ATOM     27  H   UNL     1     257.064 -28.409  58.670  1.00  0.00     0.293 HD
ENDBRANCH   8  26
TORSDOF 6
ENDMDL
