MODEL 1
REMARK VINA RESULT:    -2.674      0.000      0.000
REMARK INTER + INTRA:          -5.300
REMARK INTER:                  -4.549
REMARK INTRA:                  -0.750
REMARK UNBOUND:                -0.750
REMARK SMILES CCCCCCCCCCCCCC(=O)[O-]
REMARK SMILES IDX 8 1 9 2 10 3 11 4 12 5 13 6 14 7 15 8 16 9 7 10 6 11 5 12
REMARK SMILES IDX 4 13 3 14 2 15 1 16
REMARK H PARENT
REMARK Flexibility Score: inf
ROOT
ATOM      1  C   UNL     1     -11.064 -20.152  16.776  1.00  0.00     0.000 C 
ENDROOT
BRANCH   1   2
ATOM      2  C   UNL     1     -10.980 -20.343  15.253  1.00  0.00     0.000 C 
BRANCH   2   3
ATOM      3  C   UNL     1      -9.626 -19.897  14.678  1.00  0.00     0.000 C 
BRANCH   3   4
ATOM      4  C   UNL     1      -8.616 -21.053  14.574  1.00  0.00     0.000 C 
BRANCH   4   5
ATOM      5  C   UNL     1      -7.830 -21.275  15.879  1.00  0.00     0.006 C 
BRANCH   5   6
ATOM      6  C   UNL     1      -6.965 -22.546  15.885  1.00  0.00     0.053 C 
BRANCH   6   7
ATOM      7  C   UNL     1      -5.901 -22.498  16.937  1.00  0.00     0.041 C 
ATOM      8  O   UNL     1      -6.213 -22.358  18.149  1.00  0.00    -0.550 OA
ATOM      9  O   UNL     1      -4.565 -22.642  16.582  1.00  0.00    -0.550 OA
ENDBRANCH   6   7
ENDBRANCH   5   6
ENDBRANCH   4   5
ENDBRANCH   3   4
ENDBRANCH   2   3
ENDBRANCH   1   2
BRANCH   1  10
ATOM     10  C   UNL     1     -11.125 -21.486  17.544  1.00  0.00     0.000 C 
BRANCH  10  11
ATOM     11  C   UNL     1     -10.567 -21.445  18.981  1.00  0.00    -0.000 C 
BRANCH  11  12
ATOM     12  C   UNL     1     -10.019 -20.079  19.429  1.00  0.00    -0.000 C 
BRANCH  12  13
ATOM     13  C   UNL     1     -11.066 -19.235  20.176  1.00  0.00    -0.000 C 
BRANCH  13  14
ATOM     14  C   UNL     1     -10.445 -18.032  20.904  1.00  0.00    -0.000 C 
BRANCH  14  15
ATOM     15  C   UNL     1     -10.377 -18.236  22.425  1.00  0.00    -0.003 C 
ATOM     16  C   UNL     1      -9.121 -17.595  23.009  1.00  0.00     0.004 C 
ENDBRANCH  14  15
ENDBRANCH  13  14
ENDBRANCH  12  13
ENDBRANCH  11  12
ENDBRANCH  10  11
ENDBRANCH   1  10
TORSDOF 12
ENDMDL
MODEL 2
REMARK VINA RESULT:    -2.444      3.263      6.642
REMARK INTER + INTRA:          -4.909
REMARK INTER:                  -4.247
REMARK INTRA:                  -0.662
REMARK UNBOUND:                -0.750
REMARK SMILES CCCCCCCCCCCCCC(=O)[O-]
REMARK SMILES IDX 8 1 9 2 10 3 11 4 12 5 13 6 14 7 15 8 16 9 7 10 6 11 5 12
REMARK SMILES IDX 4 13 3 14 2 15 1 16
REMARK H PARENT
REMARK Flexibility Score: inf
ROOT
ATOM      1  C   UNL     1      -6.732 -22.694  20.431  1.00  0.00     0.000 C 
ENDROOT
BRANCH   1   2
ATOM      2  C   UNL     1      -8.039 -23.125  21.117  1.00  0.00     0.000 C 
BRANCH   2   3
ATOM      3  C   UNL     1      -8.270 -22.397  22.451  1.00  0.00     0.000 C 
BRANCH   3   4
ATOM      4  C   UNL     1      -9.757 -22.324  22.837  1.00  0.00     0.000 C 
BRANCH   4   5
ATOM      5  C   UNL     1     -10.552 -21.339  21.960  1.00  0.00     0.006 C 
BRANCH   5   6
ATOM      6  C   UNL     1     -10.719 -19.941  22.577  1.00  0.00     0.053 C 
BRANCH   6   7
ATOM      7  C   UNL     1     -10.127 -18.871  21.712  1.00  0.00     0.041 C 
ATOM      8  O   UNL     1     -10.169 -18.973  20.458  1.00  0.00    -0.550 OA
ATOM      9  O   UNL     1      -9.559 -17.743  22.292  1.00  0.00    -0.550 OA
ENDBRANCH   6   7
ENDBRANCH   5   6
ENDBRANCH   4   5
ENDBRANCH   3   4
ENDBRANCH   2   3
ENDBRANCH   1   2
BRANCH   1  10
ATOM     10  C   UNL     1      -6.661 -23.124  18.954  1.00  0.00     0.000 C 
BRANCH  10  11
ATOM     11  C   UNL     1      -7.290 -22.137  17.949  1.00  0.00    -0.000 C 
BRANCH  11  12
ATOM     12  C   UNL     1      -8.676 -21.598  18.345  1.00  0.00    -0.000 C 
BRANCH  12  13
ATOM     13  C   UNL     1      -9.735 -21.818  17.251  1.00  0.00    -0.000 C 
BRANCH  13  14
ATOM     14  C   UNL     1     -10.821 -20.732  17.252  1.00  0.00    -0.000 C 
BRANCH  14  15
ATOM     15  C   UNL     1     -10.942 -20.018  15.897  1.00  0.00    -0.003 C 
ATOM     16  C   UNL     1      -9.788 -20.398  14.973  1.00  0.00     0.004 C 
ENDBRANCH  14  15
ENDBRANCH  13  14
ENDBRANCH  12  13
ENDBRANCH  11  12
ENDBRANCH  10  11
ENDBRANCH   1  10
TORSDOF 12
ENDMDL
MODEL 3
REMARK VINA RESULT:    -2.327      2.992      6.614
REMARK INTER + INTRA:          -4.710
REMARK INTER:                  -3.824
REMARK INTRA:                  -0.886
REMARK UNBOUND:                -0.750
REMARK SMILES CCCCCCCCCCCCCC(=O)[O-]
REMARK SMILES IDX 8 1 9 2 10 3 11 4 12 5 13 6 14 7 15 8 16 9 7 10 6 11 5 12
REMARK SMILES IDX 4 13 3 14 2 15 1 16
REMARK H PARENT
REMARK Flexibility Score: inf
ROOT
ATOM      1  C   UNL     1      -9.227 -22.426  18.925  1.00  0.00     0.000 C 
ENDROOT
BRANCH   1   2
ATOM      2  C   UNL     1     -10.461 -21.523  19.092  1.00  0.00     0.000 C 
BRANCH   2   3
ATOM      3  C   UNL     1     -11.110 -21.665  20.477  1.00  0.00     0.000 C 
BRANCH   3   4
ATOM      4  C   UNL     1     -11.063 -20.361  21.292  1.00  0.00     0.000 C 
BRANCH   4   5
ATOM      5  C   UNL     1     -10.385 -19.208  20.530  1.00  0.00     0.006 C 
BRANCH   5   6
ATOM      6  C   UNL     1     -10.389 -17.867  21.282  1.00  0.00     0.053 C 
BRANCH   6   7
ATOM      7  C   UNL     1     -10.048 -18.034  22.730  1.00  0.00     0.041 C 
ATOM      8  O   UNL     1      -8.850 -18.181  23.087  1.00  0.00    -0.550 OA
ATOM      9  O   UNL     1     -11.051 -17.990  23.691  1.00  0.00    -0.550 OA
ENDBRANCH   6   7
ENDBRANCH   5   6
ENDBRANCH   4   5
ENDBRANCH   3   4
ENDBRANCH   2   3
ENDBRANCH   1   2
BRANCH   1  10
ATOM     10  C   UNL     1      -9.132 -23.056  17.523  1.00  0.00     0.000 C 
BRANCH  10  11
ATOM     11  C   UNL     1      -7.712 -23.125  16.926  1.00  0.00    -0.000 C 
BRANCH  11  12
ATOM     12  C   UNL     1      -7.382 -22.027  15.899  1.00  0.00    -0.000 C 
BRANCH  12  13
ATOM     13  C   UNL     1      -8.442 -20.913  15.858  1.00  0.00    -0.000 C 
BRANCH  13  14
ATOM     14  C   UNL     1      -9.050 -20.727  14.459  1.00  0.00    -0.000 C 
BRANCH  14  15
ATOM     15  C   UNL     1     -10.484 -20.180  14.508  1.00  0.00    -0.003 C 
ATOM     16  C   UNL     1     -11.026 -20.189  15.935  1.00  0.00     0.004 C 
ENDBRANCH  14  15
ENDBRANCH  13  14
ENDBRANCH  12  13
ENDBRANCH  11  12
ENDBRANCH  10  11
ENDBRANCH   1  10
TORSDOF 12
ENDMDL
MODEL 4
REMARK VINA RESULT:    -2.237      3.256      6.618
REMARK INTER + INTRA:          -4.556
REMARK INTER:                  -3.760
REMARK INTRA:                  -0.796
REMARK UNBOUND:                -0.750
REMARK SMILES CCCCCCCCCCCCCC(=O)[O-]
REMARK SMILES IDX 8 1 9 2 10 3 11 4 12 5 13 6 14 7 15 8 16 9 7 10 6 11 5 12
REMARK SMILES IDX 4 13 3 14 2 15 1 16
REMARK H PARENT
REMARK Flexibility Score: inf
ROOT
ATOM      1  C   UNL     1      -8.955 -21.449  18.892  1.00  0.00     0.000 C 
ENDROOT
BRANCH   1   2
ATOM      2  C   UNL     1     -10.492 -21.475  18.836  1.00  0.00     0.000 C 
BRANCH   2   3
ATOM      3  C   UNL     1     -11.124 -20.210  19.438  1.00  0.00     0.000 C 
BRANCH   3   4
ATOM      4  C   UNL     1     -10.150 -19.020  19.476  1.00  0.00     0.000 C 
BRANCH   4   5
ATOM      5  C   UNL     1     -10.496 -18.004  20.580  1.00  0.00     0.006 C 
BRANCH   5   6
ATOM      6  C   UNL     1     -11.022 -18.639  21.878  1.00  0.00     0.053 C 
BRANCH   6   7
ATOM      7  C   UNL     1      -9.919 -19.219  22.708  1.00  0.00     0.041 C 
ATOM      8  O   UNL     1      -8.984 -18.484  23.122  1.00  0.00    -0.550 OA
ATOM      9  O   UNL     1      -9.942 -20.564  23.055  1.00  0.00    -0.550 OA
ENDBRANCH   6   7
ENDBRANCH   5   6
ENDBRANCH   4   5
ENDBRANCH   3   4
ENDBRANCH   2   3
ENDBRANCH   1   2
BRANCH   1  10
ATOM     10  C   UNL     1      -8.338 -22.852  19.037  1.00  0.00     0.000 C 
BRANCH  10  11
ATOM     11  C   UNL     1      -6.825 -22.879  19.333  1.00  0.00    -0.000 C 
BRANCH  11  12
ATOM     12  C   UNL     1      -5.918 -22.921  18.090  1.00  0.00    -0.000 C 
BRANCH  12  13
ATOM     13  C   UNL     1      -6.708 -23.109  16.783  1.00  0.00    -0.000 C 
BRANCH  13  14
ATOM     14  C   UNL     1      -6.658 -21.867  15.880  1.00  0.00    -0.000 C 
BRANCH  14  15
ATOM     15  C   UNL     1      -5.224 -21.369  15.642  1.00  0.00    -0.003 C 
ATOM     16  C   UNL     1      -5.196 -20.255  14.600  1.00  0.00     0.004 C 
ENDBRANCH  14  15
ENDBRANCH  13  14
ENDBRANCH  12  13
ENDBRANCH  11  12
ENDBRANCH  10  11
ENDBRANCH   1  10
TORSDOF 12
ENDMDL
MODEL 5
REMARK VINA RESULT:    -2.175      1.424      2.023
REMARK INTER + INTRA:          -4.451
REMARK INTER:                  -3.495
REMARK INTRA:                  -0.956
REMARK UNBOUND:                -0.750
REMARK SMILES CCCCCCCCCCCCCC(=O)[O-]
REMARK SMILES IDX 8 1 9 2 10 3 11 4 12 5 13 6 14 7 15 8 16 9 7 10 6 11 5 12
REMARK SMILES IDX 4 13 3 14 2 15 1 16
REMARK H PARENT
REMARK Flexibility Score: inf
ROOT
ATOM      1  C   UNL     1     -11.050 -19.905  16.943  1.00  0.00     0.000 C 
ENDROOT
BRANCH   1   2
ATOM      2  C   UNL     1     -10.891 -20.438  15.509  1.00  0.00     0.000 C 
BRANCH   2   3
ATOM      3  C   UNL     1      -9.638 -19.884  14.812  1.00  0.00     0.000 C 
BRANCH   3   4
ATOM      4  C   UNL     1      -8.529 -20.939  14.658  1.00  0.00     0.000 C 
BRANCH   4   5
ATOM      5  C   UNL     1      -8.157 -21.610  15.993  1.00  0.00     0.006 C 
BRANCH   5   6
ATOM      6  C   UNL     1      -6.999 -22.616  15.891  1.00  0.00     0.053 C 
BRANCH   6   7
ATOM      7  C   UNL     1      -5.982 -22.413  16.971  1.00  0.00     0.041 C 
ATOM      8  O   UNL     1      -4.754 -22.506  16.712  1.00  0.00    -0.550 OA
ATOM      9  O   UNL     1      -6.390 -22.085  18.259  1.00  0.00    -0.550 OA
ENDBRANCH   6   7
ENDBRANCH   5   6
ENDBRANCH   4   5
ENDBRANCH   3   4
ENDBRANCH   2   3
ENDBRANCH   1   2
BRANCH   1  10
ATOM     10  C   UNL     1     -11.125 -21.028  17.994  1.00  0.00     0.000 C 
BRANCH  10  11
ATOM     11  C   UNL     1      -9.967 -21.057  19.011  1.00  0.00    -0.000 C 
BRANCH  11  12
ATOM     12  C   UNL     1      -9.661 -22.442  19.611  1.00  0.00    -0.000 C 
BRANCH  12  13
ATOM     13  C   UNL     1      -8.939 -22.355  20.967  1.00  0.00    -0.000 C 
BRANCH  13  14
ATOM     14  C   UNL     1      -9.909 -22.149  22.140  1.00  0.00    -0.000 C 
BRANCH  14  15
ATOM     15  C   UNL     1      -9.548 -20.925  22.995  1.00  0.00    -0.003 C 
ATOM     16  C   UNL     1     -10.229 -19.666  22.464  1.00  0.00     0.004 C 
ENDBRANCH  14  15
ENDBRANCH  13  14
ENDBRANCH  12  13
ENDBRANCH  11  12
ENDBRANCH  10  11
ENDBRANCH   1  10
TORSDOF 12
ENDMDL
MODEL 6
REMARK VINA RESULT:    -2.007      1.727      2.381
REMARK INTER + INTRA:          -4.164
REMARK INTER:                  -3.126
REMARK INTRA:                  -1.038
REMARK UNBOUND:                -0.750
REMARK SMILES CCCCCCCCCCCCCC(=O)[O-]
REMARK SMILES IDX 8 1 9 2 10 3 11 4 12 5 13 6 14 7 15 8 16 9 7 10 6 11 5 12
REMARK SMILES IDX 4 13 3 14 2 15 1 16
REMARK H PARENT
REMARK Flexibility Score: inf
ROOT
ATOM      1  C   UNL     1     -10.788 -19.562  19.378  1.00  0.00     0.000 C 
ENDROOT
BRANCH   1   2
ATOM      2  C   UNL     1     -11.124 -19.751  17.890  1.00  0.00     0.000 C 
BRANCH   2   3
ATOM      3  C   UNL     1     -10.085 -20.616  17.158  1.00  0.00     0.000 C 
BRANCH   3   4
ATOM      4  C   UNL     1     -10.574 -22.055  16.917  1.00  0.00     0.000 C 
BRANCH   4   5
ATOM      5  C   UNL     1      -9.656 -23.110  17.561  1.00  0.00     0.006 C 
BRANCH   5   6
ATOM      6  C   UNL     1      -8.224 -23.125  17.001  1.00  0.00     0.053 C 
BRANCH   6   7
ATOM      7  C   UNL     1      -7.233 -22.568  17.975  1.00  0.00     0.041 C 
ATOM      8  O   UNL     1      -7.256 -22.931  19.181  1.00  0.00    -0.550 OA
ATOM      9  O   UNL     1      -6.260 -21.674  17.545  1.00  0.00    -0.550 OA
ENDBRANCH   6   7
ENDBRANCH   5   6
ENDBRANCH   4   5
ENDBRANCH   3   4
ENDBRANCH   2   3
ENDBRANCH   1   2
BRANCH   1  10
ATOM     10  C   UNL     1      -9.616 -20.446  19.844  1.00  0.00     0.000 C 
BRANCH  10  11
ATOM     11  C   UNL     1      -9.898 -21.314  21.087  1.00  0.00    -0.000 C 
BRANCH  11  12
ATOM     12  C   UNL     1      -9.822 -20.569  22.433  1.00  0.00    -0.000 C 
BRANCH  12  13
ATOM     13  C   UNL     1     -11.120 -19.814  22.769  1.00  0.00    -0.000 C 
BRANCH  13  14
ATOM     14  C   UNL     1     -10.888 -18.312  22.990  1.00  0.00    -0.000 C 
BRANCH  14  15
ATOM     15  C   UNL     1      -9.495 -17.857  22.529  1.00  0.00    -0.003 C 
ATOM     16  C   UNL     1      -8.726 -17.199  23.671  1.00  0.00     0.004 C 
ENDBRANCH  14  15
ENDBRANCH  13  14
ENDBRANCH  12  13
ENDBRANCH  11  12
ENDBRANCH  10  11
ENDBRANCH   1  10
TORSDOF 12
ENDMDL
MODEL 7
REMARK VINA RESULT:    -1.858     11.132     15.378
REMARK INTER + INTRA:          -3.912
REMARK INTER:                  -3.158
REMARK INTRA:                  -0.754
REMARK UNBOUND:                -0.750
REMARK SMILES CCCCCCCCCCCCCC(=O)[O-]
REMARK SMILES IDX 8 1 9 2 10 3 11 4 12 5 13 6 14 7 15 8 16 9 7 10 6 11 5 12
REMARK SMILES IDX 4 13 3 14 2 15 1 16
REMARK H PARENT
REMARK Flexibility Score: inf
ROOT
ATOM      1  C   UNL     1       5.184 -21.751  16.885  1.00  0.00     0.000 C 
ENDROOT
BRANCH   1   2
ATOM      2  C   UNL     1       5.149 -22.839  15.798  1.00  0.00     0.000 C 
BRANCH   2   3
ATOM      3  C   UNL     1       3.893 -22.749  14.917  1.00  0.00     0.000 C 
BRANCH   3   4
ATOM      4  C   UNL     1       2.590 -22.850  15.728  1.00  0.00     0.000 C 
BRANCH   4   5
ATOM      5  C   UNL     1       1.345 -22.483  14.900  1.00  0.00     0.006 C 
BRANCH   5   6
ATOM      6  C   UNL     1       0.042 -23.125  15.404  1.00  0.00     0.053 C 
BRANCH   6   7
ATOM      7  C   UNL     1      -0.805 -22.154  16.167  1.00  0.00     0.041 C 
ATOM      8  O   UNL     1      -2.052 -22.129  15.997  1.00  0.00    -0.550 OA
ATOM      9  O   UNL     1      -0.220 -21.300  17.095  1.00  0.00    -0.550 OA
ENDBRANCH   6   7
ENDBRANCH   5   6
ENDBRANCH   4   5
ENDBRANCH   3   4
ENDBRANCH   2   3
ENDBRANCH   1   2
BRANCH   1  10
ATOM     10  C   UNL     1       6.615 -21.388  17.322  1.00  0.00     0.000 C 
BRANCH  10  11
ATOM     11  C   UNL     1       7.656 -22.517  17.176  1.00  0.00    -0.000 C 
BRANCH  11  12
ATOM     12  C   UNL     1       8.767 -22.250  16.144  1.00  0.00    -0.000 C 
BRANCH  12  13
ATOM     13  C   UNL     1       8.281 -21.408  14.952  1.00  0.00    -0.000 C 
BRANCH  13  14
ATOM     14  C   UNL     1       8.619 -22.053  13.598  1.00  0.00    -0.000 C 
BRANCH  14  15
ATOM     15  C   UNL     1       7.562 -21.754  12.524  1.00  0.00    -0.003 C 
ATOM     16  C   UNL     1       8.010 -20.612  11.617  1.00  0.00     0.004 C 
ENDBRANCH  14  15
ENDBRANCH  13  14
ENDBRANCH  12  13
ENDBRANCH  11  12
ENDBRANCH  10  11
ENDBRANCH   1  10
TORSDOF 12
ENDMDL
MODEL 8
REMARK VINA RESULT:    -1.678      2.689      4.014
REMARK INTER + INTRA:          -3.605
REMARK INTER:                  -3.227
REMARK INTRA:                  -0.378
REMARK UNBOUND:                -0.750
REMARK SMILES CCCCCCCCCCCCCC(=O)[O-]
REMARK SMILES IDX 8 1 9 2 10 3 11 4 12 5 13 6 14 7 15 8 16 9 7 10 6 11 5 12
REMARK SMILES IDX 4 13 3 14 2 15 1 16
REMARK H PARENT
REMARK Flexibility Score: inf
ROOT
ATOM      1  C   UNL     1      -8.044 -22.945  17.527  1.00  0.00     0.000 C 
ENDROOT
BRANCH   1   2
ATOM      2  C   UNL     1      -6.927 -22.623  16.520  1.00  0.00     0.000 C 
BRANCH   2   3
ATOM      3  C   UNL     1      -5.525 -22.739  17.140  1.00  0.00     0.000 C 
BRANCH   3   4
ATOM      4  C   UNL     1      -4.403 -22.447  16.129  1.00  0.00     0.000 C 
BRANCH   4   5
ATOM      5  C   UNL     1      -3.067 -23.107  16.517  1.00  0.00     0.006 C 
BRANCH   5   6
ATOM      6  C   UNL     1      -1.992 -23.045  15.420  1.00  0.00     0.053 C 
BRANCH   6   7
ATOM      7  C   UNL     1      -0.681 -22.547  15.945  1.00  0.00     0.041 C 
ATOM      8  O   UNL     1       0.391 -23.125  15.626  1.00  0.00    -0.550 OA
ATOM      9  O   UNL     1      -0.639 -21.421  16.758  1.00  0.00    -0.550 OA
ENDBRANCH   6   7
ENDBRANCH   5   6
ENDBRANCH   4   5
ENDBRANCH   3   4
ENDBRANCH   2   3
ENDBRANCH   1   2
BRANCH   1  10
ATOM     10  C   UNL     1      -8.775 -21.688  18.033  1.00  0.00     0.000 C 
BRANCH  10  11
ATOM     11  C   UNL     1     -10.210 -21.502  17.500  1.00  0.00    -0.000 C 
BRANCH  11  12
ATOM     12  C   UNL     1     -10.996 -20.340  18.135  1.00  0.00    -0.000 C 
BRANCH  12  13
ATOM     13  C   UNL     1     -11.058 -20.433  19.669  1.00  0.00    -0.000 C 
BRANCH  13  14
ATOM     14  C   UNL     1     -10.372 -19.245  20.361  1.00  0.00    -0.000 C 
BRANCH  14  15
ATOM     15  C   UNL     1     -10.392 -19.363  21.892  1.00  0.00    -0.003 C 
ATOM     16  C   UNL     1      -9.517 -18.291  22.536  1.00  0.00     0.004 C 
ENDBRANCH  14  15
ENDBRANCH  13  14
ENDBRANCH  12  13
ENDBRANCH  11  12
ENDBRANCH  10  11
ENDBRANCH   1  10
TORSDOF 12
ENDMDL
MODEL 9
REMARK VINA RESULT:    -1.558      5.270      7.595
REMARK INTER + INTRA:          -3.402
REMARK INTER:                  -3.133
REMARK INTRA:                  -0.269
REMARK UNBOUND:                -0.750
REMARK SMILES CCCCCCCCCCCCCC(=O)[O-]
REMARK SMILES IDX 8 1 9 2 10 3 11 4 12 5 13 6 14 7 15 8 16 9 7 10 6 11 5 12
REMARK SMILES IDX 4 13 3 14 2 15 1 16
REMARK H PARENT
REMARK Flexibility Score: inf
ROOT
ATOM      1  C   UNL     1      -3.911 -22.273  16.219  1.00  0.00     0.000 C 
ENDROOT
BRANCH   1   2
ATOM      2  C   UNL     1      -2.529 -22.947  16.242  1.00  0.00     0.000 C 
BRANCH   2   3
ATOM      3  C   UNL     1      -1.401 -21.989  15.830  1.00  0.00     0.000 C 
BRANCH   3   4
ATOM      4  C   UNL     1      -0.020 -22.445  16.332  1.00  0.00     0.000 C 
BRANCH   4   5
ATOM      5  C   UNL     1       0.858 -23.026  15.208  1.00  0.00     0.006 C 
BRANCH   5   6
ATOM      6  C   UNL     1       2.363 -22.765  15.387  1.00  0.00     0.053 C 
BRANCH   6   7
ATOM      7  C   UNL     1       3.119 -22.938  14.106  1.00  0.00     0.041 C 
ATOM      8  O   UNL     1       4.378 -22.953  14.110  1.00  0.00    -0.550 OA
ATOM      9  O   UNL     1       2.433 -23.121  12.912  1.00  0.00    -0.550 OA
ENDBRANCH   6   7
ENDBRANCH   5   6
ENDBRANCH   4   5
ENDBRANCH   3   4
ENDBRANCH   2   3
ENDBRANCH   1   2
BRANCH   1  10
ATOM     10  C   UNL     1      -4.970 -23.052  17.022  1.00  0.00     0.000 C 
BRANCH  10  11
ATOM     11  C   UNL     1      -6.245 -22.259  17.375  1.00  0.00    -0.000 C 
BRANCH  11  12
ATOM     12  C   UNL     1      -7.566 -22.933  16.963  1.00  0.00    -0.000 C 
BRANCH  12  13
ATOM     13  C   UNL     1      -8.801 -22.091  17.328  1.00  0.00    -0.000 C 
BRANCH  13  14
ATOM     14  C   UNL     1      -9.845 -22.889  18.124  1.00  0.00    -0.000 C 
BRANCH  14  15
ATOM     15  C   UNL     1     -10.745 -21.987  18.983  1.00  0.00    -0.003 C 
ATOM     16  C   UNL     1     -10.217 -21.887  20.411  1.00  0.00     0.004 C 
ENDBRANCH  14  15
ENDBRANCH  13  14
ENDBRANCH  12  13
ENDBRANCH  11  12
ENDBRANCH  10  11
ENDBRANCH   1  10
TORSDOF 12
ENDMDL
