MODEL 1
REMARK VINA RESULT:    -4.113      0.000      0.000
REMARK INTER + INTRA:          -8.056
REMARK INTER:                  -6.518
REMARK INTRA:                  -1.538
REMARK UNBOUND:                -1.538
REMARK SMILES CCCCCCCCCCCC(=O)[O-]
REMARK SMILES IDX 7 1 8 2 9 3 10 4 11 5 12 6 13 7 14 8 6 9 5 10 4 11 3 12 2 13
REMARK SMILES IDX 1 14
REMARK H PARENT
REMARK Flexibility Score: inf
ROOT
ATOM      1  C   UNL     1       9.575   8.544  26.090  1.00  0.00     0.000 C 
ENDROOT
BRANCH   1   2
ATOM      2  C   UNL     1      10.703   7.640  26.617  1.00  0.00     0.000 C 
BRANCH   2   3
ATOM      3  C   UNL     1      10.965   7.737  28.134  1.00  0.00     0.000 C 
BRANCH   3   4
ATOM      4  C   UNL     1      10.286   8.925  28.839  1.00  0.00     0.006 C 
BRANCH   4   5
ATOM      5  C   UNL     1       9.530   8.511  30.107  1.00  0.00     0.053 C 
BRANCH   5   6
ATOM      6  C   UNL     1       8.554   9.574  30.504  1.00  0.00     0.041 C 
ATOM      7  O   UNL     1       8.504   9.975  31.696  1.00  0.00    -0.550 OA
ATOM      8  O   UNL     1       7.667  10.087  29.566  1.00  0.00    -0.550 OA
ENDBRANCH   5   6
ENDBRANCH   4   5
ENDBRANCH   3   4
ENDBRANCH   2   3
ENDBRANCH   1   2
BRANCH   1   9
ATOM      9  C   UNL     1       8.325   7.756  25.673  1.00  0.00     0.000 C 
BRANCH   9  10
ATOM     10  C   UNL     1       7.300   7.707  26.813  1.00  0.00    -0.000 C 
BRANCH  10  11
ATOM     11  C   UNL     1       6.954   6.256  27.179  1.00  0.00    -0.000 C 
BRANCH  11  12
ATOM     12  C   UNL     1       7.643   5.791  28.471  1.00  0.00    -0.000 C 
BRANCH  12  13
ATOM     13  C   UNL     1       8.333   4.427  28.316  1.00  0.00    -0.003 C 
ATOM     14  C   UNL     1       9.123   4.356  27.013  1.00  0.00     0.004 C 
ENDBRANCH  12  13
ENDBRANCH  11  12
ENDBRANCH  10  11
ENDBRANCH   9  10
ENDBRANCH   1   9
TORSDOF 10
ENDMDL
MODEL 2
REMARK VINA RESULT:    -4.091      2.929      5.613
REMARK INTER + INTRA:          -8.021
REMARK INTER:                  -6.854
REMARK INTRA:                  -1.167
REMARK UNBOUND:                -1.538
REMARK SMILES CCCCCCCCCCCC(=O)[O-]
REMARK SMILES IDX 7 1 8 2 9 3 10 4 11 5 12 6 13 7 14 8 6 9 5 10 4 11 3 12 2 13
REMARK SMILES IDX 1 14
REMARK H PARENT
REMARK Flexibility Score: inf
ROOT
ATOM      1  C   UNL     1       4.967   8.819  29.910  1.00  0.00     0.000 C 
ENDROOT
BRANCH   1   2
ATOM      2  C   UNL     1       4.928   9.136  28.404  1.00  0.00     0.000 C 
BRANCH   2   3
ATOM      3  C   UNL     1       6.202   9.801  27.843  1.00  0.00     0.000 C 
BRANCH   3   4
ATOM      4  C   UNL     1       7.016   8.933  26.868  1.00  0.00     0.006 C 
BRANCH   4   5
ATOM      5  C   UNL     1       6.791   7.431  27.079  1.00  0.00     0.053 C 
BRANCH   5   6
ATOM      6  C   UNL     1       7.919   6.840  27.865  1.00  0.00     0.041 C 
ATOM      7  O   UNL     1       9.108   7.163  27.608  1.00  0.00    -0.550 OA
ATOM      8  O   UNL     1       7.659   5.895  28.850  1.00  0.00    -0.550 OA
ENDBRANCH   5   6
ENDBRANCH   4   5
ENDBRANCH   3   4
ENDBRANCH   2   3
ENDBRANCH   1   2
BRANCH   1   9
ATOM      9  C   UNL     1       4.034   9.719  30.733  1.00  0.00     0.000 C 
BRANCH   9  10
ATOM     10  C   UNL     1       4.790  10.381  31.892  1.00  0.00    -0.000 C 
BRANCH  10  11
ATOM     11  C   UNL     1       6.102  11.013  31.402  1.00  0.00    -0.000 C 
BRANCH  11  12
ATOM     12  C   UNL     1       7.324  10.537  32.203  1.00  0.00    -0.000 C 
BRANCH  12  13
ATOM     13  C   UNL     1       8.620  10.569  31.379  1.00  0.00    -0.003 C 
ATOM     14  C   UNL     1       8.780   9.292  30.558  1.00  0.00     0.004 C 
ENDBRANCH  12  13
ENDBRANCH  11  12
ENDBRANCH  10  11
ENDBRANCH   9  10
ENDBRANCH   1   9
TORSDOF 10
ENDMDL
MODEL 3
REMARK VINA RESULT:    -4.075      2.784      4.831
REMARK INTER + INTRA:          -7.995
REMARK INTER:                  -7.013
REMARK INTRA:                  -0.983
REMARK UNBOUND:                -1.538
REMARK SMILES CCCCCCCCCCCC(=O)[O-]
REMARK SMILES IDX 7 1 8 2 9 3 10 4 11 5 12 6 13 7 14 8 6 9 5 10 4 11 3 12 2 13
REMARK SMILES IDX 1 14
REMARK H PARENT
REMARK Flexibility Score: inf
ROOT
ATOM      1  C   UNL     1       4.082  10.046  31.410  1.00  0.00     0.000 C 
ENDROOT
BRANCH   1   2
ATOM      2  C   UNL     1       5.194  10.993  31.895  1.00  0.00     0.000 C 
BRANCH   2   3
ATOM      3  C   UNL     1       6.502  10.299  32.326  1.00  0.00     0.000 C 
BRANCH   3   4
ATOM      4  C   UNL     1       7.788  10.905  31.735  1.00  0.00     0.006 C 
BRANCH   4   5
ATOM      5  C   UNL     1       8.191  10.262  30.403  1.00  0.00     0.053 C 
BRANCH   5   6
ATOM      6  C   UNL     1       9.124   9.116  30.638  1.00  0.00     0.041 C 
ATOM      7  O   UNL     1       9.524   8.853  31.803  1.00  0.00    -0.550 OA
ATOM      8  O   UNL     1       9.592   8.369  29.564  1.00  0.00    -0.550 OA
ENDBRANCH   5   6
ENDBRANCH   4   5
ENDBRANCH   3   4
ENDBRANCH   2   3
ENDBRANCH   1   2
BRANCH   1   9
ATOM      9  C   UNL     1       4.577   9.026  30.374  1.00  0.00     0.000 C 
BRANCH   9  10
ATOM     10  C   UNL     1       3.934   9.278  29.004  1.00  0.00    -0.000 C 
BRANCH  10  11
ATOM     11  C   UNL     1       5.001   9.600  27.947  1.00  0.00    -0.000 C 
BRANCH  11  12
ATOM     12  C   UNL     1       6.098   8.527  27.869  1.00  0.00    -0.000 C 
BRANCH  12  13
ATOM     13  C   UNL     1       7.243   8.920  26.923  1.00  0.00    -0.003 C 
ATOM     14  C   UNL     1       7.728   7.718  26.118  1.00  0.00     0.004 C 
ENDBRANCH  12  13
ENDBRANCH  11  12
ENDBRANCH  10  11
ENDBRANCH   9  10
ENDBRANCH   1   9
TORSDOF 10
ENDMDL
MODEL 4
REMARK VINA RESULT:    -4.049      2.722      5.563
REMARK INTER + INTRA:          -7.954
REMARK INTER:                  -6.610
REMARK INTRA:                  -1.344
REMARK UNBOUND:                -1.538
REMARK SMILES CCCCCCCCCCCC(=O)[O-]
REMARK SMILES IDX 7 1 8 2 9 3 10 4 11 5 12 6 13 7 14 8 6 9 5 10 4 11 3 12 2 13
REMARK SMILES IDX 1 14
REMARK H PARENT
REMARK Flexibility Score: inf
ROOT
ATOM      1  C   UNL     1       5.679  10.325  31.453  1.00  0.00     0.000 C 
ENDROOT
BRANCH   1   2
ATOM      2  C   UNL     1       5.947  10.156  29.947  1.00  0.00     0.000 C 
BRANCH   2   3
ATOM      3  C   UNL     1       5.520   8.798  29.354  1.00  0.00     0.000 C 
BRANCH   3   4
ATOM      4  C   UNL     1       6.136   8.460  27.985  1.00  0.00     0.006 C 
BRANCH   4   5
ATOM      5  C   UNL     1       6.887   7.123  27.984  1.00  0.00     0.053 C 
BRANCH   5   6
ATOM      6  C   UNL     1       7.065   6.626  26.584  1.00  0.00     0.041 C 
ATOM      7  O   UNL     1       7.866   7.204  25.803  1.00  0.00    -0.550 OA
ATOM      8  O   UNL     1       6.310   5.553  26.127  1.00  0.00    -0.550 OA
ENDBRANCH   5   6
ENDBRANCH   4   5
ENDBRANCH   3   4
ENDBRANCH   2   3
ENDBRANCH   1   2
BRANCH   1   9
ATOM      9  C   UNL     1       6.968  10.419  32.281  1.00  0.00     0.000 C 
BRANCH   9  10
ATOM     10  C   UNL     1       8.203  10.466  31.373  1.00  0.00    -0.000 C 
BRANCH  10  11
ATOM     11  C   UNL     1       9.114   9.255  31.622  1.00  0.00    -0.000 C 
BRANCH  11  12
ATOM     12  C   UNL     1       9.499   8.527  30.325  1.00  0.00    -0.000 C 
BRANCH  12  13
ATOM     13  C   UNL     1       9.595   9.475  29.120  1.00  0.00    -0.003 C 
ATOM     14  C   UNL     1      10.248   8.783  27.927  1.00  0.00     0.004 C 
ENDBRANCH  12  13
ENDBRANCH  11  12
ENDBRANCH  10  11
ENDBRANCH   9  10
ENDBRANCH   1   9
TORSDOF 10
ENDMDL
MODEL 5
REMARK VINA RESULT:    -4.039      3.131      5.404
REMARK INTER + INTRA:          -7.939
REMARK INTER:                  -6.964
REMARK INTRA:                  -0.975
REMARK UNBOUND:                -1.538
REMARK SMILES CCCCCCCCCCCC(=O)[O-]
REMARK SMILES IDX 7 1 8 2 9 3 10 4 11 5 12 6 13 7 14 8 6 9 5 10 4 11 3 12 2 13
REMARK SMILES IDX 1 14
REMARK H PARENT
REMARK Flexibility Score: inf
ROOT
ATOM      1  C   UNL     1       7.773  11.121  31.763  1.00  0.00     0.000 C 
ENDROOT
BRANCH   1   2
ATOM      2  C   UNL     1       8.435  10.722  30.432  1.00  0.00     0.000 C 
BRANCH   2   3
ATOM      3  C   UNL     1       8.273   9.239  30.040  1.00  0.00     0.000 C 
BRANCH   3   4
ATOM      4  C   UNL     1       9.590   8.466  29.849  1.00  0.00     0.006 C 
BRANCH   4   5
ATOM      5  C   UNL     1      10.448   9.025  28.707  1.00  0.00     0.053 C 
BRANCH   5   6
ATOM      6  C   UNL     1      10.366   8.134  27.508  1.00  0.00     0.041 C 
ATOM      7  O   UNL     1       9.245   7.797  27.044  1.00  0.00    -0.550 OA
ATOM      8  O   UNL     1      11.528   7.635  26.933  1.00  0.00    -0.550 OA
ENDBRANCH   5   6
ENDBRANCH   4   5
ENDBRANCH   3   4
ENDBRANCH   2   3
ENDBRANCH   1   2
BRANCH   1   9
ATOM      9  C   UNL     1       6.615  10.192  32.156  1.00  0.00     0.000 C 
BRANCH   9  10
ATOM     10  C   UNL     1       5.309  10.980  32.317  1.00  0.00    -0.000 C 
BRANCH  10  11
ATOM     11  C   UNL     1       4.174  10.334  31.508  1.00  0.00    -0.000 C 
BRANCH  11  12
ATOM     12  C   UNL     1       4.655   9.149  30.656  1.00  0.00    -0.000 C 
BRANCH  12  13
ATOM     13  C   UNL     1       4.030   9.137  29.253  1.00  0.00    -0.003 C 
ATOM     14  C   UNL     1       5.046   9.557  28.195  1.00  0.00     0.004 C 
ENDBRANCH  12  13
ENDBRANCH  11  12
ENDBRANCH  10  11
ENDBRANCH   9  10
ENDBRANCH   1   9
TORSDOF 10
ENDMDL
MODEL 6
REMARK VINA RESULT:    -3.995      2.429      5.244
REMARK INTER + INTRA:          -7.868
REMARK INTER:                  -6.913
REMARK INTRA:                  -0.955
REMARK UNBOUND:                -1.538
REMARK SMILES CCCCCCCCCCCC(=O)[O-]
REMARK SMILES IDX 7 1 8 2 9 3 10 4 11 5 12 6 13 7 14 8 6 9 5 10 4 11 3 12 2 13
REMARK SMILES IDX 1 14
REMARK H PARENT
REMARK Flexibility Score: inf
ROOT
ATOM      1  C   UNL     1      10.016   8.876  29.155  1.00  0.00     0.000 C 
ENDROOT
BRANCH   1   2
ATOM      2  C   UNL     1       9.823  10.134  28.289  1.00  0.00     0.000 C 
BRANCH   2   3
ATOM      3  C   UNL     1       9.379   9.866  26.836  1.00  0.00     0.000 C 
BRANCH   3   4
ATOM      4  C   UNL     1       8.623   8.544  26.618  1.00  0.00     0.006 C 
BRANCH   4   5
ATOM      5  C   UNL     1       7.106   8.689  26.797  1.00  0.00     0.053 C 
BRANCH   5   6
ATOM      6  C   UNL     1       6.558   7.530  27.568  1.00  0.00     0.041 C 
ATOM      7  O   UNL     1       6.503   6.388  27.042  1.00  0.00    -0.550 OA
ATOM      8  O   UNL     1       6.063   7.722  28.852  1.00  0.00    -0.550 OA
ENDBRANCH   5   6
ENDBRANCH   4   5
ENDBRANCH   3   4
ENDBRANCH   2   3
ENDBRANCH   1   2
BRANCH   1   9
ATOM      9  C   UNL     1       9.133   8.876  30.411  1.00  0.00     0.000 C 
BRANCH   9  10
ATOM     10  C   UNL     1       8.145  10.050  30.388  1.00  0.00    -0.000 C 
BRANCH  10  11
ATOM     11  C   UNL     1       8.105  10.762  31.749  1.00  0.00    -0.000 C 
BRANCH  11  12
ATOM     12  C   UNL     1       6.716  10.713  32.402  1.00  0.00    -0.000 C 
BRANCH  12  13
ATOM     13  C   UNL     1       5.599  10.403  31.394  1.00  0.00    -0.003 C 
ATOM     14  C   UNL     1       4.225  10.706  31.986  1.00  0.00     0.004 C 
ENDBRANCH  12  13
ENDBRANCH  11  12
ENDBRANCH  10  11
ENDBRANCH   9  10
ENDBRANCH   1   9
TORSDOF 10
ENDMDL
MODEL 7
REMARK VINA RESULT:    -3.994      3.277      5.604
REMARK INTER + INTRA:          -7.867
REMARK INTER:                  -6.727
REMARK INTRA:                  -1.140
REMARK UNBOUND:                -1.538
REMARK SMILES CCCCCCCCCCCC(=O)[O-]
REMARK SMILES IDX 7 1 8 2 9 3 10 4 11 5 12 6 13 7 14 8 6 9 5 10 4 11 3 12 2 13
REMARK SMILES IDX 1 14
REMARK H PARENT
REMARK Flexibility Score: inf
ROOT
ATOM      1  C   UNL     1       4.175   9.108  28.792  1.00  0.00     0.000 C 
ENDROOT
BRANCH   1   2
ATOM      2  C   UNL     1       5.282   9.722  27.916  1.00  0.00     0.000 C 
BRANCH   2   3
ATOM      3  C   UNL     1       6.684   9.109  28.109  1.00  0.00     0.000 C 
BRANCH   3   4
ATOM      4  C   UNL     1       7.849   9.964  27.578  1.00  0.00     0.006 C 
BRANCH   4   5
ATOM      5  C   UNL     1       9.200   9.243  27.657  1.00  0.00     0.053 C 
BRANCH   5   6
ATOM      6  C   UNL     1       9.229   8.082  26.713  1.00  0.00     0.041 C 
ATOM      7  O   UNL     1       9.258   6.904  27.157  1.00  0.00    -0.550 OA
ATOM      8  O   UNL     1       9.272   8.303  25.342  1.00  0.00    -0.550 OA
ENDBRANCH   5   6
ENDBRANCH   4   5
ENDBRANCH   3   4
ENDBRANCH   2   3
ENDBRANCH   1   2
BRANCH   1   9
ATOM      9  C   UNL     1       4.595   8.953  30.260  1.00  0.00     0.000 C 
BRANCH   9  10
ATOM     10  C   UNL     1       3.890   9.989  31.145  1.00  0.00    -0.000 C 
BRANCH  10  11
ATOM     11  C   UNL     1       4.889  10.679  32.087  1.00  0.00    -0.000 C 
BRANCH  11  12
ATOM     12  C   UNL     1       6.229  10.990  31.402  1.00  0.00    -0.000 C 
BRANCH  12  13
ATOM     13  C   UNL     1       7.439  10.547  32.239  1.00  0.00    -0.003 C 
ATOM     14  C   UNL     1       8.484   9.854  31.370  1.00  0.00     0.004 C 
ENDBRANCH  12  13
ENDBRANCH  11  12
ENDBRANCH  10  11
ENDBRANCH   9  10
ENDBRANCH   1   9
TORSDOF 10
ENDMDL
MODEL 8
REMARK VINA RESULT:    -3.976      3.165      5.542
REMARK INTER + INTRA:          -7.839
REMARK INTER:                  -6.853
REMARK INTRA:                  -0.985
REMARK UNBOUND:                -1.538
REMARK SMILES CCCCCCCCCCCC(=O)[O-]
REMARK SMILES IDX 7 1 8 2 9 3 10 4 11 5 12 6 13 7 14 8 6 9 5 10 4 11 3 12 2 13
REMARK SMILES IDX 1 14
REMARK H PARENT
REMARK Flexibility Score: inf
ROOT
ATOM      1  C   UNL     1       8.659  10.632  31.522  1.00  0.00     0.000 C 
ENDROOT
BRANCH   1   2
ATOM      2  C   UNL     1       9.135   9.183  31.312  1.00  0.00     0.000 C 
BRANCH   2   3
ATOM      3  C   UNL     1       9.318   8.762  29.839  1.00  0.00     0.000 C 
BRANCH   3   4
ATOM      4  C   UNL     1       8.058   8.882  28.964  1.00  0.00     0.006 C 
BRANCH   4   5
ATOM      5  C   UNL     1       7.346   7.538  28.760  1.00  0.00     0.053 C 
BRANCH   5   6
ATOM      6  C   UNL     1       7.482   7.087  27.340  1.00  0.00     0.041 C 
ATOM      7  O   UNL     1       6.582   6.385  26.809  1.00  0.00    -0.550 OA
ATOM      8  O   UNL     1       8.626   7.401  26.617  1.00  0.00    -0.550 OA
ENDBRANCH   5   6
ENDBRANCH   4   5
ENDBRANCH   3   4
ENDBRANCH   2   3
ENDBRANCH   1   2
BRANCH   1   9
ATOM      9  C   UNL     1       7.351  10.720  32.321  1.00  0.00     0.000 C 
BRANCH   9  10
ATOM     10  C   UNL     1       6.180  11.121  31.415  1.00  0.00    -0.000 C 
BRANCH  10  11
ATOM     11  C   UNL     1       4.838  10.941  32.140  1.00  0.00    -0.000 C 
BRANCH  11  12
ATOM     12  C   UNL     1       3.875  10.015  31.381  1.00  0.00    -0.000 C 
BRANCH  12  13
ATOM     13  C   UNL     1       4.593   9.134  30.347  1.00  0.00    -0.003 C 
ATOM     14  C   UNL     1       3.939   9.256  28.973  1.00  0.00     0.004 C 
ENDBRANCH  12  13
ENDBRANCH  11  12
ENDBRANCH  10  11
ENDBRANCH   9  10
ENDBRANCH   1   9
TORSDOF 10
ENDMDL
MODEL 9
REMARK VINA RESULT:    -3.954      2.922      5.194
REMARK INTER + INTRA:          -7.804
REMARK INTER:                  -6.370
REMARK INTRA:                  -1.434
REMARK UNBOUND:                -1.538
REMARK SMILES CCCCCCCCCCCC(=O)[O-]
REMARK SMILES IDX 7 1 8 2 9 3 10 4 11 5 12 6 13 7 14 8 6 9 5 10 4 11 3 12 2 13
REMARK SMILES IDX 1 14
REMARK H PARENT
REMARK Flexibility Score: inf
ROOT
ATOM      1  C   UNL     1       6.832  10.335  32.144  1.00  0.00     0.000 C 
ENDROOT
BRANCH   1   2
ATOM      2  C   UNL     1       8.077  11.109  31.675  1.00  0.00     0.000 C 
BRANCH   2   3
ATOM      3  C   UNL     1       8.873  10.438  30.537  1.00  0.00     0.000 C 
BRANCH   3   4
ATOM      4  C   UNL     1       9.116   8.929  30.711  1.00  0.00     0.006 C 
BRANCH   4   5
ATOM      5  C   UNL     1       8.675   8.111  29.490  1.00  0.00     0.053 C 
BRANCH   5   6
ATOM      6  C   UNL     1       9.751   8.104  28.451  1.00  0.00     0.041 C 
ATOM      7  O   UNL     1       9.454   8.000  27.231  1.00  0.00    -0.550 OA
ATOM      8  O   UNL     1      11.086   8.164  28.832  1.00  0.00    -0.550 OA
ENDBRANCH   5   6
ENDBRANCH   4   5
ENDBRANCH   3   4
ENDBRANCH   2   3
ENDBRANCH   1   2
BRANCH   1   9
ATOM      9  C   UNL     1       5.518  10.990  31.694  1.00  0.00     0.000 C 
BRANCH   9  10
ATOM     10  C   UNL     1       4.459   9.929  31.367  1.00  0.00    -0.000 C 
BRANCH  10  11
ATOM     11  C   UNL     1       4.957   8.976  30.270  1.00  0.00    -0.000 C 
BRANCH  11  12
ATOM     12  C   UNL     1       4.529   9.420  28.863  1.00  0.00    -0.000 C 
BRANCH  12  13
ATOM     13  C   UNL     1       5.700   9.438  27.868  1.00  0.00    -0.003 C 
ATOM     14  C   UNL     1       6.445  10.769  27.921  1.00  0.00     0.004 C 
ENDBRANCH  12  13
ENDBRANCH  11  12
ENDBRANCH  10  11
ENDBRANCH   9  10
ENDBRANCH   1   9
TORSDOF 10
ENDMDL
