MODEL 1
REMARK VINA RESULT:    -5.218      0.000      0.000
REMARK INTER + INTRA:          -5.905
REMARK INTER:                  -5.675
REMARK INTRA:                  -0.230
REMARK UNBOUND:                -0.230
REMARK SMILES C[C@H]1[C@H](C)CC[C@]2(C(=O)[O-])CC[C@@]3(C)C(=CC[C@@H]4[C@]5(C)CC[C@H](O)C(C)(C)[C@@H]5CC[C@]43C)[C@H]12
REMARK SMILES IDX 7 1 6 2 11 3 33 4 5 5 12 6 15 7 2 8 3 9 13 10 16 11 1 12
REMARK SMILES IDX 4 13 14 14 31 15 17 16 18 17 30 18 32 19 19 20 29 21 28 22
REMARK SMILES IDX 21 23 20 24 25 25 22 26 23 27 26 28 27 29 8 30 9 31 10 32
REMARK SMILES IDX 24 33
REMARK H PARENT 24 34
REMARK Flexibility Score: inf
ROOT
ATOM      1  C   UNL     1      16.329  59.967  16.176  1.00  0.00     0.017 C 
ATOM      2  C   UNL     1      16.163  59.862  14.625  1.00  0.00     0.014 C 
ATOM      3  C   UNL     1      17.767  59.433  16.541  1.00  0.00     0.014 C 
ATOM      4  C   UNL     1      15.151  59.189  16.922  1.00  0.00     0.030 C 
ATOM      5  C   UNL     1      14.697  59.814  14.209  1.00  0.00     0.004 C 
ATOM      6  C   UNL     1      17.792  58.229  17.490  1.00  0.00     0.013 C 
ATOM      7  C   UNL     1      15.514  58.779  18.362  1.00  0.00    -0.063 C 
ATOM      8  C   UNL     1      14.582  58.001  16.065  1.00  0.00    -0.003 C 
ATOM      9  C   UNL     1      14.041  58.498  14.678  1.00  0.00    -0.011 C 
ATOM     10  C   UNL     1      16.954  58.436  18.782  1.00  0.00    -0.006 C 
ATOM     11  C   UNL     1      14.556  58.783  19.321  1.00  0.00    -0.027 C 
ATOM     12  C   UNL     1      13.446  57.240  16.780  1.00  0.00     0.008 C 
ATOM     13  C   UNL     1      14.201  57.404  13.605  1.00  0.00     0.008 C 
ATOM     14  C   UNL     1      17.475  59.747  19.475  1.00  0.00     0.017 C 
ATOM     15  C   UNL     1      17.024  57.129  19.785  1.00  0.00    -0.020 C 
ATOM     16  C   UNL     1      14.792  58.061  20.625  1.00  0.00     0.032 C 
ATOM     17  C   UNL     1      15.572  56.763  20.294  1.00  0.00     0.006 C 
ATOM     18  C   UNL     1      17.518  55.834  19.077  1.00  0.00     0.008 C 
ATOM     19  C   UNL     1      18.034  57.428  20.944  1.00  0.00     0.012 C 
ATOM     20  C   UNL     1      15.357  55.504  21.237  1.00  0.00    -0.025 C 
ATOM     21  C   UNL     1      17.512  54.589  19.984  1.00  0.00     0.005 C 
ATOM     22  C   UNL     1      16.149  54.240  20.661  1.00  0.00     0.003 C 
ATOM     23  C   UNL     1      15.727  55.825  22.713  1.00  0.00     0.010 C 
ATOM     24  C   UNL     1      13.824  55.174  21.199  1.00  0.00     0.012 C 
ATOM     25  C   UNL     1      16.283  53.002  21.675  1.00  0.00    -0.006 C 
ATOM     26  C   UNL     1      15.707  54.599  23.627  1.00  0.00     0.033 C 
ATOM     27  C   UNL     1      16.642  53.487  23.118  1.00  0.00     0.120 C 
ATOM     28  C   UNL     1      17.382  51.991  21.216  1.00  0.00     0.014 C 
ATOM     29  C   UNL     1      14.968  52.153  21.719  1.00  0.00     0.014 C 
ENDROOT
BRANCH   1  30
ATOM     30  C   UNL     1      16.277  61.460  16.526  1.00  0.00     0.048 C 
ATOM     31  O   UNL     1      17.347  62.123  16.609  1.00  0.00    -0.550 OA
ATOM     32  O   UNL     1      15.070  62.125  16.730  1.00  0.00    -0.550 OA
ENDBRANCH   1  30
BRANCH  27  33
ATOM     33  O   UNL     1      17.973  53.944  23.170  1.00  0.00    -0.393 OA
ATOM     34  H   UNL     1      18.383  53.746  22.287  1.00  0.00     0.210 HD
ENDBRANCH  27  33
TORSDOF 2
ENDMDL
MODEL 2
REMARK VINA RESULT:    -5.003      1.734      7.583
REMARK INTER + INTRA:          -5.671
REMARK INTER:                  -5.415
REMARK INTRA:                  -0.256
REMARK UNBOUND:                -0.230
REMARK SMILES C[C@H]1[C@H](C)CC[C@]2(C(=O)[O-])CC[C@@]3(C)C(=CC[C@@H]4[C@]5(C)CC[C@H](O)C(C)(C)[C@@H]5CC[C@]43C)[C@H]12
REMARK SMILES IDX 7 1 6 2 11 3 33 4 5 5 12 6 15 7 2 8 3 9 13 10 16 11 1 12
REMARK SMILES IDX 4 13 14 14 31 15 17 16 18 17 30 18 32 19 19 20 29 21 28 22
REMARK SMILES IDX 21 23 20 24 25 25 22 26 23 27 26 28 27 29 8 30 9 31 10 32
REMARK SMILES IDX 24 33
REMARK H PARENT 24 34
REMARK Flexibility Score: inf
ROOT
ATOM      1  C   UNL     1      14.408  56.134  22.997  1.00  0.00     0.017 C 
ATOM      2  C   UNL     1      14.112  54.694  23.533  1.00  0.00     0.014 C 
ATOM      3  C   UNL     1      13.083  56.685  22.346  1.00  0.00     0.014 C 
ATOM      4  C   UNL     1      15.652  56.115  21.996  1.00  0.00     0.030 C 
ATOM      5  C   UNL     1      15.382  53.864  23.673  1.00  0.00     0.004 C 
ATOM      6  C   UNL     1      13.189  57.047  20.861  1.00  0.00     0.013 C 
ATOM      7  C   UNL     1      15.670  57.318  21.033  1.00  0.00    -0.063 C 
ATOM      8  C   UNL     1      15.811  54.734  21.264  1.00  0.00    -0.003 C 
ATOM      9  C   UNL     1      15.988  53.557  22.287  1.00  0.00    -0.011 C 
ATOM     10  C   UNL     1      14.379  57.992  20.534  1.00  0.00    -0.006 C 
ATOM     11  C   UNL     1      16.855  57.857  20.656  1.00  0.00    -0.027 C 
ATOM     12  C   UNL     1      17.007  54.709  20.290  1.00  0.00     0.008 C 
ATOM     13  C   UNL     1      15.402  52.248  21.722  1.00  0.00     0.008 C 
ATOM     14  C   UNL     1      14.233  59.265  21.445  1.00  0.00     0.017 C 
ATOM     15  C   UNL     1      14.447  58.376  18.931  1.00  0.00    -0.020 C 
ATOM     16  C   UNL     1      16.918  58.781  19.465  1.00  0.00     0.032 C 
ATOM     17  C   UNL     1      15.931  58.228  18.406  1.00  0.00     0.006 C 
ATOM     18  C   UNL     1      13.625  57.409  18.030  1.00  0.00     0.008 C 
ATOM     19  C   UNL     1      13.852  59.809  18.723  1.00  0.00     0.012 C 
ATOM     20  C   UNL     1      16.259  58.491  16.875  1.00  0.00    -0.025 C 
ATOM     21  C   UNL     1      13.745  57.710  16.525  1.00  0.00     0.005 C 
ATOM     22  C   UNL     1      15.195  57.743  15.945  1.00  0.00     0.003 C 
ATOM     23  C   UNL     1      16.365  60.011  16.564  1.00  0.00     0.010 C 
ATOM     24  C   UNL     1      17.668  57.858  16.604  1.00  0.00     0.012 C 
ATOM     25  C   UNL     1      15.213  58.182  14.401  1.00  0.00    -0.006 C 
ATOM     26  C   UNL     1      16.503  60.321  15.073  1.00  0.00     0.033 C 
ATOM     27  C   UNL     1      15.339  59.734  14.254  1.00  0.00     0.120 C 
ATOM     28  C   UNL     1      13.920  57.728  13.652  1.00  0.00     0.014 C 
ATOM     29  C   UNL     1      16.378  57.485  13.620  1.00  0.00     0.014 C 
ENDROOT
BRANCH   1  30
ATOM     30  C   UNL     1      14.730  57.002  24.221  1.00  0.00     0.048 C 
ATOM     31  O   UNL     1      13.792  57.478  24.918  1.00  0.00    -0.550 OA
ATOM     32  O   UNL     1      16.042  57.265  24.609  1.00  0.00    -0.550 OA
ENDBRANCH   1  30
BRANCH  27  33
ATOM     33  O   UNL     1      14.141  60.367  14.637  1.00  0.00    -0.393 OA
ATOM     34  H   UNL     1      13.565  59.672  15.052  1.00  0.00     0.210 HD
ENDBRANCH  27  33
TORSDOF 2
ENDMDL
MODEL 3
REMARK VINA RESULT:    -4.507      2.877      7.743
REMARK INTER + INTRA:          -5.131
REMARK INTER:                  -4.879
REMARK INTRA:                  -0.252
REMARK UNBOUND:                -0.230
REMARK SMILES C[C@H]1[C@H](C)CC[C@]2(C(=O)[O-])CC[C@@]3(C)C(=CC[C@@H]4[C@]5(C)CC[C@H](O)C(C)(C)[C@@H]5CC[C@]43C)[C@H]12
REMARK SMILES IDX 7 1 6 2 11 3 33 4 5 5 12 6 15 7 2 8 3 9 13 10 16 11 1 12
REMARK SMILES IDX 4 13 14 14 31 15 17 16 18 17 30 18 32 19 19 20 29 21 28 22
REMARK SMILES IDX 21 23 20 24 25 25 22 26 23 27 26 28 27 29 8 30 9 31 10 32
REMARK SMILES IDX 24 33
REMARK H PARENT 24 34
REMARK Flexibility Score: inf
ROOT
ATOM      1  C   UNL     1      16.186  53.974  22.304  1.00  0.00     0.017 C 
ATOM      2  C   UNL     1      16.871  52.755  21.604  1.00  0.00     0.014 C 
ATOM      3  C   UNL     1      14.627  53.807  22.141  1.00  0.00     0.014 C 
ATOM      4  C   UNL     1      16.745  55.348  21.712  1.00  0.00     0.030 C 
ATOM      5  C   UNL     1      18.311  53.057  21.210  1.00  0.00     0.004 C 
ATOM      6  C   UNL     1      13.924  54.946  21.395  1.00  0.00     0.013 C 
ATOM      7  C   UNL     1      15.783  56.533  21.924  1.00  0.00    -0.063 C 
ATOM      8  C   UNL     1      17.233  55.205  20.226  1.00  0.00    -0.003 C 
ATOM      9  C   UNL     1      18.358  54.119  20.090  1.00  0.00    -0.011 C 
ATOM     10  C   UNL     1      14.255  56.356  21.958  1.00  0.00    -0.006 C 
ATOM     11  C   UNL     1      16.285  57.770  22.158  1.00  0.00    -0.027 C 
ATOM     12  C   UNL     1      17.770  56.530  19.644  1.00  0.00     0.008 C 
ATOM     13  C   UNL     1      18.304  53.445  18.706  1.00  0.00     0.008 C 
ATOM     14  C   UNL     1      13.903  56.346  23.489  1.00  0.00     0.017 C 
ATOM     15  C   UNL     1      13.463  57.552  21.143  1.00  0.00    -0.020 C 
ATOM     16  C   UNL     1      15.399  58.983  22.016  1.00  0.00     0.032 C 
ATOM     17  C   UNL     1      14.466  58.727  20.804  1.00  0.00     0.006 C 
ATOM     18  C   UNL     1      12.923  57.100  19.755  1.00  0.00     0.008 C 
ATOM     19  C   UNL     1      12.226  58.012  21.985  1.00  0.00     0.012 C 
ATOM     20  C   UNL     1      13.964  59.983  19.974  1.00  0.00    -0.025 C 
ATOM     21  C   UNL     1      12.252  58.229  18.951  1.00  0.00     0.005 C 
ATOM     22  C   UNL     1      13.119  59.505  18.703  1.00  0.00     0.003 C 
ATOM     23  C   UNL     1      13.185  60.988  20.870  1.00  0.00     0.010 C 
ATOM     24  C   UNL     1      15.248  60.718  19.453  1.00  0.00     0.012 C 
ATOM     25  C   UNL     1      12.287  60.662  17.965  1.00  0.00    -0.006 C 
ATOM     26  C   UNL     1      12.529  62.125  20.085  1.00  0.00     0.033 C 
ATOM     27  C   UNL     1      11.576  61.596  18.998  1.00  0.00     0.120 C 
ATOM     28  C   UNL     1      11.197  60.075  17.011  1.00  0.00     0.014 C 
ATOM     29  C   UNL     1      13.203  61.518  17.027  1.00  0.00     0.014 C 
ENDROOT
BRANCH   1  30
ATOM     30  C   UNL     1      16.519  53.870  23.798  1.00  0.00     0.048 C 
ATOM     31  O   UNL     1      15.800  53.161  24.554  1.00  0.00    -0.550 OA
ATOM     32  O   UNL     1      17.620  54.520  24.352  1.00  0.00    -0.550 OA
ENDBRANCH   1  30
BRANCH  27  33
ATOM     33  O   UNL     1      10.501  60.926  19.614  1.00  0.00    -0.393 OA
ATOM     34  H   UNL     1      10.287  60.139  19.048  1.00  0.00     0.210 HD
ENDBRANCH  27  33
TORSDOF 2
ENDMDL
MODEL 4
REMARK VINA RESULT:    -4.460      2.368      3.494
REMARK INTER + INTRA:          -5.080
REMARK INTER:                  -4.837
REMARK INTRA:                  -0.243
REMARK UNBOUND:                -0.230
REMARK SMILES C[C@H]1[C@H](C)CC[C@]2(C(=O)[O-])CC[C@@]3(C)C(=CC[C@@H]4[C@]5(C)CC[C@H](O)C(C)(C)[C@@H]5CC[C@]43C)[C@H]12
REMARK SMILES IDX 7 1 6 2 11 3 33 4 5 5 12 6 15 7 2 8 3 9 13 10 16 11 1 12
REMARK SMILES IDX 4 13 14 14 31 15 17 16 18 17 30 18 32 19 19 20 29 21 28 22
REMARK SMILES IDX 21 23 20 24 25 25 22 26 23 27 26 28 27 29 8 30 9 31 10 32
REMARK SMILES IDX 24 33
REMARK H PARENT 24 34
REMARK Flexibility Score: inf
ROOT
ATOM      1  C   UNL     1      12.660  60.858  17.894  1.00  0.00     0.017 C 
ATOM      2  C   UNL     1      13.227  61.659  16.676  1.00  0.00     0.014 C 
ATOM      3  C   UNL     1      13.318  61.444  19.201  1.00  0.00     0.014 C 
ATOM      4  C   UNL     1      12.908  59.292  17.701  1.00  0.00     0.030 C 
ATOM      5  C   UNL     1      13.118  60.874  15.375  1.00  0.00     0.004 C 
ATOM      6  C   UNL     1      14.130  60.440  20.027  1.00  0.00     0.013 C 
ATOM      7  C   UNL     1      12.892  58.510  19.028  1.00  0.00    -0.063 C 
ATOM      8  C   UNL     1      14.173  58.991  16.820  1.00  0.00    -0.003 C 
ATOM      9  C   UNL     1      14.056  59.648  15.399  1.00  0.00    -0.011 C 
ATOM     10  C   UNL     1      13.356  59.134  20.357  1.00  0.00    -0.006 C 
ATOM     11  C   UNL     1      12.391  57.251  19.058  1.00  0.00    -0.027 C 
ATOM     12  C   UNL     1      14.425  57.480  16.633  1.00  0.00     0.008 C 
ATOM     13  C   UNL     1      15.448  60.024  14.854  1.00  0.00     0.008 C 
ATOM     14  C   UNL     1      12.020  59.547  21.074  1.00  0.00     0.017 C 
ATOM     15  C   UNL     1      14.255  58.090  21.264  1.00  0.00    -0.020 C 
ATOM     16  C   UNL     1      12.683  56.351  20.233  1.00  0.00     0.032 C 
ATOM     17  C   UNL     1      14.145  56.629  20.669  1.00  0.00     0.006 C 
ATOM     18  C   UNL     1      15.780  58.401  21.231  1.00  0.00     0.008 C 
ATOM     19  C   UNL     1      13.801  58.190  22.758  1.00  0.00     0.012 C 
ATOM     20  C   UNL     1      14.963  55.440  21.331  1.00  0.00    -0.025 C 
ATOM     21  C   UNL     1      16.637  57.386  22.010  1.00  0.00     0.005 C 
ATOM     22  C   UNL     1      16.474  55.889  21.596  1.00  0.00     0.003 C 
ATOM     23  C   UNL     1      14.260  54.906  22.612  1.00  0.00     0.010 C 
ATOM     24  C   UNL     1      14.980  54.272  20.284  1.00  0.00     0.012 C 
ATOM     25  C   UNL     1      17.318  54.908  22.546  1.00  0.00    -0.006 C 
ATOM     26  C   UNL     1      15.095  53.883  23.384  1.00  0.00     0.033 C 
ATOM     27  C   UNL     1      16.472  54.446  23.778  1.00  0.00     0.120 C 
ATOM     28  C   UNL     1      18.617  55.592  23.079  1.00  0.00     0.014 C 
ATOM     29  C   UNL     1      17.833  53.653  21.763  1.00  0.00     0.014 C 
ENDROOT
BRANCH   1  30
ATOM     30  C   UNL     1      11.154  61.149  17.951  1.00  0.00     0.048 C 
ATOM     31  O   UNL     1      10.729  62.125  18.628  1.00  0.00    -0.550 OA
ATOM     32  O   UNL     1      10.230  60.378  17.249  1.00  0.00    -0.550 OA
ENDBRANCH   1  30
BRANCH  27  33
ATOM     33  O   UNL     1      16.293  55.511  24.683  1.00  0.00    -0.393 OA
ATOM     34  H   UNL     1      17.197  55.800  24.975  1.00  0.00     0.210 HD
ENDBRANCH  27  33
TORSDOF 2
ENDMDL
MODEL 5
REMARK VINA RESULT:    -4.360      2.715      4.189
REMARK INTER + INTRA:          -4.972
REMARK INTER:                  -4.748
REMARK INTRA:                  -0.224
REMARK UNBOUND:                -0.230
REMARK SMILES C[C@H]1[C@H](C)CC[C@]2(C(=O)[O-])CC[C@@]3(C)C(=CC[C@@H]4[C@]5(C)CC[C@H](O)C(C)(C)[C@@H]5CC[C@]43C)[C@H]12
REMARK SMILES IDX 7 1 6 2 11 3 33 4 5 5 12 6 15 7 2 8 3 9 13 10 16 11 1 12
REMARK SMILES IDX 4 13 14 14 31 15 17 16 18 17 30 18 32 19 19 20 29 21 28 22
REMARK SMILES IDX 21 23 20 24 25 25 22 26 23 27 26 28 27 29 8 30 9 31 10 32
REMARK SMILES IDX 24 33
REMARK H PARENT 24 34
REMARK Flexibility Score: inf
ROOT
ATOM      1  C   UNL     1      14.640  59.215  16.056  1.00  0.00     0.017 C 
ATOM      2  C   UNL     1      13.770  59.941  14.979  1.00  0.00     0.014 C 
ATOM      3  C   UNL     1      14.153  57.718  16.136  1.00  0.00     0.014 C 
ATOM      4  C   UNL     1      14.565  59.986  17.452  1.00  0.00     0.030 C 
ATOM      5  C   UNL     1      13.748  61.451  15.185  1.00  0.00     0.004 C 
ATOM      6  C   UNL     1      13.634  57.275  17.509  1.00  0.00     0.013 C 
ATOM      7  C   UNL     1      14.915  59.091  18.656  1.00  0.00    -0.063 C 
ATOM      8  C   UNL     1      13.215  60.767  17.633  1.00  0.00    -0.003 C 
ATOM      9  C   UNL     1      12.995  61.813  16.482  1.00  0.00    -0.011 C 
ATOM     10  C   UNL     1      14.616  57.581  18.674  1.00  0.00    -0.006 C 
ATOM     11  C   UNL     1      15.571  59.621  19.717  1.00  0.00    -0.027 C 
ATOM     12  C   UNL     1      13.131  61.511  18.982  1.00  0.00     0.008 C 
ATOM     13  C   UNL     1      11.493  62.004  16.197  1.00  0.00     0.008 C 
ATOM     14  C   UNL     1      15.992  56.912  18.317  1.00  0.00     0.017 C 
ATOM     15  C   UNL     1      14.031  57.071  20.130  1.00  0.00    -0.020 C 
ATOM     16  C   UNL     1      15.608  58.877  21.029  1.00  0.00     0.032 C 
ATOM     17  C   UNL     1      14.222  58.207  21.213  1.00  0.00     0.006 C 
ATOM     18  C   UNL     1      12.498  56.807  20.121  1.00  0.00     0.008 C 
ATOM     19  C   UNL     1      14.724  55.721  20.513  1.00  0.00     0.012 C 
ATOM     20  C   UNL     1      13.693  57.986  22.694  1.00  0.00    -0.025 C 
ATOM     21  C   UNL     1      11.928  56.406  21.494  1.00  0.00     0.005 C 
ATOM     22  C   UNL     1      12.207  57.398  22.668  1.00  0.00     0.003 C 
ATOM     23  C   UNL     1      14.673  57.110  23.527  1.00  0.00     0.010 C 
ATOM     24  C   UNL     1      13.643  59.402  23.366  1.00  0.00     0.012 C 
ATOM     25  C   UNL     1      11.676  56.828  24.072  1.00  0.00    -0.006 C 
ATOM     26  C   UNL     1      14.125  56.722  24.901  1.00  0.00     0.033 C 
ATOM     27  C   UNL     1      12.778  55.985  24.795  1.00  0.00     0.120 C 
ATOM     28  C   UNL     1      10.414  55.926  23.894  1.00  0.00     0.014 C 
ATOM     29  C   UNL     1      11.198  57.984  25.016  1.00  0.00     0.014 C 
ENDROOT
BRANCH   1  30
ATOM     30  C   UNL     1      16.082  59.214  15.531  1.00  0.00     0.048 C 
ATOM     31  O   UNL     1      16.519  58.217  14.895  1.00  0.00    -0.550 OA
ATOM     32  O   UNL     1      16.930  60.305  15.713  1.00  0.00    -0.550 OA
ENDBRANCH   1  30
BRANCH  27  33
ATOM     33  O   UNL     1      12.975  54.757  24.133  1.00  0.00    -0.393 OA
ATOM     34  H   UNL     1      13.151  54.075  24.832  1.00  0.00     0.210 HD
ENDBRANCH  27  33
TORSDOF 2
ENDMDL
MODEL 6
REMARK VINA RESULT:    -4.308      1.957      7.876
REMARK INTER + INTRA:          -4.916
REMARK INTER:                  -4.659
REMARK INTRA:                  -0.257
REMARK UNBOUND:                -0.230
REMARK SMILES C[C@H]1[C@H](C)CC[C@]2(C(=O)[O-])CC[C@@]3(C)C(=CC[C@@H]4[C@]5(C)CC[C@H](O)C(C)(C)[C@@H]5CC[C@]43C)[C@H]12
REMARK SMILES IDX 7 1 6 2 11 3 33 4 5 5 12 6 15 7 2 8 3 9 13 10 16 11 1 12
REMARK SMILES IDX 4 13 14 14 31 15 17 16 18 17 30 18 32 19 19 20 29 21 28 22
REMARK SMILES IDX 21 23 20 24 25 25 22 26 23 27 26 28 27 29 8 30 9 31 10 32
REMARK SMILES IDX 24 33
REMARK H PARENT 24 34
REMARK Flexibility Score: inf
ROOT
ATOM      1  C   UNL     1      15.043  55.067  22.667  1.00  0.00     0.017 C 
ATOM      2  C   UNL     1      15.905  53.772  22.832  1.00  0.00     0.014 C 
ATOM      3  C   UNL     1      13.879  54.743  21.655  1.00  0.00     0.014 C 
ATOM      4  C   UNL     1      15.957  56.296  22.216  1.00  0.00     0.030 C 
ATOM      5  C   UNL     1      17.316  54.083  23.314  1.00  0.00     0.004 C 
ATOM      6  C   UNL     1      13.856  55.609  20.391  1.00  0.00     0.013 C 
ATOM      7  C   UNL     1      15.161  57.418  21.522  1.00  0.00    -0.063 C 
ATOM      8  C   UNL     1      17.219  55.837  21.402  1.00  0.00    -0.003 C 
ATOM      9  C   UNL     1      18.108  54.842  22.229  1.00  0.00    -0.011 C 
ATOM     10  C   UNL     1      13.904  57.135  20.680  1.00  0.00    -0.006 C 
ATOM     11  C   UNL     1      15.527  58.710  21.703  1.00  0.00    -0.027 C 
ATOM     12  C   UNL     1      18.106  57.019  20.957  1.00  0.00     0.008 C 
ATOM     13  C   UNL     1      18.831  53.850  21.297  1.00  0.00     0.008 C 
ATOM     14  C   UNL     1      12.711  57.469  21.648  1.00  0.00     0.017 C 
ATOM     15  C   UNL     1      13.856  58.033  19.297  1.00  0.00    -0.020 C 
ATOM     16  C   UNL     1      15.005  59.779  20.775  1.00  0.00     0.032 C 
ATOM     17  C   UNL     1      14.958  59.165  19.352  1.00  0.00     0.006 C 
ATOM     18  C   UNL     1      14.211  57.217  18.020  1.00  0.00     0.008 C 
ATOM     19  C   UNL     1      12.405  58.584  19.096  1.00  0.00     0.012 C 
ATOM     20  C   UNL     1      15.155  60.139  18.114  1.00  0.00    -0.025 C 
ATOM     21  C   UNL     1      14.247  58.061  16.733  1.00  0.00     0.005 C 
ATOM     22  C   UNL     1      15.195  59.303  16.753  1.00  0.00     0.003 C 
ATOM     23  C   UNL     1      14.084  61.267  18.097  1.00  0.00     0.010 C 
ATOM     24  C   UNL     1      16.553  60.825  18.303  1.00  0.00     0.012 C 
ATOM     25  C   UNL     1      15.065  60.177  15.413  1.00  0.00    -0.006 C 
ATOM     26  C   UNL     1      14.122  62.125  16.831  1.00  0.00     0.033 C 
ATOM     27  C   UNL     1      13.961  61.276  15.557  1.00  0.00     0.120 C 
ATOM     28  C   UNL     1      14.711  59.294  14.174  1.00  0.00     0.014 C 
ATOM     29  C   UNL     1      16.428  60.850  15.033  1.00  0.00     0.014 C 
ENDROOT
BRANCH   1  30
ATOM     30  C   UNL     1      14.413  55.355  24.037  1.00  0.00     0.048 C 
ATOM     31  O   UNL     1      13.379  54.727  24.396  1.00  0.00    -0.550 OA
ATOM     32  O   UNL     1      14.966  56.279  24.920  1.00  0.00    -0.550 OA
ENDBRANCH   1  30
BRANCH  27  33
ATOM     33  O   UNL     1      12.679  60.692  15.551  1.00  0.00    -0.393 OA
ATOM     34  H   UNL     1      12.228  60.972  16.390  1.00  0.00     0.210 HD
ENDBRANCH  27  33
TORSDOF 2
ENDMDL
MODEL 7
REMARK VINA RESULT:    -4.136      2.752      7.807
REMARK INTER + INTRA:          -4.729
REMARK INTER:                  -4.489
REMARK INTRA:                  -0.240
REMARK UNBOUND:                -0.230
REMARK SMILES C[C@H]1[C@H](C)CC[C@]2(C(=O)[O-])CC[C@@]3(C)C(=CC[C@@H]4[C@]5(C)CC[C@H](O)C(C)(C)[C@@H]5CC[C@]43C)[C@H]12
REMARK SMILES IDX 7 1 6 2 11 3 33 4 5 5 12 6 15 7 2 8 3 9 13 10 16 11 1 12
REMARK SMILES IDX 4 13 14 14 31 15 17 16 18 17 30 18 32 19 19 20 29 21 28 22
REMARK SMILES IDX 21 23 20 24 25 25 22 26 23 27 26 28 27 29 8 30 9 31 10 32
REMARK SMILES IDX 24 33
REMARK H PARENT 24 34
REMARK Flexibility Score: inf
ROOT
ATOM      1  C   UNL     1      13.984  57.504  23.646  1.00  0.00     0.017 C 
ATOM      2  C   UNL     1      13.878  58.455  24.884  1.00  0.00     0.014 C 
ATOM      3  C   UNL     1      15.481  57.521  23.156  1.00  0.00     0.014 C 
ATOM      4  C   UNL     1      12.937  57.932  22.518  1.00  0.00     0.030 C 
ATOM      5  C   UNL     1      12.454  58.950  25.103  1.00  0.00     0.004 C 
ATOM      6  C   UNL     1      15.689  58.000  21.715  1.00  0.00     0.013 C 
ATOM      7  C   UNL     1      13.328  57.435  21.113  1.00  0.00    -0.063 C 
ATOM      8  C   UNL     1      12.604  59.466  22.563  1.00  0.00    -0.003 C 
ATOM      9  C   UNL     1      12.022  59.890  23.958  1.00  0.00    -0.011 C 
ATOM     10  C   UNL     1      14.794  57.264  20.679  1.00  0.00    -0.006 C 
ATOM     11  C   UNL     1      12.359  57.068  20.239  1.00  0.00    -0.027 C 
ATOM     12  C   UNL     1      11.598  59.890  21.472  1.00  0.00     0.008 C 
ATOM     13  C   UNL     1      12.395  61.348  24.287  1.00  0.00     0.008 C 
ATOM     14  C   UNL     1      15.064  55.724  20.834  1.00  0.00     0.017 C 
ATOM     15  C   UNL     1      15.062  57.793  19.139  1.00  0.00    -0.020 C 
ATOM     16  C   UNL     1      12.682  56.923  18.772  1.00  0.00     0.032 C 
ATOM     17  C   UNL     1      13.682  58.051  18.412  1.00  0.00     0.006 C 
ATOM     18  C   UNL     1      15.790  59.167  19.077  1.00  0.00     0.008 C 
ATOM     19  C   UNL     1      15.975  56.761  18.396  1.00  0.00     0.012 C 
ATOM     20  C   UNL     1      13.663  58.617  16.929  1.00  0.00    -0.025 C 
ATOM     21  C   UNL     1      15.975  59.708  17.647  1.00  0.00     0.005 C 
ATOM     22  C   UNL     1      14.674  59.848  16.793  1.00  0.00     0.003 C 
ATOM     23  C   UNL     1      13.933  57.497  15.884  1.00  0.00     0.010 C 
ATOM     24  C   UNL     1      12.211  59.153  16.674  1.00  0.00     0.012 C 
ATOM     25  C   UNL     1      14.993  60.303  15.286  1.00  0.00    -0.006 C 
ATOM     26  C   UNL     1      14.100  58.021  14.457  1.00  0.00     0.033 C 
ATOM     27  C   UNL     1      15.225  59.066  14.357  1.00  0.00     0.120 C 
ATOM     28  C   UNL     1      16.261  61.212  15.210  1.00  0.00     0.014 C 
ATOM     29  C   UNL     1      13.843  61.190  14.700  1.00  0.00     0.014 C 
ENDROOT
BRANCH   1  30
ATOM     30  C   UNL     1      13.667  56.089  24.149  1.00  0.00     0.048 C 
ATOM     31  O   UNL     1      12.492  55.637  24.055  1.00  0.00    -0.550 OA
ATOM     32  O   UNL     1      14.651  55.263  24.688  1.00  0.00    -0.550 OA
ENDBRANCH   1  30
BRANCH  27  33
ATOM     33  O   UNL     1      16.456  58.449  14.653  1.00  0.00    -0.393 OA
ATOM     34  H   UNL     1      17.038  59.143  15.062  1.00  0.00     0.210 HD
ENDBRANCH  27  33
TORSDOF 2
ENDMDL
MODEL 8
REMARK VINA RESULT:    -4.123      1.617      2.205
REMARK INTER + INTRA:          -4.715
REMARK INTER:                  -4.480
REMARK INTRA:                  -0.235
REMARK UNBOUND:                -0.230
REMARK SMILES C[C@H]1[C@H](C)CC[C@]2(C(=O)[O-])CC[C@@]3(C)C(=CC[C@@H]4[C@]5(C)CC[C@H](O)C(C)(C)[C@@H]5CC[C@]43C)[C@H]12
REMARK SMILES IDX 7 1 6 2 11 3 33 4 5 5 12 6 15 7 2 8 3 9 13 10 16 11 1 12
REMARK SMILES IDX 4 13 14 14 31 15 17 16 18 17 30 18 32 19 19 20 29 21 28 22
REMARK SMILES IDX 21 23 20 24 25 25 22 26 23 27 26 28 27 29 8 30 9 31 10 32
REMARK SMILES IDX 24 33
REMARK H PARENT 24 34
REMARK Flexibility Score: inf
ROOT
ATOM      1  C   UNL     1      15.088  59.865  16.451  1.00  0.00     0.017 C 
ATOM      2  C   UNL     1      13.858  59.914  15.485  1.00  0.00     0.014 C 
ATOM      3  C   UNL     1      15.921  58.574  16.101  1.00  0.00     0.014 C 
ATOM      4  C   UNL     1      14.609  59.923  17.973  1.00  0.00     0.030 C 
ATOM      5  C   UNL     1      12.720  60.755  16.051  1.00  0.00     0.004 C 
ATOM      6  C   UNL     1      16.078  57.570  17.248  1.00  0.00     0.013 C 
ATOM      7  C   UNL     1      15.647  59.346  18.955  1.00  0.00    -0.063 C 
ATOM      8  C   UNL     1      13.170  59.324  18.171  1.00  0.00    -0.003 C 
ATOM      9  C   UNL     1      12.107  60.076  17.294  1.00  0.00    -0.011 C 
ATOM     10  C   UNL     1      16.604  58.206  18.565  1.00  0.00    -0.006 C 
ATOM     11  C   UNL     1      15.782  59.897  20.186  1.00  0.00    -0.027 C 
ATOM     12  C   UNL     1      12.701  59.370  19.640  1.00  0.00     0.008 C 
ATOM     13  C   UNL     1      10.967  59.125  16.881  1.00  0.00     0.008 C 
ATOM     14  C   UNL     1      17.955  58.935  18.228  1.00  0.00     0.017 C 
ATOM     15  C   UNL     1      16.779  57.090  19.768  1.00  0.00    -0.020 C 
ATOM     16  C   UNL     1      16.517  59.147  21.270  1.00  0.00     0.032 C 
ATOM     17  C   UNL     1      16.159  57.647  21.111  1.00  0.00     0.006 C 
ATOM     18  C   UNL     1      15.997  55.771  19.504  1.00  0.00     0.008 C 
ATOM     19  C   UNL     1      18.292  56.706  19.891  1.00  0.00     0.012 C 
ATOM     20  C   UNL     1      16.153  56.742  22.415  1.00  0.00    -0.025 C 
ATOM     21  C   UNL     1      16.088  54.754  20.656  1.00  0.00     0.005 C 
ATOM     22  C   UNL     1      15.644  55.268  22.063  1.00  0.00     0.003 C 
ATOM     23  C   UNL     1      17.538  56.747  23.123  1.00  0.00     0.010 C 
ATOM     24  C   UNL     1      15.119  57.388  23.403  1.00  0.00     0.012 C 
ATOM     25  C   UNL     1      15.893  54.170  23.208  1.00  0.00    -0.006 C 
ATOM     26  C   UNL     1      17.635  55.753  24.282  1.00  0.00     0.033 C 
ATOM     27  C   UNL     1      17.320  54.316  23.832  1.00  0.00     0.120 C 
ATOM     28  C   UNL     1      15.750  52.715  22.659  1.00  0.00     0.014 C 
ATOM     29  C   UNL     1      14.814  54.267  24.339  1.00  0.00     0.014 C 
ENDROOT
BRANCH   1  30
ATOM     30  C   UNL     1      15.954  61.089  16.124  1.00  0.00     0.048 C 
ATOM     31  O   UNL     1      16.502  61.187  14.992  1.00  0.00    -0.550 OA
ATOM     32  O   UNL     1      16.136  62.124  17.039  1.00  0.00    -0.550 OA
ENDBRANCH   1  30
BRANCH  27  33
ATOM     33  O   UNL     1      18.305  53.891  22.919  1.00  0.00    -0.393 OA
ATOM     34  H   UNL     1      18.850  53.201  23.380  1.00  0.00     0.210 HD
ENDBRANCH  27  33
TORSDOF 2
ENDMDL
MODEL 9
REMARK VINA RESULT:    -4.112      2.192      3.178
REMARK INTER + INTRA:          -4.702
REMARK INTER:                  -5.089
REMARK INTRA:                   0.387
REMARK UNBOUND:                -0.230
REMARK SMILES C[C@H]1[C@H](C)CC[C@]2(C(=O)[O-])CC[C@@]3(C)C(=CC[C@@H]4[C@]5(C)CC[C@H](O)C(C)(C)[C@@H]5CC[C@]43C)[C@H]12
REMARK SMILES IDX 7 1 6 2 11 3 33 4 5 5 12 6 15 7 2 8 3 9 13 10 16 11 1 12
REMARK SMILES IDX 4 13 14 14 31 15 17 16 18 17 30 18 32 19 19 20 29 21 28 22
REMARK SMILES IDX 21 23 20 24 25 25 22 26 23 27 26 28 27 29 8 30 9 31 10 32
REMARK SMILES IDX 24 33
REMARK H PARENT 24 34
REMARK Flexibility Score: inf
ROOT
ATOM      1  C   UNL     1      14.450  60.582  15.006  1.00  0.00     0.017 C 
ATOM      2  C   UNL     1      15.356  60.384  13.746  1.00  0.00     0.014 C 
ATOM      3  C   UNL     1      15.353  61.168  16.158  1.00  0.00     0.014 C 
ATOM      4  C   UNL     1      13.725  59.214  15.397  1.00  0.00     0.030 C 
ATOM      5  C   UNL     1      14.779  59.352  12.785  1.00  0.00     0.004 C 
ATOM      6  C   UNL     1      15.436  60.307  17.423  1.00  0.00     0.013 C 
ATOM      7  C   UNL     1      13.278  59.167  16.871  1.00  0.00    -0.063 C 
ATOM      8  C   UNL     1      14.552  57.952  14.960  1.00  0.00    -0.003 C 
ATOM      9  C   UNL     1      14.816  57.943  13.413  1.00  0.00    -0.011 C 
ATOM     10  C   UNL     1      14.047  59.896  17.988  1.00  0.00    -0.006 C 
ATOM     11  C   UNL     1      12.133  58.524  17.204  1.00  0.00    -0.027 C 
ATOM     12  C   UNL     1      13.862  56.625  15.340  1.00  0.00     0.008 C 
ATOM     13  C   UNL     1      16.150  57.244  13.089  1.00  0.00     0.008 C 
ATOM     14  C   UNL     1      13.226  61.215  18.223  1.00  0.00     0.017 C 
ATOM     15  C   UNL     1      14.178  58.989  19.360  1.00  0.00    -0.020 C 
ATOM     16  C   UNL     1      11.863  58.161  18.644  1.00  0.00     0.032 C 
ATOM     17  C   UNL     1      13.217  57.737  19.269  1.00  0.00     0.006 C 
ATOM     18  C   UNL     1      15.592  58.370  19.558  1.00  0.00     0.008 C 
ATOM     19  C   UNL     1      13.900  59.899  20.602  1.00  0.00     0.012 C 
ATOM     20  C   UNL     1      13.191  56.671  20.446  1.00  0.00    -0.025 C 
ATOM     21  C   UNL     1      15.704  57.457  20.793  1.00  0.00     0.005 C 
ATOM     22  C   UNL     1      14.682  56.278  20.869  1.00  0.00     0.003 C 
ATOM     23  C   UNL     1      12.335  57.165  21.647  1.00  0.00     0.010 C 
ATOM     24  C   UNL     1      12.496  55.388  19.872  1.00  0.00     0.012 C 
ATOM     25  C   UNL     1      14.806  55.466  22.248  1.00  0.00    -0.006 C 
ATOM     26  C   UNL     1      12.423  56.256  22.874  1.00  0.00     0.033 C 
ATOM     27  C   UNL     1      13.875  56.073  23.349  1.00  0.00     0.120 C 
ATOM     28  C   UNL     1      16.269  55.468  22.794  1.00  0.00     0.014 C 
ATOM     29  C   UNL     1      14.467  53.949  22.052  1.00  0.00     0.014 C 
ENDROOT
BRANCH   1  30
ATOM     30  C   UNL     1      13.406  61.645  14.638  1.00  0.00     0.048 C 
ATOM     31  O   UNL     1      12.656  62.125  15.531  1.00  0.00    -0.550 OA
ATOM     32  O   UNL     1      13.275  62.124  13.336  1.00  0.00    -0.550 OA
ENDBRANCH   1  30
BRANCH  27  33
ATOM     33  O   UNL     1      14.376  57.312  23.792  1.00  0.00    -0.393 OA
ATOM     34  H   UNL     1      15.334  57.176  24.015  1.00  0.00     0.210 HD
ENDBRANCH  27  33
TORSDOF 2
ENDMDL
