MODEL 1
REMARK VINA RESULT:    -4.323      0.000      0.000
REMARK INTER + INTRA:          -6.257
REMARK INTER:                  -5.840
REMARK INTRA:                  -0.418
REMARK UNBOUND:                -0.418
REMARK SMILES C=C[C@@](C)(CCC=C(C)C)OC(C)=O
REMARK SMILES IDX 3 1 4 2 5 3 6 4 7 5 9 6 8 7 10 8 2 9 1 10 11 11 12 12 14 13
REMARK SMILES IDX 13 14
REMARK H PARENT
REMARK Flexibility Score: inf
ROOT
ATOM      1  C   UNL     1      -1.077  -1.317 -35.681  1.00  0.00     0.127 C 
ATOM      2  C   UNL     1      -1.712  -0.142 -36.456  1.00  0.00     0.061 C 
ENDROOT
BRANCH   1   3
ATOM      3  C   UNL     1      -2.195  -2.312 -35.279  1.00  0.00     0.057 C 
BRANCH   3   4
ATOM      4  C   UNL     1      -2.888  -1.937 -33.957  1.00  0.00     0.032 C 
BRANCH   4   5
ATOM      5  C   UNL     1      -3.881  -2.999 -33.556  1.00  0.00    -0.028 C 
ATOM      6  C   UNL     1      -5.080  -4.502 -31.996  1.00  0.00     0.039 C 
ATOM      7  C   UNL     1      -4.077  -3.414 -32.283  1.00  0.00    -0.080 C 
ATOM      8  C   UNL     1      -3.356  -2.789 -31.115  1.00  0.00     0.039 C 
ENDBRANCH   4   5
ENDBRANCH   3   4
ENDBRANCH   1   3
BRANCH   1   9
ATOM      9  C   UNL     1      -0.026  -2.016 -36.534  1.00  0.00     0.013 C 
ATOM     10  C   UNL     1      -0.223  -2.341 -37.818  1.00  0.00     0.008 C 
ENDBRANCH   1   9
BRANCH   1  11
ATOM     11  O   UNL     1      -0.481  -0.820 -34.473  1.00  0.00    -0.455 OA
BRANCH  11  12
ATOM     12  C   UNL     1       0.883  -0.549 -34.283  1.00  0.00     0.303 C 
ATOM     13  O   UNL     1       1.625  -1.347 -33.650  1.00  0.00    -0.253 OA
ATOM     14  C   UNL     1       1.470   0.688 -34.871  1.00  0.00     0.139 C 
ENDBRANCH  11  12
ENDBRANCH   1  11
TORSDOF 6
ENDMDL
MODEL 2
REMARK VINA RESULT:    -4.052      1.519      2.106
REMARK INTER + INTRA:          -5.891
REMARK INTER:                  -5.438
REMARK INTRA:                  -0.454
REMARK UNBOUND:                -0.418
REMARK SMILES C=C[C@@](C)(CCC=C(C)C)OC(C)=O
REMARK SMILES IDX 3 1 4 2 5 3 6 4 7 5 9 6 8 7 10 8 2 9 1 10 11 11 12 12 14 13
REMARK SMILES IDX 13 14
REMARK H PARENT
REMARK Flexibility Score: inf
ROOT
ATOM      1  C   UNL     1      -0.557  -1.100 -35.498  1.00  0.00     0.127 C 
ATOM      2  C   UNL     1       0.057  -0.741 -34.127  1.00  0.00     0.061 C 
ENDROOT
BRANCH   1   3
ATOM      3  C   UNL     1      -1.860  -1.906 -35.266  1.00  0.00     0.057 C 
BRANCH   3   4
ATOM      4  C   UNL     1      -2.489  -1.651 -33.885  1.00  0.00     0.032 C 
BRANCH   4   5
ATOM      5  C   UNL     1      -3.640  -2.595 -33.641  1.00  0.00    -0.028 C 
ATOM      6  C   UNL     1      -5.125  -4.053 -32.300  1.00  0.00     0.039 C 
ATOM      7  C   UNL     1      -3.967  -3.096 -32.427  1.00  0.00    -0.080 C 
ATOM      8  C   UNL     1      -3.239  -2.693 -31.169  1.00  0.00     0.039 C 
ENDBRANCH   4   5
ENDBRANCH   3   4
ENDBRANCH   1   3
BRANCH   1   9
ATOM      9  C   UNL     1      -0.849   0.161 -36.301  1.00  0.00     0.013 C 
ATOM     10  C   UNL     1      -1.882   0.267 -37.146  1.00  0.00     0.008 C 
ENDBRANCH   1   9
BRANCH   1  11
ATOM     11  O   UNL     1       0.355  -1.943 -36.219  1.00  0.00    -0.455 OA
BRANCH  11  12
ATOM     12  C   UNL     1       1.747  -1.777 -36.286  1.00  0.00     0.303 C 
ATOM     13  O   UNL     1       2.261  -0.850 -36.966  1.00  0.00    -0.253 OA
ATOM     14  C   UNL     1       2.629  -2.694 -35.511  1.00  0.00     0.139 C 
ENDBRANCH  11  12
ENDBRANCH   1  11
TORSDOF 6
ENDMDL
MODEL 3
REMARK VINA RESULT:    -3.919      1.503      2.223
REMARK INTER + INTRA:          -5.711
REMARK INTER:                  -5.050
REMARK INTRA:                  -0.662
REMARK UNBOUND:                -0.418
REMARK SMILES C=C[C@@](C)(CCC=C(C)C)OC(C)=O
REMARK SMILES IDX 3 1 4 2 5 3 6 4 7 5 9 6 8 7 10 8 2 9 1 10 11 11 12 12 14 13
REMARK SMILES IDX 13 14
REMARK H PARENT
REMARK Flexibility Score: inf
ROOT
ATOM      1  C   UNL     1       0.043  -0.682 -36.880  1.00  0.00     0.127 C 
ATOM      2  C   UNL     1       0.232   0.347 -38.016  1.00  0.00     0.061 C 
ENDROOT
BRANCH   1   3
ATOM      3  C   UNL     1      -1.440  -1.129 -36.853  1.00  0.00     0.057 C 
BRANCH   3   4
ATOM      4  C   UNL     1      -1.672  -2.399 -36.015  1.00  0.00     0.032 C 
BRANCH   4   5
ATOM      5  C   UNL     1      -2.453  -2.079 -34.766  1.00  0.00    -0.028 C 
ATOM      6  C   UNL     1      -4.049  -2.509 -32.922  1.00  0.00     0.039 C 
ATOM      7  C   UNL     1      -3.298  -2.942 -34.155  1.00  0.00    -0.080 C 
ATOM      8  C   UNL     1      -3.485  -4.359 -34.638  1.00  0.00     0.039 C 
ENDBRANCH   4   5
ENDBRANCH   3   4
ENDBRANCH   1   3
BRANCH   1   9
ATOM      9  C   UNL     1       0.956  -1.884 -37.089  1.00  0.00     0.013 C 
ATOM     10  C   UNL     1       1.856  -1.957 -38.077  1.00  0.00     0.008 C 
ENDBRANCH   1   9
BRANCH   1  11
ATOM     11  O   UNL     1       0.333  -0.056 -35.621  1.00  0.00    -0.455 OA
BRANCH  11  12
ATOM     12  C   UNL     1       1.504  -0.231 -34.868  1.00  0.00     0.303 C 
ATOM     13  O   UNL     1       2.599   0.271 -35.237  1.00  0.00    -0.253 OA
ATOM     14  C   UNL     1       1.442  -0.996 -33.590  1.00  0.00     0.139 C 
ENDBRANCH  11  12
ENDBRANCH   1  11
TORSDOF 6
ENDMDL
MODEL 4
REMARK VINA RESULT:    -3.874      2.067      3.097
REMARK INTER + INTRA:          -5.651
REMARK INTER:                  -5.140
REMARK INTRA:                  -0.511
REMARK UNBOUND:                -0.418
REMARK SMILES C=C[C@@](C)(CCC=C(C)C)OC(C)=O
REMARK SMILES IDX 3 1 4 2 5 3 6 4 7 5 9 6 8 7 10 8 2 9 1 10 11 11 12 12 14 13
REMARK SMILES IDX 13 14
REMARK H PARENT
REMARK Flexibility Score: inf
ROOT
ATOM      1  C   UNL     1       0.091  -0.931 -36.167  1.00  0.00     0.127 C 
ATOM      2  C   UNL     1       0.644  -2.341 -35.865  1.00  0.00     0.061 C 
ENDROOT
BRANCH   1   3
ATOM      3  C   UNL     1      -1.455  -0.969 -36.066  1.00  0.00     0.057 C 
BRANCH   3   4
ATOM      4  C   UNL     1      -1.993  -2.318 -35.559  1.00  0.00     0.032 C 
BRANCH   4   5
ATOM      5  C   UNL     1      -2.789  -2.134 -34.292  1.00  0.00    -0.028 C 
ATOM      6  C   UNL     1      -4.383  -2.770 -32.507  1.00  0.00     0.039 C 
ATOM      7  C   UNL     1      -3.614  -3.070 -33.768  1.00  0.00    -0.080 C 
ATOM      8  C   UNL     1      -3.761  -4.441 -34.379  1.00  0.00     0.039 C 
ENDBRANCH   4   5
ENDBRANCH   3   4
ENDBRANCH   1   3
BRANCH   1   9
ATOM      9  C   UNL     1       0.662   0.089 -35.191  1.00  0.00     0.013 C 
ATOM     10  C   UNL     1       1.603  -0.210 -34.288  1.00  0.00     0.008 C 
ENDBRANCH   1   9
BRANCH   1  11
ATOM     11  O   UNL     1       0.430  -0.569 -37.515  1.00  0.00    -0.455 OA
BRANCH  11  12
ATOM     12  C   UNL     1       1.176   0.556 -37.899  1.00  0.00     0.303 C 
ATOM     13  O   UNL     1       0.634   1.686 -38.030  1.00  0.00    -0.253 OA
ATOM     14  C   UNL     1       2.643   0.417 -38.121  1.00  0.00     0.139 C 
ENDBRANCH  11  12
ENDBRANCH   1  11
TORSDOF 6
ENDMDL
MODEL 5
REMARK VINA RESULT:    -3.870      6.097      9.418
REMARK INTER + INTRA:          -5.646
REMARK INTER:                  -4.886
REMARK INTRA:                  -0.760
REMARK UNBOUND:                -0.418
REMARK SMILES C=C[C@@](C)(CCC=C(C)C)OC(C)=O
REMARK SMILES IDX 3 1 4 2 5 3 6 4 7 5 9 6 8 7 10 8 2 9 1 10 11 11 12 12 14 13
REMARK SMILES IDX 13 14
REMARK H PARENT
REMARK Flexibility Score: inf
ROOT
ATOM      1  C   UNL     1      -3.447  -5.769 -26.466  1.00  0.00     0.127 C 
ATOM      2  C   UNL     1      -4.360  -6.805 -27.157  1.00  0.00     0.061 C 
ENDROOT
BRANCH   1   3
ATOM      3  C   UNL     1      -2.288  -5.404 -27.428  1.00  0.00     0.057 C 
BRANCH   3   4
ATOM      4  C   UNL     1      -2.579  -5.777 -28.892  1.00  0.00     0.032 C 
BRANCH   4   5
ATOM      5  C   UNL     1      -2.546  -4.553 -29.771  1.00  0.00    -0.028 C 
ATOM      6  C   UNL     1      -3.491  -2.765 -31.200  1.00  0.00     0.039 C 
ATOM      7  C   UNL     1      -3.642  -3.975 -30.314  1.00  0.00    -0.080 C 
ATOM      8  C   UNL     1      -5.037  -4.473 -30.024  1.00  0.00     0.039 C 
ENDBRANCH   4   5
ENDBRANCH   3   4
ENDBRANCH   1   3
BRANCH   1   9
ATOM      9  C   UNL     1      -4.238  -4.522 -26.093  1.00  0.00     0.013 C 
ATOM     10  C   UNL     1      -4.429  -4.128 -24.827  1.00  0.00     0.008 C 
ENDBRANCH   1   9
BRANCH   1  11
ATOM     11  O   UNL     1      -2.869  -6.357 -25.290  1.00  0.00    -0.455 OA
BRANCH  11  12
ATOM     12  C   UNL     1      -1.502  -6.591 -25.077  1.00  0.00     0.303 C 
ATOM     13  O   UNL     1      -0.773  -5.735 -24.510  1.00  0.00    -0.253 OA
ATOM     14  C   UNL     1      -0.911  -7.893 -25.499  1.00  0.00     0.139 C 
ENDBRANCH  11  12
ENDBRANCH   1  11
TORSDOF 6
ENDMDL
MODEL 6
REMARK VINA RESULT:    -3.864      4.044      7.211
REMARK INTER + INTRA:          -5.637
REMARK INTER:                  -4.881
REMARK INTRA:                  -0.756
REMARK UNBOUND:                -0.418
REMARK SMILES C=C[C@@](C)(CCC=C(C)C)OC(C)=O
REMARK SMILES IDX 3 1 4 2 5 3 6 4 7 5 9 6 8 7 10 8 2 9 1 10 11 11 12 12 14 13
REMARK SMILES IDX 13 14
REMARK H PARENT
REMARK Flexibility Score: inf
ROOT
ATOM      1  C   UNL     1      -3.852  -5.175 -29.063  1.00  0.00     0.127 C 
ATOM      2  C   UNL     1      -5.103  -4.491 -28.469  1.00  0.00     0.061 C 
ENDROOT
BRANCH   1   3
ATOM      3  C   UNL     1      -3.029  -4.120 -29.844  1.00  0.00     0.057 C 
BRANCH   3   4
ATOM      4  C   UNL     1      -3.908  -3.122 -30.618  1.00  0.00     0.032 C 
BRANCH   4   5
ATOM      5  C   UNL     1      -3.191  -2.618 -31.845  1.00  0.00    -0.028 C 
ATOM      6  C   UNL     1      -2.899  -2.122 -34.253  1.00  0.00     0.039 C 
ATOM      7  C   UNL     1      -3.715  -2.629 -33.091  1.00  0.00    -0.080 C 
ATOM      8  C   UNL     1      -5.125  -3.093 -33.364  1.00  0.00     0.039 C 
ENDBRANCH   4   5
ENDBRANCH   3   4
ENDBRANCH   1   3
BRANCH   1   9
ATOM      9  C   UNL     1      -3.006  -5.796 -27.958  1.00  0.00     0.013 C 
ATOM     10  C   UNL     1      -1.778  -5.366 -27.648  1.00  0.00     0.008 C 
ENDBRANCH   1   9
BRANCH   1  11
ATOM     11  O   UNL     1      -4.264  -6.186 -29.996  1.00  0.00    -0.455 OA
BRANCH  11  12
ATOM     12  C   UNL     1      -3.460  -6.758 -30.994  1.00  0.00     0.303 C 
ATOM     13  O   UNL     1      -2.516  -7.540 -30.703  1.00  0.00    -0.253 OA
ATOM     14  C   UNL     1      -3.752  -6.461 -32.425  1.00  0.00     0.139 C 
ENDBRANCH  11  12
ENDBRANCH   1  11
TORSDOF 6
ENDMDL
MODEL 7
REMARK VINA RESULT:    -3.779      4.677      7.619
REMARK INTER + INTRA:          -5.523
REMARK INTER:                  -4.828
REMARK INTRA:                  -0.695
REMARK UNBOUND:                -0.418
REMARK SMILES C=C[C@@](C)(CCC=C(C)C)OC(C)=O
REMARK SMILES IDX 3 1 4 2 5 3 6 4 7 5 9 6 8 7 10 8 2 9 1 10 11 11 12 12 14 13
REMARK SMILES IDX 13 14
REMARK H PARENT
REMARK Flexibility Score: inf
ROOT
ATOM      1  C   UNL     1      -3.859  -5.088 -28.698  1.00  0.00     0.127 C 
ATOM      2  C   UNL     1      -4.357  -4.956 -27.242  1.00  0.00     0.061 C 
ENDROOT
BRANCH   1   3
ATOM      3  C   UNL     1      -4.453  -3.929 -29.537  1.00  0.00     0.057 C 
BRANCH   3   4
ATOM      4  C   UNL     1      -3.565  -3.530 -30.728  1.00  0.00     0.032 C 
BRANCH   4   5
ATOM      5  C   UNL     1      -3.961  -4.293 -31.968  1.00  0.00    -0.028 C 
ATOM      6  C   UNL     1      -4.463  -4.600 -34.372  1.00  0.00     0.039 C 
ATOM      7  C   UNL     1      -4.031  -3.750 -33.205  1.00  0.00    -0.080 C 
ATOM      8  C   UNL     1      -3.644  -2.317 -33.476  1.00  0.00     0.039 C 
ENDBRANCH   4   5
ENDBRANCH   3   4
ENDBRANCH   1   3
BRANCH   1   9
ATOM      9  C   UNL     1      -2.337  -5.054 -28.749  1.00  0.00     0.013 C 
ATOM     10  C   UNL     1      -1.567  -5.106 -27.655  1.00  0.00     0.008 C 
ENDBRANCH   1   9
BRANCH   1  11
ATOM     11  O   UNL     1      -4.344  -6.321 -29.254  1.00  0.00    -0.455 OA
BRANCH  11  12
ATOM     12  C   UNL     1      -3.571  -7.463 -29.514  1.00  0.00     0.303 C 
ATOM     13  O   UNL     1      -3.327  -8.307 -28.610  1.00  0.00    -0.253 OA
ATOM     14  C   UNL     1      -3.061  -7.699 -30.895  1.00  0.00     0.139 C 
ENDBRANCH  11  12
ENDBRANCH   1  11
TORSDOF 6
ENDMDL
MODEL 8
REMARK VINA RESULT:    -3.768      4.507      6.727
REMARK INTER + INTRA:          -5.508
REMARK INTER:                  -4.869
REMARK INTRA:                  -0.639
REMARK UNBOUND:                -0.418
REMARK SMILES C=C[C@@](C)(CCC=C(C)C)OC(C)=O
REMARK SMILES IDX 3 1 4 2 5 3 6 4 7 5 9 6 8 7 10 8 2 9 1 10 11 11 12 12 14 13
REMARK SMILES IDX 13 14
REMARK H PARENT
REMARK Flexibility Score: inf
ROOT
ATOM      1  C   UNL     1      -4.149  -5.376 -31.007  1.00  0.00     0.127 C 
ATOM      2  C   UNL     1      -5.069  -4.523 -30.107  1.00  0.00     0.061 C 
ENDROOT
BRANCH   1   3
ATOM      3  C   UNL     1      -2.876  -5.752 -30.206  1.00  0.00     0.057 C 
BRANCH   3   4
ATOM      4  C   UNL     1      -2.491  -4.696 -29.156  1.00  0.00     0.032 C 
BRANCH   4   5
ATOM      5  C   UNL     1      -1.922  -5.352 -27.923  1.00  0.00    -0.028 C 
ATOM      6  C   UNL     1      -1.903  -6.103 -25.564  1.00  0.00     0.039 C 
ATOM      7  C   UNL     1      -2.576  -5.447 -26.742  1.00  0.00    -0.080 C 
ATOM      8  C   UNL     1      -3.992  -4.958 -26.568  1.00  0.00     0.039 C 
ENDBRANCH   4   5
ENDBRANCH   3   4
ENDBRANCH   1   3
BRANCH   1   9
ATOM      9  C   UNL     1      -4.871  -6.633 -31.476  1.00  0.00     0.013 C 
ATOM     10  C   UNL     1      -4.762  -7.119 -32.718  1.00  0.00     0.008 C 
ENDBRANCH   1   9
BRANCH   1  11
ATOM     11  O   UNL     1      -3.736  -4.593 -32.138  1.00  0.00    -0.455 OA
BRANCH  11  12
ATOM     12  C   UNL     1      -3.912  -3.209 -32.286  1.00  0.00     0.303 C 
ATOM     13  O   UNL     1      -3.143  -2.388 -31.718  1.00  0.00    -0.253 OA
ATOM     14  C   UNL     1      -5.009  -2.703 -33.160  1.00  0.00     0.139 C 
ENDBRANCH  11  12
ENDBRANCH   1  11
TORSDOF 6
ENDMDL
MODEL 9
REMARK VINA RESULT:    -3.759      4.797      7.430
REMARK INTER + INTRA:          -5.495
REMARK INTER:                  -4.839
REMARK INTRA:                  -0.656
REMARK UNBOUND:                -0.418
REMARK SMILES C=C[C@@](C)(CCC=C(C)C)OC(C)=O
REMARK SMILES IDX 3 1 4 2 5 3 6 4 7 5 9 6 8 7 10 8 2 9 1 10 11 11 12 12 14 13
REMARK SMILES IDX 13 14
REMARK H PARENT
REMARK Flexibility Score: inf
ROOT
ATOM      1  C   UNL     1      -3.667  -4.323 -30.156  1.00  0.00     0.127 C 
ATOM      2  C   UNL     1      -2.459  -4.974 -29.448  1.00  0.00     0.061 C 
ENDROOT
BRANCH   1   3
ATOM      3  C   UNL     1      -4.716  -3.924 -29.088  1.00  0.00     0.057 C 
BRANCH   3   4
ATOM      4  C   UNL     1      -4.911  -4.997 -28.003  1.00  0.00     0.032 C 
BRANCH   4   5
ATOM      5  C   UNL     1      -5.019  -4.364 -26.639  1.00  0.00    -0.028 C 
ATOM      6  C   UNL     1      -4.409  -3.969 -24.272  1.00  0.00     0.039 C 
ATOM      7  C   UNL     1      -4.195  -4.644 -25.603  1.00  0.00    -0.080 C 
ATOM      8  C   UNL     1      -3.023  -5.583 -25.741  1.00  0.00     0.039 C 
ENDBRANCH   4   5
ENDBRANCH   3   4
ENDBRANCH   1   3
BRANCH   1   9
ATOM      9  C   UNL     1      -3.228  -3.101 -30.952  1.00  0.00     0.013 C 
ATOM     10  C   UNL     1      -3.759  -2.769 -32.135  1.00  0.00     0.008 C 
ENDBRANCH   1   9
BRANCH   1  11
ATOM     11  O   UNL     1      -4.279  -5.287 -31.029  1.00  0.00    -0.455 OA
BRANCH  11  12
ATOM     12  C   UNL     1      -3.683  -6.471 -31.490  1.00  0.00     0.303 C 
ATOM     13  O   UNL     1      -2.837  -6.456 -32.423  1.00  0.00    -0.253 OA
ATOM     14  C   UNL     1      -4.034  -7.765 -30.838  1.00  0.00     0.139 C 
ENDBRANCH  11  12
ENDBRANCH   1  11
TORSDOF 6
ENDMDL
