MODEL 1
REMARK VINA RESULT:    -7.300      0.000      0.000
REMARK INTER + INTRA:         -11.831
REMARK INTER:                 -10.715
REMARK INTRA:                  -1.116
REMARK UNBOUND:                -1.116
REMARK SMILES O=c1c(O[C@H]2O[C@H](CO)[C@H](O)[C@H](O)[C@@H]2O)c(-c2ccc(O)c(O)c2)oc2cc(O)cc(O)c12
REMARK SMILES IDX 4 1 3 2 16 3 25 4 2 5 26 6 1 7 33 8 27 9 31 10 28 11 30 12
REMARK SMILES IDX 17 13 18 14 19 15 20 16 24 17 22 18 21 19 23 21 32 23 29 25
REMARK SMILES IDX 5 27 14 28 6 29 12 30 7 31 10 32 15 33 13 35 8 37 9 38 11 40
REMARK H PARENT 21 20 23 22 32 24 29 26 15 34 13 36 9 39 11 41
REMARK Flexibility Score: inf
ROOT
ATOM      1  O   UNL     1      96.937 100.864  98.559  1.00  0.00    -0.454 OA
ENDROOT
BRANCH   1   2
ATOM      2  C   UNL     1      97.996 101.223  99.404  1.00  0.00     0.214 A 
ATOM      3  C   UNL     1      98.268 102.584  99.595  1.00  0.00     0.180 A 
ATOM      4  O   UNL     1      99.269 102.970 100.379  1.00  0.00    -0.452 OA
ATOM      5  C   UNL     1      98.820 100.274 100.037  1.00  0.00     0.239 A 
ATOM      6  C   UNL     1     100.062 102.111 101.011  1.00  0.00     0.146 A 
ATOM      7  O   UNL     1      98.643  99.045  99.821  1.00  0.00    -0.285 OA
ATOM      8  C   UNL     1      99.867 100.715 100.877  1.00  0.00     0.111 A 
ATOM      9  C   UNL     1     101.099 102.604 101.809  1.00  0.00     0.094 A 
ATOM     10  C   UNL     1     100.728  99.830 101.569  1.00  0.00     0.134 A 
ATOM     11  C   UNL     1     101.948 101.728 102.484  1.00  0.00     0.123 A 
ATOM     12  C   UNL     1     101.759 100.347 102.369  1.00  0.00     0.093 A 
BRANCH   3  13
ATOM     13  C   UNL     1      97.431 103.603  98.948  1.00  0.00     0.025 A 
ATOM     14  C   UNL     1      97.296 103.608  97.553  1.00  0.00     0.016 A 
ATOM     15  C   UNL     1      96.547 104.607  96.926  1.00  0.00     0.051 A 
ATOM     16  C   UNL     1      95.926 105.606  97.682  1.00  0.00     0.157 A 
ATOM     17  C   UNL     1      96.806 104.601  99.711  1.00  0.00     0.062 A 
ATOM     18  C   UNL     1      96.051 105.601  99.082  1.00  0.00     0.158 A 
BRANCH  16  19
ATOM     19  O   UNL     1      95.195 106.595  97.026  1.00  0.00    -0.504 OA
ATOM     20  H   UNL     1      95.178 107.555  97.344  1.00  0.00     0.293 HD
ENDBRANCH  16  19
BRANCH  18  21
ATOM     21  O   UNL     1      95.429 106.591  99.840  1.00  0.00    -0.504 OA
ATOM     22  H   UNL     1      95.507 106.620 100.848  1.00  0.00     0.293 HD
ENDBRANCH  18  21
ENDBRANCH   3  13
BRANCH  10  23
ATOM     23  O   UNL     1     100.568  98.447 101.467  1.00  0.00    -0.507 OA
ATOM     24  H   UNL     1      99.740  97.976 101.812  1.00  0.00     0.293 HD
ENDBRANCH  10  23
BRANCH  11  25
ATOM     25  O   UNL     1     102.978 102.241 103.271  1.00  0.00    -0.508 OA
ATOM     26  H   UNL     1     102.970 103.199 103.595  1.00  0.00     0.293 HD
ENDBRANCH  11  25
ENDBRANCH   1   2
BRANCH   1  27
ATOM     27  C   UNL     1      95.955  99.864  98.836  1.00  0.00     0.339 C 
ATOM     28  C   UNL     1      94.937  99.797  97.683  1.00  0.00     0.214 C 
ATOM     29  O   UNL     1      95.347 100.126 100.093  1.00  0.00    -0.332 OA
ATOM     30  C   UNL     1      94.202 101.150  97.522  1.00  0.00     0.180 C 
ATOM     31  C   UNL     1      94.329 101.128 100.099  1.00  0.00     0.179 C 
ATOM     32  C   UNL     1      94.248 102.002  98.815  1.00  0.00     0.177 C 
BRANCH  28  33
ATOM     33  O   UNL     1      94.017  98.759  97.916  1.00  0.00    -0.384 OA
ATOM     34  H   UNL     1      93.360  99.091  98.583  1.00  0.00     0.211 HD
ENDBRANCH  28  33
BRANCH  30  35
ATOM     35  O   UNL     1      92.875 100.929  97.102  1.00  0.00    -0.387 OA
ATOM     36  H   UNL     1      92.463 101.819  96.951  1.00  0.00     0.211 HD
ENDBRANCH  30  35
BRANCH  31  37
ATOM     37  C   UNL     1      92.978 100.489 100.461  1.00  0.00     0.191 C 
BRANCH  37  38
ATOM     38  O   UNL     1      93.111  99.096 100.531  1.00  0.00    -0.394 OA
ATOM     39  H   UNL     1      93.173  98.869 101.495  1.00  0.00     0.210 HD
ENDBRANCH  37  38
ENDBRANCH  31  37
BRANCH  32  40
ATOM     40  O   UNL     1      93.137 102.868  98.880  1.00  0.00    -0.387 OA
ATOM     41  H   UNL     1      93.473 103.780  99.073  1.00  0.00     0.211 HD
ENDBRANCH  32  40
ENDBRANCH   1  27
TORSDOF 12
ENDMDL
MODEL 2
REMARK VINA RESULT:    -6.226      1.032      2.089
REMARK INTER + INTRA:         -10.254
REMARK INTER:                  -9.921
REMARK INTRA:                  -0.333
REMARK UNBOUND:                -1.116
REMARK SMILES O=c1c(O[C@H]2O[C@H](CO)[C@H](O)[C@H](O)[C@@H]2O)c(-c2ccc(O)c(O)c2)oc2cc(O)cc(O)c12
REMARK SMILES IDX 4 1 3 2 16 3 25 4 2 5 26 6 1 7 33 8 27 9 31 10 28 11 30 12
REMARK SMILES IDX 17 13 18 14 19 15 20 16 24 17 22 18 21 19 23 21 32 23 29 25
REMARK SMILES IDX 5 27 14 28 6 29 12 30 7 31 10 32 15 33 13 35 8 37 9 38 11 40
REMARK H PARENT 21 20 23 22 32 24 29 26 15 34 13 36 9 39 11 41
REMARK Flexibility Score: inf
ROOT
ATOM      1  O   UNL     1      96.826 101.224  98.311  1.00  0.00    -0.454 OA
ENDROOT
BRANCH   1   2
ATOM      2  C   UNL     1      97.838 101.552  99.224  1.00  0.00     0.214 A 
ATOM      3  C   UNL     1      98.081 102.904  99.497  1.00  0.00     0.180 A 
ATOM      4  O   UNL     1      99.037 103.261 100.348  1.00  0.00    -0.452 OA
ATOM      5  C   UNL     1      98.645 100.582  99.846  1.00  0.00     0.239 A 
ATOM      6  C   UNL     1      99.812 102.380 100.973  1.00  0.00     0.146 A 
ATOM      7  O   UNL     1      98.497  99.363  99.559  1.00  0.00    -0.285 OA
ATOM      8  C   UNL     1      99.644 100.990 100.757  1.00  0.00     0.111 A 
ATOM      9  C   UNL     1     100.802 102.844 101.844  1.00  0.00     0.094 A 
ATOM     10  C   UNL     1     100.484 100.081 101.444  1.00  0.00     0.134 A 
ATOM     11  C   UNL     1     101.631 101.944 102.514  1.00  0.00     0.123 A 
ATOM     12  C   UNL     1     101.467 100.569 102.319  1.00  0.00     0.093 A 
BRANCH   3  13
ATOM     13  C   UNL     1      97.261 103.945  98.864  1.00  0.00     0.025 A 
ATOM     14  C   UNL     1      97.147 103.987  97.468  1.00  0.00     0.016 A 
ATOM     15  C   UNL     1      96.415 105.006  96.854  1.00  0.00     0.051 A 
ATOM     16  C   UNL     1      95.789 105.990  97.627  1.00  0.00     0.157 A 
ATOM     17  C   UNL     1      96.630 104.927  99.643  1.00  0.00     0.062 A 
ATOM     18  C   UNL     1      95.891 105.948  99.028  1.00  0.00     0.158 A 
BRANCH  16  19
ATOM     19  O   UNL     1      95.075 107.000  96.985  1.00  0.00    -0.504 OA
ATOM     20  H   UNL     1      94.090 107.160  97.158  1.00  0.00     0.293 HD
ENDBRANCH  16  19
BRANCH  18  21
ATOM     21  O   UNL     1      95.264 106.922  99.801  1.00  0.00    -0.504 OA
ATOM     22  H   UNL     1      95.769 107.465 100.489  1.00  0.00     0.293 HD
ENDBRANCH  18  21
ENDBRANCH   3  13
BRANCH  10  23
ATOM     23  O   UNL     1     100.350  98.704 101.263  1.00  0.00    -0.507 OA
ATOM     24  H   UNL     1     100.954  98.184 100.636  1.00  0.00     0.293 HD
ENDBRANCH  10  23
BRANCH  11  25
ATOM     25  O   UNL     1     102.614 102.428 103.375  1.00  0.00    -0.508 OA
ATOM     26  H   UNL     1     103.597 102.244 103.213  1.00  0.00     0.293 HD
ENDBRANCH  11  25
ENDBRANCH   1   2
BRANCH   1  27
ATOM     27  C   UNL     1      95.424 101.260  98.578  1.00  0.00     0.339 C 
ATOM     28  C   UNL     1      95.009 100.004  99.365  1.00  0.00     0.214 C 
ATOM     29  O   UNL     1      94.709 101.408  97.359  1.00  0.00    -0.332 OA
ATOM     30  C   UNL     1      95.302  98.723  98.545  1.00  0.00     0.180 C 
ATOM     31  C   UNL     1      94.533 100.218  96.588  1.00  0.00     0.179 C 
ATOM     32  C   UNL     1      95.405  99.007  97.025  1.00  0.00     0.177 C 
BRANCH  28  33
ATOM     33  O   UNL     1      93.644 100.075  99.698  1.00  0.00    -0.384 OA
ATOM     34  H   UNL     1      93.585 100.432 100.624  1.00  0.00     0.211 HD
ENDBRANCH  28  33
BRANCH  30  35
ATOM     35  O   UNL     1      94.326  97.744  98.817  1.00  0.00    -0.387 OA
ATOM     36  H   UNL     1      93.572  97.899  98.192  1.00  0.00     0.211 HD
ENDBRANCH  30  35
BRANCH  31  37
ATOM     37  C   UNL     1      93.036  99.869  96.513  1.00  0.00     0.191 C 
BRANCH  37  38
ATOM     38  O   UNL     1      92.876  98.514  96.192  1.00  0.00    -0.394 OA
ATOM     39  H   UNL     1      93.785  98.117  96.202  1.00  0.00     0.210 HD
ENDBRANCH  37  38
ENDBRANCH  31  37
BRANCH  32  40
ATOM     40  O   UNL     1      95.060  97.860  96.281  1.00  0.00    -0.387 OA
ATOM     41  H   UNL     1      95.799  97.678  95.644  1.00  0.00     0.211 HD
ENDBRANCH  32  40
ENDBRANCH   1  27
TORSDOF 12
ENDMDL
MODEL 3
REMARK VINA RESULT:    -5.360      1.704      4.496
REMARK INTER + INTRA:          -8.983
REMARK INTER:                  -7.885
REMARK INTRA:                  -1.098
REMARK UNBOUND:                -1.116
REMARK SMILES O=c1c(O[C@H]2O[C@H](CO)[C@H](O)[C@H](O)[C@@H]2O)c(-c2ccc(O)c(O)c2)oc2cc(O)cc(O)c12
REMARK SMILES IDX 4 1 3 2 16 3 25 4 2 5 26 6 1 7 33 8 27 9 31 10 28 11 30 12
REMARK SMILES IDX 17 13 18 14 19 15 20 16 24 17 22 18 21 19 23 21 32 23 29 25
REMARK SMILES IDX 5 27 14 28 6 29 12 30 7 31 10 32 15 33 13 35 8 37 9 38 11 40
REMARK H PARENT 21 20 23 22 32 24 29 26 15 34 13 36 9 39 11 41
REMARK Flexibility Score: inf
ROOT
ATOM      1  O   UNL     1      97.477 102.621  99.957  1.00  0.00    -0.454 OA
ENDROOT
BRANCH   1   2
ATOM      2  C   UNL     1      98.366 101.764 100.621  1.00  0.00     0.214 A 
ATOM      3  C   UNL     1      97.986 100.430 100.821  1.00  0.00     0.180 A 
ATOM      4  O   UNL     1      98.791  99.586 101.455  1.00  0.00    -0.452 OA
ATOM      5  C   UNL     1      99.605 102.196 101.129  1.00  0.00     0.239 A 
ATOM      6  C   UNL     1      99.978  99.943 101.935  1.00  0.00     0.146 A 
ATOM      7  O   UNL     1      99.936 103.409 101.028  1.00  0.00    -0.285 OA
ATOM      8  C   UNL     1     100.447 101.272 101.784  1.00  0.00     0.111 A 
ATOM      9  C   UNL     1     100.758  98.992 102.599  1.00  0.00     0.094 A 
ATOM     10  C   UNL     1     101.718 101.616 102.305  1.00  0.00     0.134 A 
ATOM     11  C   UNL     1     102.007  99.338 103.115  1.00  0.00     0.123 A 
ATOM     12  C   UNL     1     102.486 100.643 102.962  1.00  0.00     0.093 A 
BRANCH   3  13
ATOM     13  C   UNL     1      96.698  99.943 100.309  1.00  0.00     0.025 A 
ATOM     14  C   UNL     1      96.664  99.162  99.146  1.00  0.00     0.016 A 
ATOM     15  C   UNL     1      95.439  98.742  98.620  1.00  0.00     0.051 A 
ATOM     16  C   UNL     1      94.241  99.094  99.251  1.00  0.00     0.157 A 
ATOM     17  C   UNL     1      95.499 100.294 100.947  1.00  0.00     0.062 A 
ATOM     18  C   UNL     1      94.270  99.869 100.423  1.00  0.00     0.158 A 
BRANCH  16  19
ATOM     19  O   UNL     1      93.036  98.668  98.696  1.00  0.00    -0.504 OA
ATOM     20  H   UNL     1      92.207  99.248  98.694  1.00  0.00     0.293 HD
ENDBRANCH  16  19
BRANCH  18  21
ATOM     21  O   UNL     1      93.079 100.216 101.057  1.00  0.00    -0.504 OA
ATOM     22  H   UNL     1      92.359 100.748 100.586  1.00  0.00     0.293 HD
ENDBRANCH  18  21
ENDBRANCH   3  13
BRANCH  10  23
ATOM     23  O   UNL     1     102.219 102.912 102.174  1.00  0.00    -0.507 OA
ATOM     24  H   UNL     1     101.679 103.655 101.746  1.00  0.00     0.293 HD
ENDBRANCH  10  23
BRANCH  11  25
ATOM     25  O   UNL     1     102.767  98.375 103.777  1.00  0.00    -0.508 OA
ATOM     26  H   UNL     1     103.011  98.473 104.754  1.00  0.00     0.293 HD
ENDBRANCH  11  25
ENDBRANCH   1   2
BRANCH   1  27
ATOM     27  C   UNL     1      97.757 103.336  98.752  1.00  0.00     0.339 C 
ATOM     28  C   UNL     1      96.644 104.366  98.486  1.00  0.00     0.214 C 
ATOM     29  O   UNL     1      97.926 102.419  97.681  1.00  0.00    -0.332 OA
ATOM     30  C   UNL     1      95.276 103.663  98.312  1.00  0.00     0.180 C 
ATOM     31  C   UNL     1      96.726 101.907  97.099  1.00  0.00     0.179 C 
ATOM     32  C   UNL     1      95.427 102.173  97.911  1.00  0.00     0.177 C 
BRANCH  28  33
ATOM     33  O   UNL     1      96.958 105.126  97.344  1.00  0.00    -0.384 OA
ATOM     34  H   UNL     1      96.116 105.245  96.829  1.00  0.00     0.211 HD
ENDBRANCH  28  33
BRANCH  30  35
ATOM     35  O   UNL     1      94.488 104.366  97.379  1.00  0.00    -0.387 OA
ATOM     36  H   UNL     1      94.900 105.261  97.263  1.00  0.00     0.211 HD
ENDBRANCH  30  35
BRANCH  31  37
ATOM     37  C   UNL     1      96.616 102.381  95.640  1.00  0.00     0.191 C 
BRANCH  37  38
ATOM     38  O   UNL     1      96.221 101.317  94.819  1.00  0.00    -0.394 OA
ATOM     39  H   UNL     1      96.970 101.158  94.188  1.00  0.00     0.210 HD
ENDBRANCH  37  38
ENDBRANCH  31  37
BRANCH  32  40
ATOM     40  O   UNL     1      94.298 101.737  97.188  1.00  0.00    -0.387 OA
ATOM     41  H   UNL     1      94.500 101.833  96.222  1.00  0.00     0.211 HD
ENDBRANCH  32  40
ENDBRANCH   1  27
TORSDOF 12
ENDMDL
MODEL 4
REMARK VINA RESULT:    -5.268      0.803      1.339
REMARK INTER + INTRA:          -8.848
REMARK INTER:                  -7.896
REMARK INTRA:                  -0.952
REMARK UNBOUND:                -1.116
REMARK SMILES O=c1c(O[C@H]2O[C@H](CO)[C@H](O)[C@H](O)[C@@H]2O)c(-c2ccc(O)c(O)c2)oc2cc(O)cc(O)c12
REMARK SMILES IDX 4 1 3 2 16 3 25 4 2 5 26 6 1 7 33 8 27 9 31 10 28 11 30 12
REMARK SMILES IDX 17 13 18 14 19 15 20 16 24 17 22 18 21 19 23 21 32 23 29 25
REMARK SMILES IDX 5 27 14 28 6 29 12 30 7 31 10 32 15 33 13 35 8 37 9 38 11 40
REMARK H PARENT 21 20 23 22 32 24 29 26 15 34 13 36 9 39 11 41
REMARK Flexibility Score: inf
ROOT
ATOM      1  O   UNL     1      97.201 100.517  98.980  1.00  0.00    -0.454 OA
ENDROOT
BRANCH   1   2
ATOM      2  C   UNL     1      98.285 100.896  99.783  1.00  0.00     0.214 A 
ATOM      3  C   UNL     1      98.627 102.253  99.850  1.00  0.00     0.180 A 
ATOM      4  O   UNL     1      99.654 102.656 100.590  1.00  0.00    -0.452 OA
ATOM      5  C   UNL     1      99.068  99.966 100.493  1.00  0.00     0.239 A 
ATOM      6  C   UNL     1     100.411 101.817 101.291  1.00  0.00     0.146 A 
ATOM      7  O   UNL     1      98.828  98.733 100.388  1.00  0.00    -0.285 OA
ATOM      8  C   UNL     1     100.145 100.426 101.283  1.00  0.00     0.111 A 
ATOM      9  C   UNL     1     101.479 102.326 102.035  1.00  0.00     0.094 A 
ATOM     10  C   UNL     1     100.968  99.564 102.046  1.00  0.00     0.134 A 
ATOM     11  C   UNL     1     102.291 101.471 102.781  1.00  0.00     0.123 A 
ATOM     12  C   UNL     1     102.032 100.097 102.790  1.00  0.00     0.093 A 
BRANCH   3  13
ATOM     13  C   UNL     1      97.835 103.251  99.120  1.00  0.00     0.025 A 
ATOM     14  C   UNL     1      97.315 104.359  99.802  1.00  0.00     0.016 A 
ATOM     15  C   UNL     1      96.514 105.284  99.127  1.00  0.00     0.051 A 
ATOM     16  C   UNL     1      96.229 105.114  97.769  1.00  0.00     0.157 A 
ATOM     17  C   UNL     1      97.556 103.080  97.755  1.00  0.00     0.062 A 
ATOM     18  C   UNL     1      96.756 104.010  97.077  1.00  0.00     0.158 A 
BRANCH  16  19
ATOM     19  O   UNL     1      95.419 106.049  97.126  1.00  0.00    -0.504 OA
ATOM     20  H   UNL     1      95.790 106.900  96.723  1.00  0.00     0.293 HD
ENDBRANCH  16  19
BRANCH  18  21
ATOM     21  O   UNL     1      96.479 103.841  95.722  1.00  0.00    -0.504 OA
ATOM     22  H   UNL     1      95.699 103.282  95.403  1.00  0.00     0.293 HD
ENDBRANCH  18  21
ENDBRANCH   3  13
BRANCH  10  23
ATOM     23  O   UNL     1     100.739  98.187 102.069  1.00  0.00    -0.507 OA
ATOM     24  H   UNL     1      99.803  97.800 102.112  1.00  0.00     0.293 HD
ENDBRANCH  10  23
BRANCH  11  25
ATOM     25  O   UNL     1     103.354 101.999 103.512  1.00  0.00    -0.508 OA
ATOM     26  H   UNL     1     104.315 101.785 103.278  1.00  0.00     0.293 HD
ENDBRANCH  11  25
ENDBRANCH   1   2
BRANCH   1  27
ATOM     27  C   UNL     1      96.118  99.680  99.388  1.00  0.00     0.339 C 
ATOM     28  C   UNL     1      95.137  99.486  98.217  1.00  0.00     0.214 C 
ATOM     29  O   UNL     1      95.497 100.230 100.541  1.00  0.00    -0.332 OA
ATOM     30  C   UNL     1      94.543 100.844  97.769  1.00  0.00     0.180 C 
ATOM     31  C   UNL     1      94.581 101.302 100.308  1.00  0.00     0.179 C 
ATOM     32  C   UNL     1      94.629 101.920  98.882  1.00  0.00     0.177 C 
BRANCH  28  33
ATOM     33  O   UNL     1      94.112  98.598  98.591  1.00  0.00    -0.384 OA
ATOM     34  H   UNL     1      93.559  98.428  97.782  1.00  0.00     0.211 HD
ENDBRANCH  28  33
BRANCH  30  35
ATOM     35  O   UNL     1      93.216 100.668  97.330  1.00  0.00    -0.387 OA
ATOM     36  H   UNL     1      92.712 100.255  98.078  1.00  0.00     0.211 HD
ENDBRANCH  30  35
BRANCH  31  37
ATOM     37  C   UNL     1      93.163 100.867 100.714  1.00  0.00     0.191 C 
BRANCH  37  38
ATOM     38  O   UNL     1      93.152  99.500 101.023  1.00  0.00    -0.394 OA
ATOM     39  H   UNL     1      93.810  99.374 101.754  1.00  0.00     0.210 HD
ENDBRANCH  37  38
ENDBRANCH  31  37
BRANCH  32  40
ATOM     40  O   UNL     1      93.606 102.878  98.727  1.00  0.00    -0.387 OA
ATOM     41  H   UNL     1      94.036 103.756  98.564  1.00  0.00     0.211 HD
ENDBRANCH  32  40
ENDBRANCH   1  27
TORSDOF 12
ENDMDL
MODEL 5
REMARK VINA RESULT:    -5.248      1.185      1.974
REMARK INTER + INTRA:          -8.819
REMARK INTER:                  -7.801
REMARK INTRA:                  -1.018
REMARK UNBOUND:                -1.116
REMARK SMILES O=c1c(O[C@H]2O[C@H](CO)[C@H](O)[C@H](O)[C@@H]2O)c(-c2ccc(O)c(O)c2)oc2cc(O)cc(O)c12
REMARK SMILES IDX 4 1 3 2 16 3 25 4 2 5 26 6 1 7 33 8 27 9 31 10 28 11 30 12
REMARK SMILES IDX 17 13 18 14 19 15 20 16 24 17 22 18 21 19 23 21 32 23 29 25
REMARK SMILES IDX 5 27 14 28 6 29 12 30 7 31 10 32 15 33 13 35 8 37 9 38 11 40
REMARK H PARENT 21 20 23 22 32 24 29 26 15 34 13 36 9 39 11 41
REMARK Flexibility Score: inf
ROOT
ATOM      1  O   UNL     1      96.470 101.017  98.788  1.00  0.00    -0.454 OA
ENDROOT
BRANCH   1   2
ATOM      2  C   UNL     1      97.631 101.323  99.512  1.00  0.00     0.214 A 
ATOM      3  C   UNL     1      98.053 102.658  99.567  1.00  0.00     0.180 A 
ATOM      4  O   UNL     1      99.153 102.992 100.233  1.00  0.00    -0.452 OA
ATOM      5  C   UNL     1      98.410 100.341 100.152  1.00  0.00     0.239 A 
ATOM      6  C   UNL     1      99.911 102.103 100.867  1.00  0.00     0.146 A 
ATOM      7  O   UNL     1      98.093  99.125 100.053  1.00  0.00    -0.285 OA
ATOM      8  C   UNL     1      99.566 100.729 100.864  1.00  0.00     0.111 A 
ATOM      9  C   UNL     1     101.059 102.540 101.535  1.00  0.00     0.094 A 
ATOM     10  C   UNL     1     100.394  99.811 101.555  1.00  0.00     0.134 A 
ATOM     11  C   UNL     1     101.873 101.631 102.209  1.00  0.00     0.123 A 
ATOM     12  C   UNL     1     101.538 100.273 102.223  1.00  0.00     0.093 A 
BRANCH   3  13
ATOM     13  C   UNL     1      97.267 103.710  98.909  1.00  0.00     0.025 A 
ATOM     14  C   UNL     1      97.248 103.790  97.510  1.00  0.00     0.016 A 
ATOM     15  C   UNL     1      96.549 104.821  96.877  1.00  0.00     0.051 A 
ATOM     16  C   UNL     1      95.862 105.776  97.632  1.00  0.00     0.157 A 
ATOM     17  C   UNL     1      96.575 104.664  99.670  1.00  0.00     0.062 A 
ATOM     18  C   UNL     1      95.869 105.695  99.035  1.00  0.00     0.158 A 
BRANCH  16  19
ATOM     19  O   UNL     1      95.182 106.798  96.972  1.00  0.00    -0.504 OA
ATOM     20  H   UNL     1      94.848 107.624  97.452  1.00  0.00     0.293 HD
ENDBRANCH  16  19
BRANCH  18  21
ATOM     21  O   UNL     1      95.181 106.642  99.791  1.00  0.00    -0.504 OA
ATOM     22  H   UNL     1      95.038 106.529 100.786  1.00  0.00     0.293 HD
ENDBRANCH  18  21
ENDBRANCH   3  13
BRANCH  10  23
ATOM     23  O   UNL     1     100.089  98.449 101.580  1.00  0.00    -0.507 OA
ATOM     24  H   UNL     1     100.755  97.756 101.903  1.00  0.00     0.293 HD
ENDBRANCH  10  23
BRANCH  11  25
ATOM     25  O   UNL     1     103.015 102.087 102.864  1.00  0.00    -0.508 OA
ATOM     26  H   UNL     1     103.373 101.624 103.690  1.00  0.00     0.293 HD
ENDBRANCH  11  25
ENDBRANCH   1   2
BRANCH   1  27
ATOM     27  C   UNL     1      96.433 100.523  97.448  1.00  0.00     0.339 C 
ATOM     28  C   UNL     1      95.205 101.094  96.715  1.00  0.00     0.214 C 
ATOM     29  O   UNL     1      96.455  99.103  97.462  1.00  0.00    -0.332 OA
ATOM     30  C   UNL     1      93.896 100.658  97.417  1.00  0.00     0.180 C 
ATOM     31  C   UNL     1      95.209  98.460  97.735  1.00  0.00     0.179 C 
ATOM     32  C   UNL     1      94.088  99.387  98.283  1.00  0.00     0.177 C 
BRANCH  28  33
ATOM     33  O   UNL     1      95.210 100.673  95.373  1.00  0.00    -0.384 OA
ATOM     34  H   UNL     1      95.660  99.787  95.343  1.00  0.00     0.211 HD
ENDBRANCH  28  33
BRANCH  30  35
ATOM     35  O   UNL     1      92.875 100.477  96.463  1.00  0.00    -0.387 OA
ATOM     36  H   UNL     1      93.269  99.974  95.703  1.00  0.00     0.211 HD
ENDBRANCH  30  35
BRANCH  31  37
ATOM     37  C   UNL     1      94.760  97.660  96.501  1.00  0.00     0.191 C 
BRANCH  37  38
ATOM     38  O   UNL     1      95.665  97.854  95.449  1.00  0.00    -0.394 OA
ATOM     39  H   UNL     1      95.273  98.558  94.870  1.00  0.00     0.210 HD
ENDBRANCH  37  38
ENDBRANCH  31  37
BRANCH  32  40
ATOM     40  O   UNL     1      92.875  98.677  98.398  1.00  0.00    -0.387 OA
ATOM     41  H   UNL     1      92.340  98.857  97.583  1.00  0.00     0.211 HD
ENDBRANCH  32  40
ENDBRANCH   1  27
TORSDOF 12
ENDMDL
MODEL 6
REMARK VINA RESULT:    -4.762      1.405      4.537
REMARK INTER + INTRA:          -8.106
REMARK INTER:                  -6.658
REMARK INTRA:                  -1.448
REMARK UNBOUND:                -1.116
REMARK SMILES O=c1c(O[C@H]2O[C@H](CO)[C@H](O)[C@H](O)[C@@H]2O)c(-c2ccc(O)c(O)c2)oc2cc(O)cc(O)c12
REMARK SMILES IDX 4 1 3 2 16 3 25 4 2 5 26 6 1 7 33 8 27 9 31 10 28 11 30 12
REMARK SMILES IDX 17 13 18 14 19 15 20 16 24 17 22 18 21 19 23 21 32 23 29 25
REMARK SMILES IDX 5 27 14 28 6 29 12 30 7 31 10 32 15 33 13 35 8 37 9 38 11 40
REMARK H PARENT 21 20 23 22 32 24 29 26 15 34 13 36 9 39 11 41
REMARK Flexibility Score: inf
ROOT
ATOM      1  O   UNL     1      97.828 102.546  99.362  1.00  0.00    -0.454 OA
ENDROOT
BRANCH   1   2
ATOM      2  C   UNL     1      98.602 101.658 100.122  1.00  0.00     0.214 A 
ATOM      3  C   UNL     1      98.179 100.327 100.232  1.00  0.00     0.180 A 
ATOM      4  O   UNL     1      98.875  99.453 100.950  1.00  0.00    -0.452 OA
ATOM      5  C   UNL     1      99.763 102.056 100.810  1.00  0.00     0.239 A 
ATOM      6  C   UNL     1      99.987  99.778 101.602  1.00  0.00     0.146 A 
ATOM      7  O   UNL     1     100.123 103.264 100.788  1.00  0.00    -0.285 OA
ATOM      8  C   UNL     1     100.491 101.101 101.553  1.00  0.00     0.111 A 
ATOM      9  C   UNL     1     100.652  98.797 102.343  1.00  0.00     0.094 A 
ATOM     10  C   UNL     1     101.681 101.410 102.255  1.00  0.00     0.134 A 
ATOM     11  C   UNL     1     101.821  99.108 103.038  1.00  0.00     0.123 A 
ATOM     12  C   UNL     1     102.335 100.407 102.988  1.00  0.00     0.093 A 
BRANCH   3  13
ATOM     13  C   UNL     1      96.969  99.875  99.531  1.00  0.00     0.025 A 
ATOM     14  C   UNL     1      96.984  99.740  98.136  1.00  0.00     0.016 A 
ATOM     15  C   UNL     1      95.822  99.365  97.456  1.00  0.00     0.051 A 
ATOM     16  C   UNL     1      94.640  99.119  98.160  1.00  0.00     0.157 A 
ATOM     17  C   UNL     1      95.786  99.624 100.242  1.00  0.00     0.062 A 
ATOM     18  C   UNL     1      94.621  99.244  99.560  1.00  0.00     0.158 A 
BRANCH  16  19
ATOM     19  O   UNL     1      93.495  98.757  97.453  1.00  0.00    -0.504 OA
ATOM     20  H   UNL     1      93.519  98.098  96.685  1.00  0.00     0.293 HD
ENDBRANCH  16  19
BRANCH  18  21
ATOM     21  O   UNL     1      93.446  98.994 100.266  1.00  0.00    -0.504 OA
ATOM     22  H   UNL     1      93.235  98.080 100.644  1.00  0.00     0.293 HD
ENDBRANCH  18  21
ENDBRANCH   3  13
BRANCH  10  23
ATOM     23  O   UNL     1     102.214 102.699 102.231  1.00  0.00    -0.507 OA
ATOM     24  H   UNL     1     102.897 102.984 101.538  1.00  0.00     0.293 HD
ENDBRANCH  10  23
BRANCH  11  25
ATOM     25  O   UNL     1     102.465  98.116 103.775  1.00  0.00    -0.508 OA
ATOM     26  H   UNL     1     102.507  97.158 103.450  1.00  0.00     0.293 HD
ENDBRANCH  11  25
ENDBRANCH   1   2
BRANCH   1  27
ATOM     27  C   UNL     1      96.860 103.458  99.882  1.00  0.00     0.339 C 
ATOM     28  C   UNL     1      95.446 103.012  99.469  1.00  0.00     0.214 C 
ATOM     29  O   UNL     1      97.169 104.777  99.454  1.00  0.00    -0.332 OA
ATOM     30  C   UNL     1      95.304 102.999  97.927  1.00  0.00     0.180 C 
ATOM     31  C   UNL     1      96.771 105.112  98.123  1.00  0.00     0.179 C 
ATOM     32  C   UNL     1      96.348 103.911  97.232  1.00  0.00     0.177 C 
BRANCH  28  33
ATOM     33  O   UNL     1      94.486 103.863 100.046  1.00  0.00    -0.384 OA
ATOM     34  H   UNL     1      94.033 103.350 100.767  1.00  0.00     0.211 HD
ENDBRANCH  28  33
BRANCH  30  35
ATOM     35  O   UNL     1      93.991 103.355  97.561  1.00  0.00    -0.387 OA
ATOM     36  H   UNL     1      93.933 103.289  96.573  1.00  0.00     0.211 HD
ENDBRANCH  30  35
BRANCH  31  37
ATOM     37  C   UNL     1      95.702 106.218  98.167  1.00  0.00     0.191 C 
BRANCH  37  38
ATOM     38  O   UNL     1      95.495 106.631  99.490  1.00  0.00    -0.394 OA
ATOM     39  H   UNL     1      95.630 105.828 100.057  1.00  0.00     0.210 HD
ENDBRANCH  37  38
ENDBRANCH  31  37
BRANCH  32  40
ATOM     40  O   UNL     1      95.861 104.368  95.991  1.00  0.00    -0.387 OA
ATOM     41  H   UNL     1      96.139 105.313  95.885  1.00  0.00     0.211 HD
ENDBRANCH  32  40
ENDBRANCH   1  27
TORSDOF 12
ENDMDL
