MODEL 1
REMARK VINA RESULT:    -7.288      0.000      0.000
REMARK INTER + INTRA:          -9.113
REMARK INTER:                  -8.779
REMARK INTRA:                  -0.334
REMARK UNBOUND:                -0.334
REMARK SMILES O=c1c(O)c(-c2ccc(O)c(O)c2)oc2cc(O)cc(O)c12
REMARK SMILES IDX 5 1 3 2 2 3 1 4 22 5 20 6 19 7 17 8 16 9 15 10 14 11 6 12
REMARK SMILES IDX 7 13 8 14 9 15 13 16 11 17 10 18 12 20 4 22 21 24 18 26
REMARK H PARENT 10 19 12 21 4 23 21 25 18 27
REMARK Flexibility Score: inf
ROOT
ATOM      1  C   UNL     1     -13.246 -29.587 -12.009  1.00  0.00     0.180 A 
ATOM      2  C   UNL     1     -13.517 -30.746 -12.758  1.00  0.00     0.208 A 
ATOM      3  C   UNL     1     -13.067 -31.987 -12.279  1.00  0.00     0.238 A 
ATOM      4  O   UNL     1     -13.359 -33.026 -12.926  1.00  0.00    -0.285 OA
ATOM      5  C   UNL     1     -12.338 -32.052 -11.068  1.00  0.00     0.111 A 
ATOM      6  C   UNL     1     -11.800 -33.250 -10.509  1.00  0.00     0.134 A 
ATOM      7  C   UNL     1     -11.209 -33.216  -9.239  1.00  0.00     0.093 A 
ATOM      8  C   UNL     1     -11.079 -32.018  -8.538  1.00  0.00     0.123 A 
ATOM      9  C   UNL     1     -11.549 -30.831  -9.101  1.00  0.00     0.094 A 
ATOM     10  C   UNL     1     -12.176 -30.838 -10.349  1.00  0.00     0.146 A 
ATOM     11  O   UNL     1     -12.618 -29.689 -10.845  1.00  0.00    -0.452 OA
ENDROOT
BRANCH   1  12
ATOM     12  C   UNL     1     -13.666 -28.241 -12.462  1.00  0.00     0.025 A 
ATOM     13  C   UNL     1     -14.888 -27.712 -12.015  1.00  0.00     0.016 A 
ATOM     14  C   UNL     1     -15.294 -26.436 -12.412  1.00  0.00     0.051 A 
ATOM     15  C   UNL     1     -14.479 -25.663 -13.250  1.00  0.00     0.157 A 
ATOM     16  C   UNL     1     -12.842 -27.455 -13.286  1.00  0.00     0.062 A 
ATOM     17  C   UNL     1     -13.244 -26.175 -13.684  1.00  0.00     0.158 A 
BRANCH  15  18
ATOM     18  O   UNL     1     -14.888 -24.391 -13.647  1.00  0.00    -0.504 OA
ATOM     19  H   UNL     1     -14.219 -23.665 -13.873  1.00  0.00     0.293 HD
ENDBRANCH  15  18
BRANCH  17  20
ATOM     20  O   UNL     1     -12.404 -25.424 -14.506  1.00  0.00    -0.504 OA
ATOM     21  H   UNL     1     -12.640 -25.211 -15.467  1.00  0.00     0.293 HD
ENDBRANCH  17  20
ENDBRANCH   1  12
BRANCH   2  22
ATOM     22  O   UNL     1     -14.257 -30.661 -13.941  1.00  0.00    -0.502 OA
ATOM     23  H   UNL     1     -15.269 -30.688 -13.952  1.00  0.00     0.293 HD
ENDBRANCH   2  22
BRANCH   6  24
ATOM     24  O   UNL     1     -11.794 -34.484 -11.166  1.00  0.00    -0.507 OA
ATOM     25  H   UNL     1     -11.343 -34.661 -12.051  1.00  0.00     0.293 HD
ENDBRANCH   6  24
BRANCH   8  26
ATOM     26  O   UNL     1     -10.473 -32.018  -7.284  1.00  0.00    -0.508 OA
ATOM     27  H   UNL     1     -10.438 -32.853  -6.712  1.00  0.00     0.293 HD
ENDBRANCH   8  26
TORSDOF 6
ENDMDL
MODEL 2
REMARK VINA RESULT:    -6.894      1.304      3.004
REMARK INTER + INTRA:          -8.639
REMARK INTER:                  -8.351
REMARK INTRA:                  -0.288
REMARK UNBOUND:                -0.334
REMARK SMILES O=c1c(O)c(-c2ccc(O)c(O)c2)oc2cc(O)cc(O)c12
REMARK SMILES IDX 5 1 3 2 2 3 1 4 22 5 20 6 19 7 17 8 16 9 15 10 14 11 6 12
REMARK SMILES IDX 7 13 8 14 9 15 13 16 11 17 10 18 12 20 4 22 21 24 18 26
REMARK H PARENT 10 19 12 21 4 23 21 25 18 27
REMARK Flexibility Score: inf
ROOT
ATOM      1  C   UNL     1     -13.040 -29.751 -12.029  1.00  0.00     0.180 A 
ATOM      2  C   UNL     1     -12.541 -29.963 -10.732  1.00  0.00     0.208 A 
ATOM      3  C   UNL     1     -12.081 -31.242 -10.381  1.00  0.00     0.238 A 
ATOM      4  O   UNL     1     -11.585 -31.413  -9.236  1.00  0.00    -0.285 OA
ATOM      5  C   UNL     1     -12.141 -32.296 -11.324  1.00  0.00     0.111 A 
ATOM      6  C   UNL     1     -11.740 -33.641 -11.062  1.00  0.00     0.134 A 
ATOM      7  C   UNL     1     -11.720 -34.571 -12.109  1.00  0.00     0.093 A 
ATOM      8  C   UNL     1     -12.149 -34.224 -13.389  1.00  0.00     0.123 A 
ATOM      9  C   UNL     1     -12.599 -32.928 -13.642  1.00  0.00     0.094 A 
ATOM     10  C   UNL     1     -12.596 -31.967 -12.627  1.00  0.00     0.146 A 
ATOM     11  O   UNL     1     -13.023 -30.742 -12.911  1.00  0.00    -0.452 OA
ENDROOT
BRANCH   1  12
ATOM     12  C   UNL     1     -13.567 -28.437 -12.465  1.00  0.00     0.025 A 
ATOM     13  C   UNL     1     -14.854 -28.042 -12.067  1.00  0.00     0.016 A 
ATOM     14  C   UNL     1     -15.363 -26.799 -12.449  1.00  0.00     0.051 A 
ATOM     15  C   UNL     1     -14.587 -25.924 -13.221  1.00  0.00     0.157 A 
ATOM     16  C   UNL     1     -12.783 -27.549 -13.223  1.00  0.00     0.062 A 
ATOM     17  C   UNL     1     -13.289 -26.300 -13.606  1.00  0.00     0.158 A 
BRANCH  15  18
ATOM     18  O   UNL     1     -15.098 -24.684 -13.603  1.00  0.00    -0.504 OA
ATOM     19  H   UNL     1     -15.698 -24.584 -14.412  1.00  0.00     0.293 HD
ENDBRANCH  15  18
BRANCH  17  20
ATOM     20  O   UNL     1     -12.486 -25.446 -14.362  1.00  0.00    -0.504 OA
ATOM     21  H   UNL     1     -11.507 -25.300 -14.150  1.00  0.00     0.293 HD
ENDBRANCH  17  20
ENDBRANCH   1  12
BRANCH   2  22
ATOM     22  O   UNL     1     -12.471 -28.902  -9.824  1.00  0.00    -0.502 OA
ATOM     23  H   UNL     1     -12.840 -28.968  -8.883  1.00  0.00     0.293 HD
ENDBRANCH   2  22
BRANCH   6  24
ATOM     24  O   UNL     1     -11.381 -34.117  -9.798  1.00  0.00    -0.507 OA
ATOM     25  H   UNL     1     -11.907 -34.797  -9.271  1.00  0.00     0.293 HD
ENDBRANCH   6  24
BRANCH   8  26
ATOM     26  O   UNL     1     -12.131 -35.179 -14.403  1.00  0.00    -0.508 OA
ATOM     27  H   UNL     1     -12.045 -36.167 -14.199  1.00  0.00     0.293 HD
ENDBRANCH   8  26
TORSDOF 6
ENDMDL
MODEL 3
REMARK VINA RESULT:    -6.743      2.669      6.071
REMARK INTER + INTRA:          -8.457
REMARK INTER:                  -8.127
REMARK INTRA:                  -0.331
REMARK UNBOUND:                -0.334
REMARK SMILES O=c1c(O)c(-c2ccc(O)c(O)c2)oc2cc(O)cc(O)c12
REMARK SMILES IDX 5 1 3 2 2 3 1 4 22 5 20 6 19 7 17 8 16 9 15 10 14 11 6 12
REMARK SMILES IDX 7 13 8 14 9 15 13 16 11 17 10 18 12 20 4 22 21 24 18 26
REMARK H PARENT 10 19 12 21 4 23 21 25 18 27
REMARK Flexibility Score: inf
ROOT
ATOM      1  C   UNL     1     -13.644 -30.682 -12.359  1.00  0.00     0.180 A 
ATOM      2  C   UNL     1     -13.665 -29.446 -13.027  1.00  0.00     0.208 A 
ATOM      3  C   UNL     1     -13.872 -28.273 -12.283  1.00  0.00     0.238 A 
ATOM      4  O   UNL     1     -13.836 -27.165 -12.879  1.00  0.00    -0.285 OA
ATOM      5  C   UNL     1     -14.072 -28.353 -10.885  1.00  0.00     0.111 A 
ATOM      6  C   UNL     1     -14.330 -27.233 -10.038  1.00  0.00     0.134 A 
ATOM      7  C   UNL     1     -14.382 -27.414  -8.649  1.00  0.00     0.093 A 
ATOM      8  C   UNL     1     -14.251 -28.681  -8.084  1.00  0.00     0.123 A 
ATOM      9  C   UNL     1     -14.057 -29.791  -8.906  1.00  0.00     0.094 A 
ATOM     10  C   UNL     1     -13.964 -29.638 -10.292  1.00  0.00     0.146 A 
ATOM     11  O   UNL     1     -13.769 -30.718 -11.039  1.00  0.00    -0.452 OA
ENDROOT
BRANCH   1  12
ATOM     12  C   UNL     1     -13.456 -31.963 -13.079  1.00  0.00     0.025 A 
ATOM     13  C   UNL     1     -12.164 -32.496 -13.215  1.00  0.00     0.016 A 
ATOM     14  C   UNL     1     -11.966 -33.712 -13.872  1.00  0.00     0.051 A 
ATOM     15  C   UNL     1     -13.057 -34.424 -14.388  1.00  0.00     0.157 A 
ATOM     16  C   UNL     1     -14.551 -32.689 -13.581  1.00  0.00     0.062 A 
ATOM     17  C   UNL     1     -14.357 -33.910 -14.237  1.00  0.00     0.158 A 
BRANCH  15  18
ATOM     18  O   UNL     1     -12.856 -35.637 -15.045  1.00  0.00    -0.504 OA
ATOM     19  H   UNL     1     -13.602 -36.314 -15.148  1.00  0.00     0.293 HD
ENDBRANCH  15  18
BRANCH  17  20
ATOM     20  O   UNL     1     -15.465 -34.601 -14.727  1.00  0.00    -0.504 OA
ATOM     21  H   UNL     1     -16.162 -34.155 -15.311  1.00  0.00     0.293 HD
ENDBRANCH  17  20
ENDBRANCH   1  12
BRANCH   2  22
ATOM     22  O   UNL     1     -13.444 -29.388 -14.407  1.00  0.00    -0.502 OA
ATOM     23  H   UNL     1     -12.515 -29.326 -14.806  1.00  0.00     0.293 HD
ENDBRANCH   2  22
BRANCH   6  24
ATOM     24  O   UNL     1     -14.569 -25.938 -10.507  1.00  0.00    -0.507 OA
ATOM     25  H   UNL     1     -15.307 -25.686 -11.147  1.00  0.00     0.293 HD
ENDBRANCH   6  24
BRANCH   8  26
ATOM     26  O   UNL     1     -14.323 -28.827  -6.700  1.00  0.00    -0.508 OA
ATOM     27  H   UNL     1     -14.159 -28.046  -6.076  1.00  0.00     0.293 HD
ENDBRANCH   8  26
TORSDOF 6
ENDMDL
MODEL 4
REMARK VINA RESULT:    -6.741      2.403      6.754
REMARK INTER + INTRA:          -8.455
REMARK INTER:                  -8.132
REMARK INTRA:                  -0.323
REMARK UNBOUND:                -0.334
REMARK SMILES O=c1c(O)c(-c2ccc(O)c(O)c2)oc2cc(O)cc(O)c12
REMARK SMILES IDX 5 1 3 2 2 3 1 4 22 5 20 6 19 7 17 8 16 9 15 10 14 11 6 12
REMARK SMILES IDX 7 13 8 14 9 15 13 16 11 17 10 18 12 20 4 22 21 24 18 26
REMARK H PARENT 10 19 12 21 4 23 21 25 18 27
REMARK Flexibility Score: inf
ROOT
ATOM      1  C   UNL     1     -13.860 -30.839 -12.326  1.00  0.00     0.180 A 
ATOM      2  C   UNL     1     -14.082 -30.828 -10.938  1.00  0.00     0.208 A 
ATOM      3  C   UNL     1     -14.289 -29.599 -10.292  1.00  0.00     0.238 A 
ATOM      4  O   UNL     1     -14.541 -29.599  -9.059  1.00  0.00    -0.285 OA
ATOM      5  C   UNL     1     -14.253 -28.396 -11.037  1.00  0.00     0.111 A 
ATOM      6  C   UNL     1     -14.409 -27.092 -10.479  1.00  0.00     0.134 A 
ATOM      7  C   UNL     1     -14.487 -25.981 -11.329  1.00  0.00     0.093 A 
ATOM      8  C   UNL     1     -14.349 -26.120 -12.709  1.00  0.00     0.123 A 
ATOM      9  C   UNL     1     -14.137 -27.384 -13.261  1.00  0.00     0.094 A 
ATOM     10  C   UNL     1     -14.091 -28.515 -12.442  1.00  0.00     0.146 A 
ATOM     11  O   UNL     1     -13.897 -29.701 -13.007  1.00  0.00    -0.452 OA
ENDROOT
BRANCH   1  12
ATOM     12  C   UNL     1     -13.609 -32.093 -13.074  1.00  0.00     0.025 A 
ATOM     13  C   UNL     1     -12.297 -32.580 -13.184  1.00  0.00     0.016 A 
ATOM     14  C   UNL     1     -12.039 -33.771 -13.866  1.00  0.00     0.051 A 
ATOM     15  C   UNL     1     -13.091 -34.503 -14.435  1.00  0.00     0.157 A 
ATOM     16  C   UNL     1     -14.664 -32.839 -13.628  1.00  0.00     0.062 A 
ATOM     17  C   UNL     1     -14.411 -34.035 -14.310  1.00  0.00     0.158 A 
BRANCH  15  18
ATOM     18  O   UNL     1     -12.831 -35.690 -15.117  1.00  0.00    -0.504 OA
ATOM     19  H   UNL     1     -13.580 -36.273 -15.471  1.00  0.00     0.293 HD
ENDBRANCH  15  18
BRANCH  17  20
ATOM     20  O   UNL     1     -15.480 -34.747 -14.852  1.00  0.00    -0.504 OA
ATOM     21  H   UNL     1     -15.472 -35.088 -15.805  1.00  0.00     0.293 HD
ENDBRANCH  17  20
ENDBRANCH   1  12
BRANCH   2  22
ATOM     22  O   UNL     1     -14.135 -32.029 -10.225  1.00  0.00    -0.502 OA
ATOM     23  H   UNL     1     -13.795 -32.112  -9.275  1.00  0.00     0.293 HD
ENDBRANCH   2  22
BRANCH   6  24
ATOM     24  O   UNL     1     -14.464 -26.831  -9.107  1.00  0.00    -0.507 OA
ATOM     25  H   UNL     1     -13.741 -27.075  -8.447  1.00  0.00     0.293 HD
ENDBRANCH   6  24
BRANCH   8  26
ATOM     26  O   UNL     1     -14.416 -24.992 -13.524  1.00  0.00    -0.508 OA
ATOM     27  H   UNL     1     -14.893 -25.011 -14.417  1.00  0.00     0.293 HD
ENDBRANCH   8  26
TORSDOF 6
ENDMDL
MODEL 5
REMARK VINA RESULT:    -6.564      2.655      3.632
REMARK INTER + INTRA:          -8.241
REMARK INTER:                  -7.911
REMARK INTRA:                  -0.331
REMARK UNBOUND:                -0.334
REMARK SMILES O=c1c(O)c(-c2ccc(O)c(O)c2)oc2cc(O)cc(O)c12
REMARK SMILES IDX 5 1 3 2 2 3 1 4 22 5 20 6 19 7 17 8 16 9 15 10 14 11 6 12
REMARK SMILES IDX 7 13 8 14 9 15 13 16 11 17 10 18 12 20 4 22 21 24 18 26
REMARK H PARENT 10 19 12 21 4 23 21 25 18 27
REMARK Flexibility Score: inf
ROOT
ATOM      1  C   UNL     1     -14.092 -30.363 -11.615  1.00  0.00     0.180 A 
ATOM      2  C   UNL     1     -15.230 -30.964 -12.181  1.00  0.00     0.208 A 
ATOM      3  C   UNL     1     -15.074 -32.126 -12.952  1.00  0.00     0.238 A 
ATOM      4  O   UNL     1     -16.101 -32.690 -13.411  1.00  0.00    -0.285 OA
ATOM      5  C   UNL     1     -13.781 -32.664 -13.161  1.00  0.00     0.111 A 
ATOM      6  C   UNL     1     -13.502 -33.815 -13.957  1.00  0.00     0.134 A 
ATOM      7  C   UNL     1     -12.201 -34.335 -13.987  1.00  0.00     0.093 A 
ATOM      8  C   UNL     1     -11.159 -33.708 -13.305  1.00  0.00     0.123 A 
ATOM      9  C   UNL     1     -11.410 -32.549 -12.571  1.00  0.00     0.094 A 
ATOM     10  C   UNL     1     -12.704 -32.027 -12.491  1.00  0.00     0.146 A 
ATOM     11  O   UNL     1     -12.902 -30.927 -11.775  1.00  0.00    -0.452 OA
ENDROOT
BRANCH   1  12
ATOM     12  C   UNL     1     -14.174 -29.121 -10.811  1.00  0.00     0.025 A 
ATOM     13  C   UNL     1     -14.315 -29.209  -9.417  1.00  0.00     0.016 A 
ATOM     14  C   UNL     1     -14.374 -28.052  -8.638  1.00  0.00     0.051 A 
ATOM     15  C   UNL     1     -14.278 -26.789  -9.237  1.00  0.00     0.157 A 
ATOM     16  C   UNL     1     -14.057 -27.853 -11.408  1.00  0.00     0.062 A 
ATOM     17  C   UNL     1     -14.113 -26.691 -10.630  1.00  0.00     0.158 A 
BRANCH  15  18
ATOM     18  O   UNL     1     -14.339 -25.635  -8.457  1.00  0.00    -0.504 OA
ATOM     19  H   UNL     1     -14.605 -25.669  -7.480  1.00  0.00     0.293 HD
ENDBRANCH  15  18
BRANCH  17  20
ATOM     20  O   UNL     1     -13.999 -25.450 -11.255  1.00  0.00    -0.504 OA
ATOM     21  H   UNL     1     -13.603 -25.348 -12.182  1.00  0.00     0.293 HD
ENDBRANCH  17  20
ENDBRANCH   1  12
BRANCH   2  22
ATOM     22  O   UNL     1     -16.499 -30.427 -11.944  1.00  0.00    -0.502 OA
ATOM     23  H   UNL     1     -17.295 -30.631 -12.537  1.00  0.00     0.293 HD
ENDBRANCH   2  22
BRANCH   6  24
ATOM     24  O   UNL     1     -14.451 -34.464 -14.752  1.00  0.00    -0.507 OA
ATOM     25  H   UNL     1     -15.425 -34.569 -14.512  1.00  0.00     0.293 HD
ENDBRANCH   6  24
BRANCH   8  26
ATOM     26  O   UNL     1      -9.875 -34.244 -13.369  1.00  0.00    -0.508 OA
ATOM     27  H   UNL     1      -9.150 -33.818 -13.934  1.00  0.00     0.293 HD
ENDBRANCH   8  26
TORSDOF 6
ENDMDL
MODEL 6
REMARK VINA RESULT:    -6.550      2.318      6.645
REMARK INTER + INTRA:          -8.225
REMARK INTER:                  -7.892
REMARK INTRA:                  -0.333
REMARK UNBOUND:                -0.334
REMARK SMILES O=c1c(O)c(-c2ccc(O)c(O)c2)oc2cc(O)cc(O)c12
REMARK SMILES IDX 5 1 3 2 2 3 1 4 22 5 20 6 19 7 17 8 16 9 15 10 14 11 6 12
REMARK SMILES IDX 7 13 8 14 9 15 13 16 11 17 10 18 12 20 4 22 21 24 18 26
REMARK H PARENT 10 19 12 21 4 23 21 25 18 27
REMARK Flexibility Score: inf
ROOT
ATOM      1  C   UNL     1     -13.741 -30.776 -12.243  1.00  0.00     0.180 A 
ATOM      2  C   UNL     1     -13.946 -30.729 -10.853  1.00  0.00     0.208 A 
ATOM      3  C   UNL     1     -14.174 -29.487 -10.239  1.00  0.00     0.238 A 
ATOM      4  O   UNL     1     -14.410 -29.458  -9.003  1.00  0.00    -0.285 OA
ATOM      5  C   UNL     1     -14.178 -28.306 -11.020  1.00  0.00     0.111 A 
ATOM      6  C   UNL     1     -14.360 -26.991 -10.497  1.00  0.00     0.134 A 
ATOM      7  C   UNL     1     -14.477 -25.908 -11.378  1.00  0.00     0.093 A 
ATOM      8  C   UNL     1     -14.354 -26.084 -12.755  1.00  0.00     0.123 A 
ATOM      9  C   UNL     1     -14.118 -27.358 -13.273  1.00  0.00     0.094 A 
ATOM     10  C   UNL     1     -14.033 -28.463 -12.423  1.00  0.00     0.146 A 
ATOM     11  O   UNL     1     -13.816 -29.659 -12.956  1.00  0.00    -0.452 OA
ENDROOT
BRANCH   1  12
ATOM     12  C   UNL     1     -13.469 -32.044 -12.957  1.00  0.00     0.025 A 
ATOM     13  C   UNL     1     -14.536 -32.759 -13.526  1.00  0.00     0.016 A 
ATOM     14  C   UNL     1     -14.301 -33.947 -14.221  1.00  0.00     0.051 A 
ATOM     15  C   UNL     1     -12.995 -34.431 -14.373  1.00  0.00     0.157 A 
ATOM     16  C   UNL     1     -12.158 -32.522 -13.129  1.00  0.00     0.062 A 
ATOM     17  C   UNL     1     -11.918 -33.711 -13.828  1.00  0.00     0.158 A 
BRANCH  15  18
ATOM     18  O   UNL     1     -12.763 -35.618 -15.066  1.00  0.00    -0.504 OA
ATOM     19  H   UNL     1     -12.333 -36.419 -14.619  1.00  0.00     0.293 HD
ENDBRANCH  15  18
BRANCH  17  20
ATOM     20  O   UNL     1     -10.605 -34.158 -13.974  1.00  0.00    -0.504 OA
ATOM     21  H   UNL     1      -9.910 -33.628 -14.485  1.00  0.00     0.293 HD
ENDBRANCH  17  20
ENDBRANCH   1  12
BRANCH   2  22
ATOM     22  O   UNL     1     -13.958 -31.910 -10.104  1.00  0.00    -0.502 OA
ATOM     23  H   UNL     1     -14.329 -31.953  -9.163  1.00  0.00     0.293 HD
ENDBRANCH   2  22
BRANCH   6  24
ATOM     24  O   UNL     1     -14.404 -26.692  -9.133  1.00  0.00    -0.507 OA
ATOM     25  H   UNL     1     -15.203 -26.304  -8.655  1.00  0.00     0.293 HD
ENDBRANCH   6  24
BRANCH   8  26
ATOM     26  O   UNL     1     -14.461 -24.982 -13.601  1.00  0.00    -0.508 OA
ATOM     27  H   UNL     1     -13.933 -24.923 -14.464  1.00  0.00     0.293 HD
ENDBRANCH   8  26
TORSDOF 6
ENDMDL
MODEL 7
REMARK VINA RESULT:    -6.381      2.501      4.206
REMARK INTER + INTRA:          -8.021
REMARK INTER:                  -7.698
REMARK INTRA:                  -0.323
REMARK UNBOUND:                -0.334
REMARK SMILES O=c1c(O)c(-c2ccc(O)c(O)c2)oc2cc(O)cc(O)c12
REMARK SMILES IDX 5 1 3 2 2 3 1 4 22 5 20 6 19 7 17 8 16 9 15 10 14 11 6 12
REMARK SMILES IDX 7 13 8 14 9 15 13 16 11 17 10 18 12 20 4 22 21 24 18 26
REMARK H PARENT 10 19 12 21 4 23 21 25 18 27
REMARK Flexibility Score: inf
ROOT
ATOM      1  C   UNL     1     -13.057 -30.487 -11.618  1.00  0.00     0.180 A 
ATOM      2  C   UNL     1     -11.705 -30.871 -11.630  1.00  0.00     0.208 A 
ATOM      3  C   UNL     1     -11.333 -32.035 -12.320  1.00  0.00     0.238 A 
ATOM      4  O   UNL     1     -10.114 -32.344 -12.372  1.00  0.00    -0.285 OA
ATOM      5  C   UNL     1     -12.319 -32.810 -12.975  1.00  0.00     0.111 A 
ATOM      6  C   UNL     1     -12.061 -34.030 -13.671  1.00  0.00     0.134 A 
ATOM      7  C   UNL     1     -13.092 -34.644 -14.394  1.00  0.00     0.093 A 
ATOM      8  C   UNL     1     -14.384 -34.120 -14.392  1.00  0.00     0.123 A 
ATOM      9  C   UNL     1     -14.661 -32.961 -13.667  1.00  0.00     0.094 A 
ATOM     10  C   UNL     1     -13.645 -32.304 -12.966  1.00  0.00     0.146 A 
ATOM     11  O   UNL     1     -13.948 -31.199 -12.297  1.00  0.00    -0.452 OA
ENDROOT
BRANCH   1  12
ATOM     12  C   UNL     1     -13.529 -29.286 -10.891  1.00  0.00     0.025 A 
ATOM     13  C   UNL     1     -13.906 -29.400  -9.543  1.00  0.00     0.016 A 
ATOM     14  C   UNL     1     -14.335 -28.277  -8.831  1.00  0.00     0.051 A 
ATOM     15  C   UNL     1     -14.378 -27.020  -9.451  1.00  0.00     0.157 A 
ATOM     16  C   UNL     1     -13.554 -28.021 -11.504  1.00  0.00     0.062 A 
ATOM     17  C   UNL     1     -13.980 -26.893 -10.793  1.00  0.00     0.158 A 
BRANCH  15  18
ATOM     18  O   UNL     1     -14.807 -25.902  -8.739  1.00  0.00    -0.504 OA
ATOM     19  H   UNL     1     -14.182 -25.132  -8.533  1.00  0.00     0.293 HD
ENDBRANCH  15  18
BRANCH  17  20
ATOM     20  O   UNL     1     -13.997 -25.654 -11.434  1.00  0.00    -0.504 OA
ATOM     21  H   UNL     1     -13.479 -25.482 -12.286  1.00  0.00     0.293 HD
ENDBRANCH  17  20
ENDBRANCH   1  12
BRANCH   2  22
ATOM     22  O   UNL     1     -10.744 -30.078 -10.993  1.00  0.00    -0.502 OA
ATOM     23  H   UNL     1     -10.620 -29.097 -11.210  1.00  0.00     0.293 HD
ENDBRANCH   2  22
BRANCH   6  24
ATOM     24  O   UNL     1     -10.828 -34.688 -13.662  1.00  0.00    -0.507 OA
ATOM     25  H   UNL     1      -9.936 -34.238 -13.803  1.00  0.00     0.293 HD
ENDBRANCH   6  24
BRANCH   8  26
ATOM     26  O   UNL     1     -15.389 -34.765 -15.110  1.00  0.00    -0.508 OA
ATOM     27  H   UNL     1     -15.333 -35.753 -15.328  1.00  0.00     0.293 HD
ENDBRANCH   8  26
TORSDOF 6
ENDMDL
MODEL 8
REMARK VINA RESULT:    -6.366      2.295      7.208
REMARK INTER + INTRA:          -8.003
REMARK INTER:                  -7.899
REMARK INTRA:                  -0.104
REMARK UNBOUND:                -0.334
REMARK SMILES O=c1c(O)c(-c2ccc(O)c(O)c2)oc2cc(O)cc(O)c12
REMARK SMILES IDX 5 1 3 2 2 3 1 4 22 5 20 6 19 7 17 8 16 9 15 10 14 11 6 12
REMARK SMILES IDX 7 13 8 14 9 15 13 16 11 17 10 18 12 20 4 22 21 24 18 26
REMARK H PARENT 10 19 12 21 4 23 21 25 18 27
REMARK Flexibility Score: inf
ROOT
ATOM      1  C   UNL     1     -11.877 -31.629 -11.923  1.00  0.00     0.180 A 
ATOM      2  C   UNL     1     -11.028 -30.860 -11.107  1.00  0.00     0.208 A 
ATOM      3  C   UNL     1     -11.367 -29.523 -10.842  1.00  0.00     0.238 A 
ATOM      4  O   UNL     1     -10.633 -28.856 -10.068  1.00  0.00    -0.285 OA
ATOM      5  C   UNL     1     -12.540 -28.968 -11.407  1.00  0.00     0.111 A 
ATOM      6  C   UNL     1     -12.959 -27.615 -11.237  1.00  0.00     0.134 A 
ATOM      7  C   UNL     1     -14.205 -27.210 -11.734  1.00  0.00     0.093 A 
ATOM      8  C   UNL     1     -15.015 -28.090 -12.450  1.00  0.00     0.123 A 
ATOM      9  C   UNL     1     -14.588 -29.399 -12.673  1.00  0.00     0.094 A 
ATOM     10  C   UNL     1     -13.368 -29.844 -12.158  1.00  0.00     0.146 A 
ATOM     11  O   UNL     1     -13.003 -31.100 -12.384  1.00  0.00    -0.452 OA
ENDROOT
BRANCH   1  12
ATOM     12  C   UNL     1     -11.573 -33.037 -12.268  1.00  0.00     0.025 A 
ATOM     13  C   UNL     1     -11.362 -33.388 -13.611  1.00  0.00     0.016 A 
ATOM     14  C   UNL     1     -11.054 -34.705 -13.958  1.00  0.00     0.051 A 
ATOM     15  C   UNL     1     -10.936 -35.689 -12.968  1.00  0.00     0.157 A 
ATOM     16  C   UNL     1     -11.435 -34.022 -11.274  1.00  0.00     0.062 A 
ATOM     17  C   UNL     1     -11.123 -35.343 -11.618  1.00  0.00     0.158 A 
BRANCH  15  18
ATOM     18  O   UNL     1     -10.630 -37.003 -13.317  1.00  0.00    -0.504 OA
ATOM     19  H   UNL     1     -10.129 -37.223 -14.170  1.00  0.00     0.293 HD
ENDBRANCH  15  18
BRANCH  17  20
ATOM     20  O   UNL     1     -10.998 -36.295 -10.607  1.00  0.00    -0.504 OA
ATOM     21  H   UNL     1     -11.583 -36.283  -9.780  1.00  0.00     0.293 HD
ENDBRANCH  17  20
ENDBRANCH   1  12
BRANCH   2  22
ATOM     22  O   UNL     1      -9.886 -31.434 -10.542  1.00  0.00    -0.502 OA
ATOM     23  H   UNL     1      -9.801 -32.431 -10.383  1.00  0.00     0.293 HD
ENDBRANCH   2  22
BRANCH   6  24
ATOM     24  O   UNL     1     -12.185 -26.630 -10.618  1.00  0.00    -0.507 OA
ATOM     25  H   UNL     1     -12.119 -25.672 -10.929  1.00  0.00     0.293 HD
ENDBRANCH   6  24
BRANCH   8  26
ATOM     26  O   UNL     1     -16.241 -27.649 -12.943  1.00  0.00    -0.508 OA
ATOM     27  H   UNL     1     -16.822 -27.005 -12.420  1.00  0.00     0.293 HD
ENDBRANCH   8  26
TORSDOF 6
ENDMDL
MODEL 9
REMARK VINA RESULT:    -6.301      2.381      4.193
REMARK INTER + INTRA:          -7.925
REMARK INTER:                  -7.777
REMARK INTRA:                  -0.149
REMARK UNBOUND:                -0.334
REMARK SMILES O=c1c(O)c(-c2ccc(O)c(O)c2)oc2cc(O)cc(O)c12
REMARK SMILES IDX 5 1 3 2 2 3 1 4 22 5 20 6 19 7 17 8 16 9 15 10 14 11 6 12
REMARK SMILES IDX 7 13 8 14 9 15 13 16 11 17 10 18 12 20 4 22 21 24 18 26
REMARK H PARENT 10 19 12 21 4 23 21 25 18 27
REMARK Flexibility Score: inf
ROOT
ATOM      1  C   UNL     1     -12.507 -31.179 -10.399  1.00  0.00     0.180 A 
ATOM      2  C   UNL     1     -11.767 -31.939  -9.476  1.00  0.00     0.208 A 
ATOM      3  C   UNL     1     -11.314 -33.214  -9.851  1.00  0.00     0.238 A 
ATOM      4  O   UNL     1     -10.606 -33.866  -9.041  1.00  0.00    -0.285 OA
ATOM      5  C   UNL     1     -11.622 -33.720 -11.137  1.00  0.00     0.111 A 
ATOM      6  C   UNL     1     -11.249 -35.014 -11.608  1.00  0.00     0.134 A 
ATOM      7  C   UNL     1     -11.492 -35.360 -12.944  1.00  0.00     0.093 A 
ATOM      8  C   UNL     1     -12.153 -34.485 -13.804  1.00  0.00     0.123 A 
ATOM      9  C   UNL     1     -12.575 -33.240 -13.338  1.00  0.00     0.094 A 
ATOM     10  C   UNL     1     -12.314 -32.851 -12.021  1.00  0.00     0.146 A 
ATOM     11  O   UNL     1     -12.723 -31.655 -11.619  1.00  0.00    -0.452 OA
ENDROOT
BRANCH   1  12
ATOM     12  C   UNL     1     -13.040 -29.837 -10.067  1.00  0.00     0.025 A 
ATOM     13  C   UNL     1     -13.983 -29.705  -9.035  1.00  0.00     0.016 A 
ATOM     14  C   UNL     1     -14.483 -28.447  -8.692  1.00  0.00     0.051 A 
ATOM     15  C   UNL     1     -14.037 -27.300  -9.363  1.00  0.00     0.157 A 
ATOM     16  C   UNL     1     -12.579 -28.683 -10.725  1.00  0.00     0.062 A 
ATOM     17  C   UNL     1     -13.076 -27.420 -10.381  1.00  0.00     0.158 A 
BRANCH  15  18
ATOM     18  O   UNL     1     -14.539 -26.046  -9.019  1.00  0.00    -0.504 OA
ATOM     19  H   UNL     1     -15.089 -25.907  -8.179  1.00  0.00     0.293 HD
ENDBRANCH  15  18
BRANCH  17  20
ATOM     20  O   UNL     1     -12.601 -26.297 -11.058  1.00  0.00    -0.504 OA
ATOM     21  H   UNL     1     -11.670 -25.929 -10.903  1.00  0.00     0.293 HD
ENDBRANCH  17  20
ENDBRANCH   1  12
BRANCH   2  22
ATOM     22  O   UNL     1     -11.457 -31.410  -8.219  1.00  0.00    -0.502 OA
ATOM     23  H   UNL     1     -11.273 -30.425  -8.075  1.00  0.00     0.293 HD
ENDBRANCH   2  22
BRANCH   6  24
ATOM     24  O   UNL     1     -10.666 -36.000 -10.806  1.00  0.00    -0.507 OA
ATOM     25  H   UNL     1      -9.913 -35.838 -10.154  1.00  0.00     0.293 HD
ENDBRANCH   6  24
BRANCH   8  26
ATOM     26  O   UNL     1     -12.392 -34.868 -15.123  1.00  0.00    -0.508 OA
ATOM     27  H   UNL     1     -11.876 -35.623 -15.557  1.00  0.00     0.293 HD
ENDBRANCH   8  26
TORSDOF 6
ENDMDL
