MODEL 1
REMARK VINA RESULT:    -4.503      0.000      0.000
REMARK INTER + INTRA:          -9.775
REMARK INTER:                  -8.452
REMARK INTRA:                  -1.323
REMARK UNBOUND:                -1.323
REMARK SMILES CCCCCCCCC=CCCCCCCCC(=O)[O-]
REMARK SMILES IDX 10 1 9 2 11 3 12 4 13 5 14 6 15 7 16 8 17 9 18 10 19 11
REMARK SMILES IDX 20 12 8 13 7 14 6 15 5 16 4 17 3 18 2 19 1 20
REMARK H PARENT
REMARK Flexibility Score: inf
ROOT
ATOM      1  C   UNL     1      41.628  -4.524  -3.248  1.00  0.00    -0.031 C 
ATOM      2  C   UNL     1      41.579  -5.475  -2.297  1.00  0.00    -0.031 C 
ENDROOT
BRANCH   1   3
ATOM      3  C   UNL     1      41.909  -4.784  -4.707  1.00  0.00     0.027 C 
BRANCH   3   4
ATOM      4  C   UNL     1      40.650  -4.639  -5.585  1.00  0.00     0.004 C 
BRANCH   4   5
ATOM      5  C   UNL     1      40.344  -5.876  -6.451  1.00  0.00     0.000 C 
BRANCH   5   6
ATOM      6  C   UNL     1      39.316  -6.852  -5.853  1.00  0.00     0.000 C 
BRANCH   6   7
ATOM      7  C   UNL     1      37.918  -6.709  -6.482  1.00  0.00     0.000 C 
BRANCH   7   8
ATOM      8  C   UNL     1      37.697  -5.333  -7.133  1.00  0.00     0.006 C 
BRANCH   8   9
ATOM      9  C   UNL     1      36.946  -5.387  -8.475  1.00  0.00     0.053 C 
BRANCH   9  10
ATOM     10  C   UNL     1      35.458  -5.409  -8.298  1.00  0.00     0.041 C 
ATOM     11  O   UNL     1      34.806  -6.465  -8.511  1.00  0.00    -0.550 OA
ATOM     12  O   UNL     1      34.794  -4.270  -7.860  1.00  0.00    -0.550 OA
ENDBRANCH   9  10
ENDBRANCH   8   9
ENDBRANCH   7   8
ENDBRANCH   6   7
ENDBRANCH   5   6
ENDBRANCH   4   5
ENDBRANCH   3   4
ENDBRANCH   1   3
BRANCH   2  13
ATOM     13  C   UNL     1      41.699  -6.958  -2.555  1.00  0.00     0.027 C 
BRANCH  13  14
ATOM     14  C   UNL     1      41.540  -7.776  -1.265  1.00  0.00     0.004 C 
BRANCH  14  15
ATOM     15  C   UNL     1      40.541  -8.930  -1.429  1.00  0.00     0.000 C 
BRANCH  15  16
ATOM     16  C   UNL     1      39.504  -8.923  -0.295  1.00  0.00     0.000 C 
BRANCH  16  17
ATOM     17  C   UNL     1      39.922  -8.032   0.885  1.00  0.00    -0.000 C 
BRANCH  17  18
ATOM     18  C   UNL     1      38.726  -7.350   1.566  1.00  0.00    -0.000 C 
BRANCH  18  19
ATOM     19  C   UNL     1      38.996  -5.857   1.782  1.00  0.00    -0.003 C 
ATOM     20  C   UNL     1      40.425  -5.492   1.390  1.00  0.00     0.004 C 
ENDBRANCH  18  19
ENDBRANCH  17  18
ENDBRANCH  16  17
ENDBRANCH  15  16
ENDBRANCH  14  15
ENDBRANCH  13  14
ENDBRANCH   2  13
TORSDOF 15
ENDMDL
MODEL 2
REMARK VINA RESULT:    -4.295     16.169     19.022
REMARK INTER + INTRA:          -9.383
REMARK INTER:                  -7.749
REMARK INTRA:                  -1.634
REMARK UNBOUND:                -1.323
REMARK SMILES CCCCCCCCC=CCCCCCCCC(=O)[O-]
REMARK SMILES IDX 10 1 9 2 11 3 12 4 13 5 14 6 15 7 16 8 17 9 18 10 19 11
REMARK SMILES IDX 20 12 8 13 7 14 6 15 5 16 4 17 3 18 2 19 1 20
REMARK H PARENT
REMARK Flexibility Score: inf
ROOT
ATOM      1  C   UNL     1      34.870   7.901   8.193  1.00  0.00    -0.031 C 
ATOM      2  C   UNL     1      35.721   6.905   8.505  1.00  0.00    -0.031 C 
ENDROOT
BRANCH   1   3
ATOM      3  C   UNL     1      33.777   8.410   9.100  1.00  0.00     0.027 C 
BRANCH   3   4
ATOM      4  C   UNL     1      32.408   7.775   8.786  1.00  0.00     0.004 C 
BRANCH   4   5
ATOM      5  C   UNL     1      31.899   6.812   9.875  1.00  0.00     0.000 C 
BRANCH   5   6
ATOM      6  C   UNL     1      31.059   5.631   9.360  1.00  0.00     0.000 C 
BRANCH   6   7
ATOM      7  C   UNL     1      29.595   5.685   9.836  1.00  0.00     0.000 C 
BRANCH   7   8
ATOM      8  C   UNL     1      28.662   4.803   8.987  1.00  0.00     0.006 C 
BRANCH   8   9
ATOM      9  C   UNL     1      27.182   5.220   9.043  1.00  0.00     0.053 C 
BRANCH   9  10
ATOM     10  C   UNL     1      26.256   4.043   9.085  1.00  0.00     0.041 C 
ATOM     11  O   UNL     1      25.030   4.187   8.834  1.00  0.00    -0.550 OA
ATOM     12  O   UNL     1      26.754   2.776   9.362  1.00  0.00    -0.550 OA
ENDBRANCH   9  10
ENDBRANCH   8   9
ENDBRANCH   7   8
ENDBRANCH   6   7
ENDBRANCH   5   6
ENDBRANCH   4   5
ENDBRANCH   3   4
ENDBRANCH   1   3
BRANCH   2  13
ATOM     13  C   UNL     1      35.777   6.210   9.845  1.00  0.00     0.027 C 
BRANCH  13  14
ATOM     14  C   UNL     1      35.147   4.810   9.787  1.00  0.00     0.004 C 
BRANCH  14  15
ATOM     15  C   UNL     1      36.201   3.696   9.854  1.00  0.00     0.000 C 
BRANCH  15  16
ATOM     16  C   UNL     1      36.556   3.190   8.448  1.00  0.00     0.000 C 
BRANCH  16  17
ATOM     17  C   UNL     1      38.059   3.288   8.145  1.00  0.00    -0.000 C 
BRANCH  17  18
ATOM     18  C   UNL     1      38.419   4.541   7.332  1.00  0.00    -0.000 C 
BRANCH  18  19
ATOM     19  C   UNL     1      39.106   5.589   8.215  1.00  0.00    -0.003 C 
ATOM     20  C   UNL     1      39.397   6.865   7.432  1.00  0.00     0.004 C 
ENDBRANCH  18  19
ENDBRANCH  17  18
ENDBRANCH  16  17
ENDBRANCH  15  16
ENDBRANCH  14  15
ENDBRANCH  13  14
ENDBRANCH   2  13
TORSDOF 15
ENDMDL
MODEL 3
REMARK VINA RESULT:    -4.254      1.596      2.816
REMARK INTER + INTRA:          -9.306
REMARK INTER:                  -8.266
REMARK INTRA:                  -1.040
REMARK UNBOUND:                -1.323
REMARK SMILES CCCCCCCCC=CCCCCCCCC(=O)[O-]
REMARK SMILES IDX 10 1 9 2 11 3 12 4 13 5 14 6 15 7 16 8 17 9 18 10 19 11
REMARK SMILES IDX 20 12 8 13 7 14 6 15 5 16 4 17 3 18 2 19 1 20
REMARK H PARENT
REMARK Flexibility Score: inf
ROOT
ATOM      1  C   UNL     1      40.670  -6.399  -5.800  1.00  0.00    -0.031 C 
ATOM      2  C   UNL     1      41.283  -6.351  -4.603  1.00  0.00    -0.031 C 
ENDROOT
BRANCH   1   3
ATOM      3  C   UNL     1      39.871  -5.269  -6.400  1.00  0.00     0.027 C 
BRANCH   3   4
ATOM      4  C   UNL     1      39.268  -5.636  -7.770  1.00  0.00     0.004 C 
BRANCH   4   5
ATOM      5  C   UNL     1      37.959  -6.444  -7.683  1.00  0.00     0.000 C 
BRANCH   5   6
ATOM      6  C   UNL     1      36.746  -5.663  -7.148  1.00  0.00     0.000 C 
BRANCH   6   7
ATOM      7  C   UNL     1      35.578  -5.612  -8.148  1.00  0.00     0.000 C 
BRANCH   7   8
ATOM      8  C   UNL     1      35.752  -4.511  -9.209  1.00  0.00     0.006 C 
BRANCH   8   9
ATOM      9  C   UNL     1      35.669  -3.080  -8.649  1.00  0.00     0.053 C 
BRANCH   9  10
ATOM     10  C   UNL     1      34.476  -2.331  -9.161  1.00  0.00     0.041 C 
ATOM     11  O   UNL     1      34.594  -1.145  -9.567  1.00  0.00    -0.550 OA
ATOM     12  O   UNL     1      33.238  -2.958  -9.226  1.00  0.00    -0.550 OA
ENDBRANCH   9  10
ENDBRANCH   8   9
ENDBRANCH   7   8
ENDBRANCH   6   7
ENDBRANCH   5   6
ENDBRANCH   4   5
ENDBRANCH   3   4
ENDBRANCH   1   3
BRANCH   2  13
ATOM     13  C   UNL     1      41.350  -5.129  -3.719  1.00  0.00     0.027 C 
BRANCH  13  14
ATOM     14  C   UNL     1      41.719  -5.492  -2.272  1.00  0.00     0.004 C 
BRANCH  14  15
ATOM     15  C   UNL     1      42.055  -6.982  -2.115  1.00  0.00     0.000 C 
BRANCH  15  16
ATOM     16  C   UNL     1      41.666  -7.488  -0.718  1.00  0.00     0.000 C 
BRANCH  16  17
ATOM     17  C   UNL     1      40.518  -8.508  -0.756  1.00  0.00    -0.000 C 
BRANCH  17  18
ATOM     18  C   UNL     1      39.498  -8.296   0.373  1.00  0.00    -0.000 C 
BRANCH  18  19
ATOM     19  C   UNL     1      39.909  -7.120   1.268  1.00  0.00    -0.003 C 
ATOM     20  C   UNL     1      38.686  -6.398   1.825  1.00  0.00     0.004 C 
ENDBRANCH  18  19
ENDBRANCH  17  18
ENDBRANCH  16  17
ENDBRANCH  15  16
ENDBRANCH  14  15
ENDBRANCH  13  14
ENDBRANCH   2  13
TORSDOF 15
ENDMDL
MODEL 4
REMARK VINA RESULT:    -4.235     16.215     19.483
REMARK INTER + INTRA:          -9.271
REMARK INTER:                  -8.202
REMARK INTRA:                  -1.069
REMARK UNBOUND:                -1.323
REMARK SMILES CCCCCCCCC=CCCCCCCCC(=O)[O-]
REMARK SMILES IDX 10 1 9 2 11 3 12 4 13 5 14 6 15 7 16 8 17 9 18 10 19 11
REMARK SMILES IDX 20 12 8 13 7 14 6 15 5 16 4 17 3 18 2 19 1 20
REMARK H PARENT
REMARK Flexibility Score: inf
ROOT
ATOM      1  C   UNL     1      32.955   7.965   8.616  1.00  0.00    -0.031 C 
ATOM      2  C   UNL     1      34.263   7.683   8.763  1.00  0.00    -0.031 C 
ENDROOT
BRANCH   1   3
ATOM      3  C   UNL     1      31.874   7.550   9.584  1.00  0.00     0.027 C 
BRANCH   3   4
ATOM      4  C   UNL     1      31.360   6.122   9.316  1.00  0.00     0.004 C 
BRANCH   4   5
ATOM      5  C   UNL     1      29.983   5.823   9.941  1.00  0.00     0.000 C 
BRANCH   5   6
ATOM      6  C   UNL     1      29.000   5.077   9.024  1.00  0.00     0.000 C 
BRANCH   6   7
ATOM      7  C   UNL     1      27.527   5.333   9.391  1.00  0.00     0.000 C 
BRANCH   7   8
ATOM      8  C   UNL     1      26.554   4.432   8.609  1.00  0.00     0.006 C 
BRANCH   8   9
ATOM      9  C   UNL     1      25.093   4.527   9.081  1.00  0.00     0.053 C 
BRANCH   9  10
ATOM     10  C   UNL     1      24.311   5.556   8.323  1.00  0.00     0.041 C 
ATOM     11  O   UNL     1      24.468   5.689   7.081  1.00  0.00    -0.550 OA
ATOM     12  O   UNL     1      23.376   6.343   8.984  1.00  0.00    -0.550 OA
ENDBRANCH   9  10
ENDBRANCH   8   9
ENDBRANCH   7   8
ENDBRANCH   6   7
ENDBRANCH   5   6
ENDBRANCH   4   5
ENDBRANCH   3   4
ENDBRANCH   1   3
BRANCH   2  13
ATOM     13  C   UNL     1      34.865   6.994   9.965  1.00  0.00     0.027 C 
BRANCH  13  14
ATOM     14  C   UNL     1      34.963   5.475   9.761  1.00  0.00     0.004 C 
BRANCH  14  15
ATOM     15  C   UNL     1      36.418   5.000   9.632  1.00  0.00     0.000 C 
BRANCH  15  16
ATOM     16  C   UNL     1      36.719   4.536   8.199  1.00  0.00     0.000 C 
BRANCH  16  17
ATOM     17  C   UNL     1      37.412   3.165   8.153  1.00  0.00    -0.000 C 
BRANCH  17  18
ATOM     18  C   UNL     1      36.896   2.204   9.236  1.00  0.00    -0.000 C 
BRANCH  18  19
ATOM     19  C   UNL     1      35.623   1.487   8.771  1.00  0.00    -0.003 C 
ATOM     20  C   UNL     1      34.468   1.734   9.736  1.00  0.00     0.004 C 
ENDBRANCH  18  19
ENDBRANCH  17  18
ENDBRANCH  16  17
ENDBRANCH  15  16
ENDBRANCH  14  15
ENDBRANCH  13  14
ENDBRANCH   2  13
TORSDOF 15
ENDMDL
MODEL 5
REMARK VINA RESULT:    -4.143     18.507     21.846
REMARK INTER + INTRA:          -9.099
REMARK INTER:                  -7.907
REMARK INTRA:                  -1.193
REMARK UNBOUND:                -1.323
REMARK SMILES CCCCCCCCC=CCCCCCCCC(=O)[O-]
REMARK SMILES IDX 10 1 9 2 11 3 12 4 13 5 14 6 15 7 16 8 17 9 18 10 19 11
REMARK SMILES IDX 20 12 8 13 7 14 6 15 5 16 4 17 3 18 2 19 1 20
REMARK H PARENT
REMARK Flexibility Score: inf
ROOT
ATOM      1  C   UNL     1      23.866   0.549   9.529  1.00  0.00    -0.031 C 
ATOM      2  C   UNL     1      24.483   1.741   9.636  1.00  0.00    -0.031 C 
ENDROOT
BRANCH   1   3
ATOM      3  C   UNL     1      22.375   0.366   9.391  1.00  0.00     0.027 C 
BRANCH   3   4
ATOM      4  C   UNL     1      22.008  -0.713   8.353  1.00  0.00     0.004 C 
BRANCH   4   5
ATOM      5  C   UNL     1      22.124  -2.156   8.882  1.00  0.00     0.000 C 
BRANCH   5   6
ATOM      6  C   UNL     1      23.246  -2.994   8.245  1.00  0.00     0.000 C 
BRANCH   6   7
ATOM      7  C   UNL     1      24.161  -3.661   9.289  1.00  0.00     0.000 C 
BRANCH   7   8
ATOM      8  C   UNL     1      25.656  -3.456   8.986  1.00  0.00     0.006 C 
BRANCH   8   9
ATOM      9  C   UNL     1      26.304  -2.305   9.776  1.00  0.00     0.053 C 
BRANCH   9  10
ATOM     10  C   UNL     1      27.208  -1.464   8.927  1.00  0.00     0.041 C 
ATOM     11  O   UNL     1      27.670  -1.916   7.845  1.00  0.00    -0.550 OA
ATOM     12  O   UNL     1      27.511  -0.165   9.311  1.00  0.00    -0.550 OA
ENDBRANCH   9  10
ENDBRANCH   8   9
ENDBRANCH   7   8
ENDBRANCH   6   7
ENDBRANCH   5   6
ENDBRANCH   4   5
ENDBRANCH   3   4
ENDBRANCH   1   3
BRANCH   2  13
ATOM     13  C   UNL     1      23.793   3.080   9.536  1.00  0.00     0.027 C 
BRANCH  13  14
ATOM     14  C   UNL     1      24.760   4.241   9.812  1.00  0.00     0.004 C 
BRANCH  14  15
ATOM     15  C   UNL     1      25.435   4.751   8.530  1.00  0.00     0.000 C 
BRANCH  15  16
ATOM     16  C   UNL     1      24.898   6.136   8.140  1.00  0.00     0.000 C 
BRANCH  16  17
ATOM     17  C   UNL     1      23.477   6.078   7.559  1.00  0.00    -0.000 C 
BRANCH  17  18
ATOM     18  C   UNL     1      23.347   6.842   6.233  1.00  0.00    -0.000 C 
BRANCH  18  19
ATOM     19  C   UNL     1      23.561   5.906   5.038  1.00  0.00    -0.003 C 
ATOM     20  C   UNL     1      23.546   6.679   3.722  1.00  0.00     0.004 C 
ENDBRANCH  18  19
ENDBRANCH  17  18
ENDBRANCH  16  17
ENDBRANCH  15  16
ENDBRANCH  14  15
ENDBRANCH  13  14
ENDBRANCH   2  13
TORSDOF 15
ENDMDL
MODEL 6
REMARK VINA RESULT:    -4.079     19.528     22.257
REMARK INTER + INTRA:          -8.979
REMARK INTER:                  -7.709
REMARK INTRA:                  -1.270
REMARK UNBOUND:                -1.323
REMARK SMILES CCCCCCCCC=CCCCCCCCC(=O)[O-]
REMARK SMILES IDX 10 1 9 2 11 3 12 4 13 5 14 6 15 7 16 8 17 9 18 10 19 11
REMARK SMILES IDX 20 12 8 13 7 14 6 15 5 16 4 17 3 18 2 19 1 20
REMARK H PARENT
REMARK Flexibility Score: inf
ROOT
ATOM      1  C   UNL     1      26.284   3.439   9.372  1.00  0.00    -0.031 C 
ATOM      2  C   UNL     1      26.427   4.695   8.909  1.00  0.00    -0.031 C 
ENDROOT
BRANCH   1   3
ATOM      3  C   UNL     1      25.039   2.907  10.038  1.00  0.00     0.027 C 
BRANCH   3   4
ATOM      4  C   UNL     1      23.997   2.402   9.021  1.00  0.00     0.004 C 
BRANCH   4   5
ATOM      5  C   UNL     1      22.841   1.603   9.653  1.00  0.00     0.000 C 
BRANCH   5   6
ATOM      6  C   UNL     1      21.944   0.854   8.652  1.00  0.00     0.000 C 
BRANCH   6   7
ATOM      7  C   UNL     1      22.079  -0.676   8.755  1.00  0.00     0.000 C 
BRANCH   7   8
ATOM      8  C   UNL     1      23.444  -1.116   9.311  1.00  0.00     0.006 C 
BRANCH   8   9
ATOM      9  C   UNL     1      24.091  -2.279   8.539  1.00  0.00     0.053 C 
BRANCH   9  10
ATOM     10  C   UNL     1      25.475  -2.589   9.021  1.00  0.00     0.041 C 
ATOM     11  O   UNL     1      25.948  -3.750   8.900  1.00  0.00    -0.550 OA
ATOM     12  O   UNL     1      26.261  -1.583   9.569  1.00  0.00    -0.550 OA
ENDBRANCH   9  10
ENDBRANCH   8   9
ENDBRANCH   7   8
ENDBRANCH   6   7
ENDBRANCH   5   6
ENDBRANCH   4   5
ENDBRANCH   3   4
ENDBRANCH   1   3
BRANCH   2  13
ATOM     13  C   UNL     1      25.333   5.736   8.894  1.00  0.00     0.027 C 
BRANCH  13  14
ATOM     14  C   UNL     1      24.698   5.875   7.502  1.00  0.00     0.004 C 
BRANCH  14  15
ATOM     15  C   UNL     1      23.190   6.155   7.577  1.00  0.00     0.000 C 
BRANCH  15  16
ATOM     16  C   UNL     1      22.381   4.903   7.208  1.00  0.00     0.000 C 
BRANCH  16  17
ATOM     17  C   UNL     1      21.875   4.930   5.757  1.00  0.00    -0.000 C 
BRANCH  17  18
ATOM     18  C   UNL     1      22.335   6.181   4.993  1.00  0.00    -0.000 C 
BRANCH  18  19
ATOM     19  C   UNL     1      23.367   5.819   3.918  1.00  0.00    -0.003 C 
ATOM     20  C   UNL     1      22.828   4.747   2.976  1.00  0.00     0.004 C 
ENDBRANCH  18  19
ENDBRANCH  17  18
ENDBRANCH  16  17
ENDBRANCH  15  16
ENDBRANCH  14  15
ENDBRANCH  13  14
ENDBRANCH   2  13
TORSDOF 15
ENDMDL
MODEL 7
REMARK VINA RESULT:    -4.062     15.201     18.684
REMARK INTER + INTRA:          -8.946
REMARK INTER:                  -6.704
REMARK INTRA:                  -2.242
REMARK UNBOUND:                -1.323
REMARK SMILES CCCCCCCCC=CCCCCCCCC(=O)[O-]
REMARK SMILES IDX 10 1 9 2 11 3 12 4 13 5 14 6 15 7 16 8 17 9 18 10 19 11
REMARK SMILES IDX 20 12 8 13 7 14 6 15 5 16 4 17 3 18 2 19 1 20
REMARK H PARENT
REMARK Flexibility Score: inf
ROOT
ATOM      1  C   UNL     1      33.260   6.046   9.716  1.00  0.00    -0.031 C 
ATOM      2  C   UNL     1      32.331   6.939   9.327  1.00  0.00    -0.031 C 
ENDROOT
BRANCH   1   3
ATOM      3  C   UNL     1      34.677   6.394  10.101  1.00  0.00     0.027 C 
BRANCH   3   4
ATOM      4  C   UNL     1      35.601   5.161  10.121  1.00  0.00     0.004 C 
BRANCH   4   5
ATOM      5  C   UNL     1      34.855   3.816  10.025  1.00  0.00     0.000 C 
BRANCH   5   6
ATOM      6  C   UNL     1      35.758   2.576   9.920  1.00  0.00     0.000 C 
BRANCH   6   7
ATOM      7  C   UNL     1      36.103   2.208   8.465  1.00  0.00     0.000 C 
BRANCH   7   8
ATOM      8  C   UNL     1      37.611   2.287   8.173  1.00  0.00     0.006 C 
BRANCH   8   9
ATOM      9  C   UNL     1      38.136   3.719   7.968  1.00  0.00     0.053 C 
BRANCH   9  10
ATOM     10  C   UNL     1      39.458   3.750   7.263  1.00  0.00     0.041 C 
ATOM     11  O   UNL     1      40.489   4.160   7.858  1.00  0.00    -0.550 OA
ATOM     12  O   UNL     1      39.560   3.287   5.957  1.00  0.00    -0.550 OA
ENDBRANCH   9  10
ENDBRANCH   8   9
ENDBRANCH   7   8
ENDBRANCH   6   7
ENDBRANCH   5   6
ENDBRANCH   4   5
ENDBRANCH   3   4
ENDBRANCH   1   3
BRANCH   2  13
ATOM     13  C   UNL     1      32.532   8.436   9.308  1.00  0.00     0.027 C 
BRANCH  13  14
ATOM     14  C   UNL     1      33.197   8.905   8.005  1.00  0.00     0.004 C 
BRANCH  14  15
ATOM     15  C   UNL     1      34.374   9.856   8.264  1.00  0.00     0.000 C 
BRANCH  15  16
ATOM     16  C   UNL     1      35.682   9.279   7.701  1.00  0.00     0.000 C 
BRANCH  16  17
ATOM     17  C   UNL     1      35.471   7.949   6.960  1.00  0.00    -0.000 C 
BRANCH  17  18
ATOM     18  C   UNL     1      36.744   7.090   6.910  1.00  0.00    -0.000 C 
BRANCH  18  19
ATOM     19  C   UNL     1      37.696   7.455   8.054  1.00  0.00    -0.003 C 
ATOM     20  C   UNL     1      39.152   7.394   7.601  1.00  0.00     0.004 C 
ENDBRANCH  18  19
ENDBRANCH  17  18
ENDBRANCH  16  17
ENDBRANCH  15  16
ENDBRANCH  14  15
ENDBRANCH  13  14
ENDBRANCH   2  13
TORSDOF 15
ENDMDL
MODEL 8
REMARK VINA RESULT:    -4.044     15.104     16.858
REMARK INTER + INTRA:          -8.914
REMARK INTER:                  -6.378
REMARK INTRA:                  -2.535
REMARK UNBOUND:                -1.323
REMARK SMILES CCCCCCCCC=CCCCCCCCC(=O)[O-]
REMARK SMILES IDX 10 1 9 2 11 3 12 4 13 5 14 6 15 7 16 8 17 9 18 10 19 11
REMARK SMILES IDX 20 12 8 13 7 14 6 15 5 16 4 17 3 18 2 19 1 20
REMARK H PARENT
REMARK Flexibility Score: inf
ROOT
ATOM      1  C   UNL     1      40.275   4.653   5.432  1.00  0.00    -0.031 C 
ATOM      2  C   UNL     1      40.115   3.702   6.371  1.00  0.00    -0.031 C 
ENDROOT
BRANCH   1   3
ATOM      3  C   UNL     1      41.036   5.940   5.637  1.00  0.00     0.027 C 
BRANCH   3   4
ATOM      4  C   UNL     1      40.107   7.131   5.945  1.00  0.00     0.004 C 
BRANCH   4   5
ATOM      5  C   UNL     1      39.992   7.465   7.445  1.00  0.00     0.000 C 
BRANCH   5   6
ATOM      6  C   UNL     1      38.575   7.351   8.031  1.00  0.00     0.000 C 
BRANCH   6   7
ATOM      7  C   UNL     1      37.696   6.335   7.278  1.00  0.00     0.000 C 
BRANCH   7   8
ATOM      8  C   UNL     1      36.383   6.951   6.764  1.00  0.00     0.006 C 
BRANCH   8   9
ATOM      9  C   UNL     1      35.795   8.034   7.684  1.00  0.00     0.053 C 
BRANCH   9  10
ATOM     10  C   UNL     1      34.560   8.663   7.114  1.00  0.00     0.041 C 
ATOM     11  O   UNL     1      34.582   9.191   5.971  1.00  0.00    -0.550 OA
ATOM     12  O   UNL     1      33.371   8.631   7.831  1.00  0.00    -0.550 OA
ENDBRANCH   9  10
ENDBRANCH   8   9
ENDBRANCH   7   8
ENDBRANCH   6   7
ENDBRANCH   5   6
ENDBRANCH   4   5
ENDBRANCH   3   4
ENDBRANCH   1   3
BRANCH   2  13
ATOM     13  C   UNL     1      40.753   3.727   7.740  1.00  0.00     0.027 C 
BRANCH  13  14
ATOM     14  C   UNL     1      39.703   3.858   8.854  1.00  0.00     0.004 C 
BRANCH  14  15
ATOM     15  C   UNL     1      39.592   2.580   9.699  1.00  0.00     0.000 C 
BRANCH  15  16
ATOM     16  C   UNL     1      38.135   2.100   9.778  1.00  0.00     0.000 C 
BRANCH  16  17
ATOM     17  C   UNL     1      37.417   2.161   8.420  1.00  0.00    -0.000 C 
BRANCH  17  18
ATOM     18  C   UNL     1      36.267   3.179   8.403  1.00  0.00    -0.000 C 
BRANCH  18  19
ATOM     19  C   UNL     1      35.872   3.584   9.829  1.00  0.00    -0.003 C 
ATOM     20  C   UNL     1      35.412   5.038   9.881  1.00  0.00     0.004 C 
ENDBRANCH  18  19
ENDBRANCH  17  18
ENDBRANCH  16  17
ENDBRANCH  15  16
ENDBRANCH  14  15
ENDBRANCH  13  14
ENDBRANCH   2  13
TORSDOF 15
ENDMDL
MODEL 9
REMARK VINA RESULT:    -4.005     14.375     17.239
REMARK INTER + INTRA:          -8.840
REMARK INTER:                  -6.301
REMARK INTRA:                  -2.539
REMARK UNBOUND:                -1.323
REMARK SMILES CCCCCCCCC=CCCCCCCCC(=O)[O-]
REMARK SMILES IDX 10 1 9 2 11 3 12 4 13 5 14 6 15 7 16 8 17 9 18 10 19 11
REMARK SMILES IDX 20 12 8 13 7 14 6 15 5 16 4 17 3 18 2 19 1 20
REMARK H PARENT
REMARK Flexibility Score: inf
ROOT
ATOM      1  C   UNL     1      35.807   3.159   9.394  1.00  0.00    -0.031 C 
ATOM      2  C   UNL     1      35.449   4.234  10.121  1.00  0.00    -0.031 C 
ENDROOT
BRANCH   1   3
ATOM      3  C   UNL     1      36.798   3.184   8.257  1.00  0.00     0.027 C 
BRANCH   3   4
ATOM      4  C   UNL     1      38.199   2.708   8.686  1.00  0.00     0.004 C 
BRANCH   4   5
ATOM      5  C   UNL     1      39.248   3.834   8.762  1.00  0.00     0.000 C 
BRANCH   5   6
ATOM      6  C   UNL     1      40.637   3.398   9.257  1.00  0.00     0.000 C 
BRANCH   6   7
ATOM      7  C   UNL     1      41.784   3.959   8.396  1.00  0.00     0.000 C 
BRANCH   7   8
ATOM      8  C   UNL     1      42.047   3.117   7.136  1.00  0.00     0.006 C 
BRANCH   8   9
ATOM      9  C   UNL     1      41.971   3.913   5.822  1.00  0.00     0.053 C 
BRANCH   9  10
ATOM     10  C   UNL     1      40.568   4.048   5.314  1.00  0.00     0.041 C 
ATOM     11  O   UNL     1      39.804   3.048   5.276  1.00  0.00    -0.550 OA
ATOM     12  O   UNL     1      40.090   5.290   4.916  1.00  0.00    -0.550 OA
ENDBRANCH   9  10
ENDBRANCH   8   9
ENDBRANCH   7   8
ENDBRANCH   6   7
ENDBRANCH   5   6
ENDBRANCH   4   5
ENDBRANCH   3   4
ENDBRANCH   1   3
BRANCH   2  13
ATOM     13  C   UNL     1      36.053   5.610   9.976  1.00  0.00     0.027 C 
BRANCH  13  14
ATOM     14  C   UNL     1      35.112   6.571   9.233  1.00  0.00     0.004 C 
BRANCH  14  15
ATOM     15  C   UNL     1      35.876   7.538   8.316  1.00  0.00     0.000 C 
BRANCH  15  16
ATOM     16  C   UNL     1      36.499   6.790   7.127  1.00  0.00     0.000 C 
BRANCH  16  17
ATOM     17  C   UNL     1      38.034   6.858   7.123  1.00  0.00    -0.000 C 
BRANCH  17  18
ATOM     18  C   UNL     1      38.586   7.860   8.149  1.00  0.00    -0.000 C 
BRANCH  18  19
ATOM     19  C   UNL     1      39.977   7.437   8.634  1.00  0.00    -0.003 C 
ATOM     20  C   UNL     1      40.994   7.480   7.498  1.00  0.00     0.004 C 
ENDBRANCH  18  19
ENDBRANCH  17  18
ENDBRANCH  16  17
ENDBRANCH  15  16
ENDBRANCH  14  15
ENDBRANCH  13  14
ENDBRANCH   2  13
TORSDOF 15
ENDMDL
