MODEL 1
REMARK VINA RESULT:    -4.377      0.000      0.000
REMARK INTER + INTRA:         -17.275
REMARK INTER:                 -11.542
REMARK INTRA:                  -5.734
REMARK UNBOUND:                -5.734
REMARK SMILES CCCCCCCCCCCCCCCCCCCCCCCCCCCCCC(=O)[O-]
REMARK SMILES IDX 16 1 17 2 18 3 19 4 20 5 21 6 22 7 23 8 24 9 25 10 26 11
REMARK SMILES IDX 27 12 28 13 29 14 30 15 31 16 32 17 15 18 14 19 13 20 12 21
REMARK SMILES IDX 11 22 10 23 9 24 8 25 7 26 6 27 5 28 4 29 3 30 2 31 1 32
REMARK H PARENT
REMARK Flexibility Score: inf
ROOT
ATOM      1  C   UNL     1      48.282  -6.612  78.492  1.00  0.00     0.000 C 
ENDROOT
BRANCH   1   2
ATOM      2  C   UNL     1      48.254  -5.165  79.026  1.00  0.00     0.000 C 
BRANCH   2   3
ATOM      3  C   UNL     1      48.912  -4.113  78.113  1.00  0.00     0.000 C 
BRANCH   3   4
ATOM      4  C   UNL     1      50.077  -3.337  78.753  1.00  0.00     0.000 C 
BRANCH   4   5
ATOM      5  C   UNL     1      50.838  -2.462  77.743  1.00  0.00     0.000 C 
BRANCH   5   6
ATOM      6  C   UNL     1      50.182  -2.487  76.345  1.00  0.00     0.000 C 
BRANCH   6   7
ATOM      7  C   UNL     1      49.368  -1.225  76.015  1.00  0.00     0.000 C 
BRANCH   7   8
ATOM      8  C   UNL     1      48.480  -1.392  74.771  1.00  0.00     0.000 C 
BRANCH   8   9
ATOM      9  C   UNL     1      48.836  -0.404  73.647  1.00  0.00     0.000 C 
BRANCH   9  10
ATOM     10  C   UNL     1      48.812  -1.039  72.239  1.00  0.00     0.000 C 
BRANCH  10  11
ATOM     11  C   UNL     1      50.179  -1.619  71.845  1.00  0.00     0.000 C 
BRANCH  11  12
ATOM     12  C   UNL     1      51.323  -0.801  72.459  1.00  0.00     0.000 C 
BRANCH  12  13
ATOM     13  C   UNL     1      52.701  -1.460  72.266  1.00  0.00     0.006 C 
BRANCH  13  14
ATOM     14  C   UNL     1      53.086  -2.461  73.367  1.00  0.00     0.053 C 
BRANCH  14  15
ATOM     15  C   UNL     1      54.228  -3.339  72.955  1.00  0.00     0.041 C 
ATOM     16  O   UNL     1      54.793  -4.082  73.801  1.00  0.00    -0.550 OA
ATOM     17  O   UNL     1      54.678  -3.325  71.642  1.00  0.00    -0.550 OA
ENDBRANCH  14  15
ENDBRANCH  13  14
ENDBRANCH  12  13
ENDBRANCH  11  12
ENDBRANCH  10  11
ENDBRANCH   9  10
ENDBRANCH   8   9
ENDBRANCH   7   8
ENDBRANCH   6   7
ENDBRANCH   5   6
ENDBRANCH   4   5
ENDBRANCH   3   4
ENDBRANCH   2   3
ENDBRANCH   1   2
BRANCH   1  18
ATOM     18  C   UNL     1      49.450  -6.942  77.545  1.00  0.00     0.000 C 
BRANCH  18  19
ATOM     19  C   UNL     1      50.648  -7.580  78.270  1.00  0.00     0.000 C 
BRANCH  19  20
ATOM     20  C   UNL     1      51.897  -6.682  78.246  1.00  0.00     0.000 C 
BRANCH  20  21
ATOM     21  C   UNL     1      52.021  -5.864  76.951  1.00  0.00     0.000 C 
BRANCH  21  22
ATOM     22  C   UNL     1      52.582  -6.724  75.811  1.00  0.00     0.000 C 
BRANCH  22  23
ATOM     23  C   UNL     1      52.172  -6.161  74.442  1.00  0.00     0.000 C 
BRANCH  23  24
ATOM     24  C   UNL     1      50.650  -6.192  74.225  1.00  0.00    -0.000 C 
BRANCH  24  25
ATOM     25  C   UNL     1      50.117  -4.890  73.604  1.00  0.00    -0.000 C 
BRANCH  25  26
ATOM     26  C   UNL     1      48.871  -5.115  72.726  1.00  0.00    -0.000 C 
BRANCH  26  27
ATOM     27  C   UNL     1      47.557  -4.560  73.308  1.00  0.00    -0.000 C 
BRANCH  27  28
ATOM     28  C   UNL     1      47.339  -4.834  74.809  1.00  0.00    -0.000 C 
BRANCH  28  29
ATOM     29  C   UNL     1      45.857  -4.803  75.241  1.00  0.00    -0.000 C 
BRANCH  29  30
ATOM     30  C   UNL     1      45.304  -6.202  75.558  1.00  0.00    -0.000 C 
BRANCH  30  31
ATOM     31  C   UNL     1      46.389  -7.290  75.496  1.00  0.00    -0.003 C 
ATOM     32  C   UNL     1      45.900  -8.640  76.019  1.00  0.00     0.004 C 
ENDBRANCH  30  31
ENDBRANCH  29  30
ENDBRANCH  28  29
ENDBRANCH  27  28
ENDBRANCH  26  27
ENDBRANCH  25  26
ENDBRANCH  24  25
ENDBRANCH  23  24
ENDBRANCH  22  23
ENDBRANCH  21  22
ENDBRANCH  20  21
ENDBRANCH  19  20
ENDBRANCH  18  19
ENDBRANCH   1  18
TORSDOF 28
ENDMDL
MODEL 2
REMARK VINA RESULT:    -4.339      2.220      6.324
REMARK INTER + INTRA:         -17.176
REMARK INTER:                 -10.599
REMARK INTRA:                  -6.577
REMARK UNBOUND:                -5.734
REMARK SMILES CCCCCCCCCCCCCCCCCCCCCCCCCCCCCC(=O)[O-]
REMARK SMILES IDX 16 1 17 2 18 3 19 4 20 5 21 6 22 7 23 8 24 9 25 10 26 11
REMARK SMILES IDX 27 12 28 13 29 14 30 15 31 16 32 17 15 18 14 19 13 20 12 21
REMARK SMILES IDX 11 22 10 23 9 24 8 25 7 26 6 27 5 28 4 29 3 30 2 31 1 32
REMARK H PARENT
REMARK Flexibility Score: inf
ROOT
ATOM      1  C   UNL     1      49.915  -1.491  71.757  1.00  0.00     0.000 C 
ENDROOT
BRANCH   1   2
ATOM      2  C   UNL     1      51.180  -0.971  72.471  1.00  0.00     0.000 C 
BRANCH   2   3
ATOM      3  C   UNL     1      52.012  -2.042  73.203  1.00  0.00     0.000 C 
BRANCH   3   4
ATOM      4  C   UNL     1      52.184  -3.364  72.434  1.00  0.00     0.000 C 
BRANCH   4   5
ATOM      5  C   UNL     1      52.025  -4.602  73.334  1.00  0.00     0.000 C 
BRANCH   5   6
ATOM      6  C   UNL     1      52.080  -4.238  74.833  1.00  0.00     0.000 C 
BRANCH   6   7
ATOM      7  C   UNL     1      51.893  -5.440  75.775  1.00  0.00     0.000 C 
BRANCH   7   8
ATOM      8  C   UNL     1      51.814  -6.780  75.028  1.00  0.00     0.000 C 
BRANCH   8   9
ATOM      9  C   UNL     1      50.881  -7.793  75.714  1.00  0.00     0.000 C 
BRANCH   9  10
ATOM     10  C   UNL     1      49.407  -7.335  75.763  1.00  0.00     0.000 C 
BRANCH  10  11
ATOM     11  C   UNL     1      48.763  -7.607  77.132  1.00  0.00     0.000 C 
BRANCH  11  12
ATOM     12  C   UNL     1      49.659  -7.104  78.272  1.00  0.00     0.000 C 
BRANCH  12  13
ATOM     13  C   UNL     1      49.080  -5.871  78.989  1.00  0.00     0.006 C 
BRANCH  13  14
ATOM     14  C   UNL     1      49.326  -4.539  78.263  1.00  0.00     0.053 C 
BRANCH  14  15
ATOM     15  C   UNL     1      50.403  -3.731  78.919  1.00  0.00     0.041 C 
ATOM     16  O   UNL     1      51.514  -4.259  79.192  1.00  0.00    -0.550 OA
ATOM     17  O   UNL     1      50.176  -2.400  79.244  1.00  0.00    -0.550 OA
ENDBRANCH  14  15
ENDBRANCH  13  14
ENDBRANCH  12  13
ENDBRANCH  11  12
ENDBRANCH  10  11
ENDBRANCH   9  10
ENDBRANCH   8   9
ENDBRANCH   7   8
ENDBRANCH   6   7
ENDBRANCH   5   6
ENDBRANCH   4   5
ENDBRANCH   3   4
ENDBRANCH   2   3
ENDBRANCH   1   2
BRANCH   1  18
ATOM     18  C   UNL     1      48.626  -0.700  72.039  1.00  0.00     0.000 C 
BRANCH  18  19
ATOM     19  C   UNL     1      48.815   0.394  73.105  1.00  0.00     0.000 C 
BRANCH  19  20
ATOM     20  C   UNL     1      48.039   0.096  74.399  1.00  0.00     0.000 C 
BRANCH  20  21
ATOM     21  C   UNL     1      48.958  -0.126  75.611  1.00  0.00     0.000 C 
BRANCH  21  22
ATOM     22  C   UNL     1      49.359  -1.602  75.732  1.00  0.00     0.000 C 
BRANCH  22  23
ATOM     23  C   UNL     1      48.202  -2.524  75.316  1.00  0.00     0.000 C 
BRANCH  23  24
ATOM     24  C   UNL     1      48.693  -3.823  74.657  1.00  0.00    -0.000 C 
BRANCH  24  25
ATOM     25  C   UNL     1      48.013  -4.091  73.304  1.00  0.00    -0.000 C 
BRANCH  25  26
ATOM     26  C   UNL     1      48.385  -5.463  72.710  1.00  0.00    -0.000 C 
BRANCH  26  27
ATOM     27  C   UNL     1      47.209  -6.247  72.098  1.00  0.00    -0.000 C 
BRANCH  27  28
ATOM     28  C   UNL     1      46.893  -7.591  72.783  1.00  0.00    -0.000 C 
BRANCH  28  29
ATOM     29  C   UNL     1      45.885  -7.477  73.948  1.00  0.00    -0.000 C 
BRANCH  29  30
ATOM     30  C   UNL     1      44.925  -6.287  73.784  1.00  0.00    -0.000 C 
BRANCH  30  31
ATOM     31  C   UNL     1      44.851  -5.414  75.047  1.00  0.00    -0.003 C 
ATOM     32  C   UNL     1      46.040  -5.629  75.983  1.00  0.00     0.004 C 
ENDBRANCH  30  31
ENDBRANCH  29  30
ENDBRANCH  28  29
ENDBRANCH  27  28
ENDBRANCH  26  27
ENDBRANCH  25  26
ENDBRANCH  24  25
ENDBRANCH  23  24
ENDBRANCH  22  23
ENDBRANCH  21  22
ENDBRANCH  20  21
ENDBRANCH  19  20
ENDBRANCH  18  19
ENDBRANCH   1  18
TORSDOF 28
ENDMDL
MODEL 3
REMARK VINA RESULT:    -4.222      1.539      5.424
REMARK INTER + INTRA:         -16.867
REMARK INTER:                 -10.464
REMARK INTRA:                  -6.403
REMARK UNBOUND:                -5.734
REMARK SMILES CCCCCCCCCCCCCCCCCCCCCCCCCCCCCC(=O)[O-]
REMARK SMILES IDX 16 1 17 2 18 3 19 4 20 5 21 6 22 7 23 8 24 9 25 10 26 11
REMARK SMILES IDX 27 12 28 13 29 14 30 15 31 16 32 17 15 18 14 19 13 20 12 21
REMARK SMILES IDX 11 22 10 23 9 24 8 25 7 26 6 27 5 28 4 29 3 30 2 31 1 32
REMARK H PARENT
REMARK Flexibility Score: inf
ROOT
ATOM      1  C   UNL     1      48.042  -5.803  78.805  1.00  0.00     0.000 C 
ENDROOT
BRANCH   1   2
ATOM      2  C   UNL     1      48.217  -6.678  77.547  1.00  0.00     0.000 C 
BRANCH   2   3
ATOM      3  C   UNL     1      47.091  -7.698  77.292  1.00  0.00     0.000 C 
BRANCH   3   4
ATOM      4  C   UNL     1      46.995  -8.209  75.843  1.00  0.00     0.000 C 
BRANCH   4   5
ATOM      5  C   UNL     1      45.673  -7.821  75.160  1.00  0.00     0.000 C 
BRANCH   5   6
ATOM      6  C   UNL     1      45.148  -6.454  75.649  1.00  0.00     0.000 C 
BRANCH   6   7
ATOM      7  C   UNL     1      45.417  -5.296  74.673  1.00  0.00     0.000 C 
BRANCH   7   8
ATOM      8  C   UNL     1      46.737  -4.565  74.958  1.00  0.00     0.000 C 
BRANCH   8   9
ATOM      9  C   UNL     1      47.616  -4.408  73.706  1.00  0.00     0.000 C 
BRANCH   9  10
ATOM     10  C   UNL     1      47.467  -5.570  72.700  1.00  0.00     0.000 C 
BRANCH  10  11
ATOM     11  C   UNL     1      48.646  -6.552  72.773  1.00  0.00     0.000 C 
BRANCH  11  12
ATOM     12  C   UNL     1      49.439  -6.366  74.074  1.00  0.00     0.000 C 
BRANCH  12  13
ATOM     13  C   UNL     1      50.638  -7.325  74.187  1.00  0.00     0.006 C 
BRANCH  13  14
ATOM     14  C   UNL     1      51.110  -7.585  75.627  1.00  0.00     0.053 C 
BRANCH  14  15
ATOM     15  C   UNL     1      52.531  -7.160  75.838  1.00  0.00     0.041 C 
ATOM     16  O   UNL     1      53.286  -7.828  76.592  1.00  0.00    -0.550 OA
ATOM     17  O   UNL     1      53.017  -6.019  75.214  1.00  0.00    -0.550 OA
ENDBRANCH  14  15
ENDBRANCH  13  14
ENDBRANCH  12  13
ENDBRANCH  11  12
ENDBRANCH  10  11
ENDBRANCH   9  10
ENDBRANCH   8   9
ENDBRANCH   7   8
ENDBRANCH   6   7
ENDBRANCH   5   6
ENDBRANCH   4   5
ENDBRANCH   3   4
ENDBRANCH   2   3
ENDBRANCH   1   2
BRANCH   1  18
ATOM     18  C   UNL     1      49.141  -4.749  79.033  1.00  0.00     0.000 C 
BRANCH  18  19
ATOM     19  C   UNL     1      50.490  -5.146  78.409  1.00  0.00     0.000 C 
BRANCH  19  20
ATOM     20  C   UNL     1      51.072  -4.041  77.511  1.00  0.00     0.000 C 
BRANCH  20  21
ATOM     21  C   UNL     1      50.357  -3.935  76.154  1.00  0.00     0.000 C 
BRANCH  21  22
ATOM     22  C   UNL     1      50.203  -2.468  75.729  1.00  0.00     0.000 C 
BRANCH  22  23
ATOM     23  C   UNL     1      48.894  -1.872  76.267  1.00  0.00     0.000 C 
BRANCH  23  24
ATOM     24  C   UNL     1      48.415  -0.665  75.444  1.00  0.00    -0.000 C 
BRANCH  24  25
ATOM     25  C   UNL     1      49.254  -0.447  74.173  1.00  0.00    -0.000 C 
BRANCH  25  26
ATOM     26  C   UNL     1      48.414  -0.525  72.884  1.00  0.00    -0.000 C 
BRANCH  26  27
ATOM     27  C   UNL     1      49.168  -1.052  71.648  1.00  0.00    -0.000 C 
BRANCH  27  28
ATOM     28  C   UNL     1      50.537  -1.697  71.943  1.00  0.00    -0.000 C 
BRANCH  28  29
ATOM     29  C   UNL     1      50.503  -3.241  71.986  1.00  0.00    -0.000 C 
BRANCH  29  30
ATOM     30  C   UNL     1      51.747  -3.841  72.661  1.00  0.00    -0.000 C 
BRANCH  30  31
ATOM     31  C   UNL     1      52.807  -2.777  72.990  1.00  0.00    -0.003 C 
ATOM     32  C   UNL     1      54.190  -3.378  73.236  1.00  0.00     0.004 C 
ENDBRANCH  30  31
ENDBRANCH  29  30
ENDBRANCH  28  29
ENDBRANCH  27  28
ENDBRANCH  26  27
ENDBRANCH  25  26
ENDBRANCH  24  25
ENDBRANCH  23  24
ENDBRANCH  22  23
ENDBRANCH  21  22
ENDBRANCH  20  21
ENDBRANCH  19  20
ENDBRANCH  18  19
ENDBRANCH   1  18
TORSDOF 28
ENDMDL
MODEL 4
REMARK VINA RESULT:    -4.205      3.402      7.006
REMARK INTER + INTRA:         -16.823
REMARK INTER:                 -11.136
REMARK INTRA:                  -5.687
REMARK UNBOUND:                -5.734
REMARK SMILES CCCCCCCCCCCCCCCCCCCCCCCCCCCCCC(=O)[O-]
REMARK SMILES IDX 16 1 17 2 18 3 19 4 20 5 21 6 22 7 23 8 24 9 25 10 26 11
REMARK SMILES IDX 27 12 28 13 29 14 30 15 31 16 32 17 15 18 14 19 13 20 12 21
REMARK SMILES IDX 11 22 10 23 9 24 8 25 7 26 6 27 5 28 4 29 3 30 2 31 1 32
REMARK H PARENT
REMARK Flexibility Score: inf
ROOT
ATOM      1  C   UNL     1      47.196  -3.705  75.780  1.00  0.00     0.000 C 
ENDROOT
BRANCH   1   2
ATOM      2  C   UNL     1      47.659  -2.661  76.817  1.00  0.00     0.000 C 
BRANCH   2   3
ATOM      3  C   UNL     1      48.512  -1.507  76.255  1.00  0.00     0.000 C 
BRANCH   3   4
ATOM      4  C   UNL     1      49.735  -1.129  77.109  1.00  0.00     0.000 C 
BRANCH   4   5
ATOM      5  C   UNL     1      49.755  -1.844  78.471  1.00  0.00     0.000 C 
BRANCH   5   6
ATOM      6  C   UNL     1      51.157  -2.388  78.819  1.00  0.00     0.000 C 
BRANCH   6   7
ATOM      7  C   UNL     1      51.182  -3.892  79.141  1.00  0.00     0.000 C 
BRANCH   7   8
ATOM      8  C   UNL     1      49.833  -4.582  78.887  1.00  0.00     0.000 C 
BRANCH   8   9
ATOM      9  C   UNL     1      49.955  -6.112  78.780  1.00  0.00     0.000 C 
BRANCH   9  10
ATOM     10  C   UNL     1      51.026  -6.574  77.768  1.00  0.00     0.000 C 
BRANCH  10  11
ATOM     11  C   UNL     1      50.543  -7.763  76.920  1.00  0.00     0.000 C 
BRANCH  11  12
ATOM     12  C   UNL     1      50.488  -9.049  77.756  1.00  0.00     0.000 C 
BRANCH  12  13
ATOM     13  C   UNL     1      49.107  -9.729  77.717  1.00  0.00     0.006 C 
BRANCH  13  14
ATOM     14  C   UNL     1      48.252  -9.503  78.974  1.00  0.00     0.053 C 
BRANCH  14  15
ATOM     15  C   UNL     1      48.135 -10.743  79.806  1.00  0.00     0.041 C 
ATOM     16  O   UNL     1      47.536 -10.709  80.913  1.00  0.00    -0.550 OA
ATOM     17  O   UNL     1      48.702 -11.932  79.367  1.00  0.00    -0.550 OA
ENDBRANCH  14  15
ENDBRANCH  13  14
ENDBRANCH  12  13
ENDBRANCH  11  12
ENDBRANCH  10  11
ENDBRANCH   9  10
ENDBRANCH   8   9
ENDBRANCH   7   8
ENDBRANCH   6   7
ENDBRANCH   5   6
ENDBRANCH   4   5
ENDBRANCH   3   4
ENDBRANCH   2   3
ENDBRANCH   1   2
BRANCH   1  18
ATOM     18  C   UNL     1      47.412  -5.175  76.184  1.00  0.00     0.000 C 
BRANCH  18  19
ATOM     19  C   UNL     1      47.761  -6.079  74.989  1.00  0.00     0.000 C 
BRANCH  19  20
ATOM     20  C   UNL     1      46.798  -5.890  73.805  1.00  0.00     0.000 C 
BRANCH  20  21
ATOM     21  C   UNL     1      47.517  -5.482  72.509  1.00  0.00     0.000 C 
BRANCH  21  22
ATOM     22  C   UNL     1      49.026  -5.328  72.744  1.00  0.00     0.000 C 
BRANCH  22  23
ATOM     23  C   UNL     1      49.538  -3.992  72.185  1.00  0.00     0.000 C 
BRANCH  23  24
ATOM     24  C   UNL     1      48.723  -2.791  72.690  1.00  0.00    -0.000 C 
BRANCH  24  25
ATOM     25  C   UNL     1      49.316  -1.445  72.242  1.00  0.00    -0.000 C 
BRANCH  25  26
ATOM     26  C   UNL     1      50.571  -1.050  73.044  1.00  0.00    -0.000 C 
BRANCH  26  27
ATOM     27  C   UNL     1      51.823  -0.767  72.192  1.00  0.00    -0.000 C 
BRANCH  27  28
ATOM     28  C   UNL     1      52.984  -1.764  72.386  1.00  0.00    -0.000 C 
BRANCH  28  29
ATOM     29  C   UNL     1      52.937  -2.523  73.729  1.00  0.00    -0.000 C 
BRANCH  29  30
ATOM     30  C   UNL     1      53.016  -4.049  73.549  1.00  0.00    -0.000 C 
BRANCH  30  31
ATOM     31  C   UNL     1      52.175  -4.807  74.589  1.00  0.00    -0.003 C 
ATOM     32  C   UNL     1      51.246  -3.887  75.380  1.00  0.00     0.004 C 
ENDBRANCH  30  31
ENDBRANCH  29  30
ENDBRANCH  28  29
ENDBRANCH  27  28
ENDBRANCH  26  27
ENDBRANCH  25  26
ENDBRANCH  24  25
ENDBRANCH  23  24
ENDBRANCH  22  23
ENDBRANCH  21  22
ENDBRANCH  20  21
ENDBRANCH  19  20
ENDBRANCH  18  19
ENDBRANCH   1  18
TORSDOF 28
ENDMDL
MODEL 5
REMARK VINA RESULT:    -4.173      2.924      7.266
REMARK INTER + INTRA:         -16.738
REMARK INTER:                 -10.567
REMARK INTRA:                  -6.171
REMARK UNBOUND:                -5.734
REMARK SMILES CCCCCCCCCCCCCCCCCCCCCCCCCCCCCC(=O)[O-]
REMARK SMILES IDX 16 1 17 2 18 3 19 4 20 5 21 6 22 7 23 8 24 9 25 10 26 11
REMARK SMILES IDX 27 12 28 13 29 14 30 15 31 16 32 17 15 18 14 19 13 20 12 21
REMARK SMILES IDX 11 22 10 23 9 24 8 25 7 26 6 27 5 28 4 29 3 30 2 31 1 32
REMARK H PARENT
REMARK Flexibility Score: inf
ROOT
ATOM      1  C   UNL     1      50.328  -1.324  71.683  1.00  0.00     0.000 C 
ENDROOT
BRANCH   1   2
ATOM      2  C   UNL     1      51.458  -1.307  72.732  1.00  0.00     0.000 C 
BRANCH   2   3
ATOM      3  C   UNL     1      52.113  -2.673  73.018  1.00  0.00     0.000 C 
BRANCH   3   4
ATOM      4  C   UNL     1      51.423  -3.874  72.349  1.00  0.00     0.000 C 
BRANCH   4   5
ATOM      5  C   UNL     1      50.388  -4.553  73.263  1.00  0.00     0.000 C 
BRANCH   5   6
ATOM      6  C   UNL     1      49.014  -4.697  72.574  1.00  0.00     0.000 C 
BRANCH   6   7
ATOM      7  C   UNL     1      47.819  -4.601  73.538  1.00  0.00     0.000 C 
BRANCH   7   8
ATOM      8  C   UNL     1      46.750  -5.674  73.278  1.00  0.00     0.000 C 
BRANCH   8   9
ATOM      9  C   UNL     1      47.120  -6.618  72.121  1.00  0.00     0.000 C 
BRANCH   9  10
ATOM     10  C   UNL     1      47.312  -8.085  72.562  1.00  0.00     0.000 C 
BRANCH  10  11
ATOM     11  C   UNL     1      48.791  -8.428  72.800  1.00  0.00     0.000 C 
BRANCH  11  12
ATOM     12  C   UNL     1      49.040  -8.807  74.266  1.00  0.00     0.000 C 
BRANCH  12  13
ATOM     13  C   UNL     1      49.307  -7.584  75.164  1.00  0.00     0.006 C 
BRANCH  13  14
ATOM     14  C   UNL     1      48.737  -7.703  76.586  1.00  0.00     0.053 C 
BRANCH  14  15
ATOM     15  C   UNL     1      47.274  -7.385  76.634  1.00  0.00     0.041 C 
ATOM     16  O   UNL     1      46.422  -8.301  76.495  1.00  0.00    -0.550 OA
ATOM     17  O   UNL     1      46.851  -6.075  76.816  1.00  0.00    -0.550 OA
ENDBRANCH  14  15
ENDBRANCH  13  14
ENDBRANCH  12  13
ENDBRANCH  11  12
ENDBRANCH  10  11
ENDBRANCH   9  10
ENDBRANCH   8   9
ENDBRANCH   7   8
ENDBRANCH   6   7
ENDBRANCH   5   6
ENDBRANCH   4   5
ENDBRANCH   3   4
ENDBRANCH   2   3
ENDBRANCH   1   2
BRANCH   1  18
ATOM     18  C   UNL     1      48.946  -0.882  72.197  1.00  0.00     0.000 C 
BRANCH  18  19
ATOM     19  C   UNL     1      49.003  -0.232  73.590  1.00  0.00     0.000 C 
BRANCH  19  20
ATOM     20  C   UNL     1      48.447  -1.149  74.692  1.00  0.00     0.000 C 
BRANCH  20  21
ATOM     21  C   UNL     1      49.310  -1.147  75.964  1.00  0.00     0.000 C 
BRANCH  21  22
ATOM     22  C   UNL     1      50.160  -2.422  76.052  1.00  0.00     0.000 C 
BRANCH  22  23
ATOM     23  C   UNL     1      49.373  -3.565  76.711  1.00  0.00     0.000 C 
BRANCH  23  24
ATOM     24  C   UNL     1      50.247  -4.423  77.639  1.00  0.00    -0.000 C 
BRANCH  24  25
ATOM     25  C   UNL     1      49.514  -4.837  78.925  1.00  0.00    -0.000 C 
BRANCH  25  26
ATOM     26  C   UNL     1      48.485  -3.788  79.389  1.00  0.00    -0.000 C 
BRANCH  26  27
ATOM     27  C   UNL     1      49.057  -2.664  80.274  1.00  0.00    -0.000 C 
BRANCH  27  28
ATOM     28  C   UNL     1      49.094  -1.269  79.619  1.00  0.00    -0.000 C 
BRANCH  28  29
ATOM     29  C   UNL     1      50.465  -0.566  79.724  1.00  0.00    -0.000 C 
BRANCH  29  30
ATOM     30  C   UNL     1      51.626  -1.463  79.266  1.00  0.00    -0.000 C 
BRANCH  30  31
ATOM     31  C   UNL     1      52.462  -1.990  80.444  1.00  0.00    -0.003 C 
ATOM     32  C   UNL     1      52.851  -3.459  80.281  1.00  0.00     0.004 C 
ENDBRANCH  30  31
ENDBRANCH  29  30
ENDBRANCH  28  29
ENDBRANCH  27  28
ENDBRANCH  26  27
ENDBRANCH  25  26
ENDBRANCH  24  25
ENDBRANCH  23  24
ENDBRANCH  22  23
ENDBRANCH  21  22
ENDBRANCH  20  21
ENDBRANCH  19  20
ENDBRANCH  18  19
ENDBRANCH   1  18
TORSDOF 28
ENDMDL
MODEL 6
REMARK VINA RESULT:    -4.159      2.814      5.804
REMARK INTER + INTRA:         -16.702
REMARK INTER:                 -10.856
REMARK INTRA:                  -5.846
REMARK UNBOUND:                -5.734
REMARK SMILES CCCCCCCCCCCCCCCCCCCCCCCCCCCCCC(=O)[O-]
REMARK SMILES IDX 16 1 17 2 18 3 19 4 20 5 21 6 22 7 23 8 24 9 25 10 26 11
REMARK SMILES IDX 27 12 28 13 29 14 30 15 31 16 32 17 15 18 14 19 13 20 12 21
REMARK SMILES IDX 11 22 10 23 9 24 8 25 7 26 6 27 5 28 4 29 3 30 2 31 1 32
REMARK H PARENT
REMARK Flexibility Score: inf
ROOT
ATOM      1  C   UNL     1      48.413  -2.693  76.037  1.00  0.00     0.000 C 
ENDROOT
BRANCH   1   2
ATOM      2  C   UNL     1      49.695  -2.189  75.343  1.00  0.00     0.000 C 
BRANCH   2   3
ATOM      3  C   UNL     1      51.017  -2.686  75.958  1.00  0.00     0.000 C 
BRANCH   3   4
ATOM      4  C   UNL     1      51.213  -4.212  75.925  1.00  0.00     0.000 C 
BRANCH   4   5
ATOM      5  C   UNL     1      51.620  -4.731  74.535  1.00  0.00     0.000 C 
BRANCH   5   6
ATOM      6  C   UNL     1      52.716  -3.857  73.889  1.00  0.00     0.000 C 
BRANCH   6   7
ATOM      7  C   UNL     1      52.275  -3.159  72.592  1.00  0.00     0.000 C 
BRANCH   7   8
ATOM      8  C   UNL     1      52.611  -1.660  72.572  1.00  0.00     0.000 C 
BRANCH   8   9
ATOM      9  C   UNL     1      51.399  -0.780  72.220  1.00  0.00     0.000 C 
BRANCH   9  10
ATOM     10  C   UNL     1      50.161  -1.589  71.774  1.00  0.00     0.000 C 
BRANCH  10  11
ATOM     11  C   UNL     1      48.851  -0.826  72.029  1.00  0.00     0.000 C 
BRANCH  11  12
ATOM     12  C   UNL     1      49.072   0.338  73.004  1.00  0.00     0.000 C 
BRANCH  12  13
ATOM     13  C   UNL     1      47.795   0.726  73.773  1.00  0.00     0.006 C 
BRANCH  13  14
ATOM     14  C   UNL     1      48.042   1.219  75.207  1.00  0.00     0.053 C 
BRANCH  14  15
ATOM     15  C   UNL     1      48.435   2.664  75.246  1.00  0.00     0.041 C 
ATOM     16  O   UNL     1      49.554   3.004  75.712  1.00  0.00    -0.550 OA
ATOM     17  O   UNL     1      47.560   3.637  74.782  1.00  0.00    -0.550 OA
ENDBRANCH  14  15
ENDBRANCH  13  14
ENDBRANCH  12  13
ENDBRANCH  11  12
ENDBRANCH  10  11
ENDBRANCH   9  10
ENDBRANCH   8   9
ENDBRANCH   7   8
ENDBRANCH   6   7
ENDBRANCH   5   6
ENDBRANCH   4   5
ENDBRANCH   3   4
ENDBRANCH   2   3
ENDBRANCH   1   2
BRANCH   1  18
ATOM     18  C   UNL     1      47.619  -3.759  75.261  1.00  0.00     0.000 C 
BRANCH  18  19
ATOM     19  C   UNL     1      48.112  -3.939  73.815  1.00  0.00     0.000 C 
BRANCH  19  20
ATOM     20  C   UNL     1      47.764  -5.324  73.242  1.00  0.00     0.000 C 
BRANCH  20  21
ATOM     21  C   UNL     1      46.309  -5.736  73.516  1.00  0.00     0.000 C 
BRANCH  21  22
ATOM     22  C   UNL     1      46.248  -7.104  74.209  1.00  0.00     0.000 C 
BRANCH  22  23
ATOM     23  C   UNL     1      45.625  -6.987  75.608  1.00  0.00     0.000 C 
BRANCH  23  24
ATOM     24  C   UNL     1      46.657  -7.181  76.730  1.00  0.00    -0.000 C 
BRANCH  24  25
ATOM     25  C   UNL     1      48.038  -7.599  76.197  1.00  0.00    -0.000 C 
BRANCH  25  26
ATOM     26  C   UNL     1      49.195  -6.853  76.887  1.00  0.00    -0.000 C 
BRANCH  26  27
ATOM     27  C   UNL     1      48.981  -6.566  78.386  1.00  0.00    -0.000 C 
BRANCH  27  28
ATOM     28  C   UNL     1      49.770  -5.365  78.942  1.00  0.00    -0.000 C 
BRANCH  28  29
ATOM     29  C   UNL     1      48.898  -4.124  79.231  1.00  0.00    -0.000 C 
BRANCH  29  30
ATOM     30  C   UNL     1      49.734  -2.886  79.595  1.00  0.00    -0.000 C 
BRANCH  30  31
ATOM     31  C   UNL     1      51.237  -3.197  79.683  1.00  0.00    -0.003 C 
ATOM     32  C   UNL     1      52.111  -1.982  79.372  1.00  0.00     0.004 C 
ENDBRANCH  30  31
ENDBRANCH  29  30
ENDBRANCH  28  29
ENDBRANCH  27  28
ENDBRANCH  26  27
ENDBRANCH  25  26
ENDBRANCH  24  25
ENDBRANCH  23  24
ENDBRANCH  22  23
ENDBRANCH  21  22
ENDBRANCH  20  21
ENDBRANCH  19  20
ENDBRANCH  18  19
ENDBRANCH   1  18
TORSDOF 28
ENDMDL
MODEL 7
REMARK VINA RESULT:    -4.115      2.753      5.397
REMARK INTER + INTRA:         -16.586
REMARK INTER:                 -11.644
REMARK INTRA:                  -4.941
REMARK UNBOUND:                -5.734
REMARK SMILES CCCCCCCCCCCCCCCCCCCCCCCCCCCCCC(=O)[O-]
REMARK SMILES IDX 16 1 17 2 18 3 19 4 20 5 21 6 22 7 23 8 24 9 25 10 26 11
REMARK SMILES IDX 27 12 28 13 29 14 30 15 31 16 32 17 15 18 14 19 13 20 12 21
REMARK SMILES IDX 11 22 10 23 9 24 8 25 7 26 6 27 5 28 4 29 3 30 2 31 1 32
REMARK H PARENT
REMARK Flexibility Score: inf
ROOT
ATOM      1  C   UNL     1      48.590  -2.512  76.631  1.00  0.00     0.000 C 
ENDROOT
BRANCH   1   2
ATOM      2  C   UNL     1      49.119  -1.197  76.022  1.00  0.00     0.000 C 
BRANCH   2   3
ATOM      3  C   UNL     1      48.154  -0.483  75.056  1.00  0.00     0.000 C 
BRANCH   3   4
ATOM      4  C   UNL     1      48.820   0.131  73.812  1.00  0.00     0.000 C 
BRANCH   4   5
ATOM      5  C   UNL     1      48.658  -0.742  72.556  1.00  0.00     0.000 C 
BRANCH   5   6
ATOM      6  C   UNL     1      50.003  -0.967  71.831  1.00  0.00     0.000 C 
BRANCH   6   7
ATOM      7  C   UNL     1      51.237  -0.648  72.691  1.00  0.00     0.000 C 
BRANCH   7   8
ATOM      8  C   UNL     1      52.498  -1.398  72.233  1.00  0.00     0.000 C 
BRANCH   8   9
ATOM      9  C   UNL     1      52.657  -2.770  72.913  1.00  0.00     0.000 C 
BRANCH   9  10
ATOM     10  C   UNL     1      52.008  -2.842  74.312  1.00  0.00     0.000 C 
BRANCH  10  11
ATOM     11  C   UNL     1      51.068  -4.050  74.450  1.00  0.00     0.000 C 
BRANCH  11  12
ATOM     12  C   UNL     1      50.107  -4.140  73.257  1.00  0.00     0.000 C 
BRANCH  12  13
ATOM     13  C   UNL     1      48.708  -4.649  73.652  1.00  0.00     0.006 C 
BRANCH  13  14
ATOM     14  C   UNL     1      48.136  -5.725  72.715  1.00  0.00     0.053 C 
BRANCH  14  15
ATOM     15  C   UNL     1      47.077  -6.547  73.383  1.00  0.00     0.041 C 
ATOM     16  O   UNL     1      47.370  -7.656  73.903  1.00  0.00    -0.550 OA
ATOM     17  O   UNL     1      45.764  -6.097  73.419  1.00  0.00    -0.550 OA
ENDBRANCH  14  15
ENDBRANCH  13  14
ENDBRANCH  12  13
ENDBRANCH  11  12
ENDBRANCH  10  11
ENDBRANCH   9  10
ENDBRANCH   8   9
ENDBRANCH   7   8
ENDBRANCH   6   7
ENDBRANCH   5   6
ENDBRANCH   4   5
ENDBRANCH   3   4
ENDBRANCH   2   3
ENDBRANCH   1   2
BRANCH   1  18
ATOM     18  C   UNL     1      47.765  -2.357  77.921  1.00  0.00     0.000 C 
BRANCH  18  19
ATOM     19  C   UNL     1      48.548  -1.673  79.055  1.00  0.00     0.000 C 
BRANCH  19  20
ATOM     20  C   UNL     1      49.420  -2.661  79.848  1.00  0.00     0.000 C 
BRANCH  20  21
ATOM     21  C   UNL     1      50.831  -2.121  80.129  1.00  0.00     0.000 C 
BRANCH  21  22
ATOM     22  C   UNL     1      51.901  -3.138  79.709  1.00  0.00     0.000 C 
BRANCH  22  23
ATOM     23  C   UNL     1      51.421  -3.985  78.521  1.00  0.00     0.000 C 
BRANCH  23  24
ATOM     24  C   UNL     1      51.994  -5.412  78.547  1.00  0.00    -0.000 C 
BRANCH  24  25
ATOM     25  C   UNL     1      50.897  -6.489  78.508  1.00  0.00    -0.000 C 
BRANCH  25  26
ATOM     26  C   UNL     1      49.478  -5.893  78.449  1.00  0.00    -0.000 C 
BRANCH  26  27
ATOM     27  C   UNL     1      48.681  -6.235  77.176  1.00  0.00    -0.000 C 
BRANCH  27  28
ATOM     28  C   UNL     1      47.386  -7.038  77.411  1.00  0.00    -0.000 C 
BRANCH  28  29
ATOM     29  C   UNL     1      47.459  -8.002  78.615  1.00  0.00    -0.000 C 
BRANCH  29  30
ATOM     30  C   UNL     1      47.979  -9.396  78.226  1.00  0.00    -0.000 C 
BRANCH  30  31
ATOM     31  C   UNL     1      48.744 -10.078  79.372  1.00  0.00    -0.003 C 
ATOM     32  C   UNL     1      47.817 -10.630  80.454  1.00  0.00     0.004 C 
ENDBRANCH  30  31
ENDBRANCH  29  30
ENDBRANCH  28  29
ENDBRANCH  27  28
ENDBRANCH  26  27
ENDBRANCH  25  26
ENDBRANCH  24  25
ENDBRANCH  23  24
ENDBRANCH  22  23
ENDBRANCH  21  22
ENDBRANCH  20  21
ENDBRANCH  19  20
ENDBRANCH  18  19
ENDBRANCH   1  18
TORSDOF 28
ENDMDL
MODEL 8
REMARK VINA RESULT:    -4.108      2.135      5.238
REMARK INTER + INTRA:         -16.566
REMARK INTER:                 -10.844
REMARK INTRA:                  -5.721
REMARK UNBOUND:                -5.734
REMARK SMILES CCCCCCCCCCCCCCCCCCCCCCCCCCCCCC(=O)[O-]
REMARK SMILES IDX 16 1 17 2 18 3 19 4 20 5 21 6 22 7 23 8 24 9 25 10 26 11
REMARK SMILES IDX 27 12 28 13 29 14 30 15 31 16 32 17 15 18 14 19 13 20 12 21
REMARK SMILES IDX 11 22 10 23 9 24 8 25 7 26 6 27 5 28 4 29 3 30 2 31 1 32
REMARK H PARENT
REMARK Flexibility Score: inf
ROOT
ATOM      1  C   UNL     1      51.497  -4.579  74.923  1.00  0.00     0.000 C 
ENDROOT
BRANCH   1   2
ATOM      2  C   UNL     1      52.655  -4.586  73.904  1.00  0.00     0.000 C 
BRANCH   2   3
ATOM      3  C   UNL     1      52.420  -3.748  72.633  1.00  0.00     0.000 C 
BRANCH   3   4
ATOM      4  C   UNL     1      53.047  -2.342  72.657  1.00  0.00     0.000 C 
BRANCH   4   5
ATOM      5  C   UNL     1      52.014  -1.224  72.433  1.00  0.00     0.000 C 
BRANCH   5   6
ATOM      6  C   UNL     1      50.673  -1.526  73.137  1.00  0.00     0.000 C 
BRANCH   6   7
ATOM      7  C   UNL     1      49.453  -1.478  72.202  1.00  0.00     0.000 C 
BRANCH   7   8
ATOM      8  C   UNL     1      48.715  -0.131  72.247  1.00  0.00     0.000 C 
BRANCH   8   9
ATOM      9  C   UNL     1      48.887   0.601  73.589  1.00  0.00     0.000 C 
BRANCH   9  10
ATOM     10  C   UNL     1      47.715   0.374  74.568  1.00  0.00     0.000 C 
BRANCH  10  11
ATOM     11  C   UNL     1      47.961  -0.827  75.495  1.00  0.00     0.000 C 
BRANCH  11  12
ATOM     12  C   UNL     1      49.067  -0.519  76.514  1.00  0.00     0.000 C 
BRANCH  12  13
ATOM     13  C   UNL     1      50.021  -1.707  76.739  1.00  0.00     0.006 C 
BRANCH  13  14
ATOM     14  C   UNL     1      50.026  -2.254  78.176  1.00  0.00     0.053 C 
BRANCH  14  15
ATOM     15  C   UNL     1      51.398  -2.243  78.777  1.00  0.00     0.041 C 
ATOM     16  O   UNL     1      51.832  -3.258  79.383  1.00  0.00    -0.550 OA
ATOM     17  O   UNL     1      52.190  -1.107  78.683  1.00  0.00    -0.550 OA
ENDBRANCH  14  15
ENDBRANCH  13  14
ENDBRANCH  12  13
ENDBRANCH  11  12
ENDBRANCH  10  11
ENDBRANCH   9  10
ENDBRANCH   8   9
ENDBRANCH   7   8
ENDBRANCH   6   7
ENDBRANCH   5   6
ENDBRANCH   4   5
ENDBRANCH   3   4
ENDBRANCH   2   3
ENDBRANCH   1   2
BRANCH   1  18
ATOM     18  C   UNL     1      50.496  -5.740  74.790  1.00  0.00     0.000 C 
BRANCH  18  19
ATOM     19  C   UNL     1      49.417  -5.483  73.724  1.00  0.00     0.000 C 
BRANCH  19  20
ATOM     20  C   UNL     1      48.445  -4.361  74.127  1.00  0.00     0.000 C 
BRANCH  20  21
ATOM     21  C   UNL     1      47.965  -4.480  75.582  1.00  0.00     0.000 C 
BRANCH  21  22
ATOM     22  C   UNL     1      46.442  -4.315  75.672  1.00  0.00     0.000 C 
BRANCH  22  23
ATOM     23  C   UNL     1      45.727  -5.252  74.687  1.00  0.00     0.000 C 
BRANCH  23  24
ATOM     24  C   UNL     1      44.760  -6.218  75.390  1.00  0.00    -0.000 C 
BRANCH  24  25
ATOM     25  C   UNL     1      45.169  -7.691  75.221  1.00  0.00    -0.000 C 
BRANCH  25  26
ATOM     26  C   UNL     1      46.634  -7.855  74.772  1.00  0.00    -0.000 C 
BRANCH  26  27
ATOM     27  C   UNL     1      47.626  -8.188  75.902  1.00  0.00    -0.000 C 
BRANCH  27  28
ATOM     28  C   UNL     1      47.003  -8.302  77.307  1.00  0.00    -0.000 C 
BRANCH  28  29
ATOM     29  C   UNL     1      47.933  -7.825  78.444  1.00  0.00    -0.000 C 
BRANCH  29  30
ATOM     30  C   UNL     1      47.832  -6.311  78.694  1.00  0.00    -0.000 C 
BRANCH  30  31
ATOM     31  C   UNL     1      49.199  -5.672  78.987  1.00  0.00    -0.003 C 
ATOM     32  C   UNL     1      50.359  -6.447  78.362  1.00  0.00     0.004 C 
ENDBRANCH  30  31
ENDBRANCH  29  30
ENDBRANCH  28  29
ENDBRANCH  27  28
ENDBRANCH  26  27
ENDBRANCH  25  26
ENDBRANCH  24  25
ENDBRANCH  23  24
ENDBRANCH  22  23
ENDBRANCH  21  22
ENDBRANCH  20  21
ENDBRANCH  19  20
ENDBRANCH  18  19
ENDBRANCH   1  18
TORSDOF 28
ENDMDL
MODEL 9
REMARK VINA RESULT:    -4.038      2.373      4.497
REMARK INTER + INTRA:         -16.381
REMARK INTER:                 -10.800
REMARK INTRA:                  -5.580
REMARK UNBOUND:                -5.734
REMARK SMILES CCCCCCCCCCCCCCCCCCCCCCCCCCCCCC(=O)[O-]
REMARK SMILES IDX 16 1 17 2 18 3 19 4 20 5 21 6 22 7 23 8 24 9 25 10 26 11
REMARK SMILES IDX 27 12 28 13 29 14 30 15 31 16 32 17 15 18 14 19 13 20 12 21
REMARK SMILES IDX 11 22 10 23 9 24 8 25 7 26 6 27 5 28 4 29 3 30 2 31 1 32
REMARK H PARENT
REMARK Flexibility Score: inf
ROOT
ATOM      1  C   UNL     1      49.752  -6.234  78.632  1.00  0.00     0.000 C 
ENDROOT
BRANCH   1   2
ATOM      2  C   UNL     1      50.963  -5.294  78.463  1.00  0.00     0.000 C 
BRANCH   2   3
ATOM      3  C   UNL     1      52.032  -5.770  77.460  1.00  0.00     0.000 C 
BRANCH   3   4
ATOM      4  C   UNL     1      51.516  -6.723  76.367  1.00  0.00     0.000 C 
BRANCH   4   5
ATOM      5  C   UNL     1      51.110  -5.989  75.078  1.00  0.00     0.000 C 
BRANCH   5   6
ATOM      6  C   UNL     1      52.073  -4.828  74.746  1.00  0.00     0.000 C 
BRANCH   6   7
ATOM      7  C   UNL     1      53.383  -5.276  74.077  1.00  0.00     0.000 C 
BRANCH   7   8
ATOM      8  C   UNL     1      54.274  -4.098  73.653  1.00  0.00     0.000 C 
BRANCH   8   9
ATOM      9  C   UNL     1      53.553  -2.742  73.742  1.00  0.00     0.000 C 
BRANCH   9  10
ATOM     10  C   UNL     1      53.372  -2.050  72.374  1.00  0.00     0.000 C 
BRANCH  10  11
ATOM     11  C   UNL     1      52.015  -1.338  72.262  1.00  0.00     0.000 C 
BRANCH  11  12
ATOM     12  C   UNL     1      50.864  -2.352  72.203  1.00  0.00     0.000 C 
BRANCH  12  13
ATOM     13  C   UNL     1      49.866  -2.192  73.365  1.00  0.00     0.006 C 
BRANCH  13  14
ATOM     14  C   UNL     1      48.768  -1.145  73.120  1.00  0.00     0.053 C 
BRANCH  14  15
ATOM     15  C   UNL     1      48.968   0.085  73.951  1.00  0.00     0.041 C 
ATOM     16  O   UNL     1      48.652   0.084  75.170  1.00  0.00    -0.550 OA
ATOM     17  O   UNL     1      49.488   1.237  73.376  1.00  0.00    -0.550 OA
ENDBRANCH  14  15
ENDBRANCH  13  14
ENDBRANCH  12  13
ENDBRANCH  11  12
ENDBRANCH  10  11
ENDBRANCH   9  10
ENDBRANCH   8   9
ENDBRANCH   7   8
ENDBRANCH   6   7
ENDBRANCH   5   6
ENDBRANCH   4   5
ENDBRANCH   3   4
ENDBRANCH   2   3
ENDBRANCH   1   2
BRANCH   1  18
ATOM     18  C   UNL     1      48.379  -5.539  78.671  1.00  0.00     0.000 C 
BRANCH  18  19
ATOM     19  C   UNL     1      48.283  -4.345  77.705  1.00  0.00     0.000 C 
BRANCH  19  20
ATOM     20  C   UNL     1      48.070  -4.783  76.247  1.00  0.00     0.000 C 
BRANCH  20  21
ATOM     21  C   UNL     1      46.792  -4.197  75.627  1.00  0.00     0.000 C 
BRANCH  21  22
ATOM     22  C   UNL     1      46.367  -4.995  74.387  1.00  0.00     0.000 C 
BRANCH  22  23
ATOM     23  C   UNL     1      47.499  -5.049  73.350  1.00  0.00     0.000 C 
BRANCH  23  24
ATOM     24  C   UNL     1      47.272  -6.135  72.287  1.00  0.00    -0.000 C 
BRANCH  24  25
ATOM     25  C   UNL     1      48.234  -7.325  72.445  1.00  0.00    -0.000 C 
BRANCH  25  26
ATOM     26  C   UNL     1      47.522  -8.686  72.339  1.00  0.00    -0.000 C 
BRANCH  26  27
ATOM     27  C   UNL     1      46.130  -8.744  72.997  1.00  0.00    -0.000 C 
BRANCH  27  28
ATOM     28  C   UNL     1      46.094  -9.388  74.397  1.00  0.00    -0.000 C 
BRANCH  28  29
ATOM     29  C   UNL     1      45.644  -8.424  75.516  1.00  0.00    -0.000 C 
BRANCH  29  30
ATOM     30  C   UNL     1      46.737  -8.194  76.573  1.00  0.00    -0.000 C 
BRANCH  30  31
ATOM     31  C   UNL     1      48.148  -8.464  76.027  1.00  0.00    -0.003 C 
ATOM     32  C   UNL     1      48.937  -9.447  76.892  1.00  0.00     0.004 C 
ENDBRANCH  30  31
ENDBRANCH  29  30
ENDBRANCH  28  29
ENDBRANCH  27  28
ENDBRANCH  26  27
ENDBRANCH  25  26
ENDBRANCH  24  25
ENDBRANCH  23  24
ENDBRANCH  22  23
ENDBRANCH  21  22
ENDBRANCH  20  21
ENDBRANCH  19  20
ENDBRANCH  18  19
ENDBRANCH   1  18
TORSDOF 28
ENDMDL
