MODEL 1
REMARK VINA RESULT:    -7.426      0.000      0.000
REMARK INTER + INTRA:          -7.859
REMARK INTER:                  -8.077
REMARK INTRA:                   0.217
REMARK UNBOUND:                 0.217
REMARK SMILES C[C@H]1[C@H](C)CC[C@@]2(C(=O)[O-])CC[C@@]3(C)C(=CC[C@@H]4[C@@]5(C)CC[C@@H](O)C(C)(C)[C@H]5CC[C@]43C)[C@@H]12
REMARK SMILES IDX 7 1 6 2 11 3 33 4 5 5 12 6 15 7 2 8 3 9 13 10 16 11 1 12
REMARK SMILES IDX 4 13 14 14 31 15 17 16 18 17 30 18 32 19 19 20 29 21 28 22
REMARK SMILES IDX 21 23 20 24 25 25 22 26 23 27 26 28 27 29 8 30 9 31 10 32
REMARK SMILES IDX 24 33
REMARK H PARENT 24 34
REMARK Flexibility Score: inf
ROOT
ATOM      1  C   UNL     1       1.194  57.889  11.709  1.00  0.00     0.017 C 
ATOM      2  C   UNL     1       0.761  59.005  12.704  1.00  0.00     0.014 C 
ATOM      3  C   UNL     1       1.915  56.781  12.507  1.00  0.00     0.014 C 
ATOM      4  C   UNL     1      -0.073  57.357  10.923  1.00  0.00     0.030 C 
ATOM      5  C   UNL     1      -0.227  59.985  12.074  1.00  0.00     0.004 C 
ATOM      6  C   UNL     1       2.156  55.497  11.699  1.00  0.00     0.013 C 
ATOM      7  C   UNL     1       0.006  55.885  10.454  1.00  0.00    -0.063 C 
ATOM      8  C   UNL     1      -1.484  57.780  11.462  1.00  0.00    -0.003 C 
ATOM      9  C   UNL     1      -1.588  59.309  11.796  1.00  0.00    -0.011 C 
ATOM     10  C   UNL     1       0.840  54.800  11.215  1.00  0.00    -0.006 C 
ATOM     11  C   UNL     1      -0.482  55.664   9.199  1.00  0.00    -0.027 C 
ATOM     12  C   UNL     1      -2.014  56.928  12.624  1.00  0.00     0.008 C 
ATOM     13  C   UNL     1      -2.335  60.080  10.696  1.00  0.00     0.008 C 
ATOM     14  C   UNL     1       0.076  54.328  12.491  1.00  0.00     0.017 C 
ATOM     15  C   UNL     1       1.144  53.508  10.268  1.00  0.00    -0.020 C 
ATOM     16  C   UNL     1       0.092  54.639   8.251  1.00  0.00     0.032 C 
ATOM     17  C   UNL     1       1.406  54.054   8.807  1.00  0.00     0.006 C 
ATOM     18  C   UNL     1       2.356  52.651  10.760  1.00  0.00     0.008 C 
ATOM     19  C   UNL     1      -0.096  52.537  10.282  1.00  0.00     0.012 C 
ATOM     20  C   UNL     1       2.258  53.206   7.753  1.00  0.00    -0.025 C 
ATOM     21  C   UNL     1       3.639  52.862   9.947  1.00  0.00     0.005 C 
ATOM     22  C   UNL     1       3.428  52.394   8.484  1.00  0.00     0.003 C 
ATOM     23  C   UNL     1       2.765  54.230   6.651  1.00  0.00     0.010 C 
ATOM     24  C   UNL     1       1.353  52.169   7.014  1.00  0.00     0.012 C 
ATOM     25  C   UNL     1       4.794  52.136   7.674  1.00  0.00    -0.006 C 
ATOM     26  C   UNL     1       4.250  54.199   6.335  1.00  0.00     0.033 C 
ATOM     27  C   UNL     1       4.738  52.764   6.246  1.00  0.00     0.120 C 
ATOM     28  C   UNL     1       6.060  52.670   8.420  1.00  0.00     0.014 C 
ATOM     29  C   UNL     1       5.000  50.607   7.500  1.00  0.00     0.014 C 
ENDROOT
BRANCH   1  30
ATOM     30  C   UNL     1       2.231  58.459  10.727  1.00  0.00     0.048 C 
ATOM     31  O   UNL     1       2.715  57.734   9.820  1.00  0.00    -0.550 OA
ATOM     32  O   UNL     1       2.749  59.744  10.903  1.00  0.00    -0.550 OA
ENDBRANCH   1  30
BRANCH  27  33
ATOM     33  O   UNL     1       6.002  52.748   5.625  1.00  0.00    -0.393 OA
ATOM     34  H   UNL     1       6.356  53.678   5.633  1.00  0.00     0.210 HD
ENDBRANCH  27  33
TORSDOF 2
ENDMDL
MODEL 2
REMARK VINA RESULT:    -6.846      7.672     12.319
REMARK INTER + INTRA:          -7.229
REMARK INTER:                  -6.864
REMARK INTRA:                  -0.364
REMARK UNBOUND:                 0.217
REMARK SMILES C[C@H]1[C@H](C)CC[C@@]2(C(=O)[O-])CC[C@@]3(C)C(=CC[C@@H]4[C@@]5(C)CC[C@@H](O)C(C)(C)[C@H]5CC[C@]43C)[C@@H]12
REMARK SMILES IDX 7 1 6 2 11 3 33 4 5 5 12 6 15 7 2 8 3 9 13 10 16 11 1 12
REMARK SMILES IDX 4 13 14 14 31 15 17 16 18 17 30 18 32 19 19 20 29 21 28 22
REMARK SMILES IDX 21 23 20 24 25 25 22 26 23 27 26 28 27 29 8 30 9 31 10 32
REMARK SMILES IDX 24 33
REMARK H PARENT 24 34
REMARK Flexibility Score: inf
ROOT
ATOM      1  C   UNL     1      -6.370  61.003  10.999  1.00  0.00     0.017 C 
ATOM      2  C   UNL     1      -6.325  60.415  12.440  1.00  0.00     0.014 C 
ATOM      3  C   UNL     1      -6.869  62.462  11.086  1.00  0.00     0.014 C 
ATOM      4  C   UNL     1      -4.941  60.879  10.330  1.00  0.00     0.030 C 
ATOM      5  C   UNL     1      -5.553  59.099  12.500  1.00  0.00     0.004 C 
ATOM      6  C   UNL     1      -6.706  63.247   9.776  1.00  0.00     0.013 C 
ATOM      7  C   UNL     1      -4.608  61.956   9.271  1.00  0.00    -0.063 C 
ATOM      8  C   UNL     1      -3.737  60.511  11.266  1.00  0.00    -0.003 C 
ATOM      9  C   UNL     1      -4.047  59.318  12.236  1.00  0.00    -0.011 C 
ATOM     10  C   UNL     1      -5.218  63.398   9.312  1.00  0.00    -0.006 C 
ATOM     11  C   UNL     1      -3.961  61.483   8.167  1.00  0.00    -0.027 C 
ATOM     12  C   UNL     1      -3.129  61.695  12.031  1.00  0.00     0.008 C 
ATOM     13  C   UNL     1      -3.411  58.008  11.744  1.00  0.00     0.008 C 
ATOM     14  C   UNL     1      -4.489  64.262  10.387  1.00  0.00     0.017 C 
ATOM     15  C   UNL     1      -5.100  64.137   7.864  1.00  0.00    -0.020 C 
ATOM     16  C   UNL     1      -4.169  62.038   6.778  1.00  0.00     0.032 C 
ATOM     17  C   UNL     1      -5.345  63.035   6.757  1.00  0.00     0.006 C 
ATOM     18  C   UNL     1      -6.105  65.323   7.691  1.00  0.00     0.008 C 
ATOM     19  C   UNL     1      -3.666  64.770   7.707  1.00  0.00     0.012 C 
ATOM     20  C   UNL     1      -5.855  63.436   5.296  1.00  0.00    -0.025 C 
ATOM     21  C   UNL     1      -7.314  64.991   6.810  1.00  0.00     0.005 C 
ATOM     22  C   UNL     1      -6.853  64.685   5.361  1.00  0.00     0.003 C 
ATOM     23  C   UNL     1      -6.489  62.126   4.662  1.00  0.00     0.010 C 
ATOM     24  C   UNL     1      -4.654  63.837   4.380  1.00  0.00     0.012 C 
ATOM     25  C   UNL     1      -8.028  64.777   4.265  1.00  0.00    -0.006 C 
ATOM     26  C   UNL     1      -7.883  62.269   4.075  1.00  0.00     0.033 C 
ATOM     27  C   UNL     1      -7.990  63.562   3.286  1.00  0.00     0.120 C 
ATOM     28  C   UNL     1      -9.453  64.880   4.900  1.00  0.00     0.014 C 
ATOM     29  C   UNL     1      -7.832  66.062   3.417  1.00  0.00     0.014 C 
ENDROOT
BRANCH   1  30
ATOM     30  C   UNL     1      -7.415  60.236  10.172  1.00  0.00     0.048 C 
ATOM     31  O   UNL     1      -8.639  60.327  10.452  1.00  0.00    -0.550 OA
ATOM     32  O   UNL     1      -7.021  59.330   9.186  1.00  0.00    -0.550 OA
ENDBRANCH   1  30
BRANCH  27  33
ATOM     33  O   UNL     1      -9.145  63.511   2.481  1.00  0.00    -0.393 OA
ATOM     34  H   UNL     1      -9.853  64.045   2.931  1.00  0.00     0.210 HD
ENDBRANCH  27  33
TORSDOF 2
ENDMDL
MODEL 3
REMARK VINA RESULT:    -6.189      8.213     12.631
REMARK INTER + INTRA:          -6.515
REMARK INTER:                  -6.164
REMARK INTRA:                  -0.351
REMARK UNBOUND:                 0.217
REMARK SMILES C[C@H]1[C@H](C)CC[C@@]2(C(=O)[O-])CC[C@@]3(C)C(=CC[C@@H]4[C@@]5(C)CC[C@@H](O)C(C)(C)[C@H]5CC[C@]43C)[C@@H]12
REMARK SMILES IDX 7 1 6 2 11 3 33 4 5 5 12 6 15 7 2 8 3 9 13 10 16 11 1 12
REMARK SMILES IDX 4 13 14 14 31 15 17 16 18 17 30 18 32 19 19 20 29 21 28 22
REMARK SMILES IDX 21 23 20 24 25 25 22 26 23 27 26 28 27 29 8 30 9 31 10 32
REMARK SMILES IDX 24 33
REMARK H PARENT 24 34
REMARK Flexibility Score: inf
ROOT
ATOM      1  C   UNL     1      -6.113  62.218  11.155  1.00  0.00     0.017 C 
ATOM      2  C   UNL     1      -5.977  61.885  12.670  1.00  0.00     0.014 C 
ATOM      3  C   UNL     1      -6.674  63.650  11.021  1.00  0.00     0.014 C 
ATOM      4  C   UNL     1      -4.710  62.037  10.444  1.00  0.00     0.030 C 
ATOM      5  C   UNL     1      -5.143  60.629  12.910  1.00  0.00     0.004 C 
ATOM      6  C   UNL     1      -6.606  64.207   9.591  1.00  0.00     0.013 C 
ATOM      7  C   UNL     1      -4.475  62.930   9.203  1.00  0.00    -0.063 C 
ATOM      8  C   UNL     1      -3.450  61.879  11.365  1.00  0.00    -0.003 C 
ATOM      9  C   UNL     1      -3.662  60.857  12.536  1.00  0.00    -0.011 C 
ATOM     10  C   UNL     1      -5.149  64.333   9.033  1.00  0.00    -0.006 C 
ATOM     11  C   UNL     1      -3.856  62.301   8.162  1.00  0.00    -0.027 C 
ATOM     12  C   UNL     1      -2.864  63.198  11.888  1.00  0.00     0.008 C 
ATOM     13  C   UNL     1      -2.988  59.508  12.238  1.00  0.00     0.008 C 
ATOM     14  C   UNL     1      -4.413  65.395   9.908  1.00  0.00     0.017 C 
ATOM     15  C   UNL     1      -5.129  64.820   7.477  1.00  0.00    -0.020 C 
ATOM     16  C   UNL     1      -4.151  62.603   6.713  1.00  0.00     0.032 C 
ATOM     17  C   UNL     1      -5.372  63.537   6.585  1.00  0.00     0.006 C 
ATOM     18  C   UNL     1      -6.194  65.920   7.159  1.00  0.00     0.008 C 
ATOM     19  C   UNL     1      -3.734  65.471   7.142  1.00  0.00     0.012 C 
ATOM     20  C   UNL     1      -5.964  63.664   5.106  1.00  0.00    -0.025 C 
ATOM     21  C   UNL     1      -7.425  65.397   6.410  1.00  0.00     0.005 C 
ATOM     22  C   UNL     1      -7.015  64.867   5.011  1.00  0.00     0.003 C 
ATOM     23  C   UNL     1      -6.565  62.242   4.733  1.00  0.00     0.010 C 
ATOM     24  C   UNL     1      -4.825  63.949   4.075  1.00  0.00     0.012 C 
ATOM     25  C   UNL     1      -8.241  64.726   3.978  1.00  0.00    -0.006 C 
ATOM     26  C   UNL     1      -7.988  62.230   4.204  1.00  0.00     0.033 C 
ATOM     27  C   UNL     1      -8.190  63.365   3.215  1.00  0.00     0.120 C 
ATOM     28  C   UNL     1      -9.639  64.881   4.658  1.00  0.00     0.014 C 
ATOM     29  C   UNL     1      -8.142  65.855   2.916  1.00  0.00     0.014 C 
ENDROOT
BRANCH   1  30
ATOM     30  C   UNL     1      -7.157  61.282  10.523  1.00  0.00     0.048 C 
ATOM     31  O   UNL     1      -6.803  60.393   9.706  1.00  0.00    -0.550 OA
ATOM     32  O   UNL     1      -8.521  61.485  10.740  1.00  0.00    -0.550 OA
ENDBRANCH   1  30
BRANCH  27  33
ATOM     33  O   UNL     1      -9.376  63.134   2.491  1.00  0.00    -0.393 OA
ATOM     34  H   UNL     1     -10.130  63.124   3.138  1.00  0.00     0.210 HD
ENDBRANCH  27  33
TORSDOF 2
ENDMDL
MODEL 4
REMARK VINA RESULT:    -5.740      1.579      7.518
REMARK INTER + INTRA:          -6.026
REMARK INTER:                  -5.717
REMARK INTRA:                  -0.308
REMARK UNBOUND:                 0.217
REMARK SMILES C[C@H]1[C@H](C)CC[C@@]2(C(=O)[O-])CC[C@@]3(C)C(=CC[C@@H]4[C@@]5(C)CC[C@@H](O)C(C)(C)[C@H]5CC[C@]43C)[C@@H]12
REMARK SMILES IDX 7 1 6 2 11 3 33 4 5 5 12 6 15 7 2 8 3 9 13 10 16 11 1 12
REMARK SMILES IDX 4 13 14 14 31 15 17 16 18 17 30 18 32 19 19 20 29 21 28 22
REMARK SMILES IDX 21 23 20 24 25 25 22 26 23 27 26 28 27 29 8 30 9 31 10 32
REMARK SMILES IDX 24 33
REMARK H PARENT 24 34
REMARK Flexibility Score: inf
ROOT
ATOM      1  C   UNL     1       3.580  53.278   6.759  1.00  0.00     0.017 C 
ATOM      2  C   UNL     1       4.381  52.545   5.642  1.00  0.00     0.014 C 
ATOM      3  C   UNL     1       2.073  53.090   6.477  1.00  0.00     0.014 C 
ATOM      4  C   UNL     1       4.015  52.723   8.176  1.00  0.00     0.030 C 
ATOM      5  C   UNL     1       5.860  52.401   5.997  1.00  0.00     0.004 C 
ATOM      6  C   UNL     1       1.169  53.527   7.640  1.00  0.00     0.013 C 
ATOM      7  C   UNL     1       2.930  52.786   9.276  1.00  0.00    -0.063 C 
ATOM      8  C   UNL     1       4.875  51.411   8.203  1.00  0.00    -0.003 C 
ATOM      9  C   UNL     1       6.062  51.426   7.178  1.00  0.00    -0.011 C 
ATOM     10  C   UNL     1       1.399  52.711   8.956  1.00  0.00    -0.006 C 
ATOM     11  C   UNL     1       3.388  53.173  10.502  1.00  0.00    -0.027 C 
ATOM     12  C   UNL     1       4.069  50.109   8.090  1.00  0.00     0.008 C 
ATOM     13  C   UNL     1       7.403  51.719   7.869  1.00  0.00     0.008 C 
ATOM     14  C   UNL     1       0.980  51.237   8.661  1.00  0.00     0.017 C 
ATOM     15  C   UNL     1       0.502  53.281  10.193  1.00  0.00    -0.020 C 
ATOM     16  C   UNL     1       2.577  53.999  11.471  1.00  0.00     0.032 C 
ATOM     17  C   UNL     1       1.284  54.512  10.806  1.00  0.00     0.006 C 
ATOM     18  C   UNL     1      -0.942  53.705   9.767  1.00  0.00     0.008 C 
ATOM     19  C   UNL     1       0.312  52.153  11.276  1.00  0.00     0.012 C 
ATOM     20  C   UNL     1       0.515  55.648  11.627  1.00  0.00    -0.025 C 
ATOM     21  C   UNL     1      -1.137  55.220   9.645  1.00  0.00     0.005 C 
ATOM     22  C   UNL     1      -0.948  55.897  11.028  1.00  0.00     0.003 C 
ATOM     23  C   UNL     1       1.452  56.929  11.615  1.00  0.00     0.010 C 
ATOM     24  C   UNL     1       0.349  55.234  13.125  1.00  0.00     0.012 C 
ATOM     25  C   UNL     1      -1.565  57.380  11.122  1.00  0.00    -0.006 C 
ATOM     26  C   UNL     1       0.805  58.234  11.183  1.00  0.00     0.033 C 
ATOM     27  C   UNL     1      -0.571  58.369  11.810  1.00  0.00     0.120 C 
ATOM     28  C   UNL     1      -1.985  57.960   9.732  1.00  0.00     0.014 C 
ATOM     29  C   UNL     1      -2.853  57.340  11.988  1.00  0.00     0.014 C 
ENDROOT
BRANCH   1  30
ATOM     30  C   UNL     1       3.851  54.788   6.670  1.00  0.00     0.048 C 
ATOM     31  O   UNL     1       3.911  55.359   5.550  1.00  0.00    -0.550 OA
ATOM     32  O   UNL     1       4.165  55.526   7.813  1.00  0.00    -0.550 OA
ENDBRANCH   1  30
BRANCH  27  33
ATOM     33  O   UNL     1      -1.002  59.704  11.685  1.00  0.00    -0.393 OA
ATOM     34  H   UNL     1      -0.410  60.268  12.250  1.00  0.00     0.210 HD
ENDBRANCH  27  33
TORSDOF 2
ENDMDL
MODEL 5
REMARK VINA RESULT:    -5.289      8.187     12.750
REMARK INTER + INTRA:          -5.536
REMARK INTER:                  -5.342
REMARK INTRA:                  -0.194
REMARK UNBOUND:                 0.217
REMARK SMILES C[C@H]1[C@H](C)CC[C@@]2(C(=O)[O-])CC[C@@]3(C)C(=CC[C@@H]4[C@@]5(C)CC[C@@H](O)C(C)(C)[C@H]5CC[C@]43C)[C@@H]12
REMARK SMILES IDX 7 1 6 2 11 3 33 4 5 5 12 6 15 7 2 8 3 9 13 10 16 11 1 12
REMARK SMILES IDX 4 13 14 14 31 15 17 16 18 17 30 18 32 19 19 20 29 21 28 22
REMARK SMILES IDX 21 23 20 24 25 25 22 26 23 27 26 28 27 29 8 30 9 31 10 32
REMARK SMILES IDX 24 33
REMARK H PARENT 24 34
REMARK Flexibility Score: inf
ROOT
ATOM      1  C   UNL     1      -6.395  65.178   5.471  1.00  0.00     0.017 C 
ATOM      2  C   UNL     1      -7.064  65.685   4.159  1.00  0.00     0.014 C 
ATOM      3  C   UNL     1      -5.005  65.840   5.593  1.00  0.00     0.014 C 
ATOM      4  C   UNL     1      -7.338  65.492   6.703  1.00  0.00     0.030 C 
ATOM      5  C   UNL     1      -8.552  65.343   4.104  1.00  0.00     0.004 C 
ATOM      6  C   UNL     1      -4.348  65.642   6.968  1.00  0.00     0.013 C 
ATOM      7  C   UNL     1      -6.615  65.709   8.054  1.00  0.00    -0.063 C 
ATOM      8  C   UNL     1      -8.541  66.468   6.460  1.00  0.00    -0.003 C 
ATOM      9  C   UNL     1      -9.351  66.141   5.157  1.00  0.00    -0.011 C 
ATOM     10  C   UNL     1      -5.157  66.272   8.150  1.00  0.00    -0.006 C 
ATOM     11  C   UNL     1      -7.232  65.132   9.125  1.00  0.00    -0.027 C 
ATOM     12  C   UNL     1      -8.185  67.960   6.524  1.00  0.00     0.008 C 
ATOM     13  C   UNL     1     -10.664  65.409   5.476  1.00  0.00     0.008 C 
ATOM     14  C   UNL     1      -5.161  67.817   7.930  1.00  0.00     0.017 C 
ATOM     15  C   UNL     1      -4.484  65.943   9.598  1.00  0.00    -0.020 C 
ATOM     16  C   UNL     1      -6.487  64.547  10.301  1.00  0.00     0.032 C 
ATOM     17  C   UNL     1      -4.972  64.498  10.019  1.00  0.00     0.006 C 
ATOM     18  C   UNL     1      -2.922  66.013   9.584  1.00  0.00     0.008 C 
ATOM     19  C   UNL     1      -4.948  67.014  10.656  1.00  0.00     0.012 C 
ATOM     20  C   UNL     1      -4.129  63.614  11.050  1.00  0.00    -0.025 C 
ATOM     21  C   UNL     1      -2.237  64.641   9.566  1.00  0.00     0.005 C 
ATOM     22  C   UNL     1      -2.559  63.865  10.869  1.00  0.00     0.003 C 
ATOM     23  C   UNL     1      -4.579  62.108  10.830  1.00  0.00     0.010 C 
ATOM     24  C   UNL     1      -4.499  63.977  12.524  1.00  0.00     0.012 C 
ATOM     25  C   UNL     1      -1.554  62.644  11.170  1.00  0.00    -0.006 C 
ATOM     26  C   UNL     1      -3.466  61.095  10.627  1.00  0.00     0.033 C 
ATOM     27  C   UNL     1      -2.331  61.360  11.601  1.00  0.00     0.120 C 
ATOM     28  C   UNL     1      -0.625  62.300   9.961  1.00  0.00     0.014 C 
ATOM     29  C   UNL     1      -0.618  63.035  12.346  1.00  0.00     0.014 C 
ENDROOT
BRANCH   1  30
ATOM     30  C   UNL     1      -6.146  63.665   5.360  1.00  0.00     0.048 C 
ATOM     31  O   UNL     1      -6.196  62.935   6.385  1.00  0.00    -0.550 OA
ATOM     32  O   UNL     1      -5.734  63.095   4.154  1.00  0.00    -0.550 OA
ENDBRANCH   1  30
BRANCH  27  33
ATOM     33  O   UNL     1      -1.486  60.233  11.636  1.00  0.00    -0.393 OA
ATOM     34  H   UNL     1      -1.863  59.592  12.297  1.00  0.00     0.210 HD
ENDBRANCH  27  33
TORSDOF 2
ENDMDL
MODEL 6
REMARK VINA RESULT:    -5.282      6.533     10.948
REMARK INTER + INTRA:          -5.528
REMARK INTER:                  -5.526
REMARK INTRA:                  -0.002
REMARK UNBOUND:                 0.217
REMARK SMILES C[C@H]1[C@H](C)CC[C@@]2(C(=O)[O-])CC[C@@]3(C)C(=CC[C@@H]4[C@@]5(C)CC[C@@H](O)C(C)(C)[C@H]5CC[C@]43C)[C@@H]12
REMARK SMILES IDX 7 1 6 2 11 3 33 4 5 5 12 6 15 7 2 8 3 9 13 10 16 11 1 12
REMARK SMILES IDX 4 13 14 14 31 15 17 16 18 17 30 18 32 19 19 20 29 21 28 22
REMARK SMILES IDX 21 23 20 24 25 25 22 26 23 27 26 28 27 29 8 30 9 31 10 32
REMARK SMILES IDX 24 33
REMARK H PARENT 24 34
REMARK Flexibility Score: inf
ROOT
ATOM      1  C   UNL     1      -5.506  62.757   5.529  1.00  0.00     0.017 C 
ATOM      2  C   UNL     1      -5.746  63.374   4.119  1.00  0.00     0.014 C 
ATOM      3  C   UNL     1      -3.983  62.636   5.752  1.00  0.00     0.014 C 
ATOM      4  C   UNL     1      -6.221  63.646   6.627  1.00  0.00     0.030 C 
ATOM      5  C   UNL     1      -7.193  63.826   3.929  1.00  0.00     0.004 C 
ATOM      6  C   UNL     1      -3.598  62.296   7.200  1.00  0.00     0.013 C 
ATOM      7  C   UNL     1      -5.566  63.626   8.028  1.00  0.00    -0.063 C 
ATOM      8  C   UNL     1      -6.737  65.060   6.184  1.00  0.00    -0.003 C 
ATOM      9  C   UNL     1      -7.526  65.036   4.829  1.00  0.00    -0.011 C 
ATOM     10  C   UNL     1      -4.033  63.384   8.239  1.00  0.00    -0.006 C 
ATOM     11  C   UNL     1      -6.450  63.571   9.065  1.00  0.00    -0.027 C 
ATOM     12  C   UNL     1      -5.670  66.164   6.177  1.00  0.00     0.008 C 
ATOM     13  C   UNL     1      -9.045  65.110   5.056  1.00  0.00     0.008 C 
ATOM     14  C   UNL     1      -3.231  64.681   7.909  1.00  0.00     0.017 C 
ATOM     15  C   UNL     1      -3.707  62.932   9.772  1.00  0.00    -0.020 C 
ATOM     16  C   UNL     1      -6.177  62.833  10.354  1.00  0.00     0.032 C 
ATOM     17  C   UNL     1      -4.889  61.992  10.242  1.00  0.00     0.006 C 
ATOM     18  C   UNL     1      -2.332  62.202   9.922  1.00  0.00     0.008 C 
ATOM     19  C   UNL     1      -3.613  64.206  10.692  1.00  0.00     0.012 C 
ATOM     20  C   UNL     1      -4.678  60.933  11.419  1.00  0.00    -0.025 C 
ATOM     21  C   UNL     1      -2.448  60.681  10.077  1.00  0.00     0.005 C 
ATOM     22  C   UNL     1      -3.194  60.333  11.391  1.00  0.00     0.003 C 
ATOM     23  C   UNL     1      -5.824  59.846  11.262  1.00  0.00     0.010 C 
ATOM     24  C   UNL     1      -4.890  61.603  12.815  1.00  0.00     0.012 C 
ATOM     25  C   UNL     1      -2.978  58.817  11.887  1.00  0.00    -0.006 C 
ATOM     26  C   UNL     1      -5.380  58.393  11.254  1.00  0.00     0.033 C 
ATOM     27  C   UNL     1      -4.326  58.162  12.323  1.00  0.00     0.120 C 
ATOM     28  C   UNL     1      -2.291  57.912  10.813  1.00  0.00     0.014 C 
ATOM     29  C   UNL     1      -2.041  58.817  13.125  1.00  0.00     0.014 C 
ENDROOT
BRANCH   1  30
ATOM     30  C   UNL     1      -6.063  61.324   5.556  1.00  0.00     0.048 C 
ATOM     31  O   UNL     1      -6.252  60.736   6.653  1.00  0.00    -0.550 OA
ATOM     32  O   UNL     1      -6.246  60.606   4.373  1.00  0.00    -0.550 OA
ENDBRANCH   1  30
BRANCH  27  33
ATOM     33  O   UNL     1      -4.183  56.776  12.532  1.00  0.00    -0.393 OA
ATOM     34  H   UNL     1      -4.763  56.523  13.298  1.00  0.00     0.210 HD
ENDBRANCH  27  33
TORSDOF 2
ENDMDL
MODEL 7
REMARK VINA RESULT:    -5.151      5.908     11.921
REMARK INTER + INTRA:          -5.385
REMARK INTER:                  -5.037
REMARK INTRA:                  -0.348
REMARK UNBOUND:                 0.217
REMARK SMILES C[C@H]1[C@H](C)CC[C@@]2(C(=O)[O-])CC[C@@]3(C)C(=CC[C@@H]4[C@@]5(C)CC[C@@H](O)C(C)(C)[C@H]5CC[C@]43C)[C@@H]12
REMARK SMILES IDX 7 1 6 2 11 3 33 4 5 5 12 6 15 7 2 8 3 9 13 10 16 11 1 12
REMARK SMILES IDX 4 13 14 14 31 15 17 16 18 17 30 18 32 19 19 20 29 21 28 22
REMARK SMILES IDX 21 23 20 24 25 25 22 26 23 27 26 28 27 29 8 30 9 31 10 32
REMARK SMILES IDX 24 33
REMARK H PARENT 24 34
REMARK Flexibility Score: inf
ROOT
ATOM      1  C   UNL     1      -4.283  60.039  11.409  1.00  0.00     0.017 C 
ATOM      2  C   UNL     1      -4.023  58.811  12.331  1.00  0.00     0.014 C 
ATOM      3  C   UNL     1      -4.934  61.153  12.259  1.00  0.00     0.014 C 
ATOM      4  C   UNL     1      -2.925  60.493  10.734  1.00  0.00     0.030 C 
ATOM      5  C   UNL     1      -3.103  57.784  11.673  1.00  0.00     0.004 C 
ATOM      6  C   UNL     1      -4.997  62.513  11.546  1.00  0.00     0.013 C 
ATOM      7  C   UNL     1      -2.829  61.997  10.383  1.00  0.00    -0.063 C 
ATOM      8  C   UNL     1      -1.597  59.885  11.305  1.00  0.00    -0.003 C 
ATOM      9  C   UNL     1      -1.668  58.333  11.519  1.00  0.00    -0.011 C 
ATOM     10  C   UNL     1      -3.592  63.102  11.187  1.00  0.00    -0.006 C 
ATOM     11  C   UNL     1      -2.249  62.260   9.176  1.00  0.00    -0.027 C 
ATOM     12  C   UNL     1      -1.053  60.587  12.558  1.00  0.00     0.008 C 
ATOM     13  C   UNL     1      -0.940  57.573  10.398  1.00  0.00     0.008 C 
ATOM     14  C   UNL     1      -2.859  63.393  12.533  1.00  0.00     0.017 C 
ATOM     15  C   UNL     1      -3.709  64.487  10.334  1.00  0.00    -0.020 C 
ATOM     16  C   UNL     1      -2.661  63.408   8.287  1.00  0.00     0.032 C 
ATOM     17  C   UNL     1      -3.940  64.085   8.822  1.00  0.00     0.006 C 
ATOM     18  C   UNL     1      -4.855  65.426  10.834  1.00  0.00     0.008 C 
ATOM     19  C   UNL     1      -2.381  65.320  10.489  1.00  0.00     0.012 C 
ATOM     20  C   UNL     1      -4.640  65.094   7.800  1.00  0.00    -0.025 C 
ATOM     21  C   UNL     1      -6.103  65.414   9.944  1.00  0.00     0.005 C 
ATOM     22  C   UNL     1      -5.762  65.967   8.536  1.00  0.00     0.003 C 
ATOM     23  C   UNL     1      -5.182  64.216   6.594  1.00  0.00     0.010 C 
ATOM     24  C   UNL     1      -3.594  66.084   7.194  1.00  0.00     0.012 C 
ATOM     25  C   UNL     1      -7.047  66.427   7.683  1.00  0.00    -0.006 C 
ATOM     26  C   UNL     1      -6.636  64.426   6.208  1.00  0.00     0.033 C 
ATOM     27  C   UNL     1      -6.971  65.907   6.212  1.00  0.00     0.120 C 
ATOM     28  C   UNL     1      -8.401  65.974   8.318  1.00  0.00     0.014 C 
ATOM     29  C   UNL     1      -7.087  67.978   7.624  1.00  0.00     0.014 C 
ENDROOT
BRANCH   1  30
ATOM     30  C   UNL     1      -5.313  59.657  10.334  1.00  0.00     0.048 C 
ATOM     31  O   UNL     1      -5.009  59.708   9.114  1.00  0.00    -0.550 OA
ATOM     32  O   UNL     1      -6.636  59.374  10.681  1.00  0.00    -0.550 OA
ENDBRANCH   1  30
BRANCH  27  33
ATOM     33  O   UNL     1      -8.190  66.102   5.533  1.00  0.00    -0.393 OA
ATOM     34  H   UNL     1      -8.863  66.407   6.198  1.00  0.00     0.210 HD
ENDBRANCH  27  33
TORSDOF 2
ENDMDL
MODEL 8
REMARK VINA RESULT:    -4.976      2.568      4.150
REMARK INTER + INTRA:          -5.196
REMARK INTER:                  -4.870
REMARK INTRA:                  -0.325
REMARK UNBOUND:                 0.217
REMARK SMILES C[C@H]1[C@H](C)CC[C@@]2(C(=O)[O-])CC[C@@]3(C)C(=CC[C@@H]4[C@@]5(C)CC[C@@H](O)C(C)(C)[C@H]5CC[C@]43C)[C@@H]12
REMARK SMILES IDX 7 1 6 2 11 3 33 4 5 5 12 6 15 7 2 8 3 9 13 10 16 11 1 12
REMARK SMILES IDX 4 13 14 14 31 15 17 16 18 17 30 18 32 19 19 20 29 21 28 22
REMARK SMILES IDX 21 23 20 24 25 25 22 26 23 27 26 28 27 29 8 30 9 31 10 32
REMARK SMILES IDX 24 33
REMARK H PARENT 24 34
REMARK Flexibility Score: inf
ROOT
ATOM      1  C   UNL     1      -1.626  54.854  11.453  1.00  0.00     0.017 C 
ATOM      2  C   UNL     1      -2.944  55.599  11.817  1.00  0.00     0.014 C 
ATOM      3  C   UNL     1      -1.922  53.888  10.284  1.00  0.00     0.014 C 
ATOM      4  C   UNL     1      -0.498  55.909  11.109  1.00  0.00     0.030 C 
ATOM      5  C   UNL     1      -2.694  56.793  12.736  1.00  0.00     0.004 C 
ATOM      6  C   UNL     1      -0.660  53.289   9.646  1.00  0.00     0.013 C 
ATOM      7  C   UNL     1       0.581  55.427  10.111  1.00  0.00    -0.063 C 
ATOM      8  C   UNL     1      -0.944  57.398  10.896  1.00  0.00    -0.003 C 
ATOM      9  C   UNL     1      -1.927  57.915  12.003  1.00  0.00    -0.011 C 
ATOM     10  C   UNL     1       0.289  54.357   9.005  1.00  0.00    -0.006 C 
ATOM     11  C   UNL     1       1.854  55.800  10.429  1.00  0.00    -0.027 C 
ATOM     12  C   UNL     1      -1.481  57.716   9.493  1.00  0.00     0.008 C 
ATOM     13  C   UNL     1      -1.208  58.807  13.028  1.00  0.00     0.008 C 
ATOM     14  C   UNL     1      -0.487  55.006   7.817  1.00  0.00     0.017 C 
ATOM     15  C   UNL     1       1.667  53.691   8.440  1.00  0.00    -0.020 C 
ATOM     16  C   UNL     1       3.067  54.945  10.149  1.00  0.00     0.032 C 
ATOM     17  C   UNL     1       2.649  53.540   9.671  1.00  0.00     0.006 C 
ATOM     18  C   UNL     1       1.445  52.310   7.741  1.00  0.00     0.008 C 
ATOM     19  C   UNL     1       2.297  54.627   7.341  1.00  0.00     0.012 C 
ATOM     20  C   UNL     1       3.828  52.461   9.654  1.00  0.00    -0.025 C 
ATOM     21  C   UNL     1       1.858  51.106   8.595  1.00  0.00     0.005 C 
ATOM     22  C   UNL     1       3.384  51.140   8.867  1.00  0.00     0.003 C 
ATOM     23  C   UNL     1       4.237  52.213  11.167  1.00  0.00     0.010 C 
ATOM     24  C   UNL     1       5.094  53.034   8.939  1.00  0.00     0.012 C 
ATOM     25  C   UNL     1       3.998  49.730   9.342  1.00  0.00    -0.006 C 
ATOM     26  C   UNL     1       4.297  50.764  11.620  1.00  0.00     0.033 C 
ATOM     27  C   UNL     1       4.962  49.909  10.557  1.00  0.00     0.120 C 
ATOM     28  C   UNL     1       2.903  48.676   9.707  1.00  0.00     0.014 C 
ATOM     29  C   UNL     1       4.826  49.119   8.179  1.00  0.00     0.014 C 
ENDROOT
BRANCH   1  30
ATOM     30  C   UNL     1      -1.195  53.977  12.640  1.00  0.00     0.048 C 
ATOM     31  O   UNL     1      -0.034  54.077  13.116  1.00  0.00    -0.550 OA
ATOM     32  O   UNL     1      -2.031  52.970  13.125  1.00  0.00    -0.550 OA
ENDBRANCH   1  30
BRANCH  27  33
ATOM     33  O   UNL     1       5.315  48.668  11.122  1.00  0.00    -0.393 OA
ATOM     34  H   UNL     1       4.581  48.394  11.735  1.00  0.00     0.210 HD
ENDBRANCH  27  33
TORSDOF 2
ENDMDL
MODEL 9
REMARK VINA RESULT:    -4.846      1.670      7.548
REMARK INTER + INTRA:          -5.053
REMARK INTER:                  -4.686
REMARK INTRA:                  -0.367
REMARK UNBOUND:                 0.217
REMARK SMILES C[C@H]1[C@H](C)CC[C@@]2(C(=O)[O-])CC[C@@]3(C)C(=CC[C@@H]4[C@@]5(C)CC[C@@H](O)C(C)(C)[C@H]5CC[C@]43C)[C@@H]12
REMARK SMILES IDX 7 1 6 2 11 3 33 4 5 5 12 6 15 7 2 8 3 9 13 10 16 11 1 12
REMARK SMILES IDX 4 13 14 14 31 15 17 16 18 17 30 18 32 19 19 20 29 21 28 22
REMARK SMILES IDX 21 23 20 24 25 25 22 26 23 27 26 28 27 29 8 30 9 31 10 32
REMARK SMILES IDX 24 33
REMARK H PARENT 24 34
REMARK Flexibility Score: inf
ROOT
ATOM      1  C   UNL     1       2.870  53.173   7.617  1.00  0.00     0.017 C 
ATOM      2  C   UNL     1       3.080  51.933   6.698  1.00  0.00     0.014 C 
ATOM      3  C   UNL     1       1.476  53.060   8.272  1.00  0.00     0.014 C 
ATOM      4  C   UNL     1       4.044  53.255   8.675  1.00  0.00     0.030 C 
ATOM      5  C   UNL     1       4.534  51.786   6.256  1.00  0.00     0.004 C 
ATOM      6  C   UNL     1       1.245  54.071   9.406  1.00  0.00     0.013 C 
ATOM      7  C   UNL     1       3.680  53.927  10.020  1.00  0.00    -0.063 C 
ATOM      8  C   UNL     1       4.972  51.998   8.820  1.00  0.00    -0.003 C 
ATOM      9  C   UNL     1       5.449  51.417   7.444  1.00  0.00    -0.011 C 
ATOM     10  C   UNL     1       2.230  53.901  10.611  1.00  0.00    -0.006 C 
ATOM     11  C   UNL     1       4.642  54.758  10.516  1.00  0.00    -0.027 C 
ATOM     12  C   UNL     1       4.416  50.886   9.722  1.00  0.00     0.008 C 
ATOM     13  C   UNL     1       6.897  51.823   7.129  1.00  0.00     0.008 C 
ATOM     14  C   UNL     1       1.934  52.510  11.253  1.00  0.00     0.017 C 
ATOM     15  C   UNL     1       2.025  55.061  11.738  1.00  0.00    -0.020 C 
ATOM     16  C   UNL     1       4.335  56.017  11.290  1.00  0.00     0.032 C 
ATOM     17  C   UNL     1       2.826  56.334  11.248  1.00  0.00     0.006 C 
ATOM     18  C   UNL     1       0.524  55.421  11.990  1.00  0.00     0.008 C 
ATOM     19  C   UNL     1       2.579  54.559  13.125  1.00  0.00     0.012 C 
ATOM     20  C   UNL     1       2.436  57.797  11.756  1.00  0.00    -0.025 C 
ATOM     21  C   UNL     1       0.082  56.738  11.341  1.00  0.00     0.005 C 
ATOM     22  C   UNL     1       0.855  57.928  11.965  1.00  0.00     0.003 C 
ATOM     23  C   UNL     1       3.041  58.820  10.703  1.00  0.00     0.010 C 
ATOM     24  C   UNL     1       3.122  58.111  13.125  1.00  0.00     0.012 C 
ATOM     25  C   UNL     1       0.170  59.362  11.709  1.00  0.00    -0.006 C 
ATOM     26  C   UNL     1       2.087  59.865  10.153  1.00  0.00     0.033 C 
ATOM     27  C   UNL     1       1.224  60.427  11.270  1.00  0.00     0.120 C 
ATOM     28  C   UNL     1      -0.981  59.313  10.652  1.00  0.00     0.014 C 
ATOM     29  C   UNL     1      -0.471  59.862  13.032  1.00  0.00     0.014 C 
ENDROOT
BRANCH   1  30
ATOM     30  C   UNL     1       2.840  54.444   6.753  1.00  0.00     0.048 C 
ATOM     31  O   UNL     1       1.938  54.606   5.890  1.00  0.00    -0.550 OA
ATOM     32  O   UNL     1       3.879  55.375   6.816  1.00  0.00    -0.550 OA
ENDBRANCH   1  30
BRANCH  27  33
ATOM     33  O   UNL     1       0.606  61.610  10.819  1.00  0.00    -0.393 OA
ATOM     34  H   UNL     1       0.348  62.141  11.619  1.00  0.00     0.210 HD
ENDBRANCH  27  33
TORSDOF 2
ENDMDL
