MODEL 1
REMARK VINA RESULT:    14.813      0.000      0.000
REMARK INTER + INTRA:          17.632
REMARK INTER:                  17.844
REMARK INTRA:                  -0.212
REMARK UNBOUND:                -0.212
REMARK SMILES O=c1c(O)c(-c2ccc(O)cc2O)oc2cc(O)cc(O)c12
REMARK SMILES IDX 5 1 3 2 2 3 1 4 22 5 20 6 19 7 17 8 16 9 15 10 14 11 6 12
REMARK SMILES IDX 8 13 7 14 9 15 11 16 12 17 10 18 13 20 4 22 21 24 18 26
REMARK H PARENT 10 19 13 21 4 23 21 25 18 27
REMARK Flexibility Score: inf
ROOT
ATOM      1  C   UNL     1      28.597  59.097   4.251  1.00  0.00     0.184 A 
ATOM      2  C   UNL     1      27.222  59.344   4.421  1.00  0.00     0.208 A 
ATOM      3  C   UNL     1      26.790  60.667   4.604  1.00  0.00     0.238 A 
ATOM      4  O   UNL     1      25.558  60.903   4.746  1.00  0.00    -0.285 OA
ATOM      5  C   UNL     1      27.737  61.711   4.634  1.00  0.00     0.111 A 
ATOM      6  C   UNL     1      27.385  63.070   4.816  1.00  0.00     0.134 A 
ATOM      7  C   UNL     1      28.388  64.051   4.844  1.00  0.00     0.093 A 
ATOM      8  C   UNL     1      29.731  63.701   4.691  1.00  0.00     0.123 A 
ATOM      9  C   UNL     1      30.085  62.361   4.510  1.00  0.00     0.094 A 
ATOM     10  C   UNL     1      29.101  61.369   4.478  1.00  0.00     0.146 A 
ATOM     11  O   UNL     1      29.464  60.103   4.300  1.00  0.00    -0.451 OA
ENDROOT
BRANCH   1  12
ATOM     12  C   UNL     1      29.118  57.730   4.042  1.00  0.00     0.063 A 
ATOM     13  C   UNL     1      29.000  55.624   2.834  1.00  0.00     0.047 A 
ATOM     14  C   UNL     1      28.534  56.923   3.053  1.00  0.00     0.020 A 
ATOM     15  C   UNL     1      30.045  55.110   3.610  1.00  0.00     0.119 A 
ATOM     16  C   UNL     1      30.617  55.899   4.613  1.00  0.00     0.093 A 
ATOM     17  C   UNL     1      30.152  57.202   4.844  1.00  0.00     0.130 A 
BRANCH  15  18
ATOM     18  O   UNL     1      30.520  53.818   3.397  1.00  0.00    -0.508 OA
ATOM     19  H   UNL     1      30.207  53.039   3.966  1.00  0.00     0.293 HD
ENDBRANCH  15  18
BRANCH  17  20
ATOM     20  O   UNL     1      30.698  57.961   5.879  1.00  0.00    -0.507 OA
ATOM     21  H   UNL     1      30.278  57.982   6.802  1.00  0.00     0.293 HD
ENDBRANCH  17  20
ENDBRANCH   1  12
BRANCH   2  22
ATOM     22  O   UNL     1      26.314  58.283   4.432  1.00  0.00    -0.502 OA
ATOM     23  H   UNL     1      25.379  58.374   4.810  1.00  0.00     0.293 HD
ENDBRANCH   2  22
BRANCH   6  24
ATOM     24  O   UNL     1      26.052  63.452   4.973  1.00  0.00    -0.507 OA
ATOM     25  H   UNL     1      25.289  62.888   4.616  1.00  0.00     0.293 HD
ENDBRANCH   6  24
BRANCH   8  26
ATOM     26  O   UNL     1      30.707  64.695   4.723  1.00  0.00    -0.508 OA
ATOM     27  H   UNL     1      30.511  65.617   5.093  1.00  0.00     0.293 HD
ENDBRANCH   8  26
TORSDOF 6
ENDMDL
MODEL 2
REMARK VINA RESULT:    15.055      3.286      8.936
REMARK INTER + INTRA:          17.923
REMARK INTER:                  18.105
REMARK INTRA:                  -0.182
REMARK UNBOUND:                -0.212
REMARK SMILES O=c1c(O)c(-c2ccc(O)cc2O)oc2cc(O)cc(O)c12
REMARK SMILES IDX 5 1 3 2 2 3 1 4 22 5 20 6 19 7 17 8 16 9 15 10 14 11 6 12
REMARK SMILES IDX 8 13 7 14 9 15 11 16 12 17 10 18 13 20 4 22 21 24 18 26
REMARK H PARENT 10 19 13 21 4 23 21 25 18 27
REMARK Flexibility Score: inf
ROOT
ATOM      1  C   UNL     1      27.607  65.689   5.128  1.00  0.00     0.184 A 
ATOM      2  C   UNL     1      28.970  65.469   4.860  1.00  0.00     0.208 A 
ATOM      3  C   UNL     1      29.414  64.156   4.638  1.00  0.00     0.238 A 
ATOM      4  O   UNL     1      30.633  63.948   4.387  1.00  0.00    -0.285 OA
ATOM      5  C   UNL     1      28.494  63.089   4.707  1.00  0.00     0.111 A 
ATOM      6  C   UNL     1      28.861  61.738   4.499  1.00  0.00     0.134 A 
ATOM      7  C   UNL     1      27.887  60.731   4.593  1.00  0.00     0.093 A 
ATOM      8  C   UNL     1      26.560  61.049   4.890  1.00  0.00     0.123 A 
ATOM      9  C   UNL     1      26.193  62.382   5.096  1.00  0.00     0.094 A 
ATOM     10  C   UNL     1      27.146  63.399   5.005  1.00  0.00     0.146 A 
ATOM     11  O   UNL     1      26.769  64.658   5.201  1.00  0.00    -0.451 OA
ENDROOT
BRANCH   1  12
ATOM     12  C   UNL     1      27.071  67.046   5.360  1.00  0.00     0.063 A 
ATOM     13  C   UNL     1      26.925  69.369   4.658  1.00  0.00     0.047 A 
ATOM     14  C   UNL     1      27.409  68.072   4.464  1.00  0.00     0.020 A 
ATOM     15  C   UNL     1      26.106  69.658   5.757  1.00  0.00     0.119 A 
ATOM     16  C   UNL     1      25.783  68.646   6.666  1.00  0.00     0.093 A 
ATOM     17  C   UNL     1      26.271  67.344   6.483  1.00  0.00     0.130 A 
BRANCH  15  18
ATOM     18  O   UNL     1      25.614  70.945   5.956  1.00  0.00    -0.508 OA
ATOM     19  H   UNL     1      25.920  71.513   6.738  1.00  0.00     0.293 HD
ENDBRANCH  15  18
BRANCH  17  20
ATOM     20  O   UNL     1      25.981  66.355   7.424  1.00  0.00    -0.507 OA
ATOM     21  H   UNL     1      25.750  65.408   7.146  1.00  0.00     0.293 HD
ENDBRANCH  17  20
ENDBRANCH   1  12
BRANCH   2  22
ATOM     22  O   UNL     1      29.864  66.542   4.844  1.00  0.00    -0.502 OA
ATOM     23  H   UNL     1      30.786  66.474   4.431  1.00  0.00     0.293 HD
ENDBRANCH   2  22
BRANCH   6  24
ATOM     24  O   UNL     1      30.178  61.387   4.201  1.00  0.00    -0.507 OA
ATOM     25  H   UNL     1      30.857  61.197   4.929  1.00  0.00     0.293 HD
ENDBRANCH   6  24
BRANCH   8  26
ATOM     26  O   UNL     1      25.614  60.029   4.980  1.00  0.00    -0.508 OA
ATOM     27  H   UNL     1      24.977  59.831   4.218  1.00  0.00     0.293 HD
ENDBRANCH   8  26
TORSDOF 6
ENDMDL
MODEL 3
REMARK VINA RESULT:    16.240      4.381      7.273
REMARK INTER + INTRA:          19.350
REMARK INTER:                  19.730
REMARK INTRA:                  -0.380
REMARK UNBOUND:                -0.212
REMARK SMILES O=c1c(O)c(-c2ccc(O)cc2O)oc2cc(O)cc(O)c12
REMARK SMILES IDX 5 1 3 2 2 3 1 4 22 5 20 6 19 7 17 8 16 9 15 10 14 11 6 12
REMARK SMILES IDX 8 13 7 14 9 15 11 16 12 17 10 18 13 20 4 22 21 24 18 26
REMARK H PARENT 10 19 13 21 4 23 21 25 18 27
REMARK Flexibility Score: inf
ROOT
ATOM      1  C   UNL     1      27.117  66.046   5.278  1.00  0.00     0.184 A 
ATOM      2  C   UNL     1      26.342  66.408   6.396  1.00  0.00     0.208 A 
ATOM      3  C   UNL     1      26.073  67.767   6.622  1.00  0.00     0.238 A 
ATOM      4  O   UNL     1      25.371  68.103   7.614  1.00  0.00    -0.285 OA
ATOM      5  C   UNL     1      26.598  68.736   5.742  1.00  0.00     0.111 A 
ATOM      6  C   UNL     1      26.376  70.125   5.901  1.00  0.00     0.134 A 
ATOM      7  C   UNL     1      26.941  71.028   4.987  1.00  0.00     0.093 A 
ATOM      8  C   UNL     1      27.719  70.571   3.921  1.00  0.00     0.123 A 
ATOM      9  C   UNL     1      27.941  69.200   3.759  1.00  0.00     0.094 A 
ATOM     10  C   UNL     1      27.386  68.284   4.657  1.00  0.00     0.146 A 
ATOM     11  O   UNL     1      27.609  66.987   4.478  1.00  0.00    -0.451 OA
ENDROOT
BRANCH   1  12
ATOM     12  C   UNL     1      27.428  64.634   4.975  1.00  0.00     0.063 A 
ATOM     13  C   UNL     1      26.637  62.419   4.357  1.00  0.00     0.047 A 
ATOM     14  C   UNL     1      26.378  63.763   4.643  1.00  0.00     0.020 A 
ATOM     15  C   UNL     1      27.947  61.927   4.412  1.00  0.00     0.119 A 
ATOM     16  C   UNL     1      28.995  62.783   4.764  1.00  0.00     0.093 A 
ATOM     17  C   UNL     1      28.743  64.131   5.059  1.00  0.00     0.130 A 
BRANCH  15  18
ATOM     18  O   UNL     1      28.216  60.591   4.125  1.00  0.00    -0.508 OA
ATOM     19  H   UNL     1      28.866  60.329   3.393  1.00  0.00     0.293 HD
ENDBRANCH  15  18
BRANCH  17  20
ATOM     20  O   UNL     1      29.791  64.962   5.456  1.00  0.00    -0.507 OA
ATOM     21  H   UNL     1      30.191  65.651   4.829  1.00  0.00     0.293 HD
ENDBRANCH  17  20
ENDBRANCH   1  12
BRANCH   2  22
ATOM     22  O   UNL     1      25.876  65.427   7.273  1.00  0.00    -0.502 OA
ATOM     23  H   UNL     1      26.310  64.515   7.348  1.00  0.00     0.293 HD
ENDBRANCH   2  22
BRANCH   6  24
ATOM     24  O   UNL     1      25.605  70.614   6.955  1.00  0.00    -0.507 OA
ATOM     25  H   UNL     1      25.161  71.525   6.914  1.00  0.00     0.293 HD
ENDBRANCH   6  24
BRANCH   8  26
ATOM     26  O   UNL     1      28.269  71.490   3.029  1.00  0.00    -0.508 OA
ATOM     27  H   UNL     1      29.149  71.953   3.223  1.00  0.00     0.293 HD
ENDBRANCH   8  26
TORSDOF 6
ENDMDL
