MODEL 1
REMARK VINA RESULT:    -5.432      0.000      0.000
REMARK INTER + INTRA:          -6.363
REMARK INTER:                  -6.226
REMARK INTRA:                  -0.136
REMARK UNBOUND:                -0.136
REMARK SMILES O=C([O-])C=Cc1ccc(O)cc1
REMARK SMILES IDX 6 1 7 2 12 3 8 4 11 5 9 6 5 7 4 8 2 9 1 10 3 11 10 12
REMARK H PARENT 10 13
REMARK Flexibility Score: inf
ROOT
ATOM      1  C   UNL     1     -33.646  11.039 -35.554  1.00  0.00    -0.025 A 
ATOM      2  C   UNL     1     -34.084  12.226 -36.165  1.00  0.00     0.012 A 
ATOM      3  C   UNL     1     -33.887   9.812 -36.206  1.00  0.00     0.012 A 
ATOM      4  C   UNL     1     -34.724  12.195 -37.408  1.00  0.00     0.047 A 
ATOM      5  C   UNL     1     -34.529   9.784 -37.448  1.00  0.00     0.047 A 
ATOM      6  C   UNL     1     -34.947  10.973 -38.052  1.00  0.00     0.115 A 
ENDROOT
BRANCH   1   7
ATOM      7  C   UNL     1     -32.979  11.124 -34.231  1.00  0.00     0.010 C 
ATOM      8  C   UNL     1     -33.640  11.224 -33.070  1.00  0.00     0.025 C 
BRANCH   8   9
ATOM      9  C   UNL     1     -32.936  11.296 -31.780  1.00  0.00     0.064 C 
ATOM     10  O   UNL     1     -32.140  10.377 -31.454  1.00  0.00    -0.545 OA
ATOM     11  O   UNL     1     -33.135  12.364 -30.912  1.00  0.00    -0.545 OA
ENDBRANCH   8   9
ENDBRANCH   1   7
BRANCH   6  12
ATOM     12  O   UNL     1     -35.584  10.928 -39.291  1.00  0.00    -0.508 OA
ATOM     13  H   UNL     1     -35.096  10.628 -40.127  1.00  0.00     0.293 HD
ENDBRANCH   6  12
TORSDOF 3
ENDMDL
MODEL 2
REMARK VINA RESULT:    -5.219      1.313      5.757
REMARK INTER + INTRA:          -6.119
REMARK INTER:                  -5.968
REMARK INTRA:                  -0.151
REMARK UNBOUND:                -0.136
REMARK SMILES O=C([O-])C=Cc1ccc(O)cc1
REMARK SMILES IDX 6 1 7 2 12 3 8 4 11 5 9 6 5 7 4 8 2 9 1 10 3 11 10 12
REMARK H PARENT 10 13
REMARK Flexibility Score: inf
ROOT
ATOM      1  C   UNL     1     -33.260  10.312 -34.000  1.00  0.00    -0.025 A 
ATOM      2  C   UNL     1     -33.870  11.469 -33.486  1.00  0.00     0.012 A 
ATOM      3  C   UNL     1     -32.369   9.593 -33.178  1.00  0.00     0.012 A 
ATOM      4  C   UNL     1     -33.617  11.886 -32.175  1.00  0.00     0.047 A 
ATOM      5  C   UNL     1     -32.118  10.013 -31.868  1.00  0.00     0.047 A 
ATOM      6  C   UNL     1     -32.741  11.157 -31.363  1.00  0.00     0.115 A 
ENDROOT
BRANCH   1   7
ATOM      7  C   UNL     1     -33.553   9.917 -35.400  1.00  0.00     0.010 C 
ATOM      8  C   UNL     1     -33.947  10.777 -36.349  1.00  0.00     0.025 C 
BRANCH   8   9
ATOM      9  C   UNL     1     -34.218  10.341 -37.728  1.00  0.00     0.064 C 
ATOM     10  O   UNL     1     -33.558   9.388 -38.219  1.00  0.00    -0.545 OA
ATOM     11  O   UNL     1     -35.191  10.964 -38.500  1.00  0.00    -0.545 OA
ENDBRANCH   8   9
ENDBRANCH   1   7
BRANCH   6  12
ATOM     12  O   UNL     1     -32.481  11.561 -30.055  1.00  0.00    -0.508 OA
ATOM     13  H   UNL     1     -33.227  11.680 -29.379  1.00  0.00     0.293 HD
ENDBRANCH   6  12
TORSDOF 3
ENDMDL
MODEL 3
REMARK VINA RESULT:    -5.194      1.462      5.923
REMARK INTER + INTRA:          -6.090
REMARK INTER:                  -5.950
REMARK INTRA:                  -0.140
REMARK UNBOUND:                -0.136
REMARK SMILES O=C([O-])C=Cc1ccc(O)cc1
REMARK SMILES IDX 6 1 7 2 12 3 8 4 11 5 9 6 5 7 4 8 2 9 1 10 3 11 10 12
REMARK H PARENT 10 13
REMARK Flexibility Score: inf
ROOT
ATOM      1  C   UNL     1     -33.101  10.287 -33.969  1.00  0.00    -0.025 A 
ATOM      2  C   UNL     1     -32.242   9.601 -33.093  1.00  0.00     0.012 A 
ATOM      3  C   UNL     1     -33.788  11.423 -33.495  1.00  0.00     0.012 A 
ATOM      4  C   UNL     1     -32.053  10.051 -31.783  1.00  0.00     0.047 A 
ATOM      5  C   UNL     1     -33.596  11.869 -32.183  1.00  0.00     0.047 A 
ATOM      6  C   UNL     1     -32.729  11.188 -31.326  1.00  0.00     0.115 A 
ENDROOT
BRANCH   1   7
ATOM      7  C   UNL     1     -33.275   9.764 -35.347  1.00  0.00     0.010 C 
ATOM      8  C   UNL     1     -33.635  10.522 -36.390  1.00  0.00     0.025 C 
BRANCH   8   9
ATOM      9  C   UNL     1     -33.786   9.962 -37.743  1.00  0.00     0.064 C 
ATOM     10  O   UNL     1     -32.889   9.212 -38.208  1.00  0.00    -0.545 OA
ATOM     11  O   UNL     1     -34.905  10.248 -38.518  1.00  0.00    -0.545 OA
ENDBRANCH   8   9
ENDBRANCH   1   7
BRANCH   6  12
ATOM     12  O   UNL     1     -32.549  11.647 -30.022  1.00  0.00    -0.508 OA
ATOM     13  H   UNL     1     -31.629  11.693 -29.600  1.00  0.00     0.293 HD
ENDBRANCH   6  12
TORSDOF 3
ENDMDL
MODEL 4
REMARK VINA RESULT:    -5.093      1.310      5.899
REMARK INTER + INTRA:          -5.973
REMARK INTER:                  -5.826
REMARK INTRA:                  -0.147
REMARK UNBOUND:                -0.136
REMARK SMILES O=C([O-])C=Cc1ccc(O)cc1
REMARK SMILES IDX 6 1 7 2 12 3 8 4 11 5 9 6 5 7 4 8 2 9 1 10 3 11 10 12
REMARK H PARENT 10 13
REMARK Flexibility Score: inf
ROOT
ATOM      1  C   UNL     1     -33.509  10.507 -34.837  1.00  0.00    -0.025 A 
ATOM      2  C   UNL     1     -33.085   9.253 -34.364  1.00  0.00     0.012 A 
ATOM      3  C   UNL     1     -33.630  11.572 -33.921  1.00  0.00     0.012 A 
ATOM      4  C   UNL     1     -32.763   9.072 -33.015  1.00  0.00     0.047 A 
ATOM      5  C   UNL     1     -33.309  11.386 -32.573  1.00  0.00     0.047 A 
ATOM      6  C   UNL     1     -32.874  10.139 -32.117  1.00  0.00     0.115 A 
ENDROOT
BRANCH   1   7
ATOM      7  C   UNL     1     -33.846  10.646 -36.275  1.00  0.00     0.010 C 
ATOM      8  C   UNL     1     -34.375   9.662 -37.015  1.00  0.00     0.025 C 
BRANCH   8   9
ATOM      9  C   UNL     1     -34.703   9.849 -38.437  1.00  0.00     0.064 C 
ATOM     10  O   UNL     1     -34.367   8.969 -39.272  1.00  0.00    -0.545 OA
ATOM     11  O   UNL     1     -35.378  10.982 -38.875  1.00  0.00    -0.545 OA
ENDBRANCH   8   9
ENDBRANCH   1   7
BRANCH   6  12
ATOM     12  O   UNL     1     -32.557   9.971 -30.770  1.00  0.00    -0.508 OA
ATOM     13  H   UNL     1     -33.184  10.282 -30.037  1.00  0.00     0.293 HD
ENDBRANCH   6  12
TORSDOF 3
ENDMDL
MODEL 5
REMARK VINA RESULT:    -4.874      2.167      3.135
REMARK INTER + INTRA:          -5.723
REMARK INTER:                  -5.588
REMARK INTRA:                  -0.135
REMARK UNBOUND:                -0.136
REMARK SMILES O=C([O-])C=Cc1ccc(O)cc1
REMARK SMILES IDX 6 1 7 2 12 3 8 4 11 5 9 6 5 7 4 8 2 9 1 10 3 11 10 12
REMARK H PARENT 10 13
REMARK Flexibility Score: inf
ROOT
ATOM      1  C   UNL     1     -33.648  11.157 -33.031  1.00  0.00    -0.025 A 
ATOM      2  C   UNL     1     -34.061   9.815 -32.982  1.00  0.00     0.012 A 
ATOM      3  C   UNL     1     -33.303  11.717 -34.278  1.00  0.00     0.012 A 
ATOM      4  C   UNL     1     -34.153   9.055 -34.152  1.00  0.00     0.047 A 
ATOM      5  C   UNL     1     -33.395  10.952 -35.446  1.00  0.00     0.047 A 
ATOM      6  C   UNL     1     -33.821   9.623 -35.387  1.00  0.00     0.115 A 
ENDROOT
BRANCH   1   7
ATOM      7  C   UNL     1     -33.559  11.919 -31.761  1.00  0.00     0.010 C 
ATOM      8  C   UNL     1     -32.498  11.882 -30.943  1.00  0.00     0.025 C 
BRANCH   8   9
ATOM      9  C   UNL     1     -32.450  12.663 -29.697  1.00  0.00     0.064 C 
ATOM     10  O   UNL     1     -32.504  12.068 -28.588  1.00  0.00    -0.545 OA
ATOM     11  O   UNL     1     -32.346  14.049 -29.721  1.00  0.00    -0.545 OA
ENDBRANCH   8   9
ENDBRANCH   1   7
BRANCH   6  12
ATOM     12  O   UNL     1     -33.907   8.876 -36.561  1.00  0.00    -0.508 OA
ATOM     13  H   UNL     1     -33.115   8.777 -37.185  1.00  0.00     0.293 HD
ENDBRANCH   6  12
TORSDOF 3
ENDMDL
MODEL 6
REMARK VINA RESULT:    -4.562      1.734      5.916
REMARK INTER + INTRA:          -5.365
REMARK INTER:                  -5.231
REMARK INTRA:                  -0.134
REMARK UNBOUND:                -0.136
REMARK SMILES O=C([O-])C=Cc1ccc(O)cc1
REMARK SMILES IDX 6 1 7 2 12 3 8 4 11 5 9 6 5 7 4 8 2 9 1 10 3 11 10 12
REMARK H PARENT 10 13
REMARK Flexibility Score: inf
ROOT
ATOM      1  C   UNL     1     -33.543  10.291 -36.281  1.00  0.00    -0.025 A 
ATOM      2  C   UNL     1     -33.693  11.055 -35.111  1.00  0.00     0.012 A 
ATOM      3  C   UNL     1     -32.582   9.260 -36.301  1.00  0.00     0.012 A 
ATOM      4  C   UNL     1     -32.921  10.781 -33.978  1.00  0.00     0.047 A 
ATOM      5  C   UNL     1     -31.810   8.991 -35.166  1.00  0.00     0.047 A 
ATOM      6  C   UNL     1     -31.978   9.747 -34.003  1.00  0.00     0.115 A 
ENDROOT
BRANCH   1   7
ATOM      7  C   UNL     1     -34.380  10.626 -37.460  1.00  0.00     0.010 C 
ATOM      8  C   UNL     1     -35.197   9.754 -38.065  1.00  0.00     0.025 C 
BRANCH   8   9
ATOM      9  C   UNL     1     -36.017  10.134 -39.227  1.00  0.00     0.064 C 
ATOM     10  O   UNL     1     -37.212  10.491 -39.053  1.00  0.00    -0.545 OA
ATOM     11  O   UNL     1     -35.495  10.104 -40.515  1.00  0.00    -0.545 OA
ENDBRANCH   8   9
ENDBRANCH   1   7
BRANCH   6  12
ATOM     12  O   UNL     1     -31.202   9.464 -32.880  1.00  0.00    -0.508 OA
ATOM     13  H   UNL     1     -31.625   9.233 -31.989  1.00  0.00     0.293 HD
ENDBRANCH   6  12
TORSDOF 3
ENDMDL
MODEL 7
REMARK VINA RESULT:    -3.760     16.477     18.283
REMARK INTER + INTRA:          -4.446
REMARK INTER:                  -4.310
REMARK INTRA:                  -0.136
REMARK UNBOUND:                -0.136
REMARK SMILES O=C([O-])C=Cc1ccc(O)cc1
REMARK SMILES IDX 6 1 7 2 12 3 8 4 11 5 9 6 5 7 4 8 2 9 1 10 3 11 10 12
REMARK H PARENT 10 13
REMARK Flexibility Score: inf
ROOT
ATOM      1  C   UNL     1     -24.011  25.406 -30.998  1.00  0.00    -0.025 A 
ATOM      2  C   UNL     1     -23.888  26.794 -31.183  1.00  0.00     0.012 A 
ATOM      3  C   UNL     1     -23.104  24.753 -30.139  1.00  0.00     0.012 A 
ATOM      4  C   UNL     1     -22.900  27.518 -30.507  1.00  0.00     0.047 A 
ATOM      5  C   UNL     1     -22.116  25.481 -29.467  1.00  0.00     0.047 A 
ATOM      6  C   UNL     1     -22.013  26.862 -29.646  1.00  0.00     0.115 A 
ENDROOT
BRANCH   1   7
ATOM      7  C   UNL     1     -25.070  24.682 -31.744  1.00  0.00     0.010 C 
ATOM      8  C   UNL     1     -26.222  24.276 -31.194  1.00  0.00     0.025 C 
BRANCH   8   9
ATOM      9  C   UNL     1     -27.249  23.569 -31.976  1.00  0.00     0.064 C 
ATOM     10  O   UNL     1     -27.284  23.710 -33.227  1.00  0.00    -0.545 OA
ATOM     11  O   UNL     1     -28.183  22.747 -31.357  1.00  0.00    -0.545 OA
ENDBRANCH   8   9
ENDBRANCH   1   7
BRANCH   6  12
ATOM     12  O   UNL     1     -21.024  27.572 -28.968  1.00  0.00    -0.508 OA
ATOM     13  H   UNL     1     -20.057  27.552 -29.270  1.00  0.00     0.293 HD
ENDBRANCH   6  12
TORSDOF 3
ENDMDL
MODEL 8
REMARK VINA RESULT:    -3.654     19.667     21.238
REMARK INTER + INTRA:          -4.325
REMARK INTER:                  -4.187
REMARK INTRA:                  -0.138
REMARK UNBOUND:                -0.136
REMARK SMILES O=C([O-])C=Cc1ccc(O)cc1
REMARK SMILES IDX 6 1 7 2 12 3 8 4 11 5 9 6 5 7 4 8 2 9 1 10 3 11 10 12
REMARK H PARENT 10 13
REMARK Flexibility Score: inf
ROOT
ATOM      1  C   UNL     1     -26.030  25.356 -22.365  1.00  0.00    -0.025 A 
ATOM      2  C   UNL     1     -26.822  26.242 -23.115  1.00  0.00     0.012 A 
ATOM      3  C   UNL     1     -26.666  24.341 -21.621  1.00  0.00     0.012 A 
ATOM      4  C   UNL     1     -28.214  26.104 -23.144  1.00  0.00     0.047 A 
ATOM      5  C   UNL     1     -28.058  24.207 -21.652  1.00  0.00     0.047 A 
ATOM      6  C   UNL     1     -28.834  25.084 -22.413  1.00  0.00     0.115 A 
ENDROOT
BRANCH   1   7
ATOM      7  C   UNL     1     -24.559  25.550 -22.360  1.00  0.00     0.010 C 
ATOM      8  C   UNL     1     -23.811  25.542 -21.248  1.00  0.00     0.025 C 
BRANCH   8   9
ATOM      9  C   UNL     1     -22.352  25.728 -21.292  1.00  0.00     0.064 C 
ATOM     10  O   UNL     1     -21.877  26.815 -21.714  1.00  0.00    -0.545 OA
ATOM     11  O   UNL     1     -21.487  24.723 -20.875  1.00  0.00    -0.545 OA
ENDBRANCH   8   9
ENDBRANCH   1   7
BRANCH   6  12
ATOM     12  O   UNL     1     -30.220  24.936 -22.433  1.00  0.00    -0.508 OA
ATOM     13  H   UNL     1     -30.779  25.295 -23.199  1.00  0.00     0.293 HD
ENDBRANCH   6  12
TORSDOF 3
ENDMDL
MODEL 9
REMARK VINA RESULT:    -3.443      2.266      3.556
REMARK INTER + INTRA:          -4.083
REMARK INTER:                  -3.947
REMARK INTRA:                  -0.136
REMARK UNBOUND:                -0.136
REMARK SMILES O=C([O-])C=Cc1ccc(O)cc1
REMARK SMILES IDX 6 1 7 2 12 3 8 4 11 5 9 6 5 7 4 8 2 9 1 10 3 11 10 12
REMARK H PARENT 10 13
REMARK Flexibility Score: inf
ROOT
ATOM      1  C   UNL     1     -34.712   9.923 -38.184  1.00  0.00    -0.025 A 
ATOM      2  C   UNL     1     -34.620   8.969 -39.211  1.00  0.00     0.012 A 
ATOM      3  C   UNL     1     -35.815  10.801 -38.168  1.00  0.00     0.012 A 
ATOM      4  C   UNL     1     -35.617   8.875 -40.188  1.00  0.00     0.047 A 
ATOM      5  C   UNL     1     -36.809  10.705 -39.148  1.00  0.00     0.047 A 
ATOM      6  C   UNL     1     -36.715   9.742 -40.156  1.00  0.00     0.115 A 
ENDROOT
BRANCH   1   7
ATOM      7  C   UNL     1     -33.624   9.989 -37.177  1.00  0.00     0.010 C 
ATOM      8  C   UNL     1     -33.835  10.028 -35.854  1.00  0.00     0.025 C 
BRANCH   8   9
ATOM      9  C   UNL     1     -32.724  10.083 -34.891  1.00  0.00     0.064 C 
ATOM     10  O   UNL     1     -32.658  11.037 -34.072  1.00  0.00    -0.545 OA
ATOM     11  O   UNL     1     -31.743   9.098 -34.870  1.00  0.00    -0.545 OA
ENDBRANCH   8   9
ENDBRANCH   1   7
BRANCH   6  12
ATOM     12  O   UNL     1     -37.715   9.659 -41.124  1.00  0.00    -0.508 OA
ATOM     13  H   UNL     1     -37.833   8.829 -41.693  1.00  0.00     0.293 HD
ENDBRANCH   6  12
TORSDOF 3
ENDMDL
