MODEL 1
REMARK VINA RESULT:    -4.101      0.000      0.000
REMARK INTER + INTRA:         -12.390
REMARK INTER:                  -8.895
REMARK INTRA:                  -3.495
REMARK UNBOUND:                -3.495
REMARK SMILES CCCCCCCCCCCCCCCCCCCCCC(=O)[O-]
REMARK SMILES IDX 12 1 11 2 10 3 9 4 8 5 7 6 6 7 5 8 4 9 3 10 2 11 1 12 13 13
REMARK SMILES IDX 14 14 15 15 16 16 17 17 18 18 19 19 20 20 21 21 22 22 23 23
REMARK SMILES IDX 24 24
REMARK H PARENT
REMARK Flexibility Score: inf
ROOT
ATOM      1  C   UNL     1      49.059   0.453  74.085  1.00  0.00     0.000 C 
ENDROOT
BRANCH   1   2
ATOM      2  C   UNL     1      48.800  -0.211  75.449  1.00  0.00     0.000 C 
BRANCH   2   3
ATOM      3  C   UNL     1      48.435  -1.703  75.337  1.00  0.00     0.000 C 
BRANCH   3   4
ATOM      4  C   UNL     1      49.049  -2.536  76.478  1.00  0.00    -0.000 C 
BRANCH   4   5
ATOM      5  C   UNL     1      48.543  -3.994  76.497  1.00  0.00    -0.000 C 
BRANCH   5   6
ATOM      6  C   UNL     1      49.660  -5.050  76.607  1.00  0.00    -0.000 C 
BRANCH   6   7
ATOM      7  C   UNL     1      50.478  -5.014  77.908  1.00  0.00    -0.000 C 
BRANCH   7   8
ATOM      8  C   UNL     1      50.211  -6.225  78.817  1.00  0.00    -0.000 C 
BRANCH   8   9
ATOM      9  C   UNL     1      48.960  -6.004  79.679  1.00  0.00    -0.000 C 
BRANCH   9  10
ATOM     10  C   UNL     1      48.858  -4.553  80.196  1.00  0.00    -0.000 C 
BRANCH  10  11
ATOM     11  C   UNL     1      47.434  -3.976  80.125  1.00  0.00    -0.003 C 
ATOM     12  C   UNL     1      47.410  -2.486  79.790  1.00  0.00     0.004 C 
ENDBRANCH  10  11
ENDBRANCH   9  10
ENDBRANCH   8   9
ENDBRANCH   7   8
ENDBRANCH   6   7
ENDBRANCH   5   6
ENDBRANCH   4   5
ENDBRANCH   3   4
ENDBRANCH   2   3
ENDBRANCH   1   2
BRANCH   1  13
ATOM     13  C   UNL     1      48.728  -0.491  72.915  1.00  0.00     0.000 C 
BRANCH  13  14
ATOM     14  C   UNL     1      49.866  -0.579  71.887  1.00  0.00     0.000 C 
BRANCH  14  15
ATOM     15  C   UNL     1      51.166   0.073  72.390  1.00  0.00     0.000 C 
BRANCH  15  16
ATOM     16  C   UNL     1      52.370  -0.878  72.307  1.00  0.00     0.000 C 
BRANCH  16  17
ATOM     17  C   UNL     1      52.384  -1.916  73.445  1.00  0.00     0.000 C 
BRANCH  17  18
ATOM     18  C   UNL     1      52.098  -3.340  72.939  1.00  0.00     0.000 C 
BRANCH  18  19
ATOM     19  C   UNL     1      50.745  -3.876  73.440  1.00  0.00     0.000 C 
BRANCH  19  20
ATOM     20  C   UNL     1      49.773  -4.203  72.295  1.00  0.00     0.006 C 
BRANCH  20  21
ATOM     21  C   UNL     1      48.302  -4.168  72.738  1.00  0.00     0.053 C 
BRANCH  21  22
ATOM     22  C   UNL     1      47.769  -5.557  72.892  1.00  0.00     0.041 C 
ATOM     23  O   UNL     1      48.504  -6.548  72.642  1.00  0.00    -0.550 OA
ATOM     24  O   UNL     1      46.484  -5.759  73.380  1.00  0.00    -0.550 OA
ENDBRANCH  21  22
ENDBRANCH  20  21
ENDBRANCH  19  20
ENDBRANCH  18  19
ENDBRANCH  17  18
ENDBRANCH  16  17
ENDBRANCH  15  16
ENDBRANCH  14  15
ENDBRANCH  13  14
ENDBRANCH   1  13
TORSDOF 20
ENDMDL
MODEL 2
REMARK VINA RESULT:    -4.073      2.249      5.680
REMARK INTER + INTRA:         -12.330
REMARK INTER:                  -9.013
REMARK INTRA:                  -3.317
REMARK UNBOUND:                -3.495
REMARK SMILES CCCCCCCCCCCCCCCCCCCCCC(=O)[O-]
REMARK SMILES IDX 12 1 11 2 10 3 9 4 8 5 7 6 6 7 5 8 4 9 3 10 2 11 1 12 13 13
REMARK SMILES IDX 14 14 15 15 16 16 17 17 18 18 19 19 20 20 21 21 22 22 23 23
REMARK SMILES IDX 24 24
REMARK H PARENT
REMARK Flexibility Score: inf
ROOT
ATOM      1  C   UNL     1      48.659  -0.227  72.953  1.00  0.00     0.000 C 
ENDROOT
BRANCH   1   2
ATOM      2  C   UNL     1      49.802  -0.539  71.969  1.00  0.00     0.000 C 
BRANCH   2   3
ATOM      3  C   UNL     1      51.152   0.068  72.396  1.00  0.00     0.000 C 
BRANCH   3   4
ATOM      4  C   UNL     1      52.296  -0.960  72.322  1.00  0.00    -0.000 C 
BRANCH   4   5
ATOM      5  C   UNL     1      52.307  -1.933  73.520  1.00  0.00    -0.000 C 
BRANCH   5   6
ATOM      6  C   UNL     1      52.014  -3.400  73.146  1.00  0.00    -0.000 C 
BRANCH   6   7
ATOM      7  C   UNL     1      50.630  -3.924  73.564  1.00  0.00    -0.000 C 
BRANCH   7   8
ATOM      8  C   UNL     1      49.700  -4.178  72.367  1.00  0.00    -0.000 C 
BRANCH   8   9
ATOM      9  C   UNL     1      48.235  -3.914  72.740  1.00  0.00    -0.000 C 
BRANCH   9  10
ATOM     10  C   UNL     1      47.612  -5.088  73.526  1.00  0.00    -0.000 C 
BRANCH  10  11
ATOM     11  C   UNL     1      47.371  -4.771  75.011  1.00  0.00    -0.003 C 
ATOM     12  C   UNL     1      48.236  -5.610  75.950  1.00  0.00     0.004 C 
ENDBRANCH  10  11
ENDBRANCH   9  10
ENDBRANCH   8   9
ENDBRANCH   7   8
ENDBRANCH   6   7
ENDBRANCH   5   6
ENDBRANCH   4   5
ENDBRANCH   3   4
ENDBRANCH   2   3
ENDBRANCH   1   2
BRANCH   1  13
ATOM     13  C   UNL     1      49.136  -0.264  74.416  1.00  0.00     0.000 C 
BRANCH  13  14
ATOM     14  C   UNL     1      48.415  -1.338  75.244  1.00  0.00     0.000 C 
BRANCH  14  15
ATOM     15  C   UNL     1      48.933  -1.414  76.691  1.00  0.00     0.000 C 
BRANCH  15  16
ATOM     16  C   UNL     1      50.044  -2.460  76.863  1.00  0.00     0.000 C 
BRANCH  16  17
ATOM     17  C   UNL     1      50.380  -2.730  78.341  1.00  0.00     0.000 C 
BRANCH  17  18
ATOM     18  C   UNL     1      49.415  -3.740  78.984  1.00  0.00     0.000 C 
BRANCH  18  19
ATOM     19  C   UNL     1      50.154  -4.816  79.798  1.00  0.00     0.000 C 
BRANCH  19  20
ATOM     20  C   UNL     1      50.088  -6.206  79.145  1.00  0.00     0.006 C 
BRANCH  20  21
ATOM     21  C   UNL     1      48.914  -7.050  79.665  1.00  0.00     0.053 C 
BRANCH  21  22
ATOM     22  C   UNL     1      49.034  -8.463  79.192  1.00  0.00     0.041 C 
ATOM     23  O   UNL     1      48.081  -9.269  79.358  1.00  0.00    -0.550 OA
ATOM     24  O   UNL     1      50.170  -8.873  78.505  1.00  0.00    -0.550 OA
ENDBRANCH  21  22
ENDBRANCH  20  21
ENDBRANCH  19  20
ENDBRANCH  18  19
ENDBRANCH  17  18
ENDBRANCH  16  17
ENDBRANCH  15  16
ENDBRANCH  14  15
ENDBRANCH  13  14
ENDBRANCH   1  13
TORSDOF 20
ENDMDL
MODEL 3
REMARK VINA RESULT:    -3.989      7.724     10.191
REMARK INTER + INTRA:         -12.149
REMARK INTER:                 -10.510
REMARK INTRA:                  -1.638
REMARK UNBOUND:                -3.495
REMARK SMILES CCCCCCCCCCCCCCCCCCCCCC(=O)[O-]
REMARK SMILES IDX 12 1 11 2 10 3 9 4 8 5 7 6 6 7 5 8 4 9 3 10 2 11 1 12 13 13
REMARK SMILES IDX 14 14 15 15 16 16 17 17 18 18 19 19 20 20 21 21 22 22 23 23
REMARK SMILES IDX 24 24
REMARK H PARENT
REMARK Flexibility Score: inf
ROOT
ATOM      1  C   UNL     1      54.366  -2.181  82.371  1.00  0.00     0.000 C 
ENDROOT
BRANCH   1   2
ATOM      2  C   UNL     1      55.156  -3.501  82.440  1.00  0.00     0.000 C 
BRANCH   2   3
ATOM      3  C   UNL     1      56.678  -3.291  82.554  1.00  0.00     0.000 C 
BRANCH   3   4
ATOM      4  C   UNL     1      57.080  -2.703  83.920  1.00  0.00    -0.000 C 
BRANCH   4   5
ATOM      5  C   UNL     1      57.102  -1.160  83.927  1.00  0.00    -0.000 C 
BRANCH   5   6
ATOM      6  C   UNL     1      58.443  -0.549  84.380  1.00  0.00    -0.000 C 
BRANCH   6   7
ATOM      7  C   UNL     1      59.703  -1.265  83.866  1.00  0.00    -0.000 C 
BRANCH   7   8
ATOM      8  C   UNL     1      59.819  -1.246  82.333  1.00  0.00    -0.000 C 
BRANCH   8   9
ATOM      9  C   UNL     1      60.241  -2.620  81.794  1.00  0.00    -0.000 C 
BRANCH   9  10
ATOM     10  C   UNL     1      60.777  -3.543  82.908  1.00  0.00    -0.000 C 
BRANCH  10  11
ATOM     11  C   UNL     1      60.011  -4.871  83.026  1.00  0.00    -0.003 C 
ATOM     12  C   UNL     1      59.975  -5.416  84.452  1.00  0.00     0.004 C 
ENDBRANCH  10  11
ENDBRANCH   9  10
ENDBRANCH   8   9
ENDBRANCH   7   8
ENDBRANCH   6   7
ENDBRANCH   5   6
ENDBRANCH   4   5
ENDBRANCH   3   4
ENDBRANCH   2   3
ENDBRANCH   1   2
BRANCH   1  13
ATOM     13  C   UNL     1      52.887  -2.416  82.014  1.00  0.00     0.000 C 
BRANCH  13  14
ATOM     14  C   UNL     1      52.645  -3.793  81.378  1.00  0.00     0.000 C 
BRANCH  14  15
ATOM     15  C   UNL     1      51.292  -3.877  80.650  1.00  0.00     0.000 C 
BRANCH  15  16
ATOM     16  C   UNL     1      51.344  -4.795  79.419  1.00  0.00     0.000 C 
BRANCH  16  17
ATOM     17  C   UNL     1      52.174  -6.068  79.664  1.00  0.00     0.000 C 
BRANCH  17  18
ATOM     18  C   UNL     1      51.550  -7.308  79.003  1.00  0.00     0.000 C 
BRANCH  18  19
ATOM     19  C   UNL     1      50.093  -7.067  78.568  1.00  0.00     0.000 C 
BRANCH  19  20
ATOM     20  C   UNL     1      49.081  -7.855  79.414  1.00  0.00     0.006 C 
BRANCH  20  21
ATOM     21  C   UNL     1      48.471  -9.043  78.653  1.00  0.00     0.053 C 
BRANCH  21  22
ATOM     22  C   UNL     1      48.580 -10.296  79.462  1.00  0.00     0.041 C 
ATOM     23  O   UNL     1      49.512 -11.113  79.238  1.00  0.00    -0.550 OA
ATOM     24  O   UNL     1      47.698 -10.527  80.510  1.00  0.00    -0.550 OA
ENDBRANCH  21  22
ENDBRANCH  20  21
ENDBRANCH  19  20
ENDBRANCH  18  19
ENDBRANCH  17  18
ENDBRANCH  16  17
ENDBRANCH  15  16
ENDBRANCH  14  15
ENDBRANCH  13  14
ENDBRANCH   1  13
TORSDOF 20
ENDMDL
MODEL 4
REMARK VINA RESULT:    -3.977      3.127      5.896
REMARK INTER + INTRA:         -12.122
REMARK INTER:                  -9.272
REMARK INTRA:                  -2.850
REMARK UNBOUND:                -3.495
REMARK SMILES CCCCCCCCCCCCCCCCCCCCCC(=O)[O-]
REMARK SMILES IDX 12 1 11 2 10 3 9 4 8 5 7 6 6 7 5 8 4 9 3 10 2 11 1 12 13 13
REMARK SMILES IDX 14 14 15 15 16 16 17 17 18 18 19 19 20 20 21 21 22 22 23 23
REMARK SMILES IDX 24 24
REMARK H PARENT
REMARK Flexibility Score: inf
ROOT
ATOM      1  C   UNL     1      47.980  -3.208  74.484  1.00  0.00     0.000 C 
ENDROOT
BRANCH   1   2
ATOM      2  C   UNL     1      48.062  -3.953  73.139  1.00  0.00     0.000 C 
BRANCH   2   3
ATOM      3  C   UNL     1      48.144  -5.483  73.298  1.00  0.00     0.000 C 
BRANCH   3   4
ATOM      4  C   UNL     1      47.132  -6.012  74.331  1.00  0.00    -0.000 C 
BRANCH   4   5
ATOM      5  C   UNL     1      45.687  -6.055  73.790  1.00  0.00    -0.000 C 
BRANCH   5   6
ATOM      6  C   UNL     1      44.965  -7.398  74.018  1.00  0.00    -0.000 C 
BRANCH   6   7
ATOM      7  C   UNL     1      45.541  -8.275  75.142  1.00  0.00    -0.000 C 
BRANCH   7   8
ATOM      8  C   UNL     1      46.535  -9.329  74.628  1.00  0.00    -0.000 C 
BRANCH   8   9
ATOM      9  C   UNL     1      45.924 -10.157  73.489  1.00  0.00    -0.000 C 
BRANCH   9  10
ATOM     10  C   UNL     1      46.891 -10.311  72.297  1.00  0.00    -0.000 C 
BRANCH  10  11
ATOM     11  C   UNL     1      47.367  -8.970  71.715  1.00  0.00    -0.003 C 
ATOM     12  C   UNL     1      46.338  -8.319  70.794  1.00  0.00     0.004 C 
ENDBRANCH  10  11
ENDBRANCH   9  10
ENDBRANCH   8   9
ENDBRANCH   7   8
ENDBRANCH   6   7
ENDBRANCH   5   6
ENDBRANCH   4   5
ENDBRANCH   3   4
ENDBRANCH   2   3
ENDBRANCH   1   2
BRANCH   1  13
ATOM     13  C   UNL     1      49.371  -2.783  74.990  1.00  0.00     0.000 C 
BRANCH  13  14
ATOM     14  C   UNL     1      49.389  -1.343  75.524  1.00  0.00     0.000 C 
BRANCH  14  15
ATOM     15  C   UNL     1      48.251  -0.485  74.944  1.00  0.00     0.000 C 
BRANCH  15  16
ATOM     16  C   UNL     1      48.730   0.436  73.811  1.00  0.00     0.000 C 
BRANCH  16  17
ATOM     17  C   UNL     1      48.576  -0.206  72.421  1.00  0.00     0.000 C 
BRANCH  17  18
ATOM     18  C   UNL     1      49.894  -0.808  71.907  1.00  0.00     0.000 C 
BRANCH  18  19
ATOM     19  C   UNL     1      51.116   0.043  72.295  1.00  0.00     0.000 C 
BRANCH  19  20
ATOM     20  C   UNL     1      52.430  -0.752  72.262  1.00  0.00     0.006 C 
BRANCH  20  21
ATOM     21  C   UNL     1      52.588  -1.686  73.472  1.00  0.00     0.053 C 
BRANCH  21  22
ATOM     22  C   UNL     1      52.749  -3.103  73.023  1.00  0.00     0.041 C 
ATOM     23  O   UNL     1      53.857  -3.687  73.156  1.00  0.00    -0.550 OA
ATOM     24  O   UNL     1      51.658  -3.803  72.523  1.00  0.00    -0.550 OA
ENDBRANCH  21  22
ENDBRANCH  20  21
ENDBRANCH  19  20
ENDBRANCH  18  19
ENDBRANCH  17  18
ENDBRANCH  16  17
ENDBRANCH  15  16
ENDBRANCH  14  15
ENDBRANCH  13  14
ENDBRANCH   1  13
TORSDOF 20
ENDMDL
MODEL 5
REMARK VINA RESULT:    -3.896      1.633      3.220
REMARK INTER + INTRA:         -11.946
REMARK INTER:                  -8.692
REMARK INTRA:                  -3.254
REMARK UNBOUND:                -3.495
REMARK SMILES CCCCCCCCCCCCCCCCCCCCCC(=O)[O-]
REMARK SMILES IDX 12 1 11 2 10 3 9 4 8 5 7 6 6 7 5 8 4 9 3 10 2 11 1 12 13 13
REMARK SMILES IDX 14 14 15 15 16 16 17 17 18 18 19 19 20 20 21 21 22 22 23 23
REMARK SMILES IDX 24 24
REMARK H PARENT
REMARK Flexibility Score: inf
ROOT
ATOM      1  C   UNL     1      51.602  -2.771  75.936  1.00  0.00     0.000 C 
ENDROOT
BRANCH   1   2
ATOM      2  C   UNL     1      50.316  -3.618  75.929  1.00  0.00     0.000 C 
BRANCH   2   3
ATOM      3  C   UNL     1      49.084  -2.852  76.447  1.00  0.00     0.000 C 
BRANCH   3   4
ATOM      4  C   UNL     1      47.924  -3.799  76.806  1.00  0.00    -0.000 C 
BRANCH   4   5
ATOM      5  C   UNL     1      47.476  -3.669  78.278  1.00  0.00    -0.000 C 
BRANCH   5   6
ATOM      6  C   UNL     1      48.553  -3.095  79.218  1.00  0.00    -0.000 C 
BRANCH   6   7
ATOM      7  C   UNL     1      49.221  -4.112  80.158  1.00  0.00    -0.000 C 
BRANCH   7   8
ATOM      8  C   UNL     1      50.621  -4.536  79.684  1.00  0.00    -0.000 C 
BRANCH   8   9
ATOM      9  C   UNL     1      50.574  -5.893  78.968  1.00  0.00    -0.000 C 
BRANCH   9  10
ATOM     10  C   UNL     1      49.348  -6.732  79.387  1.00  0.00    -0.000 C 
BRANCH  10  11
ATOM     11  C   UNL     1      49.473  -8.222  79.028  1.00  0.00    -0.003 C 
ATOM     12  C   UNL     1      48.272  -9.049  79.482  1.00  0.00     0.004 C 
ENDBRANCH  10  11
ENDBRANCH   9  10
ENDBRANCH   8   9
ENDBRANCH   7   8
ENDBRANCH   6   7
ENDBRANCH   5   6
ENDBRANCH   4   5
ENDBRANCH   3   4
ENDBRANCH   2   3
ENDBRANCH   1   2
BRANCH   1  13
ATOM     13  C   UNL     1      52.338  -2.835  74.585  1.00  0.00     0.000 C 
BRANCH  13  14
ATOM     14  C   UNL     1      52.093  -1.589  73.721  1.00  0.00     0.000 C 
BRANCH  14  15
ATOM     15  C   UNL     1      51.306  -1.906  72.438  1.00  0.00     0.000 C 
BRANCH  15  16
ATOM     16  C   UNL     1      49.826  -1.509  72.543  1.00  0.00     0.000 C 
BRANCH  16  17
ATOM     17  C   UNL     1      48.892  -2.727  72.657  1.00  0.00     0.000 C 
BRANCH  17  18
ATOM     18  C   UNL     1      49.625  -4.051  72.384  1.00  0.00     0.000 C 
BRANCH  18  19
ATOM     19  C   UNL     1      48.822  -5.273  72.867  1.00  0.00     0.000 C 
BRANCH  19  20
ATOM     20  C   UNL     1      47.303  -5.071  72.749  1.00  0.00     0.006 C 
BRANCH  20  21
ATOM     21  C   UNL     1      46.532  -5.671  73.935  1.00  0.00     0.053 C 
BRANCH  21  22
ATOM     22  C   UNL     1      46.201  -7.105  73.672  1.00  0.00     0.041 C 
ATOM     23  O   UNL     1      45.740  -7.827  74.596  1.00  0.00    -0.550 OA
ATOM     24  O   UNL     1      46.333  -7.627  72.392  1.00  0.00    -0.550 OA
ENDBRANCH  21  22
ENDBRANCH  20  21
ENDBRANCH  19  20
ENDBRANCH  18  19
ENDBRANCH  17  18
ENDBRANCH  16  17
ENDBRANCH  15  16
ENDBRANCH  14  15
ENDBRANCH  13  14
ENDBRANCH   1  13
TORSDOF 20
ENDMDL
MODEL 6
REMARK VINA RESULT:    -3.885      5.471      9.350
REMARK INTER + INTRA:         -11.923
REMARK INTER:                  -8.855
REMARK INTRA:                  -3.068
REMARK UNBOUND:                -3.495
REMARK SMILES CCCCCCCCCCCCCCCCCCCCCC(=O)[O-]
REMARK SMILES IDX 12 1 11 2 10 3 9 4 8 5 7 6 6 7 5 8 4 9 3 10 2 11 1 12 13 13
REMARK SMILES IDX 14 14 15 15 16 16 17 17 18 18 19 19 20 20 21 21 22 22 23 23
REMARK SMILES IDX 24 24
REMARK H PARENT
REMARK Flexibility Score: inf
ROOT
ATOM      1  C   UNL     1      49.303  -3.278  85.762  1.00  0.00     0.000 C 
ENDROOT
BRANCH   1   2
ATOM      2  C   UNL     1      50.510  -3.105  84.823  1.00  0.00     0.000 C 
BRANCH   2   3
ATOM      3  C   UNL     1      50.231  -2.152  83.645  1.00  0.00     0.000 C 
BRANCH   3   4
ATOM      4  C   UNL     1      50.690  -2.745  82.300  1.00  0.00    -0.000 C 
BRANCH   4   5
ATOM      5  C   UNL     1      49.599  -2.678  81.210  1.00  0.00    -0.000 C 
BRANCH   5   6
ATOM      6  C   UNL     1      48.340  -3.511  81.524  1.00  0.00    -0.000 C 
BRANCH   6   7
ATOM      7  C   UNL     1      47.488  -3.904  80.306  1.00  0.00    -0.000 C 
BRANCH   7   8
ATOM      8  C   UNL     1      48.299  -4.624  79.216  1.00  0.00    -0.000 C 
BRANCH   8   9
ATOM      9  C   UNL     1      48.794  -5.991  79.707  1.00  0.00    -0.000 C 
BRANCH   9  10
ATOM     10  C   UNL     1      50.096  -6.427  79.003  1.00  0.00    -0.000 C 
BRANCH  10  11
ATOM     11  C   UNL     1      51.308  -5.550  79.358  1.00  0.00    -0.003 C 
ATOM     12  C   UNL     1      52.606  -6.346  79.484  1.00  0.00     0.004 C 
ENDBRANCH  10  11
ENDBRANCH   9  10
ENDBRANCH   8   9
ENDBRANCH   7   8
ENDBRANCH   6   7
ENDBRANCH   5   6
ENDBRANCH   4   5
ENDBRANCH   3   4
ENDBRANCH   2   3
ENDBRANCH   1   2
BRANCH   1  13
ATOM     13  C   UNL     1      48.006  -3.563  84.983  1.00  0.00     0.000 C 
BRANCH  13  14
ATOM     14  C   UNL     1      46.748  -3.151  85.762  1.00  0.00     0.000 C 
BRANCH  14  15
ATOM     15  C   UNL     1      46.735  -1.652  86.109  1.00  0.00     0.000 C 
BRANCH  15  16
ATOM     16  C   UNL     1      45.597  -0.896  85.405  1.00  0.00     0.000 C 
BRANCH  16  17
ATOM     17  C   UNL     1      46.113   0.124  84.374  1.00  0.00     0.000 C 
BRANCH  17  18
ATOM     18  C   UNL     1      46.922  -0.542  83.248  1.00  0.00     0.000 C 
BRANCH  18  19
ATOM     19  C   UNL     1      47.965   0.410  82.638  1.00  0.00     0.000 C 
BRANCH  19  20
ATOM     20  C   UNL     1      47.582   0.888  81.228  1.00  0.00     0.006 C 
BRANCH  20  21
ATOM     21  C   UNL     1      46.697  -0.121  80.481  1.00  0.00     0.053 C 
BRANCH  21  22
ATOM     22  C   UNL     1      46.988  -0.088  79.014  1.00  0.00     0.041 C 
ATOM     23  O   UNL     1      47.843  -0.871  78.521  1.00  0.00    -0.550 OA
ATOM     24  O   UNL     1      46.266   0.756  78.180  1.00  0.00    -0.550 OA
ENDBRANCH  21  22
ENDBRANCH  20  21
ENDBRANCH  19  20
ENDBRANCH  18  19
ENDBRANCH  17  18
ENDBRANCH  16  17
ENDBRANCH  15  16
ENDBRANCH  14  15
ENDBRANCH  13  14
ENDBRANCH   1  13
TORSDOF 20
ENDMDL
MODEL 7
REMARK VINA RESULT:    -3.843      2.011      4.827
REMARK INTER + INTRA:         -11.831
REMARK INTER:                  -8.404
REMARK INTRA:                  -3.427
REMARK UNBOUND:                -3.495
REMARK SMILES CCCCCCCCCCCCCCCCCCCCCC(=O)[O-]
REMARK SMILES IDX 12 1 11 2 10 3 9 4 8 5 7 6 6 7 5 8 4 9 3 10 2 11 1 12 13 13
REMARK SMILES IDX 14 14 15 15 16 16 17 17 18 18 19 19 20 20 21 21 22 22 23 23
REMARK SMILES IDX 24 24
REMARK H PARENT
REMARK Flexibility Score: inf
ROOT
ATOM      1  C   UNL     1      51.825  -2.846  72.989  1.00  0.00     0.000 C 
ENDROOT
BRANCH   1   2
ATOM      2  C   UNL     1      52.353  -1.415  72.778  1.00  0.00     0.000 C 
BRANCH   2   3
ATOM      3  C   UNL     1      51.258  -0.424  72.340  1.00  0.00     0.000 C 
BRANCH   3   4
ATOM      4  C   UNL     1      49.989  -1.144  71.847  1.00  0.00    -0.000 C 
BRANCH   4   5
ATOM      5  C   UNL     1      48.690  -0.492  72.365  1.00  0.00    -0.000 C 
BRANCH   5   6
ATOM      6  C   UNL     1      48.842   0.237  73.715  1.00  0.00    -0.000 C 
BRANCH   6   7
ATOM      7  C   UNL     1      47.710   1.216  74.068  1.00  0.00    -0.000 C 
BRANCH   7   8
ATOM      8  C   UNL     1      46.899   0.775  75.298  1.00  0.00    -0.000 C 
BRANCH   8   9
ATOM      9  C   UNL     1      47.784   0.024  76.303  1.00  0.00    -0.000 C 
BRANCH   9  10
ATOM     10  C   UNL     1      47.034  -1.141  76.982  1.00  0.00    -0.000 C 
BRANCH  10  11
ATOM     11  C   UNL     1      47.879  -1.886  78.029  1.00  0.00    -0.003 C 
ATOM     12  C   UNL     1      47.323  -3.266  78.375  1.00  0.00     0.004 C 
ENDBRANCH  10  11
ENDBRANCH   9  10
ENDBRANCH   8   9
ENDBRANCH   7   8
ENDBRANCH   6   7
ENDBRANCH   5   6
ENDBRANCH   4   5
ENDBRANCH   3   4
ENDBRANCH   2   3
ENDBRANCH   1   2
BRANCH   1  13
ATOM     13  C   UNL     1      52.385  -3.480  74.276  1.00  0.00     0.000 C 
BRANCH  13  14
ATOM     14  C   UNL     1      51.571  -3.101  75.522  1.00  0.00     0.000 C 
BRANCH  14  15
ATOM     15  C   UNL     1      50.112  -2.745  75.188  1.00  0.00     0.000 C 
BRANCH  15  16
ATOM     16  C   UNL     1      49.191  -3.975  75.200  1.00  0.00     0.000 C 
BRANCH  16  17
ATOM     17  C   UNL     1      47.861  -3.726  74.465  1.00  0.00     0.000 C 
BRANCH  17  18
ATOM     18  C   UNL     1      47.942  -4.089  72.973  1.00  0.00     0.000 C 
BRANCH  18  19
ATOM     19  C   UNL     1      48.939  -5.230  72.703  1.00  0.00     0.000 C 
BRANCH  19  20
ATOM     20  C   UNL     1      48.282  -6.619  72.759  1.00  0.00     0.006 C 
BRANCH  20  21
ATOM     21  C   UNL     1      46.862  -6.626  72.172  1.00  0.00     0.053 C 
BRANCH  21  22
ATOM     22  C   UNL     1      46.479  -8.008  71.746  1.00  0.00     0.041 C 
ATOM     23  O   UNL     1      46.199  -8.244  70.541  1.00  0.00    -0.550 OA
ATOM     24  O   UNL     1      46.501  -9.051  72.664  1.00  0.00    -0.550 OA
ENDBRANCH  21  22
ENDBRANCH  20  21
ENDBRANCH  19  20
ENDBRANCH  18  19
ENDBRANCH  17  18
ENDBRANCH  16  17
ENDBRANCH  15  16
ENDBRANCH  14  15
ENDBRANCH  13  14
ENDBRANCH   1  13
TORSDOF 20
ENDMDL
MODEL 8
REMARK VINA RESULT:    -3.830      2.484      6.375
REMARK INTER + INTRA:         -11.804
REMARK INTER:                  -7.878
REMARK INTRA:                  -3.926
REMARK UNBOUND:                -3.495
REMARK SMILES CCCCCCCCCCCCCCCCCCCCCC(=O)[O-]
REMARK SMILES IDX 12 1 11 2 10 3 9 4 8 5 7 6 6 7 5 8 4 9 3 10 2 11 1 12 13 13
REMARK SMILES IDX 14 14 15 15 16 16 17 17 18 18 19 19 20 20 21 21 22 22 23 23
REMARK SMILES IDX 24 24
REMARK H PARENT
REMARK Flexibility Score: inf
ROOT
ATOM      1  C   UNL     1      48.950  -2.780  78.077  1.00  0.00     0.000 C 
ENDROOT
BRANCH   1   2
ATOM      2  C   UNL     1      49.250  -2.294  76.647  1.00  0.00     0.000 C 
BRANCH   2   3
ATOM      3  C   UNL     1      48.073  -2.504  75.676  1.00  0.00     0.000 C 
BRANCH   3   4
ATOM      4  C   UNL     1      47.561  -3.957  75.694  1.00  0.00    -0.000 C 
BRANCH   4   5
ATOM      5  C   UNL     1      47.450  -4.571  74.282  1.00  0.00    -0.000 C 
BRANCH   5   6
ATOM      6  C   UNL     1      48.187  -3.776  73.186  1.00  0.00    -0.000 C 
BRANCH   6   7
ATOM      7  C   UNL     1      49.426  -4.464  72.591  1.00  0.00    -0.000 C 
BRANCH   7   8
ATOM      8  C   UNL     1      50.558  -3.476  72.262  1.00  0.00    -0.000 C 
BRANCH   8   9
ATOM      9  C   UNL     1      50.040  -2.033  72.226  1.00  0.00    -0.000 C 
BRANCH   9  10
ATOM     10  C   UNL     1      50.692  -1.151  73.313  1.00  0.00    -0.000 C 
BRANCH  10  11
ATOM     11  C   UNL     1      50.132   0.280  73.358  1.00  0.00    -0.003 C 
ATOM     12  C   UNL     1      48.606   0.328  73.300  1.00  0.00     0.004 C 
ENDBRANCH  10  11
ENDBRANCH   9  10
ENDBRANCH   8   9
ENDBRANCH   7   8
ENDBRANCH   6   7
ENDBRANCH   5   6
ENDBRANCH   4   5
ENDBRANCH   3   4
ENDBRANCH   2   3
ENDBRANCH   1   2
BRANCH   1  13
ATOM     13  C   UNL     1      50.216  -2.802  78.953  1.00  0.00     0.000 C 
BRANCH  13  14
ATOM     14  C   UNL     1      50.212  -3.956  79.966  1.00  0.00     0.000 C 
BRANCH  14  15
ATOM     15  C   UNL     1      49.057  -4.945  79.729  1.00  0.00     0.000 C 
BRANCH  15  16
ATOM     16  C   UNL     1      49.552  -6.330  79.286  1.00  0.00     0.000 C 
BRANCH  16  17
ATOM     17  C   UNL     1      49.629  -6.469  77.755  1.00  0.00     0.000 C 
BRANCH  17  18
ATOM     18  C   UNL     1      51.020  -6.114  77.205  1.00  0.00     0.000 C 
BRANCH  18  19
ATOM     19  C   UNL     1      50.947  -5.418  75.835  1.00  0.00     0.000 C 
BRANCH  19  20
ATOM     20  C   UNL     1      52.057  -4.373  75.638  1.00  0.00     0.006 C 
BRANCH  20  21
ATOM     21  C   UNL     1      53.413  -5.008  75.294  1.00  0.00     0.053 C 
BRANCH  21  22
ATOM     22  C   UNL     1      54.161  -4.152  74.322  1.00  0.00     0.041 C 
ATOM     23  O   UNL     1      55.178  -4.604  73.733  1.00  0.00    -0.550 OA
ATOM     24  O   UNL     1      53.695  -2.880  74.013  1.00  0.00    -0.550 OA
ENDBRANCH  21  22
ENDBRANCH  20  21
ENDBRANCH  19  20
ENDBRANCH  18  19
ENDBRANCH  17  18
ENDBRANCH  16  17
ENDBRANCH  15  16
ENDBRANCH  14  15
ENDBRANCH  13  14
ENDBRANCH   1  13
TORSDOF 20
ENDMDL
MODEL 9
REMARK VINA RESULT:    -3.818      3.338      7.112
REMARK INTER + INTRA:         -11.778
REMARK INTER:                  -8.455
REMARK INTRA:                  -3.322
REMARK UNBOUND:                -3.495
REMARK SMILES CCCCCCCCCCCCCCCCCCCCCC(=O)[O-]
REMARK SMILES IDX 12 1 11 2 10 3 9 4 8 5 7 6 6 7 5 8 4 9 3 10 2 11 1 12 13 13
REMARK SMILES IDX 14 14 15 15 16 16 17 17 18 18 19 19 20 20 21 21 22 22 23 23
REMARK SMILES IDX 24 24
REMARK H PARENT
REMARK Flexibility Score: inf
ROOT
ATOM      1  C   UNL     1      48.244  -1.021  75.753  1.00  0.00     0.000 C 
ENDROOT
BRANCH   1   2
ATOM      2  C   UNL     1      49.335  -0.780  74.695  1.00  0.00     0.000 C 
BRANCH   2   3
ATOM      3  C   UNL     1      48.793  -0.147  73.399  1.00  0.00     0.000 C 
BRANCH   3   4
ATOM      4  C   UNL     1      49.732  -0.387  72.202  1.00  0.00    -0.000 C 
BRANCH   4   5
ATOM      5  C   UNL     1      51.196  -0.004  72.500  1.00  0.00    -0.000 C 
BRANCH   5   6
ATOM      6  C   UNL     1      52.218  -1.113  72.180  1.00  0.00    -0.000 C 
BRANCH   6   7
ATOM      7  C   UNL     1      53.061  -1.598  73.370  1.00  0.00    -0.000 C 
BRANCH   7   8
ATOM      8  C   UNL     1      52.430  -2.793  74.104  1.00  0.00    -0.000 C 
BRANCH   8   9
ATOM      9  C   UNL     1      51.702  -3.722  73.123  1.00  0.00    -0.000 C 
BRANCH   9  10
ATOM     10  C   UNL     1      50.310  -4.143  73.641  1.00  0.00    -0.000 C 
BRANCH  10  11
ATOM     11  C   UNL     1      49.173  -3.859  72.646  1.00  0.00    -0.003 C 
ATOM     12  C   UNL     1      47.852  -4.513  73.046  1.00  0.00     0.004 C 
ENDBRANCH  10  11
ENDBRANCH   9  10
ENDBRANCH   8   9
ENDBRANCH   7   8
ENDBRANCH   6   7
ENDBRANCH   5   6
ENDBRANCH   4   5
ENDBRANCH   3   4
ENDBRANCH   2   3
ENDBRANCH   1   2
BRANCH   1  13
ATOM     13  C   UNL     1      48.578  -2.220  76.660  1.00  0.00     0.000 C 
BRANCH  13  14
ATOM     14  C   UNL     1      50.087  -2.370  76.905  1.00  0.00     0.000 C 
BRANCH  14  15
ATOM     15  C   UNL     1      50.479  -3.802  77.311  1.00  0.00     0.000 C 
BRANCH  15  16
ATOM     16  C   UNL     1      50.863  -3.907  78.795  1.00  0.00     0.000 C 
BRANCH  16  17
ATOM     17  C   UNL     1      50.060  -4.988  79.540  1.00  0.00     0.000 C 
BRANCH  17  18
ATOM     18  C   UNL     1      48.602  -5.069  79.056  1.00  0.00     0.000 C 
BRANCH  18  19
ATOM     19  C   UNL     1      47.696  -4.041  79.757  1.00  0.00     0.000 C 
BRANCH  19  20
ATOM     20  C   UNL     1      47.929  -3.980  81.275  1.00  0.00     0.006 C 
BRANCH  20  21
ATOM     21  C   UNL     1      48.302  -2.571  81.761  1.00  0.00     0.053 C 
BRANCH  21  22
ATOM     22  C   UNL     1      49.503  -2.624  82.650  1.00  0.00     0.041 C 
ATOM     23  O   UNL     1      50.659  -2.665  82.151  1.00  0.00    -0.550 OA
ATOM     24  O   UNL     1      49.352  -2.556  84.029  1.00  0.00    -0.550 OA
ENDBRANCH  21  22
ENDBRANCH  20  21
ENDBRANCH  19  20
ENDBRANCH  18  19
ENDBRANCH  17  18
ENDBRANCH  16  17
ENDBRANCH  15  16
ENDBRANCH  14  15
ENDBRANCH  13  14
ENDBRANCH   1  13
TORSDOF 20
ENDMDL
