MODEL 1
REMARK VINA RESULT:    -4.952      0.000      0.000
REMARK INTER + INTRA:          -9.923
REMARK INTER:                  -8.427
REMARK INTRA:                  -1.496
REMARK UNBOUND:                -1.496
REMARK SMILES CCCCCCCCCCCCCC(=O)[O-]
REMARK SMILES IDX 8 1 9 2 10 3 11 4 12 5 13 6 14 7 15 8 16 9 7 10 6 11 5 12
REMARK SMILES IDX 4 13 3 14 2 15 1 16
REMARK H PARENT
REMARK Flexibility Score: inf
ROOT
ATOM      1  C   UNL     1      26.271  13.459  30.166  1.00  0.00     0.000 C 
ENDROOT
BRANCH   1   2
ATOM      2  C   UNL     1      25.001  12.604  30.283  1.00  0.00     0.000 C 
BRANCH   2   3
ATOM      3  C   UNL     1      25.349  11.149  30.618  1.00  0.00     0.000 C 
BRANCH   3   4
ATOM      4  C   UNL     1      24.695  10.715  31.937  1.00  0.00     0.000 C 
BRANCH   4   5
ATOM      5  C   UNL     1      24.354  11.903  32.855  1.00  0.00     0.006 C 
BRANCH   5   6
ATOM      6  C   UNL     1      25.040  11.857  34.229  1.00  0.00     0.053 C 
BRANCH   6   7
ATOM      7  C   UNL     1      24.233  12.552  35.283  1.00  0.00     0.041 C 
ATOM      8  O   UNL     1      24.775  12.917  36.359  1.00  0.00    -0.550 OA
ATOM      9  O   UNL     1      22.890  12.826  35.062  1.00  0.00    -0.550 OA
ENDBRANCH   6   7
ENDBRANCH   5   6
ENDBRANCH   4   5
ENDBRANCH   3   4
ENDBRANCH   2   3
ENDBRANCH   1   2
BRANCH   1  10
ATOM     10  C   UNL     1      27.504  12.645  29.733  1.00  0.00     0.000 C 
BRANCH  10  11
ATOM     11  C   UNL     1      28.731  12.774  30.659  1.00  0.00    -0.000 C 
BRANCH  11  12
ATOM     12  C   UNL     1      28.439  13.367  32.049  1.00  0.00    -0.000 C 
BRANCH  12  13
ATOM     13  C   UNL     1      28.368  12.295  33.150  1.00  0.00    -0.000 C 
BRANCH  13  14
ATOM     14  C   UNL     1      28.250  12.903  34.556  1.00  0.00    -0.000 C 
BRANCH  14  15
ATOM     15  C   UNL     1      27.705  14.338  34.535  1.00  0.00    -0.003 C 
ATOM     16  C   UNL     1      27.758  14.966  35.925  1.00  0.00     0.004 C 
ENDBRANCH  14  15
ENDBRANCH  13  14
ENDBRANCH  12  13
ENDBRANCH  11  12
ENDBRANCH  10  11
ENDBRANCH   1  10
TORSDOF 12
ENDMDL
MODEL 2
REMARK VINA RESULT:    -4.918      1.615      4.142
REMARK INTER + INTRA:          -9.865
REMARK INTER:                  -8.615
REMARK INTRA:                  -1.250
REMARK UNBOUND:                -1.496
REMARK SMILES CCCCCCCCCCCCCC(=O)[O-]
REMARK SMILES IDX 8 1 9 2 10 3 11 4 12 5 13 6 14 7 15 8 16 9 7 10 6 11 5 12
REMARK SMILES IDX 4 13 3 14 2 15 1 16
REMARK H PARENT
REMARK Flexibility Score: inf
ROOT
ATOM      1  C   UNL     1      27.798  12.189  34.894  1.00  0.00     0.000 C 
ENDROOT
BRANCH   1   2
ATOM      2  C   UNL     1      27.564  13.583  35.495  1.00  0.00     0.000 C 
BRANCH   2   3
ATOM      3  C   UNL     1      26.118  13.737  35.978  1.00  0.00     0.000 C 
BRANCH   3   4
ATOM      4  C   UNL     1      25.262  12.536  35.547  1.00  0.00     0.000 C 
BRANCH   4   5
ATOM      5  C   UNL     1      23.779  12.691  35.929  1.00  0.00     0.006 C 
BRANCH   5   6
ATOM      6  C   UNL     1      22.815  12.692  34.732  1.00  0.00     0.053 C 
BRANCH   6   7
ATOM      7  C   UNL     1      21.392  12.890  35.158  1.00  0.00     0.041 C 
ATOM      8  O   UNL     1      20.823  12.034  35.885  1.00  0.00    -0.550 OA
ATOM      9  O   UNL     1      20.706  14.035  34.778  1.00  0.00    -0.550 OA
ENDBRANCH   6   7
ENDBRANCH   5   6
ENDBRANCH   4   5
ENDBRANCH   3   4
ENDBRANCH   2   3
ENDBRANCH   1   2
BRANCH   1  10
ATOM     10  C   UNL     1      28.618  12.229  33.592  1.00  0.00     0.000 C 
BRANCH  10  11
ATOM     11  C   UNL     1      28.220  13.343  32.602  1.00  0.00    -0.000 C 
BRANCH  11  12
ATOM     12  C   UNL     1      28.838  13.217  31.198  1.00  0.00    -0.000 C 
BRANCH  12  13
ATOM     13  C   UNL     1      28.321  11.990  30.428  1.00  0.00    -0.000 C 
BRANCH  13  14
ATOM     14  C   UNL     1      26.790  11.981  30.293  1.00  0.00    -0.000 C 
BRANCH  14  15
ATOM     15  C   UNL     1      26.151  10.735  30.922  1.00  0.00    -0.003 C 
ATOM     16  C   UNL     1      25.379  11.094  32.188  1.00  0.00     0.004 C 
ENDBRANCH  14  15
ENDBRANCH  13  14
ENDBRANCH  12  13
ENDBRANCH  11  12
ENDBRANCH  10  11
ENDBRANCH   1  10
TORSDOF 12
ENDMDL
MODEL 3
REMARK VINA RESULT:    -4.852      2.176      3.246
REMARK INTER + INTRA:          -9.752
REMARK INTER:                  -8.577
REMARK INTRA:                  -1.175
REMARK UNBOUND:                -1.496
REMARK SMILES CCCCCCCCCCCCCC(=O)[O-]
REMARK SMILES IDX 8 1 9 2 10 3 11 4 12 5 13 6 14 7 15 8 16 9 7 10 6 11 5 12
REMARK SMILES IDX 4 13 3 14 2 15 1 16
REMARK H PARENT
REMARK Flexibility Score: inf
ROOT
ATOM      1  C   UNL     1      25.006  12.161  32.121  1.00  0.00     0.000 C 
ENDROOT
BRANCH   1   2
ATOM      2  C   UNL     1      24.052  11.843  33.282  1.00  0.00     0.000 C 
BRANCH   2   3
ATOM      3  C   UNL     1      24.667  12.252  34.625  1.00  0.00     0.000 C 
BRANCH   3   4
ATOM      4  C   UNL     1      23.578  12.652  35.631  1.00  0.00     0.000 C 
BRANCH   4   5
ATOM      5  C   UNL     1      22.168  12.658  35.014  1.00  0.00     0.006 C 
BRANCH   5   6
ATOM      6  C   UNL     1      21.100  11.958  35.870  1.00  0.00     0.053 C 
BRANCH   6   7
ATOM      7  C   UNL     1      19.807  12.715  35.883  1.00  0.00     0.041 C 
ATOM      8  O   UNL     1      18.758  12.172  36.320  1.00  0.00    -0.550 OA
ATOM      9  O   UNL     1      19.767  14.032  35.444  1.00  0.00    -0.550 OA
ENDBRANCH   6   7
ENDBRANCH   5   6
ENDBRANCH   4   5
ENDBRANCH   3   4
ENDBRANCH   2   3
ENDBRANCH   1   2
BRANCH   1  10
ATOM     10  C   UNL     1      25.888  10.964  31.726  1.00  0.00     0.000 C 
BRANCH  10  11
ATOM     11  C   UNL     1      27.246  11.332  31.093  1.00  0.00    -0.000 C 
BRANCH  11  12
ATOM     12  C   UNL     1      27.644  12.812  31.221  1.00  0.00    -0.000 C 
BRANCH  12  13
ATOM     13  C   UNL     1      28.778  13.038  32.236  1.00  0.00    -0.000 C 
BRANCH  13  14
ATOM     14  C   UNL     1      28.288  12.981  33.691  1.00  0.00    -0.000 C 
BRANCH  14  15
ATOM     15  C   UNL     1      27.566  14.266  34.121  1.00  0.00    -0.003 C 
ATOM     16  C   UNL     1      27.716  14.504  35.621  1.00  0.00     0.004 C 
ENDBRANCH  14  15
ENDBRANCH  13  14
ENDBRANCH  12  13
ENDBRANCH  11  12
ENDBRANCH  10  11
ENDBRANCH   1  10
TORSDOF 12
ENDMDL
MODEL 4
REMARK VINA RESULT:    -4.816      2.506      4.622
REMARK INTER + INTRA:          -9.690
REMARK INTER:                  -8.463
REMARK INTRA:                  -1.227
REMARK UNBOUND:                -1.496
REMARK SMILES CCCCCCCCCCCCCC(=O)[O-]
REMARK SMILES IDX 8 1 9 2 10 3 11 4 12 5 13 6 14 7 15 8 16 9 7 10 6 11 5 12
REMARK SMILES IDX 4 13 3 14 2 15 1 16
REMARK H PARENT
REMARK Flexibility Score: inf
ROOT
ATOM      1  C   UNL     1      25.944  13.488  35.960  1.00  0.00     0.000 C 
ENDROOT
BRANCH   1   2
ATOM      2  C   UNL     1      25.464  12.173  35.327  1.00  0.00     0.000 C 
BRANCH   2   3
ATOM      3  C   UNL     1      24.105  12.357  34.643  1.00  0.00     0.000 C 
BRANCH   3   4
ATOM      4  C   UNL     1      23.012  12.691  35.668  1.00  0.00     0.000 C 
BRANCH   4   5
ATOM      5  C   UNL     1      21.600  12.702  35.055  1.00  0.00     0.006 C 
BRANCH   5   6
ATOM      6  C   UNL     1      20.583  11.819  35.795  1.00  0.00     0.053 C 
BRANCH   6   7
ATOM      7  C   UNL     1      19.386  12.598  36.245  1.00  0.00     0.041 C 
ATOM      8  O   UNL     1      18.597  12.113  37.098  1.00  0.00    -0.550 OA
ATOM      9  O   UNL     1      19.159  13.874  35.745  1.00  0.00    -0.550 OA
ENDBRANCH   6   7
ENDBRANCH   5   6
ENDBRANCH   4   5
ENDBRANCH   3   4
ENDBRANCH   2   3
ENDBRANCH   1   2
BRANCH   1  10
ATOM     10  C   UNL     1      27.408  13.818  35.618  1.00  0.00     0.000 C 
BRANCH  10  11
ATOM     11  C   UNL     1      27.685  14.089  34.124  1.00  0.00    -0.000 C 
BRANCH  11  12
ATOM     12  C   UNL     1      28.539  13.022  33.417  1.00  0.00    -0.000 C 
BRANCH  12  13
ATOM     13  C   UNL     1      27.712  12.122  32.484  1.00  0.00    -0.000 C 
BRANCH  13  14
ATOM     14  C   UNL     1      26.618  12.897  31.733  1.00  0.00    -0.000 C 
BRANCH  14  15
ATOM     15  C   UNL     1      25.483  11.988  31.241  1.00  0.00    -0.003 C 
ATOM     16  C   UNL     1      25.725  10.537  31.648  1.00  0.00     0.004 C 
ENDBRANCH  14  15
ENDBRANCH  13  14
ENDBRANCH  12  13
ENDBRANCH  11  12
ENDBRANCH  10  11
ENDBRANCH   1  10
TORSDOF 12
ENDMDL
MODEL 5
REMARK VINA RESULT:    -4.773      2.525      5.413
REMARK INTER + INTRA:          -9.617
REMARK INTER:                  -8.522
REMARK INTRA:                  -1.095
REMARK UNBOUND:                -1.496
REMARK SMILES CCCCCCCCCCCCCC(=O)[O-]
REMARK SMILES IDX 8 1 9 2 10 3 11 4 12 5 13 6 14 7 15 8 16 9 7 10 6 11 5 12
REMARK SMILES IDX 4 13 3 14 2 15 1 16
REMARK H PARENT
REMARK Flexibility Score: inf
ROOT
ATOM      1  C   UNL     1      24.989  12.041  32.057  1.00  0.00     0.000 C 
ENDROOT
BRANCH   1   2
ATOM      2  C   UNL     1      25.926  10.832  31.916  1.00  0.00     0.000 C 
BRANCH   2   3
ATOM      3  C   UNL     1      27.253  11.240  31.266  1.00  0.00     0.000 C 
BRANCH   3   4
ATOM      4  C   UNL     1      27.469  12.757  31.359  1.00  0.00     0.000 C 
BRANCH   4   5
ATOM      5  C   UNL     1      28.466  13.153  32.463  1.00  0.00     0.006 C 
BRANCH   5   6
ATOM      6  C   UNL     1      27.834  13.909  33.643  1.00  0.00     0.053 C 
BRANCH   6   7
ATOM      7  C   UNL     1      27.815  13.082  34.892  1.00  0.00     0.041 C 
ATOM      8  O   UNL     1      27.619  13.627  36.011  1.00  0.00    -0.550 OA
ATOM      9  O   UNL     1      27.981  11.706  34.818  1.00  0.00    -0.550 OA
ENDBRANCH   6   7
ENDBRANCH   5   6
ENDBRANCH   4   5
ENDBRANCH   3   4
ENDBRANCH   2   3
ENDBRANCH   1   2
BRANCH   1  10
ATOM     10  C   UNL     1      23.922  11.847  33.149  1.00  0.00     0.000 C 
BRANCH  10  11
ATOM     11  C   UNL     1      24.357  12.261  34.570  1.00  0.00    -0.000 C 
BRANCH  11  12
ATOM     12  C   UNL     1      23.207  12.642  35.518  1.00  0.00    -0.000 C 
BRANCH  12  13
ATOM     13  C   UNL     1      21.956  13.131  34.770  1.00  0.00    -0.000 C 
BRANCH  13  14
ATOM     14  C   UNL     1      20.683  13.038  35.626  1.00  0.00    -0.000 C 
BRANCH  14  15
ATOM     15  C   UNL     1      20.245  11.588  35.876  1.00  0.00    -0.003 C 
ATOM     16  C   UNL     1      18.893  11.536  36.582  1.00  0.00     0.004 C 
ENDBRANCH  14  15
ENDBRANCH  13  14
ENDBRANCH  12  13
ENDBRANCH  11  12
ENDBRANCH  10  11
ENDBRANCH   1  10
TORSDOF 12
ENDMDL
MODEL 6
REMARK VINA RESULT:    -4.697      1.736      4.367
REMARK INTER + INTRA:          -9.488
REMARK INTER:                  -8.271
REMARK INTRA:                  -1.217
REMARK UNBOUND:                -1.496
REMARK SMILES CCCCCCCCCCCCCC(=O)[O-]
REMARK SMILES IDX 8 1 9 2 10 3 11 4 12 5 13 6 14 7 15 8 16 9 7 10 6 11 5 12
REMARK SMILES IDX 4 13 3 14 2 15 1 16
REMARK H PARENT
REMARK Flexibility Score: inf
ROOT
ATOM      1  C   UNL     1      26.578  10.769  30.658  1.00  0.00     0.000 C 
ENDROOT
BRANCH   1   2
ATOM      2  C   UNL     1      27.619  11.579  29.870  1.00  0.00     0.000 C 
BRANCH   2   3
ATOM      3  C   UNL     1      27.658  13.035  30.349  1.00  0.00     0.000 C 
BRANCH   3   4
ATOM      4  C   UNL     1      28.837  13.269  31.304  1.00  0.00     0.000 C 
BRANCH   4   5
ATOM      5  C   UNL     1      28.502  12.916  32.765  1.00  0.00     0.006 C 
BRANCH   5   6
ATOM      6  C   UNL     1      27.620  13.952  33.480  1.00  0.00     0.053 C 
BRANCH   6   7
ATOM      7  C   UNL     1      27.780  13.894  34.968  1.00  0.00     0.041 C 
ATOM      8  O   UNL     1      27.897  12.784  35.551  1.00  0.00    -0.550 OA
ATOM      9  O   UNL     1      27.834  15.068  35.708  1.00  0.00    -0.550 OA
ENDBRANCH   6   7
ENDBRANCH   5   6
ENDBRANCH   4   5
ENDBRANCH   3   4
ENDBRANCH   2   3
ENDBRANCH   1   2
BRANCH   1  10
ATOM     10  C   UNL     1      25.361  11.610  31.082  1.00  0.00     0.000 C 
BRANCH  10  11
ATOM     11  C   UNL     1      24.659  11.142  32.373  1.00  0.00    -0.000 C 
BRANCH  11  12
ATOM     12  C   UNL     1      24.207  12.271  33.315  1.00  0.00    -0.000 C 
BRANCH  12  13
ATOM     13  C   UNL     1      24.646  12.043  34.771  1.00  0.00    -0.000 C 
BRANCH  13  14
ATOM     14  C   UNL     1      23.636  12.602  35.786  1.00  0.00    -0.000 C 
BRANCH  14  15
ATOM     15  C   UNL     1      22.326  13.054  35.126  1.00  0.00    -0.003 C 
ATOM     16  C   UNL     1      21.134  12.283  35.685  1.00  0.00     0.004 C 
ENDBRANCH  14  15
ENDBRANCH  13  14
ENDBRANCH  12  13
ENDBRANCH  11  12
ENDBRANCH  10  11
ENDBRANCH   1  10
TORSDOF 12
ENDMDL
MODEL 7
REMARK VINA RESULT:    -4.649      1.730      3.037
REMARK INTER + INTRA:          -9.406
REMARK INTER:                  -8.053
REMARK INTRA:                  -1.353
REMARK UNBOUND:                -1.496
REMARK SMILES CCCCCCCCCCCCCC(=O)[O-]
REMARK SMILES IDX 8 1 9 2 10 3 11 4 12 5 13 6 14 7 15 8 16 9 7 10 6 11 5 12
REMARK SMILES IDX 4 13 3 14 2 15 1 16
REMARK H PARENT
REMARK Flexibility Score: inf
ROOT
ATOM      1  C   UNL     1      29.247  12.637  30.360  1.00  0.00     0.000 C 
ENDROOT
BRANCH   1   2
ATOM      2  C   UNL     1      28.395  11.577  29.649  1.00  0.00     0.000 C 
BRANCH   2   3
ATOM      3  C   UNL     1      26.922  12.000  29.597  1.00  0.00     0.000 C 
BRANCH   3   4
ATOM      4  C   UNL     1      25.999  10.828  29.959  1.00  0.00     0.000 C 
BRANCH   4   5
ATOM      5  C   UNL     1      25.661  10.775  31.460  1.00  0.00     0.006 C 
BRANCH   5   6
ATOM      6  C   UNL     1      24.567  11.761  31.897  1.00  0.00     0.053 C 
BRANCH   6   7
ATOM      7  C   UNL     1      23.217  11.114  31.953  1.00  0.00     0.041 C 
ATOM      8  O   UNL     1      22.348  11.528  32.764  1.00  0.00    -0.550 OA
ATOM      9  O   UNL     1      22.908  10.073  31.087  1.00  0.00    -0.550 OA
ENDBRANCH   6   7
ENDBRANCH   5   6
ENDBRANCH   4   5
ENDBRANCH   3   4
ENDBRANCH   2   3
ENDBRANCH   1   2
BRANCH   1  10
ATOM     10  C   UNL     1      28.434  13.496  31.346  1.00  0.00     0.000 C 
BRANCH  10  11
ATOM     11  C   UNL     1      28.368  12.950  32.788  1.00  0.00    -0.000 C 
BRANCH  11  12
ATOM     12  C   UNL     1      27.898  13.963  33.847  1.00  0.00    -0.000 C 
BRANCH  12  13
ATOM     13  C   UNL     1      27.428  13.290  35.147  1.00  0.00    -0.000 C 
BRANCH  13  14
ATOM     14  C   UNL     1      26.831  11.894  34.906  1.00  0.00    -0.000 C 
BRANCH  14  15
ATOM     15  C   UNL     1      25.349  11.811  35.301  1.00  0.00    -0.003 C 
ATOM     16  C   UNL     1      24.966  12.950  36.241  1.00  0.00     0.004 C 
ENDBRANCH  14  15
ENDBRANCH  13  14
ENDBRANCH  12  13
ENDBRANCH  11  12
ENDBRANCH  10  11
ENDBRANCH   1  10
TORSDOF 12
ENDMDL
MODEL 8
REMARK VINA RESULT:    -4.628      1.210      4.054
REMARK INTER + INTRA:          -9.371
REMARK INTER:                  -8.060
REMARK INTRA:                  -1.311
REMARK UNBOUND:                -1.496
REMARK SMILES CCCCCCCCCCCCCC(=O)[O-]
REMARK SMILES IDX 8 1 9 2 10 3 11 4 12 5 13 6 14 7 15 8 16 9 7 10 6 11 5 12
REMARK SMILES IDX 4 13 3 14 2 15 1 16
REMARK H PARENT
REMARK Flexibility Score: inf
ROOT
ATOM      1  C   UNL     1      28.735  12.983  32.571  1.00  0.00     0.000 C 
ENDROOT
BRANCH   1   2
ATOM      2  C   UNL     1      27.885  13.967  33.388  1.00  0.00     0.000 C 
BRANCH   2   3
ATOM      3  C   UNL     1      27.673  13.455  34.816  1.00  0.00     0.000 C 
BRANCH   3   4
ATOM      4  C   UNL     1      27.715  11.921  34.863  1.00  0.00     0.000 C 
BRANCH   4   5
ATOM      5  C   UNL     1      26.352  11.295  35.211  1.00  0.00     0.006 C 
BRANCH   5   6
ATOM      6  C   UNL     1      25.143  12.082  34.682  1.00  0.00     0.053 C 
BRANCH   6   7
ATOM      7  C   UNL     1      24.309  12.642  35.793  1.00  0.00     0.041 C 
ATOM      8  O   UNL     1      24.859  13.172  36.794  1.00  0.00    -0.550 OA
ATOM      9  O   UNL     1      22.923  12.609  35.707  1.00  0.00    -0.550 OA
ENDBRANCH   6   7
ENDBRANCH   5   6
ENDBRANCH   4   5
ENDBRANCH   3   4
ENDBRANCH   2   3
ENDBRANCH   1   2
BRANCH   1  10
ATOM     10  C   UNL     1      28.383  12.989  31.072  1.00  0.00     0.000 C 
BRANCH  10  11
ATOM     11  C   UNL     1      26.875  12.941  30.754  1.00  0.00    -0.000 C 
BRANCH  11  12
ATOM     12  C   UNL     1      26.361  11.585  30.238  1.00  0.00    -0.000 C 
BRANCH  12  13
ATOM     13  C   UNL     1      25.777  10.706  31.356  1.00  0.00    -0.000 C 
BRANCH  13  14
ATOM     14  C   UNL     1      24.328  10.281  31.076  1.00  0.00    -0.000 C 
BRANCH  14  15
ATOM     15  C   UNL     1      23.305  11.134  31.840  1.00  0.00    -0.003 C 
ATOM     16  C   UNL     1      21.928  11.058  31.186  1.00  0.00     0.004 C 
ENDBRANCH  14  15
ENDBRANCH  13  14
ENDBRANCH  12  13
ENDBRANCH  11  12
ENDBRANCH  10  11
ENDBRANCH   1  10
TORSDOF 12
ENDMDL
MODEL 9
REMARK VINA RESULT:    -4.621      3.331      6.261
REMARK INTER + INTRA:          -9.359
REMARK INTER:                  -8.288
REMARK INTRA:                  -1.071
REMARK UNBOUND:                -1.496
REMARK SMILES CCCCCCCCCCCCCC(=O)[O-]
REMARK SMILES IDX 8 1 9 2 10 3 11 4 12 5 13 6 14 7 15 8 16 9 7 10 6 11 5 12
REMARK SMILES IDX 4 13 3 14 2 15 1 16
REMARK H PARENT
REMARK Flexibility Score: inf
ROOT
ATOM      1  C   UNL     1      26.044  13.393  35.964  1.00  0.00     0.000 C 
ENDROOT
BRANCH   1   2
ATOM      2  C   UNL     1      27.402  13.142  35.291  1.00  0.00     0.000 C 
BRANCH   2   3
ATOM      3  C   UNL     1      27.717  14.235  34.265  1.00  0.00     0.000 C 
BRANCH   3   4
ATOM      4  C   UNL     1      28.088  13.625  32.905  1.00  0.00     0.000 C 
BRANCH   4   5
ATOM      5  C   UNL     1      27.992  12.089  32.893  1.00  0.00     0.006 C 
BRANCH   5   6
ATOM      6  C   UNL     1      27.200  11.515  31.707  1.00  0.00     0.053 C 
BRANCH   6   7
ATOM      7  C   UNL     1      27.695  12.042  30.395  1.00  0.00     0.041 C 
ATOM      8  O   UNL     1      28.875  11.814  30.023  1.00  0.00    -0.550 OA
ATOM      9  O   UNL     1      26.840  12.759  29.568  1.00  0.00    -0.550 OA
ENDBRANCH   6   7
ENDBRANCH   5   6
ENDBRANCH   4   5
ENDBRANCH   3   4
ENDBRANCH   2   3
ENDBRANCH   1   2
BRANCH   1  10
ATOM     10  C   UNL     1      25.014  12.289  35.664  1.00  0.00     0.000 C 
BRANCH  10  11
ATOM     11  C   UNL     1      24.501  12.250  34.210  1.00  0.00    -0.000 C 
BRANCH  11  12
ATOM     12  C   UNL     1      22.972  12.336  34.057  1.00  0.00    -0.000 C 
BRANCH  12  13
ATOM     13  C   UNL     1      22.264  12.722  35.367  1.00  0.00    -0.000 C 
BRANCH  13  14
ATOM     14  C   UNL     1      20.873  13.329  35.128  1.00  0.00    -0.000 C 
BRANCH  14  15
ATOM     15  C   UNL     1      19.781  12.651  35.967  1.00  0.00    -0.003 C 
ATOM     16  C   UNL     1      19.910  11.132  35.913  1.00  0.00     0.004 C 
ENDBRANCH  14  15
ENDBRANCH  13  14
ENDBRANCH  12  13
ENDBRANCH  11  12
ENDBRANCH  10  11
ENDBRANCH   1  10
TORSDOF 12
ENDMDL
