MODEL 1
REMARK VINA RESULT:    -5.225      0.000      0.000
REMARK INTER + INTRA:          -5.225
REMARK INTER:                  -5.225
REMARK INTRA:                   0.000
REMARK UNBOUND:                 0.000
REMARK SMILES C=C1CC[C@@H]2C[C@H]1C2(C)C
REMARK SMILES IDX 9 1 8 2 5 3 4 4 3 5 2 6 1 7 7 8 6 9 10 10
REMARK H PARENT
REMARK Flexibility Score: inf
ROOT
ATOM      1  C   UNL     1       5.116   6.742  13.615  1.00  0.00     0.012 C 
ATOM      2  C   UNL     1       5.987   6.436  12.365  1.00  0.00    -0.026 C 
ATOM      3  C   UNL     1       7.141   5.411  12.496  1.00  0.00    -0.004 C 
ATOM      4  C   UNL     1       7.831   5.515  13.894  1.00  0.00     0.008 C 
ATOM      5  C   UNL     1       8.253   6.991  14.250  1.00  0.00     0.031 C 
ATOM      6  C   UNL     1       7.741   8.010  13.222  1.00  0.00    -0.074 C 
ATOM      7  C   UNL     1       7.875   9.325  13.419  1.00  0.00     0.008 C 
ATOM      8  C   UNL     1       7.080   7.455  11.964  1.00  0.00     0.021 C 
ATOM      9  C   UNL     1       7.969   6.278  11.533  1.00  0.00     0.012 C 
ATOM     10  C   UNL     1       5.043   6.101  11.183  1.00  0.00     0.012 C 
ENDROOT
TORSDOF 0
ENDMDL
MODEL 2
REMARK VINA RESULT:    -5.161     15.148     16.856
REMARK INTER + INTRA:          -5.161
REMARK INTER:                  -5.161
REMARK INTRA:                   0.000
REMARK UNBOUND:                 0.000
REMARK SMILES C=C1CC[C@@H]2C[C@H]1C2(C)C
REMARK SMILES IDX 9 1 8 2 5 3 4 4 3 5 2 6 1 7 7 8 6 9 10 10
REMARK H PARENT
REMARK Flexibility Score: inf
ROOT
ATOM      1  C   UNL     1      11.975   5.565  28.116  1.00  0.00     0.012 C 
ATOM      2  C   UNL     1      11.193   4.972  29.320  1.00  0.00    -0.026 C 
ATOM      3  C   UNL     1      10.094   3.915  29.045  1.00  0.00    -0.004 C 
ATOM      4  C   UNL     1       9.324   4.235  27.724  1.00  0.00     0.008 C 
ATOM      5  C   UNL     1       8.799   5.720  27.676  1.00  0.00     0.031 C 
ATOM      6  C   UNL     1       9.307   6.558  28.858  1.00  0.00    -0.074 C 
ATOM      7  C   UNL     1       9.088   7.876  28.923  1.00  0.00     0.008 C 
ATOM      8  C   UNL     1      10.068   5.821  29.956  1.00  0.00     0.021 C 
ATOM      9  C   UNL     1       9.272   4.528  30.191  1.00  0.00     0.012 C 
ATOM     10  C   UNL     1      12.218   4.482  30.374  1.00  0.00     0.012 C 
ENDROOT
TORSDOF 0
ENDMDL
MODEL 3
REMARK VINA RESULT:    -4.948     14.761     16.074
REMARK INTER + INTRA:          -4.948
REMARK INTER:                  -4.948
REMARK INTRA:                   0.000
REMARK UNBOUND:                 0.000
REMARK SMILES C=C1CC[C@@H]2C[C@H]1C2(C)C
REMARK SMILES IDX 9 1 8 2 5 3 4 4 3 5 2 6 1 7 7 8 6 9 10 10
REMARK H PARENT
REMARK Flexibility Score: inf
ROOT
ATOM      1  C   UNL     1      12.217   5.623  28.117  1.00  0.00     0.012 C 
ATOM      2  C   UNL     1      10.884   6.348  27.785  1.00  0.00    -0.026 C 
ATOM      3  C   UNL     1       9.929   6.717  28.948  1.00  0.00    -0.004 C 
ATOM      4  C   UNL     1       9.939   5.614  30.055  1.00  0.00     0.008 C 
ATOM      5  C   UNL     1       9.695   4.171  29.472  1.00  0.00     0.031 C 
ATOM      6  C   UNL     1       9.673   4.157  27.936  1.00  0.00    -0.074 C 
ATOM      7  C   UNL     1       9.620   3.010  27.251  1.00  0.00     0.008 C 
ATOM      8  C   UNL     1       9.710   5.508  27.230  1.00  0.00     0.021 C 
ATOM      9  C   UNL     1       8.742   6.399  28.024  1.00  0.00     0.012 C 
ATOM     10  C   UNL     1      11.202   7.569  26.886  1.00  0.00     0.012 C 
ENDROOT
TORSDOF 0
ENDMDL
MODEL 4
REMARK VINA RESULT:    -4.811      1.322      2.641
REMARK INTER + INTRA:          -4.811
REMARK INTER:                  -4.811
REMARK INTRA:                   0.000
REMARK UNBOUND:                 0.000
REMARK SMILES C=C1CC[C@@H]2C[C@H]1C2(C)C
REMARK SMILES IDX 9 1 8 2 5 3 4 4 3 5 2 6 1 7 7 8 6 9 10 10
REMARK H PARENT
REMARK Flexibility Score: inf
ROOT
ATOM      1  C   UNL     1       6.268   6.969  11.914  1.00  0.00     0.012 C 
ATOM      2  C   UNL     1       7.460   7.546  12.727  1.00  0.00    -0.026 C 
ATOM      3  C   UNL     1       8.318   6.576  13.577  1.00  0.00    -0.004 C 
ATOM      4  C   UNL     1       7.436   5.455  14.215  1.00  0.00     0.008 C 
ATOM      5  C   UNL     1       6.188   6.033  14.984  1.00  0.00     0.031 C 
ATOM      6  C   UNL     1       6.031   7.548  14.788  1.00  0.00    -0.074 C 
ATOM      7  C   UNL     1       4.957   8.201  15.243  1.00  0.00     0.008 C 
ATOM      8  C   UNL     1       7.157   8.274  14.058  1.00  0.00     0.021 C 
ATOM      9  C   UNL     1       8.452   7.683  14.636  1.00  0.00     0.012 C 
ATOM     10  C   UNL     1       8.327   8.408  11.777  1.00  0.00     0.012 C 
ENDROOT
TORSDOF 0
ENDMDL
MODEL 5
REMARK VINA RESULT:    -4.796      0.956      3.194
REMARK INTER + INTRA:          -4.796
REMARK INTER:                  -4.796
REMARK INTRA:                   0.000
REMARK UNBOUND:                 0.000
REMARK SMILES C=C1CC[C@@H]2C[C@H]1C2(C)C
REMARK SMILES IDX 9 1 8 2 5 3 4 4 3 5 2 6 1 7 7 8 6 9 10 10
REMARK H PARENT
REMARK Flexibility Score: inf
ROOT
ATOM      1  C   UNL     1       8.171   8.269  12.549  1.00  0.00     0.012 C 
ATOM      2  C   UNL     1       7.199   7.893  13.701  1.00  0.00    -0.026 C 
ATOM      3  C   UNL     1       7.470   6.599  14.510  1.00  0.00    -0.004 C 
ATOM      4  C   UNL     1       8.031   5.468  13.590  1.00  0.00     0.008 C 
ATOM      5  C   UNL     1       7.144   5.237  12.308  1.00  0.00     0.031 C 
ATOM      6  C   UNL     1       6.031   6.287  12.170  1.00  0.00    -0.074 C 
ATOM      7  C   UNL     1       5.262   6.347  11.078  1.00  0.00     0.008 C 
ATOM      8  C   UNL     1       5.839   7.252  13.336  1.00  0.00     0.021 C 
ATOM      9  C   UNL     1       5.950   6.380  14.596  1.00  0.00     0.012 C 
ATOM     10  C   UNL     1       7.030   9.128  14.621  1.00  0.00     0.012 C 
ENDROOT
TORSDOF 0
ENDMDL
MODEL 6
REMARK VINA RESULT:    -4.732      1.200      2.848
REMARK INTER + INTRA:          -4.732
REMARK INTER:                  -4.732
REMARK INTRA:                   0.000
REMARK UNBOUND:                 0.000
REMARK SMILES C=C1CC[C@@H]2C[C@H]1C2(C)C
REMARK SMILES IDX 9 1 8 2 5 3 4 4 3 5 2 6 1 7 7 8 6 9 10 10
REMARK H PARENT
REMARK Flexibility Score: inf
ROOT
ATOM      1  C   UNL     1       5.841   8.117  14.390  1.00  0.00     0.012 C 
ATOM      2  C   UNL     1       6.744   6.857  14.288  1.00  0.00    -0.026 C 
ATOM      3  C   UNL     1       8.246   7.044  13.957  1.00  0.00    -0.004 C 
ATOM      4  C   UNL     1       8.458   8.214  12.943  1.00  0.00     0.008 C 
ATOM      5  C   UNL     1       7.542   8.080  11.668  1.00  0.00     0.031 C 
ATOM      6  C   UNL     1       6.534   6.928  11.790  1.00  0.00    -0.074 C 
ATOM      7  C   UNL     1       5.577   6.740  10.875  1.00  0.00     0.008 C 
ATOM      8  C   UNL     1       6.676   6.007  12.997  1.00  0.00     0.021 C 
ATOM      9  C   UNL     1       8.185   5.751  13.127  1.00  0.00     0.012 C 
ATOM     10  C   UNL     1       6.533   5.999  15.560  1.00  0.00     0.012 C 
ENDROOT
TORSDOF 0
ENDMDL
MODEL 7
REMARK VINA RESULT:    -4.707      1.170      3.114
REMARK INTER + INTRA:          -4.707
REMARK INTER:                  -4.707
REMARK INTRA:                   0.000
REMARK UNBOUND:                 0.000
REMARK SMILES C=C1CC[C@@H]2C[C@H]1C2(C)C
REMARK SMILES IDX 9 1 8 2 5 3 4 4 3 5 2 6 1 7 7 8 6 9 10 10
REMARK H PARENT
REMARK Flexibility Score: inf
ROOT
ATOM      1  C   UNL     1       4.958   6.797  13.800  1.00  0.00     0.012 C 
ATOM      2  C   UNL     1       6.275   7.553  14.127  1.00  0.00    -0.026 C 
ATOM      3  C   UNL     1       7.216   7.946  12.960  1.00  0.00    -0.004 C 
ATOM      4  C   UNL     1       7.227   6.844  11.852  1.00  0.00     0.008 C 
ATOM      5  C   UNL     1       7.507   5.406  12.432  1.00  0.00     0.031 C 
ATOM      6  C   UNL     1       7.536   5.391  13.967  1.00  0.00    -0.074 C 
ATOM      7  C   UNL     1       7.619   4.245  14.651  1.00  0.00     0.008 C 
ATOM      8  C   UNL     1       7.471   6.740  14.676  1.00  0.00     0.021 C 
ATOM      9  C   UNL     1       8.414   7.654  13.879  1.00  0.00     0.012 C 
ATOM     10  C   UNL     1       5.932   8.765  15.029  1.00  0.00     0.012 C 
ENDROOT
TORSDOF 0
ENDMDL
MODEL 8
REMARK VINA RESULT:    -4.706     14.948     16.430
REMARK INTER + INTRA:          -4.706
REMARK INTER:                  -4.706
REMARK INTRA:                   0.000
REMARK UNBOUND:                 0.000
REMARK SMILES C=C1CC[C@@H]2C[C@H]1C2(C)C
REMARK SMILES IDX 9 1 8 2 5 3 4 4 3 5 2 6 1 7 7 8 6 9 10 10
REMARK H PARENT
REMARK Flexibility Score: inf
ROOT
ATOM      1  C   UNL     1       9.080   6.860  29.452  1.00  0.00     0.012 C 
ATOM      2  C   UNL     1      10.114   6.585  28.325  1.00  0.00    -0.026 C 
ATOM      3  C   UNL     1       9.810   5.470  27.293  1.00  0.00    -0.004 C 
ATOM      4  C   UNL     1       9.083   4.262  27.967  1.00  0.00     0.008 C 
ATOM      5  C   UNL     1       9.835   3.746  29.252  1.00  0.00     0.031 C 
ATOM      6  C   UNL     1      11.013   4.650  29.643  1.00  0.00    -0.074 C 
ATOM      7  C   UNL     1      11.688   4.461  30.782  1.00  0.00     0.008 C 
ATOM      8  C   UNL     1      11.381   5.768  28.673  1.00  0.00     0.021 C 
ATOM      9  C   UNL     1      11.309   5.126  27.280  1.00  0.00     0.012 C 
ATOM     10  C   UNL     1      10.460   7.930  27.640  1.00  0.00     0.012 C 
ENDROOT
TORSDOF 0
ENDMDL
MODEL 9
REMARK VINA RESULT:    -4.696     14.927     16.222
REMARK INTER + INTRA:          -4.696
REMARK INTER:                  -4.696
REMARK INTRA:                   0.000
REMARK UNBOUND:                 0.000
REMARK SMILES C=C1CC[C@@H]2C[C@H]1C2(C)C
REMARK SMILES IDX 9 1 8 2 5 3 4 4 3 5 2 6 1 7 7 8 6 9 10 10
REMARK H PARENT
REMARK Flexibility Score: inf
ROOT
ATOM      1  C   UNL     1      10.199   5.107  30.401  1.00  0.00     0.012 C 
ATOM      2  C   UNL     1       9.601   6.186  29.456  1.00  0.00    -0.026 C 
ATOM      3  C   UNL     1       8.669   5.732  28.305  1.00  0.00    -0.004 C 
ATOM      4  C   UNL     1       9.143   4.372  27.700  1.00  0.00     0.008 C 
ATOM      5  C   UNL     1      10.669   4.384  27.308  1.00  0.00     0.031 C 
ATOM      6  C   UNL     1      11.379   5.668  27.765  1.00  0.00    -0.074 C 
ATOM      7  C   UNL     1      12.704   5.808  27.652  1.00  0.00     0.008 C 
ATOM      8  C   UNL     1      10.506   6.774  28.348  1.00  0.00     0.021 C 
ATOM      9  C   UNL     1       9.278   6.837  27.427  1.00  0.00     0.012 C 
ATOM     10  C   UNL     1       8.954   7.292  30.326  1.00  0.00     0.012 C 
ENDROOT
TORSDOF 0
ENDMDL
