MODEL 1
REMARK VINA RESULT:     2.000      0.000      0.000
REMARK INTER + INTRA:           3.154
REMARK INTER:                   3.170
REMARK INTRA:                  -0.016
REMARK UNBOUND:                -0.016
REMARK SMILES CCCCCCCCCCCC(=O)[O-]
REMARK SMILES IDX 7 1 8 2 9 3 10 4 11 5 12 6 13 7 14 8 6 9 5 10 4 11 3 12 2 13
REMARK SMILES IDX 1 14
REMARK H PARENT
REMARK Flexibility Score: inf
ROOT
ATOM      1  C   UNL     1     -16.119   6.106 -16.074  1.00  0.00     0.000 C 
ENDROOT
BRANCH   1   2
ATOM      2  C   UNL     1     -16.286   7.119 -17.221  1.00  0.00     0.000 C 
BRANCH   2   3
ATOM      3  C   UNL     1     -17.675   7.125 -17.887  1.00  0.00     0.000 C 
BRANCH   3   4
ATOM      4  C   UNL     1     -18.802   6.723 -16.926  1.00  0.00     0.006 C 
BRANCH   4   5
ATOM      5  C   UNL     1     -19.236   5.274 -17.165  1.00  0.00     0.053 C 
BRANCH   5   6
ATOM      6  C   UNL     1     -19.738   4.660 -15.896  1.00  0.00     0.041 C 
ATOM      7  O   UNL     1     -20.074   3.448 -15.868  1.00  0.00    -0.550 OA
ATOM      8  O   UNL     1     -19.788   5.416 -14.731  1.00  0.00    -0.550 OA
ENDBRANCH   5   6
ENDBRANCH   4   5
ENDBRANCH   3   4
ENDBRANCH   2   3
ENDBRANCH   1   2
BRANCH   1   9
ATOM      9  C   UNL     1     -16.573   6.660 -14.714  1.00  0.00     0.000 C 
BRANCH   9  10
ATOM     10  C   UNL     1     -15.371   7.109 -13.875  1.00  0.00    -0.000 C 
BRANCH  10  11
ATOM     11  C   UNL     1     -14.087   7.123 -14.714  1.00  0.00    -0.000 C 
BRANCH  11  12
ATOM     12  C   UNL     1     -12.918   6.495 -13.942  1.00  0.00    -0.000 C 
BRANCH  12  13
ATOM     13  C   UNL     1     -11.550   6.967 -14.454  1.00  0.00    -0.003 C 
ATOM     14  C   UNL     1     -11.310   6.606 -15.921  1.00  0.00     0.004 C 
ENDBRANCH  12  13
ENDBRANCH  11  12
ENDBRANCH  10  11
ENDBRANCH   9  10
ENDBRANCH   1   9
TORSDOF 10
ENDMDL
