MODEL 1
REMARK VINA RESULT:    -5.072      0.000      0.000
REMARK INTER + INTRA:          -9.471
REMARK INTER:                  -8.630
REMARK INTRA:                  -0.841
REMARK UNBOUND:                -0.841
REMARK SMILES CCCCCCCCCCCCCC(=O)[O-]
REMARK SMILES IDX 8 1 9 2 10 3 11 4 12 5 13 6 14 7 15 8 16 9 7 10 6 11 5 12
REMARK SMILES IDX 4 13 3 14 2 15 1 16
REMARK H PARENT
REMARK Flexibility Score: inf
ROOT
ATOM      1  C   UNL     1       5.540   2.281  16.904  1.00  0.00     0.000 C 
ENDROOT
BRANCH   1   2
ATOM      2  C   UNL     1       6.854   2.992  17.273  1.00  0.00     0.000 C 
BRANCH   2   3
ATOM      3  C   UNL     1       6.689   3.951  18.465  1.00  0.00     0.000 C 
BRANCH   3   4
ATOM      4  C   UNL     1       6.911   3.254  19.817  1.00  0.00     0.000 C 
BRANCH   4   5
ATOM      5  C   UNL     1       8.282   3.574  20.433  1.00  0.00     0.006 C 
BRANCH   5   6
ATOM      6  C   UNL     1       8.401   5.065  20.760  1.00  0.00     0.053 C 
BRANCH   6   7
ATOM      7  C   UNL     1       7.491   5.428  21.891  1.00  0.00     0.041 C 
ATOM      8  O   UNL     1       6.698   6.400  21.779  1.00  0.00    -0.550 OA
ATOM      9  O   UNL     1       7.553   4.725  23.087  1.00  0.00    -0.550 OA
ENDBRANCH   6   7
ENDBRANCH   5   6
ENDBRANCH   4   5
ENDBRANCH   3   4
ENDBRANCH   2   3
ENDBRANCH   1   2
BRANCH   1  10
ATOM     10  C   UNL     1       5.475   0.844  17.451  1.00  0.00     0.000 C 
BRANCH  10  11
ATOM     11  C   UNL     1       6.716   0.008  17.087  1.00  0.00    -0.000 C 
BRANCH  11  12
ATOM     12  C   UNL     1       7.529  -0.534  18.282  1.00  0.00    -0.000 C 
BRANCH  12  13
ATOM     13  C   UNL     1       8.677  -1.495  17.913  1.00  0.00    -0.000 C 
BRANCH  13  14
ATOM     14  C   UNL     1       8.362  -2.410  16.708  1.00  0.00    -0.000 C 
BRANCH  14  15
ATOM     15  C   UNL     1       8.926  -3.833  16.857  1.00  0.00    -0.003 C 
ATOM     16  C   UNL     1      10.231  -4.037  16.091  1.00  0.00     0.004 C 
ENDBRANCH  14  15
ENDBRANCH  13  14
ENDBRANCH  12  13
ENDBRANCH  11  12
ENDBRANCH  10  11
ENDBRANCH   1  10
TORSDOF 12
ENDMDL
MODEL 2
REMARK VINA RESULT:    -4.838     10.976     12.281
REMARK INTER + INTRA:          -9.072
REMARK INTER:                  -8.022
REMARK INTRA:                  -1.050
REMARK UNBOUND:                -0.841
REMARK SMILES CCCCCCCCCCCCCC(=O)[O-]
REMARK SMILES IDX 8 1 9 2 10 3 11 4 12 5 13 6 14 7 15 8 16 9 7 10 6 11 5 12
REMARK SMILES IDX 4 13 3 14 2 15 1 16
REMARK H PARENT
REMARK Flexibility Score: inf
ROOT
ATOM      1  C   UNL     1      15.036   2.352   9.175  1.00  0.00     0.000 C 
ENDROOT
BRANCH   1   2
ATOM      2  C   UNL     1      16.012   1.456   9.956  1.00  0.00     0.000 C 
BRANCH   2   3
ATOM      3  C   UNL     1      16.139   1.870  11.432  1.00  0.00     0.000 C 
BRANCH   3   4
ATOM      4  C   UNL     1      15.442   3.208  11.732  1.00  0.00     0.000 C 
BRANCH   4   5
ATOM      5  C   UNL     1      16.172   4.031  12.805  1.00  0.00     0.006 C 
BRANCH   5   6
ATOM      6  C   UNL     1      15.351   4.096  14.097  1.00  0.00     0.053 C 
BRANCH   6   7
ATOM      7  C   UNL     1      16.251   4.072  15.292  1.00  0.00     0.041 C 
ATOM      8  O   UNL     1      15.804   3.716  16.414  1.00  0.00    -0.550 OA
ATOM      9  O   UNL     1      17.570   4.491  15.178  1.00  0.00    -0.550 OA
ENDBRANCH   6   7
ENDBRANCH   5   6
ENDBRANCH   4   5
ENDBRANCH   3   4
ENDBRANCH   2   3
ENDBRANCH   1   2
BRANCH   1  10
ATOM     10  C   UNL     1      14.139   1.550   8.216  1.00  0.00     0.000 C 
BRANCH  10  11
ATOM     11  C   UNL     1      13.553   2.411   7.081  1.00  0.00    -0.000 C 
BRANCH  11  12
ATOM     12  C   UNL     1      14.551   3.357   6.379  1.00  0.00    -0.000 C 
BRANCH  12  13
ATOM     13  C   UNL     1      14.083   4.820   6.242  1.00  0.00    -0.000 C 
BRANCH  13  14
ATOM     14  C   UNL     1      12.764   5.125   6.988  1.00  0.00    -0.000 C 
BRANCH  14  15
ATOM     15  C   UNL     1      12.944   6.069   8.188  1.00  0.00    -0.003 C 
ATOM     16  C   UNL     1      13.100   5.323   9.511  1.00  0.00     0.004 C 
ENDBRANCH  14  15
ENDBRANCH  13  14
ENDBRANCH  12  13
ENDBRANCH  11  12
ENDBRANCH  10  11
ENDBRANCH   1  10
TORSDOF 12
ENDMDL
MODEL 3
REMARK VINA RESULT:    -4.835      1.537      2.478
REMARK INTER + INTRA:          -9.068
REMARK INTER:                  -7.669
REMARK INTRA:                  -1.398
REMARK UNBOUND:                -0.841
REMARK SMILES CCCCCCCCCCCCCC(=O)[O-]
REMARK SMILES IDX 8 1 9 2 10 3 11 4 12 5 13 6 14 7 15 8 16 9 7 10 6 11 5 12
REMARK SMILES IDX 4 13 3 14 2 15 1 16
REMARK H PARENT
REMARK Flexibility Score: inf
ROOT
ATOM      1  C   UNL     1       6.686   1.104  17.947  1.00  0.00     0.000 C 
ENDROOT
BRANCH   1   2
ATOM      2  C   UNL     1       7.923   1.809  17.365  1.00  0.00     0.000 C 
BRANCH   2   3
ATOM      3  C   UNL     1       8.471   2.902  18.298  1.00  0.00     0.000 C 
BRANCH   3   4
ATOM      4  C   UNL     1       7.742   4.245  18.126  1.00  0.00     0.000 C 
BRANCH   4   5
ATOM      5  C   UNL     1       7.454   4.941  19.466  1.00  0.00     0.006 C 
BRANCH   5   6
ATOM      6  C   UNL     1       8.052   4.149  20.633  1.00  0.00     0.053 C 
BRANCH   6   7
ATOM      7  C   UNL     1       8.175   5.016  21.846  1.00  0.00     0.041 C 
ATOM      8  O   UNL     1       9.294   5.176  22.400  1.00  0.00    -0.550 OA
ATOM      9  O   UNL     1       7.045   5.608  22.395  1.00  0.00    -0.550 OA
ENDBRANCH   6   7
ENDBRANCH   5   6
ENDBRANCH   4   5
ENDBRANCH   3   4
ENDBRANCH   2   3
ENDBRANCH   1   2
BRANCH   1  10
ATOM     10  C   UNL     1       6.994  -0.325  18.429  1.00  0.00     0.000 C 
BRANCH  10  11
ATOM     11  C   UNL     1       8.472  -0.714  18.238  1.00  0.00    -0.000 C 
BRANCH  11  12
ATOM     12  C   UNL     1       8.720  -2.104  17.613  1.00  0.00    -0.000 C 
BRANCH  12  13
ATOM     13  C   UNL     1       8.037  -2.343  16.252  1.00  0.00    -0.000 C 
BRANCH  13  14
ATOM     14  C   UNL     1       8.491  -1.365  15.145  1.00  0.00    -0.000 C 
BRANCH  14  15
ATOM     15  C   UNL     1       7.325  -0.649  14.444  1.00  0.00    -0.003 C 
ATOM     16  C   UNL     1       5.958  -1.167  14.887  1.00  0.00     0.004 C 
ENDBRANCH  14  15
ENDBRANCH  13  14
ENDBRANCH  12  13
ENDBRANCH  11  12
ENDBRANCH  10  11
ENDBRANCH   1  10
TORSDOF 12
ENDMDL
MODEL 4
REMARK VINA RESULT:    -4.740      2.161      3.015
REMARK INTER + INTRA:          -8.906
REMARK INTER:                  -7.588
REMARK INTRA:                  -1.318
REMARK UNBOUND:                -0.841
REMARK SMILES CCCCCCCCCCCCCC(=O)[O-]
REMARK SMILES IDX 8 1 9 2 10 3 11 4 12 5 13 6 14 7 15 8 16 9 7 10 6 11 5 12
REMARK SMILES IDX 4 13 3 14 2 15 1 16
REMARK H PARENT
REMARK Flexibility Score: inf
ROOT
ATOM      1  C   UNL     1       6.669   1.193  18.214  1.00  0.00     0.000 C 
ENDROOT
BRANCH   1   2
ATOM      2  C   UNL     1       7.732   2.038  17.492  1.00  0.00     0.000 C 
BRANCH   2   3
ATOM      3  C   UNL     1       8.443   3.021  18.438  1.00  0.00     0.000 C 
BRANCH   3   4
ATOM      4  C   UNL     1       7.797   3.072  19.832  1.00  0.00     0.000 C 
BRANCH   4   5
ATOM      5  C   UNL     1       7.022   4.376  20.081  1.00  0.00     0.006 C 
BRANCH   5   6
ATOM      6  C   UNL     1       7.779   5.579  19.512  1.00  0.00     0.053 C 
BRANCH   6   7
ATOM      7  C   UNL     1       6.981   6.238  18.432  1.00  0.00     0.041 C 
ATOM      8  O   UNL     1       5.775   5.923  18.253  1.00  0.00    -0.550 OA
ATOM      9  O   UNL     1       7.581   7.165  17.589  1.00  0.00    -0.550 OA
ENDBRANCH   6   7
ENDBRANCH   5   6
ENDBRANCH   4   5
ENDBRANCH   3   4
ENDBRANCH   2   3
ENDBRANCH   1   2
BRANCH   1  10
ATOM     10  C   UNL     1       7.089  -0.281  18.361  1.00  0.00     0.000 C 
BRANCH  10  11
ATOM     11  C   UNL     1       8.617  -0.469  18.371  1.00  0.00    -0.000 C 
BRANCH  11  12
ATOM     12  C   UNL     1       9.149  -1.650  17.531  1.00  0.00    -0.000 C 
BRANCH  12  13
ATOM     13  C   UNL     1       8.176  -2.187  16.463  1.00  0.00    -0.000 C 
BRANCH  13  14
ATOM     14  C   UNL     1       8.410  -1.599  15.053  1.00  0.00    -0.000 C 
BRANCH  14  15
ATOM     15  C   UNL     1       7.329  -0.595  14.621  1.00  0.00    -0.003 C 
ATOM     16  C   UNL     1       5.913  -1.085  14.914  1.00  0.00     0.004 C 
ENDBRANCH  14  15
ENDBRANCH  13  14
ENDBRANCH  12  13
ENDBRANCH  11  12
ENDBRANCH  10  11
ENDBRANCH   1  10
TORSDOF 12
ENDMDL
MODEL 5
REMARK VINA RESULT:    -4.714      1.669      3.513
REMARK INTER + INTRA:          -8.863
REMARK INTER:                  -7.958
REMARK INTRA:                  -0.904
REMARK UNBOUND:                -0.841
REMARK SMILES CCCCCCCCCCCCCC(=O)[O-]
REMARK SMILES IDX 8 1 9 2 10 3 11 4 12 5 13 6 14 7 15 8 16 9 7 10 6 11 5 12
REMARK SMILES IDX 4 13 3 14 2 15 1 16
REMARK H PARENT
REMARK Flexibility Score: inf
ROOT
ATOM      1  C   UNL     1       8.612  -1.114  18.153  1.00  0.00     0.000 C 
ENDROOT
BRANCH   1   2
ATOM      2  C   UNL     1       8.208   0.293  17.680  1.00  0.00     0.000 C 
BRANCH   2   3
ATOM      3  C   UNL     1       6.801   0.693  18.154  1.00  0.00     0.000 C 
BRANCH   3   4
ATOM      4  C   UNL     1       6.682   2.197  18.449  1.00  0.00     0.000 C 
BRANCH   4   5
ATOM      5  C   UNL     1       7.989   2.960  18.181  1.00  0.00     0.006 C 
BRANCH   5   6
ATOM      6  C   UNL     1       8.589   3.492  19.487  1.00  0.00     0.053 C 
BRANCH   6   7
ATOM      7  C   UNL     1       7.693   4.525  20.093  1.00  0.00     0.041 C 
ATOM      8  O   UNL     1       7.230   4.361  21.252  1.00  0.00    -0.550 OA
ATOM      9  O   UNL     1       7.329   5.647  19.359  1.00  0.00    -0.550 OA
ENDBRANCH   6   7
ENDBRANCH   5   6
ENDBRANCH   4   5
ENDBRANCH   3   4
ENDBRANCH   2   3
ENDBRANCH   1   2
BRANCH   1  10
ATOM     10  C   UNL     1       8.519  -2.162  17.030  1.00  0.00     0.000 C 
BRANCH  10  11
ATOM     11  C   UNL     1       8.898  -3.578  17.499  1.00  0.00    -0.000 C 
BRANCH  11  12
ATOM     12  C   UNL     1       9.640  -4.449  16.463  1.00  0.00    -0.000 C 
BRANCH  12  13
ATOM     13  C   UNL     1      10.578  -3.681  15.511  1.00  0.00    -0.000 C 
BRANCH  13  14
ATOM     14  C   UNL     1      12.076  -4.002  15.719  1.00  0.00    -0.000 C 
BRANCH  14  15
ATOM     15  C   UNL     1      12.920  -2.770  16.086  1.00  0.00    -0.003 C 
ATOM     16  C   UNL     1      12.119  -1.471  16.056  1.00  0.00     0.004 C 
ENDBRANCH  14  15
ENDBRANCH  13  14
ENDBRANCH  12  13
ENDBRANCH  11  12
ENDBRANCH  10  11
ENDBRANCH   1  10
TORSDOF 12
ENDMDL
MODEL 6
REMARK VINA RESULT:    -4.699     11.859     14.304
REMARK INTER + INTRA:          -8.837
REMARK INTER:                  -7.763
REMARK INTRA:                  -1.073
REMARK UNBOUND:                -0.841
REMARK SMILES CCCCCCCCCCCCCC(=O)[O-]
REMARK SMILES IDX 8 1 9 2 10 3 11 4 12 5 13 6 14 7 15 8 16 9 7 10 6 11 5 12
REMARK SMILES IDX 4 13 3 14 2 15 1 16
REMARK H PARENT
REMARK Flexibility Score: inf
ROOT
ATOM      1  C   UNL     1      15.103   1.042  11.863  1.00  0.00     0.000 C 
ENDROOT
BRANCH   1   2
ATOM      2  C   UNL     1      15.530  -0.079  10.900  1.00  0.00     0.000 C 
BRANCH   2   3
ATOM      3  C   UNL     1      15.697   0.418   9.454  1.00  0.00     0.000 C 
BRANCH   3   4
ATOM      4  C   UNL     1      15.560  -0.713   8.422  1.00  0.00     0.000 C 
BRANCH   4   5
ATOM      5  C   UNL     1      15.222  -2.067   9.064  1.00  0.00     0.006 C 
BRANCH   5   6
ATOM      6  C   UNL     1      14.843  -3.099   7.998  1.00  0.00     0.053 C 
BRANCH   6   7
ATOM      7  C   UNL     1      15.966  -4.063   7.779  1.00  0.00     0.041 C 
ATOM      8  O   UNL     1      16.403  -4.754   8.736  1.00  0.00    -0.550 OA
ATOM      9  O   UNL     1      16.565  -4.162   6.530  1.00  0.00    -0.550 OA
ENDBRANCH   6   7
ENDBRANCH   5   6
ENDBRANCH   4   5
ENDBRANCH   3   4
ENDBRANCH   2   3
ENDBRANCH   1   2
BRANCH   1  10
ATOM     10  C   UNL     1      16.039   2.262  11.797  1.00  0.00     0.000 C 
BRANCH  10  11
ATOM     11  C   UNL     1      15.287   3.581  11.544  1.00  0.00    -0.000 C 
BRANCH  11  12
ATOM     12  C   UNL     1      13.877   3.439  10.930  1.00  0.00    -0.000 C 
BRANCH  12  13
ATOM     13  C   UNL     1      13.609   4.315   9.690  1.00  0.00    -0.000 C 
BRANCH  13  14
ATOM     14  C   UNL     1      13.329   3.506   8.404  1.00  0.00    -0.000 C 
BRANCH  14  15
ATOM     15  C   UNL     1      14.588   3.234   7.565  1.00  0.00    -0.003 C 
ATOM     16  C   UNL     1      14.390   3.540   6.082  1.00  0.00     0.004 C 
ENDBRANCH  14  15
ENDBRANCH  13  14
ENDBRANCH  12  13
ENDBRANCH  11  12
ENDBRANCH  10  11
ENDBRANCH   1  10
TORSDOF 12
ENDMDL
MODEL 7
REMARK VINA RESULT:    -4.680      1.511      2.134
REMARK INTER + INTRA:          -8.805
REMARK INTER:                  -7.433
REMARK INTRA:                  -1.372
REMARK UNBOUND:                -0.841
REMARK SMILES CCCCCCCCCCCCCC(=O)[O-]
REMARK SMILES IDX 8 1 9 2 10 3 11 4 12 5 13 6 14 7 15 8 16 9 7 10 6 11 5 12
REMARK SMILES IDX 4 13 3 14 2 15 1 16
REMARK H PARENT
REMARK Flexibility Score: inf
ROOT
ATOM      1  C   UNL     1       6.817   2.409  17.037  1.00  0.00     0.000 C 
ENDROOT
BRANCH   1   2
ATOM      2  C   UNL     1       7.688   3.621  17.409  1.00  0.00     0.000 C 
BRANCH   2   3
ATOM      3  C   UNL     1       6.866   4.773  18.011  1.00  0.00     0.000 C 
BRANCH   3   4
ATOM      4  C   UNL     1       7.273   5.096  19.458  1.00  0.00     0.000 C 
BRANCH   4   5
ATOM      5  C   UNL     1       8.416   4.203  19.967  1.00  0.00     0.006 C 
BRANCH   5   6
ATOM      6  C   UNL     1       8.072   3.600  21.333  1.00  0.00     0.053 C 
BRANCH   6   7
ATOM      7  C   UNL     1       8.322   4.594  22.423  1.00  0.00     0.041 C 
ATOM      8  O   UNL     1       7.431   4.832  23.280  1.00  0.00    -0.550 OA
ATOM      9  O   UNL     1       9.520   5.295  22.463  1.00  0.00    -0.550 OA
ENDBRANCH   6   7
ENDBRANCH   5   6
ENDBRANCH   4   5
ENDBRANCH   3   4
ENDBRANCH   2   3
ENDBRANCH   1   2
BRANCH   1  10
ATOM     10  C   UNL     1       6.751   1.362  18.164  1.00  0.00     0.000 C 
BRANCH  10  11
ATOM     11  C   UNL     1       8.142   0.932  18.663  1.00  0.00    -0.000 C 
BRANCH  11  12
ATOM     12  C   UNL     1       8.835  -0.174  17.839  1.00  0.00    -0.000 C 
BRANCH  12  13
ATOM     13  C   UNL     1       7.928  -1.351  17.426  1.00  0.00    -0.000 C 
BRANCH  13  14
ATOM     14  C   UNL     1       8.265  -1.942  16.039  1.00  0.00    -0.000 C 
BRANCH  14  15
ATOM     15  C   UNL     1       7.570  -1.213  14.877  1.00  0.00    -0.003 C 
ATOM     16  C   UNL     1       6.053  -1.149  15.039  1.00  0.00     0.004 C 
ENDBRANCH  14  15
ENDBRANCH  13  14
ENDBRANCH  12  13
ENDBRANCH  11  12
ENDBRANCH  10  11
ENDBRANCH   1  10
TORSDOF 12
ENDMDL
MODEL 8
REMARK VINA RESULT:    -4.649      1.652      3.925
REMARK INTER + INTRA:          -8.752
REMARK INTER:                  -7.223
REMARK INTRA:                  -1.529
REMARK UNBOUND:                -0.841
REMARK SMILES CCCCCCCCCCCCCC(=O)[O-]
REMARK SMILES IDX 8 1 9 2 10 3 11 4 12 5 13 6 14 7 15 8 16 9 7 10 6 11 5 12
REMARK SMILES IDX 4 13 3 14 2 15 1 16
REMARK H PARENT
REMARK Flexibility Score: inf
ROOT
ATOM      1  C   UNL     1       8.764  -1.036  18.277  1.00  0.00     0.000 C 
ENDROOT
BRANCH   1   2
ATOM      2  C   UNL     1       9.417   0.177  17.591  1.00  0.00     0.000 C 
BRANCH   2   3
ATOM      3  C   UNL     1       8.825   1.513  18.070  1.00  0.00     0.000 C 
BRANCH   3   4
ATOM      4  C   UNL     1       7.525   1.330  18.871  1.00  0.00     0.000 C 
BRANCH   4   5
ATOM      5  C   UNL     1       6.939   2.662  19.366  1.00  0.00     0.006 C 
BRANCH   5   6
ATOM      6  C   UNL     1       8.053   3.632  19.771  1.00  0.00     0.053 C 
BRANCH   6   7
ATOM      7  C   UNL     1       7.901   4.035  21.204  1.00  0.00     0.041 C 
ATOM      8  O   UNL     1       8.287   3.265  22.122  1.00  0.00    -0.550 OA
ATOM      9  O   UNL     1       7.289   5.238  21.528  1.00  0.00    -0.550 OA
ENDBRANCH   6   7
ENDBRANCH   5   6
ENDBRANCH   4   5
ENDBRANCH   3   4
ENDBRANCH   2   3
ENDBRANCH   1   2
BRANCH   1  10
ATOM     10  C   UNL     1       8.532  -2.207  17.305  1.00  0.00     0.000 C 
BRANCH  10  11
ATOM     11  C   UNL     1       8.273  -1.743  15.860  1.00  0.00    -0.000 C 
BRANCH  11  12
ATOM     12  C   UNL     1       6.805  -1.405  15.520  1.00  0.00    -0.000 C 
BRANCH  12  13
ATOM     13  C   UNL     1       6.592  -0.061  14.796  1.00  0.00    -0.000 C 
BRANCH  13  14
ATOM     14  C   UNL     1       5.886   1.008  15.660  1.00  0.00    -0.000 C 
BRANCH  14  15
ATOM     15  C   UNL     1       4.816   0.428  16.599  1.00  0.00    -0.003 C 
ATOM     16  C   UNL     1       3.479   0.191  15.900  1.00  0.00     0.004 C 
ENDBRANCH  14  15
ENDBRANCH  13  14
ENDBRANCH  12  13
ENDBRANCH  11  12
ENDBRANCH  10  11
ENDBRANCH   1  10
TORSDOF 12
ENDMDL
MODEL 9
REMARK VINA RESULT:    -4.590     12.471     14.881
REMARK INTER + INTRA:          -8.651
REMARK INTER:                  -6.795
REMARK INTRA:                  -1.857
REMARK UNBOUND:                -0.841
REMARK SMILES CCCCCCCCCCCCCC(=O)[O-]
REMARK SMILES IDX 8 1 9 2 10 3 11 4 12 5 13 6 14 7 15 8 16 9 7 10 6 11 5 12
REMARK SMILES IDX 4 13 3 14 2 15 1 16
REMARK H PARENT
REMARK Flexibility Score: inf
ROOT
ATOM      1  C   UNL     1      19.357  -5.485  22.452  1.00  0.00     0.000 C 
ENDROOT
BRANCH   1   2
ATOM      2  C   UNL     1      19.814  -4.843  23.773  1.00  0.00     0.000 C 
BRANCH   2   3
ATOM      3  C   UNL     1      21.263  -4.331  23.709  1.00  0.00     0.000 C 
BRANCH   3   4
ATOM      4  C   UNL     1      21.344  -2.797  23.642  1.00  0.00     0.000 C 
BRANCH   4   5
ATOM      5  C   UNL     1      21.943  -2.290  22.321  1.00  0.00     0.006 C 
BRANCH   5   6
ATOM      6  C   UNL     1      22.726  -3.400  21.614  1.00  0.00     0.053 C 
BRANCH   6   7
ATOM      7  C   UNL     1      22.168  -3.646  20.248  1.00  0.00     0.041 C 
ATOM      8  O   UNL     1      21.810  -2.679  19.526  1.00  0.00    -0.550 OA
ATOM      9  O   UNL     1      21.996  -4.947  19.791  1.00  0.00    -0.550 OA
ENDBRANCH   6   7
ENDBRANCH   5   6
ENDBRANCH   4   5
ENDBRANCH   3   4
ENDBRANCH   2   3
ENDBRANCH   1   2
BRANCH   1  10
ATOM     10  C   UNL     1      18.791  -4.451  21.461  1.00  0.00     0.000 C 
BRANCH  10  11
ATOM     11  C   UNL     1      17.334  -4.060  21.771  1.00  0.00    -0.000 C 
BRANCH  11  12
ATOM     12  C   UNL     1      17.068  -2.548  21.927  1.00  0.00    -0.000 C 
BRANCH  12  13
ATOM     13  C   UNL     1      17.782  -1.874  23.116  1.00  0.00    -0.000 C 
BRANCH  13  14
ATOM     14  C   UNL     1      16.886  -1.698  24.363  1.00  0.00    -0.000 C 
BRANCH  14  15
ATOM     15  C   UNL     1      17.184  -2.712  25.480  1.00  0.00    -0.003 C 
ATOM     16  C   UNL     1      16.422  -4.024  25.309  1.00  0.00     0.004 C 
ENDBRANCH  14  15
ENDBRANCH  13  14
ENDBRANCH  12  13
ENDBRANCH  11  12
ENDBRANCH  10  11
ENDBRANCH   1  10
TORSDOF 12
ENDMDL
