MODEL 1
REMARK VINA RESULT:    -3.459      0.000      0.000
REMARK INTER + INTRA:          -6.545
REMARK INTER:                  -5.886
REMARK INTRA:                  -0.660
REMARK UNBOUND:                -0.660
REMARK SMILES CCCCCCCCCCCCCC(=O)[O-]
REMARK SMILES IDX 8 1 9 2 10 3 11 4 12 5 13 6 14 7 15 8 16 9 7 10 6 11 5 12
REMARK SMILES IDX 4 13 3 14 2 15 1 16
REMARK H PARENT
REMARK Flexibility Score: inf
ROOT
ATOM      1  C   UNL     1     -27.041   9.736  -5.884  1.00  0.00     0.000 C 
ENDROOT
BRANCH   1   2
ATOM      2  C   UNL     1     -26.389  11.089  -5.565  1.00  0.00     0.000 C 
BRANCH   2   3
ATOM      3  C   UNL     1     -24.852  11.043  -5.693  1.00  0.00     0.000 C 
BRANCH   3   4
ATOM      4  C   UNL     1     -24.122  10.839  -4.351  1.00  0.00     0.000 C 
BRANCH   4   5
ATOM      5  C   UNL     1     -24.034   9.378  -3.879  1.00  0.00     0.006 C 
BRANCH   5   6
ATOM      6  C   UNL     1     -22.631   8.782  -4.051  1.00  0.00     0.053 C 
BRANCH   6   7
ATOM      7  C   UNL     1     -22.673   7.619  -4.990  1.00  0.00     0.041 C 
ATOM      8  O   UNL     1     -23.777   7.123  -5.335  1.00  0.00    -0.550 OA
ATOM      9  O   UNL     1     -21.494   7.113  -5.522  1.00  0.00    -0.550 OA
ENDBRANCH   6   7
ENDBRANCH   5   6
ENDBRANCH   4   5
ENDBRANCH   3   4
ENDBRANCH   2   3
ENDBRANCH   1   2
BRANCH   1  10
ATOM     10  C   UNL     1     -27.757   9.164  -4.655  1.00  0.00     0.000 C 
BRANCH  10  11
ATOM     11  C   UNL     1     -28.606   7.944  -5.030  1.00  0.00    -0.000 C 
BRANCH  11  12
ATOM     12  C   UNL     1     -30.056   8.350  -5.320  1.00  0.00    -0.000 C 
BRANCH  12  13
ATOM     13  C   UNL     1     -30.405   8.123  -6.799  1.00  0.00    -0.000 C 
BRANCH  13  14
ATOM     14  C   UNL     1     -31.674   8.875  -7.231  1.00  0.00    -0.000 C 
BRANCH  14  15
ATOM     15  C   UNL     1     -32.507   8.091  -8.255  1.00  0.00    -0.003 C 
ATOM     16  C   UNL     1     -33.982   8.469  -8.169  1.00  0.00     0.004 C 
ENDBRANCH  14  15
ENDBRANCH  13  14
ENDBRANCH  12  13
ENDBRANCH  11  12
ENDBRANCH  10  11
ENDBRANCH   1  10
TORSDOF 12
ENDMDL
MODEL 2
REMARK VINA RESULT:    -3.210      4.081      8.428
REMARK INTER + INTRA:          -6.122
REMARK INTER:                  -5.426
REMARK INTRA:                  -0.696
REMARK UNBOUND:                -0.660
REMARK SMILES CCCCCCCCCCCCCC(=O)[O-]
REMARK SMILES IDX 8 1 9 2 10 3 11 4 12 5 13 6 14 7 15 8 16 9 7 10 6 11 5 12
REMARK SMILES IDX 4 13 3 14 2 15 1 16
REMARK H PARENT
REMARK Flexibility Score: inf
ROOT
ATOM      1  C   UNL     1     -27.584   8.579  -4.908  1.00  0.00     0.000 C 
ENDROOT
BRANCH   1   2
ATOM      2  C   UNL     1     -29.066   8.185  -4.995  1.00  0.00     0.000 C 
BRANCH   2   3
ATOM      3  C   UNL     1     -29.676   8.501  -6.377  1.00  0.00     0.000 C 
BRANCH   3   4
ATOM      4  C   UNL     1     -31.165   8.126  -6.500  1.00  0.00     0.000 C 
BRANCH   4   5
ATOM      5  C   UNL     1     -31.844   8.592  -7.799  1.00  0.00     0.006 C 
BRANCH   5   6
ATOM      6  C   UNL     1     -33.347   8.288  -7.827  1.00  0.00     0.053 C 
BRANCH   6   7
ATOM      7  C   UNL     1     -33.584   6.880  -8.272  1.00  0.00     0.041 C 
ATOM      8  O   UNL     1     -33.612   6.599  -9.499  1.00  0.00    -0.550 OA
ATOM      9  O   UNL     1     -33.725   5.868  -7.331  1.00  0.00    -0.550 OA
ENDBRANCH   6   7
ENDBRANCH   5   6
ENDBRANCH   4   5
ENDBRANCH   3   4
ENDBRANCH   2   3
ENDBRANCH   1   2
BRANCH   1  10
ATOM     10  C   UNL     1     -27.227   9.625  -5.971  1.00  0.00     0.000 C 
BRANCH  10  11
ATOM     11  C   UNL     1     -26.636  10.884  -5.326  1.00  0.00    -0.000 C 
BRANCH  11  12
ATOM     12  C   UNL     1     -25.104  10.820  -5.294  1.00  0.00    -0.000 C 
BRANCH  12  13
ATOM     13  C   UNL     1     -24.600  10.455  -3.890  1.00  0.00    -0.000 C 
BRANCH  13  14
ATOM     14  C   UNL     1     -23.307   9.624  -3.922  1.00  0.00    -0.000 C 
BRANCH  14  15
ATOM     15  C   UNL     1     -23.474   8.298  -4.679  1.00  0.00    -0.003 C 
ATOM     16  C   UNL     1     -22.121   7.654  -4.965  1.00  0.00     0.004 C 
ENDBRANCH  14  15
ENDBRANCH  13  14
ENDBRANCH  12  13
ENDBRANCH  11  12
ENDBRANCH  10  11
ENDBRANCH   1  10
TORSDOF 12
ENDMDL
MODEL 3
REMARK VINA RESULT:    -3.116      0.817      1.279
REMARK INTER + INTRA:          -5.962
REMARK INTER:                  -5.356
REMARK INTRA:                  -0.605
REMARK UNBOUND:                -0.660
REMARK SMILES CCCCCCCCCCCCCC(=O)[O-]
REMARK SMILES IDX 8 1 9 2 10 3 11 4 12 5 13 6 14 7 15 8 16 9 7 10 6 11 5 12
REMARK SMILES IDX 4 13 3 14 2 15 1 16
REMARK H PARENT
REMARK Flexibility Score: inf
ROOT
ATOM      1  C   UNL     1     -27.881   8.757  -5.582  1.00  0.00     0.000 C 
ENDROOT
BRANCH   1   2
ATOM      2  C   UNL     1     -27.059   9.832  -4.856  1.00  0.00     0.000 C 
BRANCH   2   3
ATOM      3  C   UNL     1     -25.922  10.393  -5.734  1.00  0.00     0.000 C 
BRANCH   3   4
ATOM      4  C   UNL     1     -24.554  10.440  -5.026  1.00  0.00     0.000 C 
BRANCH   4   5
ATOM      5  C   UNL     1     -24.297   9.287  -4.041  1.00  0.00     0.006 C 
BRANCH   5   6
ATOM      6  C   UNL     1     -22.839   8.811  -4.051  1.00  0.00     0.053 C 
BRANCH   6   7
ATOM      7  C   UNL     1     -22.678   7.650  -4.980  1.00  0.00     0.041 C 
ATOM      8  O   UNL     1     -23.680   6.968  -5.320  1.00  0.00    -0.550 OA
ATOM      9  O   UNL     1     -21.429   7.351  -5.509  1.00  0.00    -0.550 OA
ENDBRANCH   6   7
ENDBRANCH   5   6
ENDBRANCH   4   5
ENDBRANCH   3   4
ENDBRANCH   2   3
ENDBRANCH   1   2
BRANCH   1  10
ATOM     10  C   UNL     1     -28.925   8.134  -4.647  1.00  0.00     0.000 C 
BRANCH  10  11
ATOM     11  C   UNL     1     -30.347   8.503  -5.086  1.00  0.00    -0.000 C 
BRANCH  11  12
ATOM     12  C   UNL     1     -30.677   7.889  -6.452  1.00  0.00    -0.000 C 
BRANCH  12  13
ATOM     13  C   UNL     1     -31.548   8.842  -7.286  1.00  0.00    -0.000 C 
BRANCH  13  14
ATOM     14  C   UNL     1     -32.337   8.114  -8.386  1.00  0.00    -0.000 C 
BRANCH  14  15
ATOM     15  C   UNL     1     -33.742   7.697  -7.929  1.00  0.00    -0.003 C 
ATOM     16  C   UNL     1     -33.836   6.185  -7.751  1.00  0.00     0.004 C 
ENDBRANCH  14  15
ENDBRANCH  13  14
ENDBRANCH  12  13
ENDBRANCH  11  12
ENDBRANCH  10  11
ENDBRANCH   1  10
TORSDOF 12
ENDMDL
MODEL 4
REMARK VINA RESULT:    -2.470      1.943      4.192
REMARK INTER + INTRA:          -4.863
REMARK INTER:                  -4.345
REMARK INTRA:                  -0.518
REMARK UNBOUND:                -0.660
REMARK SMILES CCCCCCCCCCCCCC(=O)[O-]
REMARK SMILES IDX 8 1 9 2 10 3 11 4 12 5 13 6 14 7 15 8 16 9 7 10 6 11 5 12
REMARK SMILES IDX 4 13 3 14 2 15 1 16
REMARK H PARENT
REMARK Flexibility Score: inf
ROOT
ATOM      1  C   UNL     1     -30.516   8.522  -6.837  1.00  0.00     0.000 C 
ENDROOT
BRANCH   1   2
ATOM      2  C   UNL     1     -30.575   7.993  -5.396  1.00  0.00     0.000 C 
BRANCH   2   3
ATOM      3  C   UNL     1     -29.207   8.067  -4.688  1.00  0.00     0.000 C 
BRANCH   3   4
ATOM      4  C   UNL     1     -28.223   9.060  -5.337  1.00  0.00     0.000 C 
BRANCH   4   5
ATOM      5  C   UNL     1     -27.114   9.573  -4.404  1.00  0.00     0.006 C 
BRANCH   5   6
ATOM      6  C   UNL     1     -25.890  10.096  -5.168  1.00  0.00     0.053 C 
BRANCH   6   7
ATOM      7  C   UNL     1     -24.633   9.539  -4.578  1.00  0.00     0.041 C 
ATOM      8  O   UNL     1     -24.390   8.307  -4.653  1.00  0.00    -0.550 OA
ATOM      9  O   UNL     1     -23.708  10.389  -3.987  1.00  0.00    -0.550 OA
ENDBRANCH   6   7
ENDBRANCH   5   6
ENDBRANCH   4   5
ENDBRANCH   3   4
ENDBRANCH   2   3
ENDBRANCH   1   2
BRANCH   1  10
ATOM     10  C   UNL     1     -31.878   9.071  -7.280  1.00  0.00     0.000 C 
BRANCH  10  11
ATOM     11  C   UNL     1     -32.449   8.250  -8.442  1.00  0.00    -0.000 C 
BRANCH  11  12
ATOM     12  C   UNL     1     -33.878   7.783  -8.136  1.00  0.00    -0.000 C 
BRANCH  12  13
ATOM     13  C   UNL     1     -33.885   6.329  -7.639  1.00  0.00    -0.000 C 
BRANCH  13  14
ATOM     14  C   UNL     1     -33.817   5.309  -8.788  1.00  0.00    -0.000 C 
BRANCH  14  15
ATOM     15  C   UNL     1     -34.125   5.938 -10.155  1.00  0.00    -0.003 C 
ATOM     16  C   UNL     1     -33.075   5.543 -11.189  1.00  0.00     0.004 C 
ENDBRANCH  14  15
ENDBRANCH  13  14
ENDBRANCH  12  13
ENDBRANCH  11  12
ENDBRANCH  10  11
ENDBRANCH   1  10
TORSDOF 12
ENDMDL
MODEL 5
REMARK VINA RESULT:    -1.764      3.476      6.639
REMARK INTER + INTRA:          -3.661
REMARK INTER:                  -2.835
REMARK INTRA:                  -0.825
REMARK UNBOUND:                -0.660
REMARK SMILES CCCCCCCCCCCCCC(=O)[O-]
REMARK SMILES IDX 8 1 9 2 10 3 11 4 12 5 13 6 14 7 15 8 16 9 7 10 6 11 5 12
REMARK SMILES IDX 4 13 3 14 2 15 1 16
REMARK H PARENT
REMARK Flexibility Score: inf
ROOT
ATOM      1  C   UNL     1     -24.229   9.723  -5.275  1.00  0.00     0.000 C 
ENDROOT
BRANCH   1   2
ATOM      2  C   UNL     1     -24.916  11.080  -5.492  1.00  0.00     0.000 C 
BRANCH   2   3
ATOM      3  C   UNL     1     -26.336  11.121  -4.892  1.00  0.00     0.000 C 
BRANCH   3   4
ATOM      4  C   UNL     1     -26.877   9.739  -4.478  1.00  0.00     0.000 C 
BRANCH   4   5
ATOM      5  C   UNL     1     -27.631   8.982  -5.585  1.00  0.00     0.006 C 
BRANCH   5   6
ATOM      6  C   UNL     1     -28.464   7.813  -5.044  1.00  0.00     0.053 C 
BRANCH   6   7
ATOM      7  C   UNL     1     -29.916   8.169  -5.039  1.00  0.00     0.041 C 
ATOM      8  O   UNL     1     -30.612   8.006  -6.075  1.00  0.00    -0.550 OA
ATOM      9  O   UNL     1     -30.513   8.635  -3.875  1.00  0.00    -0.550 OA
ENDBRANCH   6   7
ENDBRANCH   5   6
ENDBRANCH   4   5
ENDBRANCH   3   4
ENDBRANCH   2   3
ENDBRANCH   1   2
BRANCH   1  10
ATOM     10  C   UNL     1     -23.440   9.708  -3.959  1.00  0.00     0.000 C 
BRANCH  10  11
ATOM     11  C   UNL     1     -22.502   8.497  -3.896  1.00  0.00    -0.000 C 
BRANCH  11  12
ATOM     12  C   UNL     1     -22.027   8.094  -5.297  1.00  0.00    -0.000 C 
BRANCH  12  13
ATOM     13  C   UNL     1     -21.929   6.567  -5.425  1.00  0.00    -0.000 C 
BRANCH  13  14
ATOM     14  C   UNL     1     -23.052   5.971  -6.289  1.00  0.00    -0.000 C 
BRANCH  14  15
ATOM     15  C   UNL     1     -24.448   6.428  -5.842  1.00  0.00    -0.003 C 
ATOM     16  C   UNL     1     -25.457   5.289  -5.942  1.00  0.00     0.004 C 
ENDBRANCH  14  15
ENDBRANCH  13  14
ENDBRANCH  12  13
ENDBRANCH  11  12
ENDBRANCH  10  11
ENDBRANCH   1  10
TORSDOF 12
ENDMDL
MODEL 6
REMARK VINA RESULT:    -1.737      4.242      8.582
REMARK INTER + INTRA:          -3.615
REMARK INTER:                  -3.365
REMARK INTRA:                  -0.250
REMARK UNBOUND:                -0.660
REMARK SMILES CCCCCCCCCCCCCC(=O)[O-]
REMARK SMILES IDX 8 1 9 2 10 3 11 4 12 5 13 6 14 7 15 8 16 9 7 10 6 11 5 12
REMARK SMILES IDX 4 13 3 14 2 15 1 16
REMARK H PARENT
REMARK Flexibility Score: inf
ROOT
ATOM      1  C   UNL     1     -29.193   8.551  -6.156  1.00  0.00     0.000 C 
ENDROOT
BRANCH   1   2
ATOM      2  C   UNL     1     -30.662   8.993  -6.237  1.00  0.00     0.000 C 
BRANCH   2   3
ATOM      3  C   UNL     1     -31.469   8.162  -7.255  1.00  0.00     0.000 C 
BRANCH   3   4
ATOM      4  C   UNL     1     -32.552   8.968  -7.998  1.00  0.00     0.000 C 
BRANCH   4   5
ATOM      5  C   UNL     1     -33.915   8.266  -8.114  1.00  0.00     0.006 C 
BRANCH   5   6
ATOM      6  C   UNL     1     -33.878   7.046  -9.043  1.00  0.00     0.053 C 
BRANCH   6   7
ATOM      7  C   UNL     1     -34.064   5.788  -8.255  1.00  0.00     0.041 C 
ATOM      8  O   UNL     1     -34.122   4.676  -8.842  1.00  0.00    -0.550 OA
ATOM      9  O   UNL     1     -34.125   5.839  -6.869  1.00  0.00    -0.550 OA
ENDBRANCH   6   7
ENDBRANCH   5   6
ENDBRANCH   4   5
ENDBRANCH   3   4
ENDBRANCH   2   3
ENDBRANCH   1   2
BRANCH   1  10
ATOM     10  C   UNL     1     -28.774   8.293  -4.703  1.00  0.00     0.000 C 
BRANCH  10  11
ATOM     11  C   UNL     1     -27.372   8.850  -4.429  1.00  0.00    -0.000 C 
BRANCH  11  12
ATOM     12  C   UNL     1     -27.299  10.346  -4.759  1.00  0.00    -0.000 C 
BRANCH  12  13
ATOM     13  C   UNL     1     -26.479  10.587  -6.036  1.00  0.00    -0.000 C 
BRANCH  13  14
ATOM     14  C   UNL     1     -24.995  10.861  -5.744  1.00  0.00    -0.000 C 
BRANCH  14  15
ATOM     15  C   UNL     1     -24.603  10.516  -4.300  1.00  0.00    -0.003 C 
ATOM     16  C   UNL     1     -23.333   9.672  -4.263  1.00  0.00     0.004 C 
ENDBRANCH  14  15
ENDBRANCH  13  14
ENDBRANCH  12  13
ENDBRANCH  11  12
ENDBRANCH  10  11
ENDBRANCH   1  10
TORSDOF 12
ENDMDL
MODEL 7
REMARK VINA RESULT:    -0.689      2.352      4.330
REMARK INTER + INTRA:          -1.832
REMARK INTER:                  -1.370
REMARK INTRA:                  -0.462
REMARK UNBOUND:                -0.660
REMARK SMILES CCCCCCCCCCCCCC(=O)[O-]
REMARK SMILES IDX 8 1 9 2 10 3 11 4 12 5 13 6 14 7 15 8 16 9 7 10 6 11 5 12
REMARK SMILES IDX 4 13 3 14 2 15 1 16
REMARK H PARENT
REMARK Flexibility Score: inf
ROOT
ATOM      1  C   UNL     1     -24.076   9.374  -4.927  1.00  0.00     0.000 C 
ENDROOT
BRANCH   1   2
ATOM      2  C   UNL     1     -22.923   9.150  -3.938  1.00  0.00     0.000 C 
BRANCH   2   3
ATOM      3  C   UNL     1     -21.698   8.492  -4.605  1.00  0.00     0.000 C 
BRANCH   3   4
ATOM      4  C   UNL     1     -22.055   7.552  -5.772  1.00  0.00     0.000 C 
BRANCH   4   5
ATOM      5  C   UNL     1     -22.674   6.208  -5.353  1.00  0.00     0.006 C 
BRANCH   5   6
ATOM      6  C   UNL     1     -23.438   5.524  -6.494  1.00  0.00     0.053 C 
BRANCH   6   7
ATOM      7  C   UNL     1     -24.898   5.456  -6.173  1.00  0.00     0.041 C 
ATOM      8  O   UNL     1     -25.520   4.367  -6.279  1.00  0.00    -0.550 OA
ATOM      9  O   UNL     1     -25.560   6.586  -5.711  1.00  0.00    -0.550 OA
ENDBRANCH   6   7
ENDBRANCH   5   6
ENDBRANCH   4   5
ENDBRANCH   3   4
ENDBRANCH   2   3
ENDBRANCH   1   2
BRANCH   1  10
ATOM     10  C   UNL     1     -24.431  10.862  -5.035  1.00  0.00     0.000 C 
BRANCH  10  11
ATOM     11  C   UNL     1     -25.337  11.125  -6.243  1.00  0.00    -0.000 C 
BRANCH  11  12
ATOM     12  C   UNL     1     -26.785  10.721  -5.944  1.00  0.00    -0.000 C 
BRANCH  12  13
ATOM     13  C   UNL     1     -27.059  10.739  -4.432  1.00  0.00    -0.000 C 
BRANCH  13  14
ATOM     14  C   UNL     1     -27.477   9.363  -3.889  1.00  0.00    -0.000 C 
BRANCH  14  15
ATOM     15  C   UNL     1     -27.983   8.421  -4.991  1.00  0.00    -0.003 C 
ATOM     16  C   UNL     1     -29.501   8.496  -5.123  1.00  0.00     0.004 C 
ENDBRANCH  14  15
ENDBRANCH  13  14
ENDBRANCH  12  13
ENDBRANCH  11  12
ENDBRANCH  10  11
ENDBRANCH   1  10
TORSDOF 12
ENDMDL
MODEL 8
REMARK VINA RESULT:    -0.653      3.702      7.423
REMARK INTER + INTRA:          -1.771
REMARK INTER:                  -1.472
REMARK INTRA:                  -0.298
REMARK UNBOUND:                -0.660
REMARK SMILES CCCCCCCCCCCCCC(=O)[O-]
REMARK SMILES IDX 8 1 9 2 10 3 11 4 12 5 13 6 14 7 15 8 16 9 7 10 6 11 5 12
REMARK SMILES IDX 4 13 3 14 2 15 1 16
REMARK H PARENT
REMARK Flexibility Score: inf
ROOT
ATOM      1  C   UNL     1     -25.746  10.034  -5.303  1.00  0.00     0.000 C 
ENDROOT
BRANCH   1   2
ATOM      2  C   UNL     1     -26.961   9.469  -4.553  1.00  0.00     0.000 C 
BRANCH   2   3
ATOM      3  C   UNL     1     -27.913   8.688  -5.482  1.00  0.00     0.000 C 
BRANCH   3   4
ATOM      4  C   UNL     1     -29.170   8.149  -4.773  1.00  0.00     0.000 C 
BRANCH   4   5
ATOM      5  C   UNL     1     -30.356   7.843  -5.704  1.00  0.00     0.006 C 
BRANCH   5   6
ATOM      6  C   UNL     1     -30.507   8.873  -6.831  1.00  0.00     0.053 C 
BRANCH   6   7
ATOM      7  C   UNL     1     -31.892   8.827  -7.394  1.00  0.00     0.041 C 
ATOM      8  O   UNL     1     -32.301   7.792  -7.983  1.00  0.00    -0.550 OA
ATOM      9  O   UNL     1     -32.747   9.908  -7.226  1.00  0.00    -0.550 OA
ENDBRANCH   6   7
ENDBRANCH   5   6
ENDBRANCH   4   5
ENDBRANCH   3   4
ENDBRANCH   2   3
ENDBRANCH   1   2
BRANCH   1  10
ATOM     10  C   UNL     1     -24.558  10.243  -4.355  1.00  0.00     0.000 C 
BRANCH  10  11
ATOM     11  C   UNL     1     -23.996   8.900  -3.875  1.00  0.00    -0.000 C 
BRANCH  11  12
ATOM     12  C   UNL     1     -22.517   8.755  -4.255  1.00  0.00    -0.000 C 
BRANCH  12  13
ATOM     13  C   UNL     1     -22.359   7.929  -5.541  1.00  0.00    -0.000 C 
BRANCH  13  14
ATOM     14  C   UNL     1     -23.099   6.583  -5.475  1.00  0.00    -0.000 C 
BRANCH  14  15
ATOM     15  C   UNL     1     -24.609   6.725  -5.716  1.00  0.00    -0.003 C 
ATOM     16  C   UNL     1     -25.237   5.381  -6.070  1.00  0.00     0.004 C 
ENDBRANCH  14  15
ENDBRANCH  13  14
ENDBRANCH  12  13
ENDBRANCH  11  12
ENDBRANCH  10  11
ENDBRANCH   1  10
TORSDOF 12
ENDMDL
