MODEL 1
REMARK VINA RESULT:    -1.638      0.000      0.000
REMARK INTER + INTRA:          -4.458
REMARK INTER:                  -2.786
REMARK INTRA:                  -1.672
REMARK UNBOUND:                -1.672
REMARK SMILES CCCCCCCCCCCCCC(=O)[O-]
REMARK SMILES IDX 8 1 9 2 10 3 11 4 12 5 13 6 14 7 15 8 16 9 7 10 6 11 5 12
REMARK SMILES IDX 4 13 3 14 2 15 1 16
REMARK H PARENT
REMARK Flexibility Score: inf
ROOT
ATOM      1  C   UNL     1     174.110 180.689 194.116  1.00  0.00     0.000 C 
ENDROOT
BRANCH   1   2
ATOM      2  C   UNL     1     174.384 179.573 195.134  1.00  0.00     0.000 C 
BRANCH   2   3
ATOM      3  C   UNL     1     173.110 179.083 195.843  1.00  0.00     0.000 C 
BRANCH   3   4
ATOM      4  C   UNL     1     173.081 177.558 196.079  1.00  0.00     0.000 C 
BRANCH   4   5
ATOM      5  C   UNL     1     173.070 177.203 197.577  1.00  0.00     0.006 C 
BRANCH   5   6
ATOM      6  C   UNL     1     173.030 178.451 198.469  1.00  0.00     0.053 C 
BRANCH   6   7
ATOM      7  C   UNL     1     172.253 178.212 199.727  1.00  0.00     0.041 C 
ATOM      8  O   UNL     1     171.515 177.197 199.832  1.00  0.00    -0.550 OA
ATOM      9  O   UNL     1     172.370 179.091 200.796  1.00  0.00    -0.550 OA
ENDBRANCH   6   7
ENDBRANCH   5   6
ENDBRANCH   4   5
ENDBRANCH   3   4
ENDBRANCH   2   3
ENDBRANCH   1   2
BRANCH   1  10
ATOM     10  C   UNL     1     172.634 181.116 194.155  1.00  0.00     0.000 C 
BRANCH  10  11
ATOM     11  C   UNL     1     171.953 181.024 192.779  1.00  0.00    -0.000 C 
BRANCH  11  12
ATOM     12  C   UNL     1     172.428 179.808 191.965  1.00  0.00    -0.000 C 
BRANCH  12  13
ATOM     13  C   UNL     1     171.492 178.594 192.102  1.00  0.00    -0.000 C 
BRANCH  13  14
ATOM     14  C   UNL     1     172.186 177.267 192.472  1.00  0.00    -0.000 C 
BRANCH  14  15
ATOM     15  C   UNL     1     173.527 177.014 191.762  1.00  0.00    -0.003 C 
ATOM     16  C   UNL     1     174.698 176.876 192.734  1.00  0.00     0.004 C 
ENDBRANCH  14  15
ENDBRANCH  13  14
ENDBRANCH  12  13
ENDBRANCH  11  12
ENDBRANCH  10  11
ENDBRANCH   1  10
TORSDOF 12
ENDMDL
MODEL 2
REMARK VINA RESULT:    -1.506      3.018      5.880
REMARK INTER + INTRA:          -4.235
REMARK INTER:                  -2.242
REMARK INTRA:                  -1.993
REMARK UNBOUND:                -1.672
REMARK SMILES CCCCCCCCCCCCCC(=O)[O-]
REMARK SMILES IDX 8 1 9 2 10 3 11 4 12 5 13 6 14 7 15 8 16 9 7 10 6 11 5 12
REMARK SMILES IDX 4 13 3 14 2 15 1 16
REMARK H PARENT
REMARK Flexibility Score: inf
ROOT
ATOM      1  C   UNL     1     176.701 177.904 196.891  1.00  0.00     0.000 C 
ENDROOT
BRANCH   1   2
ATOM      2  C   UNL     1     176.793 179.107 197.840  1.00  0.00     0.000 C 
BRANCH   2   3
ATOM      3  C   UNL     1     176.424 180.436 197.159  1.00  0.00     0.000 C 
BRANCH   3   4
ATOM      4  C   UNL     1     176.442 180.368 195.617  1.00  0.00     0.000 C 
BRANCH   4   5
ATOM      5  C   UNL     1     175.088 180.769 195.002  1.00  0.00     0.006 C 
BRANCH   5   6
ATOM      6  C   UNL     1     174.600 179.754 193.961  1.00  0.00     0.053 C 
BRANCH   6   7
ATOM      7  C   UNL     1     173.105 179.725 193.869  1.00  0.00     0.041 C 
ATOM      8  O   UNL     1     172.517 178.704 193.426  1.00  0.00    -0.550 OA
ATOM      9  O   UNL     1     172.359 180.814 194.303  1.00  0.00    -0.550 OA
ENDBRANCH   6   7
ENDBRANCH   5   6
ENDBRANCH   4   5
ENDBRANCH   3   4
ENDBRANCH   2   3
ENDBRANCH   1   2
BRANCH   1  10
ATOM     10  C   UNL     1     175.551 176.970 197.300  1.00  0.00     0.000 C 
BRANCH  10  11
ATOM     11  C   UNL     1     174.415 176.938 196.265  1.00  0.00    -0.000 C 
BRANCH  11  12
ATOM     12  C   UNL     1     173.064 177.373 196.858  1.00  0.00    -0.000 C 
BRANCH  12  13
ATOM     13  C   UNL     1     173.098 178.796 197.443  1.00  0.00    -0.000 C 
BRANCH  13  14
ATOM     14  C   UNL     1     172.748 178.900 198.942  1.00  0.00    -0.000 C 
BRANCH  14  15
ATOM     15  C   UNL     1     172.656 177.556 199.684  1.00  0.00    -0.003 C 
ATOM     16  C   UNL     1     171.261 177.280 200.245  1.00  0.00     0.004 C 
ENDBRANCH  14  15
ENDBRANCH  13  14
ENDBRANCH  12  13
ENDBRANCH  11  12
ENDBRANCH  10  11
ENDBRANCH   1  10
TORSDOF 12
ENDMDL
MODEL 3
REMARK VINA RESULT:    -1.497      1.673      2.707
REMARK INTER + INTRA:          -4.219
REMARK INTER:                  -2.241
REMARK INTRA:                  -1.977
REMARK UNBOUND:                -1.672
REMARK SMILES CCCCCCCCCCCCCC(=O)[O-]
REMARK SMILES IDX 8 1 9 2 10 3 11 4 12 5 13 6 14 7 15 8 16 9 7 10 6 11 5 12
REMARK SMILES IDX 4 13 3 14 2 15 1 16
REMARK H PARENT
REMARK Flexibility Score: inf
ROOT
ATOM      1  C   UNL     1     175.776 179.260 196.156  1.00  0.00     0.000 C 
ENDROOT
BRANCH   1   2
ATOM      2  C   UNL     1     176.051 179.047 197.651  1.00  0.00     0.000 C 
BRANCH   2   3
ATOM      3  C   UNL     1     175.475 177.724 198.183  1.00  0.00     0.000 C 
BRANCH   3   4
ATOM      4  C   UNL     1     174.423 177.087 197.250  1.00  0.00     0.000 C 
BRANCH   4   5
ATOM      5  C   UNL     1     172.989 177.277 197.778  1.00  0.00     0.006 C 
BRANCH   5   6
ATOM      6  C   UNL     1     172.957 177.564 199.284  1.00  0.00     0.053 C 
BRANCH   6   7
ATOM      7  C   UNL     1     172.209 178.824 199.595  1.00  0.00     0.041 C 
ATOM      8  O   UNL     1     172.664 179.939 199.225  1.00  0.00    -0.550 OA
ATOM      9  O   UNL     1     170.993 178.765 200.264  1.00  0.00    -0.550 OA
ENDBRANCH   6   7
ENDBRANCH   5   6
ENDBRANCH   4   5
ENDBRANCH   3   4
ENDBRANCH   2   3
ENDBRANCH   1   2
BRANCH   1  10
ATOM     10  C   UNL     1     175.639 180.756 195.832  1.00  0.00     0.000 C 
BRANCH  10  11
ATOM     11  C   UNL     1     174.263 181.324 196.216  1.00  0.00    -0.000 C 
BRANCH  11  12
ATOM     12  C   UNL     1     173.104 180.422 195.759  1.00  0.00    -0.000 C 
BRANCH  12  13
ATOM     13  C   UNL     1     172.687 180.678 194.298  1.00  0.00    -0.000 C 
BRANCH  13  14
ATOM     14  C   UNL     1     172.849 179.474 193.348  1.00  0.00    -0.000 C 
BRANCH  14  15
ATOM     15  C   UNL     1     172.864 178.098 194.036  1.00  0.00    -0.003 C 
ATOM     16  C   UNL     1     174.009 177.206 193.558  1.00  0.00     0.004 C 
ENDBRANCH  14  15
ENDBRANCH  13  14
ENDBRANCH  12  13
ENDBRANCH  11  12
ENDBRANCH  10  11
ENDBRANCH   1  10
TORSDOF 12
ENDMDL
MODEL 4
REMARK VINA RESULT:    -1.496      3.441      6.437
REMARK INTER + INTRA:          -4.217
REMARK INTER:                  -2.758
REMARK INTRA:                  -1.459
REMARK UNBOUND:                -1.672
REMARK SMILES CCCCCCCCCCCCCC(=O)[O-]
REMARK SMILES IDX 8 1 9 2 10 3 11 4 12 5 13 6 14 7 15 8 16 9 7 10 6 11 5 12
REMARK SMILES IDX 4 13 3 14 2 15 1 16
REMARK H PARENT
REMARK Flexibility Score: inf
ROOT
ATOM      1  C   UNL     1     175.634 178.574 196.006  1.00  0.00     0.000 C 
ENDROOT
BRANCH   1   2
ATOM      2  C   UNL     1     174.494 179.058 195.099  1.00  0.00     0.000 C 
BRANCH   2   3
ATOM      3  C   UNL     1     173.105 178.639 195.608  1.00  0.00     0.000 C 
BRANCH   3   4
ATOM      4  C   UNL     1     172.735 177.180 195.265  1.00  0.00     0.000 C 
BRANCH   4   5
ATOM      5  C   UNL     1     172.903 176.875 193.765  1.00  0.00     0.006 C 
BRANCH   5   6
ATOM      6  C   UNL     1     171.698 177.344 192.939  1.00  0.00     0.053 C 
BRANCH   6   7
ATOM      7  C   UNL     1     172.067 178.442 191.990  1.00  0.00     0.041 C 
ATOM      8  O   UNL     1     171.168 179.100 191.403  1.00  0.00    -0.550 OA
ATOM      9  O   UNL     1     173.402 178.762 191.779  1.00  0.00    -0.550 OA
ENDBRANCH   6   7
ENDBRANCH   5   6
ENDBRANCH   4   5
ENDBRANCH   3   4
ENDBRANCH   2   3
ENDBRANCH   1   2
BRANCH   1  10
ATOM     10  C   UNL     1     175.190 178.547 197.477  1.00  0.00     0.000 C 
BRANCH  10  11
ATOM     11  C   UNL     1     175.396 177.173 198.135  1.00  0.00    -0.000 C 
BRANCH  11  12
ATOM     12  C   UNL     1     174.410 176.916 199.287  1.00  0.00    -0.000 C 
BRANCH  12  13
ATOM     13  C   UNL     1     173.026 177.544 199.040  1.00  0.00    -0.000 C 
BRANCH  13  14
ATOM     14  C   UNL     1     172.513 178.469 200.162  1.00  0.00    -0.000 C 
BRANCH  14  15
ATOM     15  C   UNL     1     171.724 179.699 199.682  1.00  0.00    -0.003 C 
ATOM     16  C   UNL     1     172.532 180.596 198.745  1.00  0.00     0.004 C 
ENDBRANCH  14  15
ENDBRANCH  13  14
ENDBRANCH  12  13
ENDBRANCH  11  12
ENDBRANCH  10  11
ENDBRANCH   1  10
TORSDOF 12
ENDMDL
MODEL 5
REMARK VINA RESULT:    -1.483      1.414      2.886
REMARK INTER + INTRA:          -4.195
REMARK INTER:                  -2.827
REMARK INTRA:                  -1.367
REMARK UNBOUND:                -1.672
REMARK SMILES CCCCCCCCCCCCCC(=O)[O-]
REMARK SMILES IDX 8 1 9 2 10 3 11 4 12 5 13 6 14 7 15 8 16 9 7 10 6 11 5 12
REMARK SMILES IDX 4 13 3 14 2 15 1 16
REMARK H PARENT
REMARK Flexibility Score: inf
ROOT
ATOM      1  C   UNL     1     173.133 178.637 195.835  1.00  0.00     0.000 C 
ENDROOT
BRANCH   1   2
ATOM      2  C   UNL     1     174.580 178.425 196.300  1.00  0.00     0.000 C 
BRANCH   2   3
ATOM      3  C   UNL     1     174.676 177.929 197.753  1.00  0.00     0.000 C 
BRANCH   3   4
ATOM      4  C   UNL     1     173.443 177.123 198.214  1.00  0.00     0.000 C 
BRANCH   4   5
ATOM      5  C   UNL     1     172.859 177.661 199.533  1.00  0.00     0.006 C 
BRANCH   5   6
ATOM      6  C   UNL     1     173.240 179.125 199.783  1.00  0.00     0.053 C 
BRANCH   6   7
ATOM      7  C   UNL     1     172.139 180.062 199.389  1.00  0.00     0.041 C 
ATOM      8  O   UNL     1     172.346 180.954 198.524  1.00  0.00    -0.550 OA
ATOM      9  O   UNL     1     170.877 179.929 199.952  1.00  0.00    -0.550 OA
ENDBRANCH   6   7
ENDBRANCH   5   6
ENDBRANCH   4   5
ENDBRANCH   3   4
ENDBRANCH   2   3
ENDBRANCH   1   2
BRANCH   1  10
ATOM     10  C   UNL     1     172.752 177.622 194.746  1.00  0.00     0.000 C 
BRANCH  10  11
ATOM     11  C   UNL     1     173.928 177.275 193.819  1.00  0.00    -0.000 C 
BRANCH  11  12
ATOM     12  C   UNL     1     173.489 177.070 192.359  1.00  0.00    -0.000 C 
BRANCH  12  13
ATOM     13  C   UNL     1     172.007 177.417 192.127  1.00  0.00    -0.000 C 
BRANCH  13  14
ATOM     14  C   UNL     1     171.751 178.626 191.204  1.00  0.00    -0.000 C 
BRANCH  14  15
ATOM     15  C   UNL     1     171.160 179.863 191.902  1.00  0.00    -0.003 C 
ATOM     16  C   UNL     1     172.209 180.679 192.657  1.00  0.00     0.004 C 
ENDBRANCH  14  15
ENDBRANCH  13  14
ENDBRANCH  12  13
ENDBRANCH  11  12
ENDBRANCH  10  11
ENDBRANCH   1  10
TORSDOF 12
ENDMDL
MODEL 6
REMARK VINA RESULT:    -1.459      3.147      5.735
REMARK INTER + INTRA:          -4.154
REMARK INTER:                  -2.221
REMARK INTRA:                  -1.933
REMARK UNBOUND:                -1.672
REMARK SMILES CCCCCCCCCCCCCC(=O)[O-]
REMARK SMILES IDX 8 1 9 2 10 3 11 4 12 5 13 6 14 7 15 8 16 9 7 10 6 11 5 12
REMARK SMILES IDX 4 13 3 14 2 15 1 16
REMARK H PARENT
REMARK Flexibility Score: inf
ROOT
ATOM      1  C   UNL     1     171.649 179.558 199.646  1.00  0.00     0.000 C 
ENDROOT
BRANCH   1   2
ATOM      2  C   UNL     1     172.407 178.394 200.300  1.00  0.00     0.000 C 
BRANCH   2   3
ATOM      3  C   UNL     1     173.490 177.796 199.385  1.00  0.00     0.000 C 
BRANCH   3   4
ATOM      4  C   UNL     1     172.944 177.274 198.039  1.00  0.00     0.000 C 
BRANCH   4   5
ATOM      5  C   UNL     1     173.857 177.650 196.858  1.00  0.00     0.006 C 
BRANCH   5   6
ATOM      6  C   UNL     1     173.200 178.667 195.916  1.00  0.00     0.053 C 
BRANCH   6   7
ATOM      7  C   UNL     1     172.810 178.047 194.610  1.00  0.00     0.041 C 
ATOM      8  O   UNL     1     172.211 176.939 194.589  1.00  0.00    -0.550 OA
ATOM      9  O   UNL     1     173.076 178.707 193.418  1.00  0.00    -0.550 OA
ENDBRANCH   6   7
ENDBRANCH   5   6
ENDBRANCH   4   5
ENDBRANCH   3   4
ENDBRANCH   2   3
ENDBRANCH   1   2
BRANCH   1  10
ATOM     10  C   UNL     1     172.472 180.855 199.714  1.00  0.00     0.000 C 
BRANCH  10  11
ATOM     11  C   UNL     1     172.832 181.403 198.324  1.00  0.00    -0.000 C 
BRANCH  11  12
ATOM     12  C   UNL     1     174.256 181.984 198.269  1.00  0.00    -0.000 C 
BRANCH  12  13
ATOM     13  C   UNL     1     175.050 181.503 197.041  1.00  0.00    -0.000 C 
BRANCH  13  14
ATOM     14  C   UNL     1     176.271 180.614 197.353  1.00  0.00    -0.000 C 
BRANCH  14  15
ATOM     15  C   UNL     1     176.331 180.073 198.792  1.00  0.00    -0.003 C 
ATOM     16  C   UNL     1     176.946 178.676 198.877  1.00  0.00     0.004 C 
ENDBRANCH  14  15
ENDBRANCH  13  14
ENDBRANCH  12  13
ENDBRANCH  11  12
ENDBRANCH  10  11
ENDBRANCH   1  10
TORSDOF 12
ENDMDL
MODEL 7
REMARK VINA RESULT:    -1.454      1.854      3.209
REMARK INTER + INTRA:          -4.145
REMARK INTER:                  -2.379
REMARK INTRA:                  -1.766
REMARK UNBOUND:                -1.672
REMARK SMILES CCCCCCCCCCCCCC(=O)[O-]
REMARK SMILES IDX 8 1 9 2 10 3 11 4 12 5 13 6 14 7 15 8 16 9 7 10 6 11 5 12
REMARK SMILES IDX 4 13 3 14 2 15 1 16
REMARK H PARENT
REMARK Flexibility Score: inf
ROOT
ATOM      1  C   UNL     1     173.063 178.055 196.138  1.00  0.00     0.000 C 
ENDROOT
BRANCH   1   2
ATOM      2  C   UNL     1     173.094 176.907 197.157  1.00  0.00     0.000 C 
BRANCH   2   3
ATOM      3  C   UNL     1     173.495 177.369 198.568  1.00  0.00     0.000 C 
BRANCH   3   4
ATOM      4  C   UNL     1     172.294 177.763 199.455  1.00  0.00     0.000 C 
BRANCH   4   5
ATOM      5  C   UNL     1     172.107 179.289 199.534  1.00  0.00     0.006 C 
BRANCH   5   6
ATOM      6  C   UNL     1     173.446 180.038 199.571  1.00  0.00     0.053 C 
BRANCH   6   7
ATOM      7  C   UNL     1     173.408 181.287 198.747  1.00  0.00     0.041 C 
ATOM      8  O   UNL     1     172.307 181.757 198.357  1.00  0.00    -0.550 OA
ATOM      9  O   UNL     1     174.588 181.953 198.437  1.00  0.00    -0.550 OA
ENDBRANCH   6   7
ENDBRANCH   5   6
ENDBRANCH   4   5
ENDBRANCH   3   4
ENDBRANCH   2   3
ENDBRANCH   1   2
BRANCH   1  10
ATOM     10  C   UNL     1     174.405 178.801 196.112  1.00  0.00     0.000 C 
BRANCH  10  11
ATOM     11  C   UNL     1     174.323 180.146 195.371  1.00  0.00    -0.000 C 
BRANCH  11  12
ATOM     12  C   UNL     1     172.886 180.504 194.955  1.00  0.00    -0.000 C 
BRANCH  12  13
ATOM     13  C   UNL     1     172.717 180.618 193.429  1.00  0.00    -0.000 C 
BRANCH  13  14
ATOM     14  C   UNL     1     172.315 179.314 192.712  1.00  0.00    -0.000 C 
BRANCH  14  15
ATOM     15  C   UNL     1     173.449 178.620 191.938  1.00  0.00    -0.003 C 
ATOM     16  C   UNL     1     173.930 177.335 192.612  1.00  0.00     0.004 C 
ENDBRANCH  14  15
ENDBRANCH  13  14
ENDBRANCH  12  13
ENDBRANCH  11  12
ENDBRANCH  10  11
ENDBRANCH   1  10
TORSDOF 12
ENDMDL
MODEL 8
REMARK VINA RESULT:    -1.433      1.745      3.230
REMARK INTER + INTRA:          -4.110
REMARK INTER:                  -2.166
REMARK INTRA:                  -1.943
REMARK UNBOUND:                -1.672
REMARK SMILES CCCCCCCCCCCCCC(=O)[O-]
REMARK SMILES IDX 8 1 9 2 10 3 11 4 12 5 13 6 14 7 15 8 16 9 7 10 6 11 5 12
REMARK SMILES IDX 4 13 3 14 2 15 1 16
REMARK H PARENT
REMARK Flexibility Score: inf
ROOT
ATOM      1  C   UNL     1     175.432 179.974 192.943  1.00  0.00     0.000 C 
ENDROOT
BRANCH   1   2
ATOM      2  C   UNL     1     175.135 180.948 194.092  1.00  0.00     0.000 C 
BRANCH   2   3
ATOM      3  C   UNL     1     173.672 181.423 194.111  1.00  0.00     0.000 C 
BRANCH   3   4
ATOM      4  C   UNL     1     172.904 181.009 195.384  1.00  0.00     0.000 C 
BRANCH   4   5
ATOM      5  C   UNL     1     173.797 181.047 196.639  1.00  0.00     0.006 C 
BRANCH   5   6
ATOM      6  C   UNL     1     173.432 179.948 197.644  1.00  0.00     0.053 C 
BRANCH   6   7
ATOM      7  C   UNL     1     172.513 180.453 198.713  1.00  0.00     0.041 C 
ATOM      8  O   UNL     1     172.510 181.674 199.022  1.00  0.00    -0.550 OA
ATOM      9  O   UNL     1     171.634 179.582 199.345  1.00  0.00    -0.550 OA
ENDBRANCH   6   7
ENDBRANCH   5   6
ENDBRANCH   4   5
ENDBRANCH   3   4
ENDBRANCH   2   3
ENDBRANCH   1   2
BRANCH   1  10
ATOM     10  C   UNL     1     176.078 178.684 193.471  1.00  0.00     0.000 C 
BRANCH  10  11
ATOM     11  C   UNL     1     175.476 178.222 194.808  1.00  0.00    -0.000 C 
BRANCH  11  12
ATOM     12  C   UNL     1     174.459 177.080 194.635  1.00  0.00    -0.000 C 
BRANCH  12  13
ATOM     13  C   UNL     1     173.005 177.537 194.854  1.00  0.00    -0.000 C 
BRANCH  13  14
ATOM     14  C   UNL     1     171.962 176.875 193.931  1.00  0.00    -0.000 C 
BRANCH  14  15
ATOM     15  C   UNL     1     172.047 177.287 192.452  1.00  0.00    -0.003 C 
ATOM     16  C   UNL     1     171.994 178.801 192.251  1.00  0.00     0.004 C 
ENDBRANCH  14  15
ENDBRANCH  13  14
ENDBRANCH  12  13
ENDBRANCH  11  12
ENDBRANCH  10  11
ENDBRANCH   1  10
TORSDOF 12
ENDMDL
MODEL 9
REMARK VINA RESULT:    -1.410      3.484      6.515
REMARK INTER + INTRA:          -4.072
REMARK INTER:                  -2.325
REMARK INTRA:                  -1.746
REMARK UNBOUND:                -1.672
REMARK SMILES CCCCCCCCCCCCCC(=O)[O-]
REMARK SMILES IDX 8 1 9 2 10 3 11 4 12 5 13 6 14 7 15 8 16 9 7 10 6 11 5 12
REMARK SMILES IDX 4 13 3 14 2 15 1 16
REMARK H PARENT
REMARK Flexibility Score: inf
ROOT
ATOM      1  C   UNL     1     172.743 180.680 198.304  1.00  0.00     0.000 C 
ENDROOT
BRANCH   1   2
ATOM      2  C   UNL     1     174.223 180.510 197.934  1.00  0.00     0.000 C 
BRANCH   2   3
ATOM      3  C   UNL     1     174.473 179.313 197.001  1.00  0.00     0.000 C 
BRANCH   3   4
ATOM      4  C   UNL     1     173.181 178.593 196.559  1.00  0.00     0.000 C 
BRANCH   4   5
ATOM      5  C   UNL     1     173.019 178.578 195.028  1.00  0.00     0.006 C 
BRANCH   5   6
ATOM      6  C   UNL     1     173.015 177.154 194.458  1.00  0.00     0.053 C 
BRANCH   6   7
ATOM      7  C   UNL     1     173.515 177.117 193.047  1.00  0.00     0.041 C 
ATOM      8  O   UNL     1     174.728 176.875 192.811  1.00  0.00    -0.550 OA
ATOM      9  O   UNL     1     172.635 177.315 191.990  1.00  0.00    -0.550 OA
ENDBRANCH   6   7
ENDBRANCH   5   6
ENDBRANCH   4   5
ENDBRANCH   3   4
ENDBRANCH   2   3
ENDBRANCH   1   2
BRANCH   1  10
ATOM     10  C   UNL     1     172.519 180.421 199.802  1.00  0.00     0.000 C 
BRANCH  10  11
ATOM     11  C   UNL     1     171.298 179.527 200.073  1.00  0.00    -0.000 C 
BRANCH  11  12
ATOM     12  C   UNL     1     171.651 178.029 200.070  1.00  0.00    -0.000 C 
BRANCH  12  13
ATOM     13  C   UNL     1     173.008 177.733 200.734  1.00  0.00    -0.000 C 
BRANCH  13  14
ATOM     14  C   UNL     1     173.979 176.879 199.894  1.00  0.00    -0.000 C 
BRANCH  14  15
ATOM     15  C   UNL     1     175.431 177.387 199.861  1.00  0.00    -0.003 C 
ATOM     16  C   UNL     1     175.678 178.546 200.825  1.00  0.00     0.004 C 
ENDBRANCH  14  15
ENDBRANCH  13  14
ENDBRANCH  12  13
ENDBRANCH  11  12
ENDBRANCH  10  11
ENDBRANCH   1  10
TORSDOF 12
ENDMDL
