MODEL 1
REMARK VINA RESULT:    -2.710      0.000      0.000
REMARK INTER + INTRA:         -10.389
REMARK INTER:                  -6.196
REMARK INTRA:                  -4.192
REMARK UNBOUND:                -4.192
REMARK SMILES CCCCCCCCCCCCCCCCCCCCCCCC(=O)[O-]
REMARK SMILES IDX 13 1 14 2 15 3 16 4 17 5 18 6 19 7 20 8 21 9 22 10 23 11
REMARK SMILES IDX 24 12 25 13 26 14 12 15 11 16 10 17 9 18 8 19 7 20 6 21 5 22
REMARK SMILES IDX 4 23 3 24 2 25 1 26
REMARK H PARENT
REMARK Flexibility Score: inf
ROOT
ATOM      1  C   UNL     1      22.263   8.544  18.094  1.00  0.00     0.000 C 
ENDROOT
BRANCH   1   2
ATOM      2  C   UNL     1      21.497   7.247  18.387  1.00  0.00     0.000 C 
BRANCH   2   3
ATOM      3  C   UNL     1      22.360   6.014  18.092  1.00  0.00     0.000 C 
BRANCH   3   4
ATOM      4  C   UNL     1      21.837   5.273  16.853  1.00  0.00     0.000 C 
BRANCH   4   5
ATOM      5  C   UNL     1      22.416   5.816  15.533  1.00  0.00     0.000 C 
BRANCH   5   6
ATOM      6  C   UNL     1      23.740   5.167  15.078  1.00  0.00     0.000 C 
BRANCH   6   7
ATOM      7  C   UNL     1      24.903   6.149  14.849  1.00  0.00     0.000 C 
BRANCH   7   8
ATOM      8  C   UNL     1      24.921   7.304  15.865  1.00  0.00     0.000 C 
BRANCH   8   9
ATOM      9  C   UNL     1      25.830   7.023  17.075  1.00  0.00     0.000 C 
BRANCH   9  10
ATOM     10  C   UNL     1      26.068   8.231  18.003  1.00  0.00     0.006 C 
BRANCH  10  11
ATOM     11  C   UNL     1      26.690   7.839  19.350  1.00  0.00     0.053 C 
BRANCH  11  12
ATOM     12  C   UNL     1      25.627   7.433  20.321  1.00  0.00     0.041 C 
ATOM     13  O   UNL     1      24.697   8.231  20.615  1.00  0.00    -0.550 OA
ATOM     14  O   UNL     1      25.648   6.162  20.881  1.00  0.00    -0.550 OA
ENDBRANCH  11  12
ENDBRANCH  10  11
ENDBRANCH   9  10
ENDBRANCH   8   9
ENDBRANCH   7   8
ENDBRANCH   6   7
ENDBRANCH   5   6
ENDBRANCH   4   5
ENDBRANCH   3   4
ENDBRANCH   2   3
ENDBRANCH   1   2
BRANCH   1  15
ATOM     15  C   UNL     1      21.597   9.397  16.999  1.00  0.00     0.000 C 
BRANCH  15  16
ATOM     16  C   UNL     1      20.357   8.733  16.362  1.00  0.00     0.000 C 
BRANCH  16  17
ATOM     17  C   UNL     1      19.069   9.527  16.639  1.00  0.00     0.000 C 
BRANCH  17  18
ATOM     18  C   UNL     1      17.937   8.646  17.191  1.00  0.00    -0.000 C 
BRANCH  18  19
ATOM     19  C   UNL     1      18.002   8.487  18.717  1.00  0.00    -0.000 C 
BRANCH  19  20
ATOM     20  C   UNL     1      18.222   9.847  19.396  1.00  0.00    -0.000 C 
BRANCH  20  21
ATOM     21  C   UNL     1      19.471   9.871  20.290  1.00  0.00    -0.000 C 
BRANCH  21  22
ATOM     22  C   UNL     1      20.393  11.070  19.991  1.00  0.00    -0.000 C 
BRANCH  22  23
ATOM     23  C   UNL     1      19.610  12.373  19.775  1.00  0.00    -0.000 C 
BRANCH  23  24
ATOM     24  C   UNL     1      19.801  12.948  18.361  1.00  0.00    -0.000 C 
BRANCH  24  25
ATOM     25  C   UNL     1      21.282  13.079  17.976  1.00  0.00    -0.003 C 
ATOM     26  C   UNL     1      21.506  13.017  16.465  1.00  0.00     0.004 C 
ENDBRANCH  24  25
ENDBRANCH  23  24
ENDBRANCH  22  23
ENDBRANCH  21  22
ENDBRANCH  20  21
ENDBRANCH  19  20
ENDBRANCH  18  19
ENDBRANCH  17  18
ENDBRANCH  16  17
ENDBRANCH  15  16
ENDBRANCH   1  15
TORSDOF 22
ENDMDL
MODEL 2
REMARK VINA RESULT:    -2.660      2.506      5.716
REMARK INTER + INTRA:         -10.273
REMARK INTER:                  -6.160
REMARK INTRA:                  -4.113
REMARK UNBOUND:                -4.192
REMARK SMILES CCCCCCCCCCCCCCCCCCCCCCCC(=O)[O-]
REMARK SMILES IDX 13 1 14 2 15 3 16 4 17 5 18 6 19 7 20 8 21 9 22 10 23 11
REMARK SMILES IDX 24 12 25 13 26 14 12 15 11 16 10 17 9 18 8 19 7 20 6 21 5 22
REMARK SMILES IDX 4 23 3 24 2 25 1 26
REMARK H PARENT
REMARK Flexibility Score: inf
ROOT
ATOM      1  C   UNL     1      25.655   6.737  16.826  1.00  0.00     0.000 C 
ENDROOT
BRANCH   1   2
ATOM      2  C   UNL     1      25.762   8.238  17.124  1.00  0.00     0.000 C 
BRANCH   2   3
ATOM      3  C   UNL     1      26.415   8.488  18.489  1.00  0.00     0.000 C 
BRANCH   3   4
ATOM      4  C   UNL     1      26.341   7.227  19.362  1.00  0.00     0.000 C 
BRANCH   4   5
ATOM      5  C   UNL     1      25.380   7.372  20.556  1.00  0.00     0.000 C 
BRANCH   5   6
ATOM      6  C   UNL     1      23.879   7.319  20.203  1.00  0.00     0.000 C 
BRANCH   6   7
ATOM      7  C   UNL     1      23.041   8.493  20.740  1.00  0.00     0.000 C 
BRANCH   7   8
ATOM      8  C   UNL     1      23.674   9.865  20.446  1.00  0.00     0.000 C 
BRANCH   8   9
ATOM      9  C   UNL     1      22.714  11.038  20.714  1.00  0.00     0.000 C 
BRANCH   9  10
ATOM     10  C   UNL     1      21.623  11.241  19.644  1.00  0.00     0.006 C 
BRANCH  10  11
ATOM     11  C   UNL     1      21.574  12.675  19.101  1.00  0.00     0.053 C 
BRANCH  11  12
ATOM     12  C   UNL     1      20.968  12.700  17.734  1.00  0.00     0.041 C 
ATOM     13  O   UNL     1      19.768  12.354  17.564  1.00  0.00    -0.550 OA
ATOM     14  O   UNL     1      21.721  13.132  16.649  1.00  0.00    -0.550 OA
ENDBRANCH  11  12
ENDBRANCH  10  11
ENDBRANCH   9  10
ENDBRANCH   8   9
ENDBRANCH   7   8
ENDBRANCH   6   7
ENDBRANCH   5   6
ENDBRANCH   4   5
ENDBRANCH   3   4
ENDBRANCH   2   3
ENDBRANCH   1   2
BRANCH   1  15
ATOM     15  C   UNL     1      24.996   6.442  15.466  1.00  0.00     0.000 C 
BRANCH  15  16
ATOM     16  C   UNL     1      23.774   5.504  15.558  1.00  0.00     0.000 C 
BRANCH  16  17
ATOM     17  C   UNL     1      22.936   5.767  16.821  1.00  0.00     0.000 C 
BRANCH  17  18
ATOM     18  C   UNL     1      21.765   6.729  16.567  1.00  0.00    -0.000 C 
BRANCH  18  19
ATOM     19  C   UNL     1      22.028   8.138  17.118  1.00  0.00    -0.000 C 
BRANCH  19  20
ATOM     20  C   UNL     1      20.947   9.119  16.640  1.00  0.00    -0.000 C 
BRANCH  20  21
ATOM     21  C   UNL     1      19.807   8.423  15.880  1.00  0.00    -0.000 C 
BRANCH  21  22
ATOM     22  C   UNL     1      18.420   8.988  16.243  1.00  0.00    -0.000 C 
BRANCH  22  23
ATOM     23  C   UNL     1      18.062   8.761  17.719  1.00  0.00    -0.000 C 
BRANCH  23  24
ATOM     24  C   UNL     1      18.051   7.271  18.100  1.00  0.00    -0.000 C 
BRANCH  24  25
ATOM     25  C   UNL     1      19.053   6.943  19.217  1.00  0.00    -0.003 C 
ATOM     26  C   UNL     1      19.523   8.187  19.970  1.00  0.00     0.004 C 
ENDBRANCH  24  25
ENDBRANCH  23  24
ENDBRANCH  22  23
ENDBRANCH  21  22
ENDBRANCH  20  21
ENDBRANCH  19  20
ENDBRANCH  18  19
ENDBRANCH  17  18
ENDBRANCH  16  17
ENDBRANCH  15  16
ENDBRANCH   1  15
TORSDOF 22
ENDMDL
MODEL 3
REMARK VINA RESULT:    -2.657      2.100      6.740
REMARK INTER + INTRA:         -10.268
REMARK INTER:                  -5.563
REMARK INTRA:                  -4.705
REMARK UNBOUND:                -4.192
REMARK SMILES CCCCCCCCCCCCCCCCCCCCCCCC(=O)[O-]
REMARK SMILES IDX 13 1 14 2 15 3 16 4 17 5 18 6 19 7 20 8 21 9 22 10 23 11
REMARK SMILES IDX 24 12 25 13 26 14 12 15 11 16 10 17 9 18 8 19 7 20 6 21 5 22
REMARK SMILES IDX 4 23 3 24 2 25 1 26
REMARK H PARENT
REMARK Flexibility Score: inf
ROOT
ATOM      1  C   UNL     1      22.009   8.975  17.816  1.00  0.00     0.000 C 
ENDROOT
BRANCH   1   2
ATOM      2  C   UNL     1      20.986   9.427  16.767  1.00  0.00     0.000 C 
BRANCH   2   3
ATOM      3  C   UNL     1      20.191   8.237  16.216  1.00  0.00     0.000 C 
BRANCH   3   4
ATOM      4  C   UNL     1      18.720   8.620  16.005  1.00  0.00     0.000 C 
BRANCH   4   5
ATOM      5  C   UNL     1      18.016   9.060  17.302  1.00  0.00     0.000 C 
BRANCH   5   6
ATOM      6  C   UNL     1      17.943   7.987  18.409  1.00  0.00     0.000 C 
BRANCH   6   7
ATOM      7  C   UNL     1      18.324   8.476  19.817  1.00  0.00     0.000 C 
BRANCH   7   8
ATOM      8  C   UNL     1      18.731   9.960  19.846  1.00  0.00     0.000 C 
BRANCH   8   9
ATOM      9  C   UNL     1      19.940  10.231  20.760  1.00  0.00     0.000 C 
BRANCH   9  10
ATOM     10  C   UNL     1      20.634  11.589  20.532  1.00  0.00     0.006 C 
BRANCH  10  11
ATOM     11  C   UNL     1      20.373  12.168  19.135  1.00  0.00     0.053 C 
BRANCH  11  12
ATOM     12  C   UNL     1      21.593  12.866  18.620  1.00  0.00     0.041 C 
ATOM     13  O   UNL     1      21.681  13.173  17.401  1.00  0.00    -0.550 OA
ATOM     14  O   UNL     1      22.620  13.203  19.493  1.00  0.00    -0.550 OA
ENDBRANCH  11  12
ENDBRANCH  10  11
ENDBRANCH   9  10
ENDBRANCH   8   9
ENDBRANCH   7   8
ENDBRANCH   6   7
ENDBRANCH   5   6
ENDBRANCH   4   5
ENDBRANCH   3   4
ENDBRANCH   2   3
ENDBRANCH   1   2
BRANCH   1  15
ATOM     15  C   UNL     1      21.620   7.652  18.501  1.00  0.00     0.000 C 
BRANCH  15  16
ATOM     16  C   UNL     1      22.667   7.146  19.515  1.00  0.00     0.000 C 
BRANCH  16  17
ATOM     17  C   UNL     1      22.766   8.058  20.750  1.00  0.00     0.000 C 
BRANCH  17  18
ATOM     18  C   UNL     1      24.081   8.851  20.798  1.00  0.00    -0.000 C 
BRANCH  18  19
ATOM     19  C   UNL     1      25.285   8.027  20.317  1.00  0.00    -0.000 C 
BRANCH  19  20
ATOM     20  C   UNL     1      26.068   8.790  19.238  1.00  0.00    -0.000 C 
BRANCH  20  21
ATOM     21  C   UNL     1      25.919   8.166  17.842  1.00  0.00    -0.000 C 
BRANCH  21  22
ATOM     22  C   UNL     1      26.055   6.631  17.860  1.00  0.00    -0.000 C 
BRANCH  22  23
ATOM     23  C   UNL     1      24.896   5.930  17.137  1.00  0.00    -0.000 C 
BRANCH  23  24
ATOM     24  C   UNL     1      24.362   6.748  15.948  1.00  0.00    -0.000 C 
BRANCH  24  25
ATOM     25  C   UNL     1      23.503   5.906  14.994  1.00  0.00    -0.003 C 
ATOM     26  C   UNL     1      22.318   5.244  15.697  1.00  0.00     0.004 C 
ENDBRANCH  24  25
ENDBRANCH  23  24
ENDBRANCH  22  23
ENDBRANCH  21  22
ENDBRANCH  20  21
ENDBRANCH  19  20
ENDBRANCH  18  19
ENDBRANCH  17  18
ENDBRANCH  16  17
ENDBRANCH  15  16
ENDBRANCH   1  15
TORSDOF 22
ENDMDL
MODEL 4
REMARK VINA RESULT:    -2.646      2.218      6.188
REMARK INTER + INTRA:         -10.242
REMARK INTER:                  -6.039
REMARK INTRA:                  -4.203
REMARK UNBOUND:                -4.192
REMARK SMILES CCCCCCCCCCCCCCCCCCCCCCCC(=O)[O-]
REMARK SMILES IDX 13 1 14 2 15 3 16 4 17 5 18 6 19 7 20 8 21 9 22 10 23 11
REMARK SMILES IDX 24 12 25 13 26 14 12 15 11 16 10 17 9 18 8 19 7 20 6 21 5 22
REMARK SMILES IDX 4 23 3 24 2 25 1 26
REMARK H PARENT
REMARK Flexibility Score: inf
ROOT
ATOM      1  C   UNL     1      22.725   5.584  15.705  1.00  0.00     0.000 C 
ENDROOT
BRANCH   1   2
ATOM      2  C   UNL     1      22.380   5.096  17.118  1.00  0.00     0.000 C 
BRANCH   2   3
ATOM      3  C   UNL     1      20.898   5.326  17.438  1.00  0.00     0.000 C 
BRANCH   3   4
ATOM      4  C   UNL     1      20.223   6.138  16.324  1.00  0.00     0.000 C 
BRANCH   4   5
ATOM      5  C   UNL     1      18.844   6.692  16.727  1.00  0.00     0.000 C 
BRANCH   5   6
ATOM      6  C   UNL     1      18.328   7.864  15.866  1.00  0.00     0.000 C 
BRANCH   6   7
ATOM      7  C   UNL     1      18.254   9.221  16.590  1.00  0.00     0.000 C 
BRANCH   7   8
ATOM      8  C   UNL     1      18.762   9.154  18.041  1.00  0.00     0.000 C 
BRANCH   8   9
ATOM      9  C   UNL     1      18.486  10.446  18.831  1.00  0.00     0.000 C 
BRANCH   9  10
ATOM     10  C   UNL     1      19.657  11.449  18.865  1.00  0.00     0.006 C 
BRANCH  10  11
ATOM     11  C   UNL     1      19.779  12.272  17.576  1.00  0.00     0.053 C 
BRANCH  11  12
ATOM     12  C   UNL     1      21.161  12.827  17.436  1.00  0.00     0.041 C 
ATOM     13  O   UNL     1      21.631  13.082  16.294  1.00  0.00    -0.550 OA
ATOM     14  O   UNL     1      21.921  13.091  18.569  1.00  0.00    -0.550 OA
ENDBRANCH  11  12
ENDBRANCH  10  11
ENDBRANCH   9  10
ENDBRANCH   8   9
ENDBRANCH   7   8
ENDBRANCH   6   7
ENDBRANCH   5   6
ENDBRANCH   4   5
ENDBRANCH   3   4
ENDBRANCH   2   3
ENDBRANCH   1   2
BRANCH   1  15
ATOM     15  C   UNL     1      24.242   5.641  15.446  1.00  0.00     0.000 C 
BRANCH  15  16
ATOM     16  C   UNL     1      24.888   6.988  15.834  1.00  0.00     0.000 C 
BRANCH  16  17
ATOM     17  C   UNL     1      25.668   6.897  17.157  1.00  0.00     0.000 C 
BRANCH  17  18
ATOM     18  C   UNL     1      26.053   8.276  17.715  1.00  0.00    -0.000 C 
BRANCH  18  19
ATOM     19  C   UNL     1      26.313   8.249  19.228  1.00  0.00    -0.000 C 
BRANCH  19  20
ATOM     20  C   UNL     1      25.806   6.936  19.843  1.00  0.00    -0.000 C 
BRANCH  20  21
ATOM     21  C   UNL     1      24.816   7.162  20.996  1.00  0.00    -0.000 C 
BRANCH  21  22
ATOM     22  C   UNL     1      23.348   7.148  20.531  1.00  0.00    -0.000 C 
BRANCH  22  23
ATOM     23  C   UNL     1      22.653   8.501  20.736  1.00  0.00    -0.000 C 
BRANCH  23  24
ATOM     24  C   UNL     1      22.622   9.349  19.452  1.00  0.00    -0.000 C 
BRANCH  24  25
ATOM     25  C   UNL     1      22.422   8.496  18.191  1.00  0.00    -0.003 C 
ATOM     26  C   UNL     1      22.127   9.339  16.950  1.00  0.00     0.004 C 
ENDBRANCH  24  25
ENDBRANCH  23  24
ENDBRANCH  22  23
ENDBRANCH  21  22
ENDBRANCH  20  21
ENDBRANCH  19  20
ENDBRANCH  18  19
ENDBRANCH  17  18
ENDBRANCH  16  17
ENDBRANCH  15  16
ENDBRANCH   1  15
TORSDOF 22
ENDMDL
MODEL 5
REMARK VINA RESULT:    -2.632      2.542      5.448
REMARK INTER + INTRA:         -10.209
REMARK INTER:                  -6.208
REMARK INTRA:                  -4.001
REMARK UNBOUND:                -4.192
REMARK SMILES CCCCCCCCCCCCCCCCCCCCCCCC(=O)[O-]
REMARK SMILES IDX 13 1 14 2 15 3 16 4 17 5 18 6 19 7 20 8 21 9 22 10 23 11
REMARK SMILES IDX 24 12 25 13 26 14 12 15 11 16 10 17 9 18 8 19 7 20 6 21 5 22
REMARK SMILES IDX 4 23 3 24 2 25 1 26
REMARK H PARENT
REMARK Flexibility Score: inf
ROOT
ATOM      1  C   UNL     1      26.993   7.793  19.757  1.00  0.00     0.000 C 
ENDROOT
BRANCH   1   2
ATOM      2  C   UNL     1      25.921   8.521  18.936  1.00  0.00     0.000 C 
BRANCH   2   3
ATOM      3  C   UNL     1      26.121   8.293  17.433  1.00  0.00     0.000 C 
BRANCH   3   4
ATOM      4  C   UNL     1      24.823   7.792  16.783  1.00  0.00     0.000 C 
BRANCH   4   5
ATOM      5  C   UNL     1      24.987   6.438  16.068  1.00  0.00     0.000 C 
BRANCH   5   6
ATOM      6  C   UNL     1      23.741   5.941  15.305  1.00  0.00     0.000 C 
BRANCH   6   7
ATOM      7  C   UNL     1      22.837   4.974  16.091  1.00  0.00     0.000 C 
BRANCH   7   8
ATOM      8  C   UNL     1      21.385   5.470  16.204  1.00  0.00     0.000 C 
BRANCH   8   9
ATOM      9  C   UNL     1      21.265   7.001  16.102  1.00  0.00     0.000 C 
BRANCH   9  10
ATOM     10  C   UNL     1      20.124   7.504  15.194  1.00  0.00     0.006 C 
BRANCH  10  11
ATOM     11  C   UNL     1      18.731   7.211  15.765  1.00  0.00     0.053 C 
BRANCH  11  12
ATOM     12  C   UNL     1      18.312   8.293  16.710  1.00  0.00     0.041 C 
ATOM     13  O   UNL     1      18.096   8.028  17.923  1.00  0.00    -0.550 OA
ATOM     14  O   UNL     1      18.188   9.600  16.257  1.00  0.00    -0.550 OA
ENDBRANCH  11  12
ENDBRANCH  10  11
ENDBRANCH   9  10
ENDBRANCH   8   9
ENDBRANCH   7   8
ENDBRANCH   6   7
ENDBRANCH   5   6
ENDBRANCH   4   5
ENDBRANCH   3   4
ENDBRANCH   2   3
ENDBRANCH   1   2
BRANCH   1  15
ATOM     15  C   UNL     1      27.082   6.292  19.427  1.00  0.00     0.000 C 
BRANCH  15  16
ATOM     16  C   UNL     1      26.200   5.404  20.329  1.00  0.00     0.000 C 
BRANCH  16  17
ATOM     17  C   UNL     1      24.946   4.897  19.595  1.00  0.00     0.000 C 
BRANCH  17  18
ATOM     18  C   UNL     1      23.643   5.272  20.318  1.00  0.00    -0.000 C 
BRANCH  18  19
ATOM     19  C   UNL     1      22.746   6.194  19.479  1.00  0.00    -0.000 C 
BRANCH  19  20
ATOM     20  C   UNL     1      22.700   7.605  20.085  1.00  0.00    -0.000 C 
BRANCH  20  21
ATOM     21  C   UNL     1      22.103   8.645  19.125  1.00  0.00    -0.000 C 
BRANCH  21  22
ATOM     22  C   UNL     1      20.931   9.427  19.750  1.00  0.00    -0.000 C 
BRANCH  22  23
ATOM     23  C   UNL     1      20.420  10.550  18.836  1.00  0.00    -0.000 C 
BRANCH  23  24
ATOM     24  C   UNL     1      21.201  10.634  17.513  1.00  0.00    -0.000 C 
BRANCH  24  25
ATOM     25  C   UNL     1      21.250  12.062  16.950  1.00  0.00    -0.003 C 
ATOM     26  C   UNL     1      21.498  13.114  18.031  1.00  0.00     0.004 C 
ENDBRANCH  24  25
ENDBRANCH  23  24
ENDBRANCH  22  23
ENDBRANCH  21  22
ENDBRANCH  20  21
ENDBRANCH  19  20
ENDBRANCH  18  19
ENDBRANCH  17  18
ENDBRANCH  16  17
ENDBRANCH  15  16
ENDBRANCH   1  15
TORSDOF 22
ENDMDL
MODEL 6
REMARK VINA RESULT:    -2.614      2.419      6.143
REMARK INTER + INTRA:         -10.167
REMARK INTER:                  -6.149
REMARK INTRA:                  -4.018
REMARK UNBOUND:                -4.192
REMARK SMILES CCCCCCCCCCCCCCCCCCCCCCCC(=O)[O-]
REMARK SMILES IDX 13 1 14 2 15 3 16 4 17 5 18 6 19 7 20 8 21 9 22 10 23 11
REMARK SMILES IDX 24 12 25 13 26 14 12 15 11 16 10 17 9 18 8 19 7 20 6 21 5 22
REMARK SMILES IDX 4 23 3 24 2 25 1 26
REMARK H PARENT
REMARK Flexibility Score: inf
ROOT
ATOM      1  C   UNL     1      26.539   8.661  18.829  1.00  0.00     0.000 C 
ENDROOT
BRANCH   1   2
ATOM      2  C   UNL     1      26.690   7.448  19.757  1.00  0.00     0.000 C 
BRANCH   2   3
ATOM      3  C   UNL     1      25.644   7.473  20.878  1.00  0.00     0.000 C 
BRANCH   3   4
ATOM      4  C   UNL     1      24.544   6.435  20.614  1.00  0.00     0.000 C 
BRANCH   4   5
ATOM      5  C   UNL     1      23.125   7.031  20.662  1.00  0.00     0.000 C 
BRANCH   5   6
ATOM      6  C   UNL     1      22.491   7.332  19.287  1.00  0.00     0.000 C 
BRANCH   6   7
ATOM      7  C   UNL     1      22.250   8.824  18.993  1.00  0.00     0.000 C 
BRANCH   7   8
ATOM      8  C   UNL     1      22.436   9.179  17.507  1.00  0.00     0.000 C 
BRANCH   8   9
ATOM      9  C   UNL     1      21.244   9.959  16.924  1.00  0.00     0.000 C 
BRANCH   9  10
ATOM     10  C   UNL     1      20.334  10.632  17.971  1.00  0.00     0.006 C 
BRANCH  10  11
ATOM     11  C   UNL     1      20.018  12.096  17.638  1.00  0.00     0.053 C 
BRANCH  11  12
ATOM     12  C   UNL     1      21.281  12.872  17.432  1.00  0.00     0.041 C 
ATOM     13  O   UNL     1      22.026  13.145  18.411  1.00  0.00    -0.550 OA
ATOM     14  O   UNL     1      21.650  13.270  16.152  1.00  0.00    -0.550 OA
ENDBRANCH  11  12
ENDBRANCH  10  11
ENDBRANCH   9  10
ENDBRANCH   8   9
ENDBRANCH   7   8
ENDBRANCH   6   7
ENDBRANCH   5   6
ENDBRANCH   4   5
ENDBRANCH   3   4
ENDBRANCH   2   3
ENDBRANCH   1   2
BRANCH   1  15
ATOM     15  C   UNL     1      25.869   8.308  17.489  1.00  0.00     0.000 C 
BRANCH  15  16
ATOM     16  C   UNL     1      25.925   6.805  17.143  1.00  0.00     0.000 C 
BRANCH  16  17
ATOM     17  C   UNL     1      25.050   6.459  15.926  1.00  0.00     0.000 C 
BRANCH  17  18
ATOM     18  C   UNL     1      23.737   5.763  16.318  1.00  0.00    -0.000 C 
BRANCH  18  19
ATOM     19  C   UNL     1      22.636   5.942  15.263  1.00  0.00    -0.000 C 
BRANCH  19  20
ATOM     20  C   UNL     1      21.265   6.113  15.934  1.00  0.00    -0.000 C 
BRANCH  20  21
ATOM     21  C   UNL     1      20.363   7.117  15.199  1.00  0.00    -0.000 C 
BRANCH  21  22
ATOM     22  C   UNL     1      18.891   7.030  15.645  1.00  0.00    -0.000 C 
BRANCH  22  23
ATOM     23  C   UNL     1      18.638   5.868  16.616  1.00  0.00    -0.000 C 
BRANCH  23  24
ATOM     24  C   UNL     1      18.009   6.333  17.941  1.00  0.00    -0.000 C 
BRANCH  24  25
ATOM     25  C   UNL     1      18.863   7.389  18.657  1.00  0.00    -0.003 C 
ATOM     26  C   UNL     1      18.199   7.921  19.927  1.00  0.00     0.004 C 
ENDBRANCH  24  25
ENDBRANCH  23  24
ENDBRANCH  22  23
ENDBRANCH  21  22
ENDBRANCH  20  21
ENDBRANCH  19  20
ENDBRANCH  18  19
ENDBRANCH  17  18
ENDBRANCH  16  17
ENDBRANCH  15  16
ENDBRANCH   1  15
TORSDOF 22
ENDMDL
MODEL 7
REMARK VINA RESULT:    -2.610      1.944      3.591
REMARK INTER + INTRA:         -10.160
REMARK INTER:                  -6.101
REMARK INTRA:                  -4.059
REMARK UNBOUND:                -4.192
REMARK SMILES CCCCCCCCCCCCCCCCCCCCCCCC(=O)[O-]
REMARK SMILES IDX 13 1 14 2 15 3 16 4 17 5 18 6 19 7 20 8 21 9 22 10 23 11
REMARK SMILES IDX 24 12 25 13 26 14 12 15 11 16 10 17 9 18 8 19 7 20 6 21 5 22
REMARK SMILES IDX 4 23 3 24 2 25 1 26
REMARK H PARENT
REMARK Flexibility Score: inf
ROOT
ATOM      1  C   UNL     1      21.798   9.400  17.448  1.00  0.00     0.000 C 
ENDROOT
BRANCH   1   2
ATOM      2  C   UNL     1      21.801   8.879  18.891  1.00  0.00     0.000 C 
BRANCH   2   3
ATOM      3  C   UNL     1      22.406   9.908  19.853  1.00  0.00     0.000 C 
BRANCH   3   4
ATOM      4  C   UNL     1      23.561   9.288  20.652  1.00  0.00     0.000 C 
BRANCH   4   5
ATOM      5  C   UNL     1      24.608   8.593  19.763  1.00  0.00     0.000 C 
BRANCH   5   6
ATOM      6  C   UNL     1      25.314   7.379  20.402  1.00  0.00     0.000 C 
BRANCH   6   7
ATOM      7  C   UNL     1      24.933   6.013  19.804  1.00  0.00     0.000 C 
BRANCH   7   8
ATOM      8  C   UNL     1      23.437   5.689  19.956  1.00  0.00     0.000 C 
BRANCH   8   9
ATOM      9  C   UNL     1      22.745   5.409  18.610  1.00  0.00     0.000 C 
BRANCH   9  10
ATOM     10  C   UNL     1      23.699   5.080  17.445  1.00  0.00     0.006 C 
BRANCH  10  11
ATOM     11  C   UNL     1      23.387   5.875  16.170  1.00  0.00     0.053 C 
BRANCH  11  12
ATOM     12  C   UNL     1      24.572   6.686  15.753  1.00  0.00     0.041 C 
ATOM     13  O   UNL     1      25.317   6.287  14.817  1.00  0.00    -0.550 OA
ATOM     14  O   UNL     1      24.839   7.898  16.377  1.00  0.00    -0.550 OA
ENDBRANCH  11  12
ENDBRANCH  10  11
ENDBRANCH   9  10
ENDBRANCH   8   9
ENDBRANCH   7   8
ENDBRANCH   6   7
ENDBRANCH   5   6
ENDBRANCH   4   5
ENDBRANCH   3   4
ENDBRANCH   2   3
ENDBRANCH   1   2
BRANCH   1  15
ATOM     15  C   UNL     1      21.054   8.468  16.476  1.00  0.00     0.000 C 
BRANCH  15  16
ATOM     16  C   UNL     1      20.040   7.531  17.167  1.00  0.00     0.000 C 
BRANCH  16  17
ATOM     17  C   UNL     1      18.621   8.124  17.183  1.00  0.00     0.000 C 
BRANCH  17  18
ATOM     18  C   UNL     1      18.466   9.316  16.225  1.00  0.00    -0.000 C 
BRANCH  18  19
ATOM     19  C   UNL     1      18.174  10.632  16.962  1.00  0.00    -0.000 C 
BRANCH  19  20
ATOM     20  C   UNL     1      18.243  10.428  18.483  1.00  0.00    -0.000 C 
BRANCH  20  21
ATOM     21  C   UNL     1      18.233  11.753  19.261  1.00  0.00    -0.000 C 
BRANCH  21  22
ATOM     22  C   UNL     1      19.533  11.986  20.054  1.00  0.00    -0.000 C 
BRANCH  22  23
ATOM     23  C   UNL     1      19.950  13.464  20.078  1.00  0.00    -0.000 C 
BRANCH  23  24
ATOM     24  C   UNL     1      20.417  13.966  18.700  1.00  0.00    -0.000 C 
BRANCH  24  25
ATOM     25  C   UNL     1      21.508  13.074  18.090  1.00  0.00    -0.003 C 
ATOM     26  C   UNL     1      21.335  12.878  16.584  1.00  0.00     0.004 C 
ENDBRANCH  24  25
ENDBRANCH  23  24
ENDBRANCH  22  23
ENDBRANCH  21  22
ENDBRANCH  20  21
ENDBRANCH  19  20
ENDBRANCH  18  19
ENDBRANCH  17  18
ENDBRANCH  16  17
ENDBRANCH  15  16
ENDBRANCH   1  15
TORSDOF 22
ENDMDL
MODEL 8
REMARK VINA RESULT:    -2.588      1.281      2.074
REMARK INTER + INTRA:         -10.108
REMARK INTER:                  -6.576
REMARK INTRA:                  -3.532
REMARK UNBOUND:                -4.192
REMARK SMILES CCCCCCCCCCCCCCCCCCCCCCCC(=O)[O-]
REMARK SMILES IDX 13 1 14 2 15 3 16 4 17 5 18 6 19 7 20 8 21 9 22 10 23 11
REMARK SMILES IDX 24 12 25 13 26 14 12 15 11 16 10 17 9 18 8 19 7 20 6 21 5 22
REMARK SMILES IDX 4 23 3 24 2 25 1 26
REMARK H PARENT
REMARK Flexibility Score: inf
ROOT
ATOM      1  C   UNL     1      21.923   8.801  17.864  1.00  0.00     0.000 C 
ENDROOT
BRANCH   1   2
ATOM      2  C   UNL     1      21.166   7.651  18.541  1.00  0.00     0.000 C 
BRANCH   2   3
ATOM      3  C   UNL     1      21.908   6.320  18.367  1.00  0.00     0.000 C 
BRANCH   3   4
ATOM      4  C   UNL     1      21.073   5.342  17.528  1.00  0.00     0.000 C 
BRANCH   4   5
ATOM      5  C   UNL     1      21.793   4.875  16.249  1.00  0.00     0.000 C 
BRANCH   5   6
ATOM      6  C   UNL     1      22.415   6.000  15.395  1.00  0.00     0.000 C 
BRANCH   6   7
ATOM      7  C   UNL     1      23.598   5.568  14.510  1.00  0.00     0.000 C 
BRANCH   7   8
ATOM      8  C   UNL     1      24.882   6.367  14.795  1.00  0.00     0.000 C 
BRANCH   8   9
ATOM      9  C   UNL     1      24.852   7.082  16.158  1.00  0.00     0.000 C 
BRANCH   9  10
ATOM     10  C   UNL     1      26.111   6.879  17.024  1.00  0.00     0.006 C 
BRANCH  10  11
ATOM     11  C   UNL     1      25.787   6.491  18.473  1.00  0.00     0.053 C 
BRANCH  11  12
ATOM     12  C   UNL     1      26.461   7.422  19.430  1.00  0.00     0.041 C 
ATOM     13  O   UNL     1      26.132   8.638  19.473  1.00  0.00    -0.550 OA
ATOM     14  O   UNL     1      27.434   6.940  20.297  1.00  0.00    -0.550 OA
ENDBRANCH  11  12
ENDBRANCH  10  11
ENDBRANCH   9  10
ENDBRANCH   8   9
ENDBRANCH   7   8
ENDBRANCH   6   7
ENDBRANCH   5   6
ENDBRANCH   4   5
ENDBRANCH   3   4
ENDBRANCH   2   3
ENDBRANCH   1   2
BRANCH   1  15
ATOM     15  C   UNL     1      21.166   9.388  16.658  1.00  0.00     0.000 C 
BRANCH  15  16
ATOM     16  C   UNL     1      19.890   8.603  16.285  1.00  0.00     0.000 C 
BRANCH  16  17
ATOM     17  C   UNL     1      18.617   9.450  16.457  1.00  0.00     0.000 C 
BRANCH  17  18
ATOM     18  C   UNL     1      18.018   9.340  17.868  1.00  0.00    -0.000 C 
BRANCH  18  19
ATOM     19  C   UNL     1      18.320  10.571  18.735  1.00  0.00    -0.000 C 
BRANCH  19  20
ATOM     20  C   UNL     1      18.096  11.865  17.937  1.00  0.00    -0.000 C 
BRANCH  20  21
ATOM     21  C   UNL     1      19.153  12.939  18.237  1.00  0.00    -0.000 C 
BRANCH  21  22
ATOM     22  C   UNL     1      20.575  12.501  17.837  1.00  0.00    -0.000 C 
BRANCH  22  23
ATOM     23  C   UNL     1      21.646  13.029  18.802  1.00  0.00    -0.000 C 
BRANCH  23  24
ATOM     24  C   UNL     1      21.588  12.345  20.179  1.00  0.00    -0.000 C 
BRANCH  24  25
ATOM     25  C   UNL     1      22.981  11.980  20.713  1.00  0.00    -0.003 C 
ATOM     26  C   UNL     1      23.239  10.474  20.705  1.00  0.00     0.004 C 
ENDBRANCH  24  25
ENDBRANCH  23  24
ENDBRANCH  22  23
ENDBRANCH  21  22
ENDBRANCH  20  21
ENDBRANCH  19  20
ENDBRANCH  18  19
ENDBRANCH  17  18
ENDBRANCH  16  17
ENDBRANCH  15  16
ENDBRANCH   1  15
TORSDOF 22
ENDMDL
MODEL 9
REMARK VINA RESULT:    -2.566      1.709      5.869
REMARK INTER + INTRA:         -10.059
REMARK INTER:                  -6.348
REMARK INTRA:                  -3.711
REMARK UNBOUND:                -4.192
REMARK SMILES CCCCCCCCCCCCCCCCCCCCCCCC(=O)[O-]
REMARK SMILES IDX 13 1 14 2 15 3 16 4 17 5 18 6 19 7 20 8 21 9 22 10 23 11
REMARK SMILES IDX 24 12 25 13 26 14 12 15 11 16 10 17 9 18 8 19 7 20 6 21 5 22
REMARK SMILES IDX 4 23 3 24 2 25 1 26
REMARK H PARENT
REMARK Flexibility Score: inf
ROOT
ATOM      1  C   UNL     1      21.025  10.543  17.311  1.00  0.00     0.000 C 
ENDROOT
BRANCH   1   2
ATOM      2  C   UNL     1      20.561  11.964  16.966  1.00  0.00     0.000 C 
BRANCH   2   3
ATOM      3  C   UNL     1      21.285  13.008  17.824  1.00  0.00     0.000 C 
BRANCH   3   4
ATOM      4  C   UNL     1      20.488  13.308  19.101  1.00  0.00     0.000 C 
BRANCH   4   5
ATOM      5  C   UNL     1      21.159  12.765  20.376  1.00  0.00     0.000 C 
BRANCH   5   6
ATOM      6  C   UNL     1      22.702  12.760  20.357  1.00  0.00     0.000 C 
BRANCH   6   7
ATOM      7  C   UNL     1      23.356  11.444  20.814  1.00  0.00     0.000 C 
BRANCH   7   8
ATOM      8  C   UNL     1      22.420  10.230  20.673  1.00  0.00     0.000 C 
BRANCH   8   9
ATOM      9  C   UNL     1      23.165   8.886  20.768  1.00  0.00     0.000 C 
BRANCH   9  10
ATOM     10  C   UNL     1      24.490   8.822  19.982  1.00  0.00     0.006 C 
BRANCH  10  11
ATOM     11  C   UNL     1      25.551   7.949  20.666  1.00  0.00     0.053 C 
BRANCH  11  12
ATOM     12  C   UNL     1      26.759   7.812  19.795  1.00  0.00     0.041 C 
ATOM     13  O   UNL     1      27.262   8.827  19.241  1.00  0.00    -0.550 OA
ATOM     14  O   UNL     1      27.349   6.566  19.616  1.00  0.00    -0.550 OA
ENDBRANCH  11  12
ENDBRANCH  10  11
ENDBRANCH   9  10
ENDBRANCH   8   9
ENDBRANCH   7   8
ENDBRANCH   6   7
ENDBRANCH   5   6
ENDBRANCH   4   5
ENDBRANCH   3   4
ENDBRANCH   2   3
ENDBRANCH   1   2
BRANCH   1  15
ATOM     15  C   UNL     1      19.936   9.710  18.010  1.00  0.00     0.000 C 
BRANCH  15  16
ATOM     16  C   UNL     1      19.222   8.710  17.075  1.00  0.00     0.000 C 
BRANCH  16  17
ATOM     17  C   UNL     1      20.058   8.391  15.823  1.00  0.00     0.000 C 
BRANCH  17  18
ATOM     18  C   UNL     1      20.458   6.909  15.739  1.00  0.00    -0.000 C 
BRANCH  18  19
ATOM     19  C   UNL     1      20.220   6.158  17.057  1.00  0.00    -0.000 C 
BRANCH  19  20
ATOM     20  C   UNL     1      21.521   5.511  17.555  1.00  0.00    -0.000 C 
BRANCH  20  21
ATOM     21  C   UNL     1      22.656   6.529  17.745  1.00  0.00    -0.000 C 
BRANCH  21  22
ATOM     22  C   UNL     1      24.036   5.859  17.899  1.00  0.00    -0.000 C 
BRANCH  22  23
ATOM     23  C   UNL     1      25.079   6.433  16.929  1.00  0.00    -0.000 C 
BRANCH  23  24
ATOM     24  C   UNL     1      24.510   6.661  15.518  1.00  0.00    -0.000 C 
BRANCH  24  25
ATOM     25  C   UNL     1      24.332   5.350  14.739  1.00  0.00    -0.003 C 
ATOM     26  C   UNL     1      23.249   5.445  13.664  1.00  0.00     0.004 C 
ENDBRANCH  24  25
ENDBRANCH  23  24
ENDBRANCH  22  23
ENDBRANCH  21  22
ENDBRANCH  20  21
ENDBRANCH  19  20
ENDBRANCH  18  19
ENDBRANCH  17  18
ENDBRANCH  16  17
ENDBRANCH  15  16
ENDBRANCH   1  15
TORSDOF 22
ENDMDL
