MODEL 1
REMARK VINA RESULT:    -5.609      0.000      0.000
REMARK INTER + INTRA:          -6.583
REMARK INTER:                  -6.757
REMARK INTRA:                   0.174
REMARK UNBOUND:                 0.174
REMARK SMILES O=c1c(O)c(-c2ccc(O)c(O)c2)oc2cc(O)cc(O)c12
REMARK SMILES IDX 5 1 3 2 2 3 1 4 22 5 20 6 19 7 17 8 16 9 15 10 14 11 6 12
REMARK SMILES IDX 7 13 8 14 9 15 13 16 11 17 10 18 12 20 4 22 21 24 18 26
REMARK H PARENT 10 19 12 21 4 23 21 25 18 27
REMARK Flexibility Score: inf
ROOT
ATOM      1  C   UNL     1       3.717  48.643 283.270  1.00  0.00     0.180 A 
ATOM      2  C   UNL     1       3.590  49.295 284.512  1.00  0.00     0.208 A 
ATOM      3  C   UNL     1       3.357  48.523 285.662  1.00  0.00     0.238 A 
ATOM      4  O   UNL     1       3.253  49.094 286.781  1.00  0.00    -0.285 OA
ATOM      5  C   UNL     1       3.235  47.123 285.548  1.00  0.00     0.111 A 
ATOM      6  C   UNL     1       2.995  46.275 286.656  1.00  0.00     0.134 A 
ATOM      7  C   UNL     1       2.878  44.890 286.459  1.00  0.00     0.093 A 
ATOM      8  C   UNL     1       2.994  44.340 285.178  1.00  0.00     0.123 A 
ATOM      9  C   UNL     1       3.230  45.173 284.084  1.00  0.00     0.094 A 
ATOM     10  C   UNL     1       3.352  46.554 284.258  1.00  0.00     0.146 A 
ATOM     11  O   UNL     1       3.582  47.323 283.200  1.00  0.00    -0.452 OA
ENDROOT
BRANCH   1  12
ATOM     12  C   UNL     1       3.983  49.386 282.017  1.00  0.00     0.025 A 
ATOM     13  C   UNL     1       3.322  49.061 280.819  1.00  0.00     0.016 A 
ATOM     14  C   UNL     1       3.571  49.792 279.654  1.00  0.00     0.051 A 
ATOM     15  C   UNL     1       4.473  50.864 279.672  1.00  0.00     0.157 A 
ATOM     16  C   UNL     1       4.871  50.475 282.034  1.00  0.00     0.062 A 
ATOM     17  C   UNL     1       5.121  51.208 280.864  1.00  0.00     0.158 A 
BRANCH  15  18
ATOM     18  O   UNL     1       4.726  51.594 278.512  1.00  0.00    -0.504 OA
ATOM     19  H   UNL     1       5.415  52.337 278.493  1.00  0.00     0.293 HD
ENDBRANCH  15  18
BRANCH  17  20
ATOM     20  O   UNL     1       6.012  52.280 280.882  1.00  0.00    -0.504 OA
ATOM     21  H   UNL     1       6.936  52.209 280.470  1.00  0.00     0.293 HD
ENDBRANCH  17  20
ENDBRANCH   1  12
BRANCH   2  22
ATOM     22  O   UNL     1       3.665  50.688 284.590  1.00  0.00    -0.502 OA
ATOM     23  H   UNL     1       3.399  51.289 283.821  1.00  0.00     0.293 HD
ENDBRANCH   2  22
BRANCH   6  24
ATOM     24  O   UNL     1       2.875  46.794 287.945  1.00  0.00    -0.507 OA
ATOM     25  H   UNL     1       3.277  46.324 288.749  1.00  0.00     0.293 HD
ENDBRANCH   6  24
BRANCH   8  26
ATOM     26  O   UNL     1       2.875  42.966 284.982  1.00  0.00    -0.508 OA
ATOM     27  H   UNL     1       1.998  42.545 284.697  1.00  0.00     0.293 HD
ENDBRANCH   8  26
TORSDOF 6
ENDMDL
MODEL 2
REMARK VINA RESULT:    -5.551      1.383      3.044
REMARK INTER + INTRA:          -6.513
REMARK INTER:                  -6.534
REMARK INTRA:                   0.021
REMARK UNBOUND:                 0.174
REMARK SMILES O=c1c(O)c(-c2ccc(O)c(O)c2)oc2cc(O)cc(O)c12
REMARK SMILES IDX 5 1 3 2 2 3 1 4 22 5 20 6 19 7 17 8 16 9 15 10 14 11 6 12
REMARK SMILES IDX 7 13 8 14 9 15 13 16 11 17 10 18 12 20 4 22 21 24 18 26
REMARK H PARENT 10 19 12 21 4 23 21 25 18 27
REMARK Flexibility Score: inf
ROOT
ATOM      1  C   UNL     1       3.846  48.994 282.048  1.00  0.00     0.180 A 
ATOM      2  C   UNL     1       3.983  47.624 281.750  1.00  0.00     0.208 A 
ATOM      3  C   UNL     1       3.845  46.687 282.787  1.00  0.00     0.238 A 
ATOM      4  O   UNL     1       3.954  45.457 282.531  1.00  0.00    -0.285 OA
ATOM      5  C   UNL     1       3.595  47.134 284.101  1.00  0.00     0.111 A 
ATOM      6  C   UNL     1       3.448  46.256 285.202  1.00  0.00     0.134 A 
ATOM      7  C   UNL     1       3.209  46.780 286.482  1.00  0.00     0.093 A 
ATOM      8  C   UNL     1       3.116  48.162 286.681  1.00  0.00     0.123 A 
ATOM      9  C   UNL     1       3.261  49.030 285.598  1.00  0.00     0.094 A 
ATOM     10  C   UNL     1       3.497  48.529 284.315  1.00  0.00     0.146 A 
ATOM     11  O   UNL     1       3.625  49.378 283.302  1.00  0.00    -0.452 OA
ENDROOT
BRANCH   1  12
ATOM     12  C   UNL     1       3.958  50.040 281.007  1.00  0.00     0.025 A 
ATOM     13  C   UNL     1       3.286  49.924 279.777  1.00  0.00     0.016 A 
ATOM     14  C   UNL     1       3.388  50.937 278.819  1.00  0.00     0.051 A 
ATOM     15  C   UNL     1       4.150  52.083 279.080  1.00  0.00     0.157 A 
ATOM     16  C   UNL     1       4.704  51.201 281.271  1.00  0.00     0.062 A 
ATOM     17  C   UNL     1       4.806  52.217 280.309  1.00  0.00     0.158 A 
BRANCH  15  18
ATOM     18  O   UNL     1       4.255  53.093 278.125  1.00  0.00    -0.504 OA
ATOM     19  H   UNL     1       5.141  53.546 277.929  1.00  0.00     0.293 HD
ENDBRANCH  15  18
BRANCH  17  20
ATOM     20  O   UNL     1       5.558  53.361 280.569  1.00  0.00    -0.504 OA
ATOM     21  H   UNL     1       5.888  53.578 281.503  1.00  0.00     0.293 HD
ENDBRANCH  17  20
ENDBRANCH   1  12
BRANCH   2  22
ATOM     22  O   UNL     1       4.280  47.210 280.449  1.00  0.00    -0.502 OA
ATOM     23  H   UNL     1       5.230  47.069 280.129  1.00  0.00     0.293 HD
ENDBRANCH   2  22
BRANCH   6  24
ATOM     24  O   UNL     1       3.536  44.874 285.035  1.00  0.00    -0.507 OA
ATOM     25  H   UNL     1       3.025  44.232 285.630  1.00  0.00     0.293 HD
ENDBRANCH   6  24
BRANCH   8  26
ATOM     26  O   UNL     1       2.881  48.682 287.952  1.00  0.00    -0.508 OA
ATOM     27  H   UNL     1       2.771  48.079 288.759  1.00  0.00     0.293 HD
ENDBRANCH   8  26
TORSDOF 6
ENDMDL
MODEL 3
REMARK VINA RESULT:    -5.428      1.893      7.282
REMARK INTER + INTRA:          -6.365
REMARK INTER:                  -6.556
REMARK INTRA:                   0.191
REMARK UNBOUND:                 0.174
REMARK SMILES O=c1c(O)c(-c2ccc(O)c(O)c2)oc2cc(O)cc(O)c12
REMARK SMILES IDX 5 1 3 2 2 3 1 4 22 5 20 6 19 7 17 8 16 9 15 10 14 11 6 12
REMARK SMILES IDX 7 13 8 14 9 15 13 16 11 17 10 18 12 20 4 22 21 24 18 26
REMARK H PARENT 10 19 12 21 4 23 21 25 18 27
REMARK Flexibility Score: inf
ROOT
ATOM      1  C   UNL     1       3.642  48.557 281.980  1.00  0.00     0.180 A 
ATOM      2  C   UNL     1       4.097  48.423 280.654  1.00  0.00     0.208 A 
ATOM      3  C   UNL     1       4.248  49.577 279.869  1.00  0.00     0.238 A 
ATOM      4  O   UNL     1       4.666  49.471 278.684  1.00  0.00    -0.285 OA
ATOM      5  C   UNL     1       3.924  50.837 280.413  1.00  0.00     0.111 A 
ATOM      6  C   UNL     1       4.044  52.047 279.688  1.00  0.00     0.134 A 
ATOM      7  C   UNL     1       3.694  53.261 280.298  1.00  0.00     0.093 A 
ATOM      8  C   UNL     1       3.225  53.287 281.616  1.00  0.00     0.123 A 
ATOM      9  C   UNL     1       3.105  52.097 282.334  1.00  0.00     0.094 A 
ATOM     10  C   UNL     1       3.451  50.877 281.746  1.00  0.00     0.146 A 
ATOM     11  O   UNL     1       3.332  49.760 282.454  1.00  0.00    -0.452 OA
ENDROOT
BRANCH   1  12
ATOM     12  C   UNL     1       3.475  47.390 282.876  1.00  0.00     0.025 A 
ATOM     13  C   UNL     1       3.021  46.151 282.389  1.00  0.00     0.016 A 
ATOM     14  C   UNL     1       2.896  45.057 283.250  1.00  0.00     0.051 A 
ATOM     15  C   UNL     1       3.233  45.181 284.604  1.00  0.00     0.157 A 
ATOM     16  C   UNL     1       3.832  47.502 284.231  1.00  0.00     0.062 A 
ATOM     17  C   UNL     1       3.705  46.404 285.095  1.00  0.00     0.158 A 
BRANCH  15  18
ATOM     18  O   UNL     1       3.107  44.092 285.465  1.00  0.00    -0.504 OA
ATOM     19  H   UNL     1       2.611  44.169 286.346  1.00  0.00     0.293 HD
ENDBRANCH  15  18
BRANCH  17  20
ATOM     20  O   UNL     1       4.046  46.523 286.440  1.00  0.00    -0.504 OA
ATOM     21  H   UNL     1       5.007  46.662 286.734  1.00  0.00     0.293 HD
ENDBRANCH  17  20
ENDBRANCH   1  12
BRANCH   2  22
ATOM     22  O   UNL     1       4.363  47.158 280.123  1.00  0.00    -0.502 OA
ATOM     23  H   UNL     1       3.668  46.422 280.101  1.00  0.00     0.293 HD
ENDBRANCH   2  22
BRANCH   6  24
ATOM     24  O   UNL     1       4.509  52.052 278.372  1.00  0.00    -0.507 OA
ATOM     25  H   UNL     1       4.051  51.518 277.643  1.00  0.00     0.293 HD
ENDBRANCH   6  24
BRANCH   8  26
ATOM     26  O   UNL     1       2.875  54.492 282.221  1.00  0.00    -0.508 OA
ATOM     27  H   UNL     1       3.526  54.998 282.810  1.00  0.00     0.293 HD
ENDBRANCH   8  26
TORSDOF 6
ENDMDL
MODEL 4
REMARK VINA RESULT:    -5.267      1.953      3.979
REMARK INTER + INTRA:          -6.171
REMARK INTER:                  -6.454
REMARK INTRA:                   0.283
REMARK UNBOUND:                 0.174
REMARK SMILES O=c1c(O)c(-c2ccc(O)c(O)c2)oc2cc(O)cc(O)c12
REMARK SMILES IDX 5 1 3 2 2 3 1 4 22 5 20 6 19 7 17 8 16 9 15 10 14 11 6 12
REMARK SMILES IDX 7 13 8 14 9 15 13 16 11 17 10 18 12 20 4 22 21 24 18 26
REMARK H PARENT 10 19 12 21 4 23 21 25 18 27
REMARK Flexibility Score: inf
ROOT
ATOM      1  C   UNL     1       3.917  50.457 281.164  1.00  0.00     0.180 A 
ATOM      2  C   UNL     1       3.978  49.176 280.582  1.00  0.00     0.208 A 
ATOM      3  C   UNL     1       3.884  48.048 281.414  1.00  0.00     0.238 A 
ATOM      4  O   UNL     1       3.926  46.896 280.903  1.00  0.00    -0.285 OA
ATOM      5  C   UNL     1       3.752  48.219 282.807  1.00  0.00     0.111 A 
ATOM      6  C   UNL     1       3.656  47.136 283.714  1.00  0.00     0.134 A 
ATOM      7  C   UNL     1       3.535  47.389 285.089  1.00  0.00     0.093 A 
ATOM      8  C   UNL     1       3.510  48.701 285.573  1.00  0.00     0.123 A 
ATOM      9  C   UNL     1       3.605  49.772 284.682  1.00  0.00     0.094 A 
ATOM     10  C   UNL     1       3.724  49.542 283.309  1.00  0.00     0.146 A 
ATOM     11  O   UNL     1       3.807  50.579 282.484  1.00  0.00    -0.452 OA
ENDROOT
BRANCH   1  12
ATOM     12  C   UNL     1       3.990  51.693 280.353  1.00  0.00     0.025 A 
ATOM     13  C   UNL     1       3.576  51.713 279.009  1.00  0.00     0.016 A 
ATOM     14  C   UNL     1       3.631  52.899 278.270  1.00  0.00     0.051 A 
ATOM     15  C   UNL     1       4.088  54.081 278.866  1.00  0.00     0.157 A 
ATOM     16  C   UNL     1       4.428  52.887 280.950  1.00  0.00     0.062 A 
ATOM     17  C   UNL     1       4.484  54.077 280.209  1.00  0.00     0.158 A 
BRANCH  15  18
ATOM     18  O   UNL     1       4.146  55.265 278.131  1.00  0.00    -0.504 OA
ATOM     19  H   UNL     1       4.358  56.152 278.573  1.00  0.00     0.293 HD
ENDBRANCH  15  18
BRANCH  17  20
ATOM     20  O   UNL     1       4.932  55.256 280.801  1.00  0.00    -0.504 OA
ATOM     21  H   UNL     1       4.420  56.126 280.704  1.00  0.00     0.293 HD
ENDBRANCH  17  20
ENDBRANCH   1  12
BRANCH   2  22
ATOM     22  O   UNL     1       4.160  49.034 279.204  1.00  0.00    -0.502 OA
ATOM     23  H   UNL     1       4.928  49.471 278.711  1.00  0.00     0.293 HD
ENDBRANCH   2  22
BRANCH   6  24
ATOM     24  O   UNL     1       3.677  45.817 283.262  1.00  0.00    -0.507 OA
ATOM     25  H   UNL     1       2.827  45.278 283.147  1.00  0.00     0.293 HD
ENDBRANCH   6  24
BRANCH   8  26
ATOM     26  O   UNL     1       3.392  48.953 286.938  1.00  0.00    -0.508 OA
ATOM     27  H   UNL     1       3.031  49.834 287.286  1.00  0.00     0.293 HD
ENDBRANCH   8  26
TORSDOF 6
ENDMDL
MODEL 5
REMARK VINA RESULT:    -5.257      1.655      2.020
REMARK INTER + INTRA:          -6.159
REMARK INTER:                  -6.323
REMARK INTRA:                   0.164
REMARK UNBOUND:                 0.174
REMARK SMILES O=c1c(O)c(-c2ccc(O)c(O)c2)oc2cc(O)cc(O)c12
REMARK SMILES IDX 5 1 3 2 2 3 1 4 22 5 20 6 19 7 17 8 16 9 15 10 14 11 6 12
REMARK SMILES IDX 7 13 8 14 9 15 13 16 11 17 10 18 12 20 4 22 21 24 18 26
REMARK H PARENT 10 19 12 21 4 23 21 25 18 27
REMARK Flexibility Score: inf
ROOT
ATOM      1  C   UNL     1       3.472  49.645 282.935  1.00  0.00     0.180 A 
ATOM      2  C   UNL     1       3.634  49.739 284.331  1.00  0.00     0.208 A 
ATOM      3  C   UNL     1       3.635  48.561 285.094  1.00  0.00     0.238 A 
ATOM      4  O   UNL     1       3.790  48.631 286.344  1.00  0.00    -0.285 OA
ATOM      5  C   UNL     1       3.455  47.317 284.456  1.00  0.00     0.111 A 
ATOM      6  C   UNL     1       3.440  46.084 285.152  1.00  0.00     0.134 A 
ATOM      7  C   UNL     1       3.247  44.888 284.444  1.00  0.00     0.093 A 
ATOM      8  C   UNL     1       3.069  44.901 283.057  1.00  0.00     0.123 A 
ATOM      9  C   UNL     1       3.083  46.114 282.367  1.00  0.00     0.094 A 
ATOM     10  C   UNL     1       3.276  47.317 283.052  1.00  0.00     0.146 A 
ATOM     11  O   UNL     1       3.290  48.456 282.369  1.00  0.00    -0.452 OA
ENDROOT
BRANCH   1  12
ATOM     12  C   UNL     1       3.479  50.840 282.060  1.00  0.00     0.025 A 
ATOM     13  C   UNL     1       2.875  52.045 282.461  1.00  0.00     0.016 A 
ATOM     14  C   UNL     1       2.916  53.167 281.629  1.00  0.00     0.051 A 
ATOM     15  C   UNL     1       3.571  53.105 280.392  1.00  0.00     0.157 A 
ATOM     16  C   UNL     1       4.152  50.791 280.828  1.00  0.00     0.062 A 
ATOM     17  C   UNL     1       4.193  51.917 279.992  1.00  0.00     0.158 A 
BRANCH  15  18
ATOM     18  O   UNL     1       3.611  54.222 279.558  1.00  0.00    -0.504 OA
ATOM     19  H   UNL     1       3.228  54.196 278.620  1.00  0.00     0.293 HD
ENDBRANCH  15  18
BRANCH  17  20
ATOM     20  O   UNL     1       4.849  51.860 278.764  1.00  0.00    -0.504 OA
ATOM     21  H   UNL     1       4.387  52.124 277.902  1.00  0.00     0.293 HD
ENDBRANCH  17  20
ENDBRANCH   1  12
BRANCH   2  22
ATOM     22  O   UNL     1       3.760  50.988 284.945  1.00  0.00    -0.502 OA
ATOM     23  H   UNL     1       2.982  51.630 285.034  1.00  0.00     0.293 HD
ENDBRANCH   2  22
BRANCH   6  24
ATOM     24  O   UNL     1       3.615  46.039 286.535  1.00  0.00    -0.507 OA
ATOM     25  H   UNL     1       3.762  45.165 287.026  1.00  0.00     0.293 HD
ENDBRANCH   6  24
BRANCH   8  26
ATOM     26  O   UNL     1       2.875  43.714 282.354  1.00  0.00    -0.508 OA
ATOM     27  H   UNL     1       2.714  42.835 282.833  1.00  0.00     0.293 HD
ENDBRANCH   8  26
TORSDOF 6
ENDMDL
MODEL 6
REMARK VINA RESULT:    -5.249      1.533      6.869
REMARK INTER + INTRA:          -6.149
REMARK INTER:                  -6.575
REMARK INTRA:                   0.426
REMARK UNBOUND:                 0.174
REMARK SMILES O=c1c(O)c(-c2ccc(O)c(O)c2)oc2cc(O)cc(O)c12
REMARK SMILES IDX 5 1 3 2 2 3 1 4 22 5 20 6 19 7 17 8 16 9 15 10 14 11 6 12
REMARK SMILES IDX 7 13 8 14 9 15 13 16 11 17 10 18 12 20 4 22 21 24 18 26
REMARK H PARENT 10 19 12 21 4 23 21 25 18 27
REMARK Flexibility Score: inf
ROOT
ATOM      1  C   UNL     1       3.707  49.081 282.859  1.00  0.00     0.180 A 
ATOM      2  C   UNL     1       3.467  50.460 283.018  1.00  0.00     0.208 A 
ATOM      3  C   UNL     1       3.502  51.289 281.886  1.00  0.00     0.238 A 
ATOM      4  O   UNL     1       3.277  52.523 282.014  1.00  0.00    -0.285 OA
ATOM      5  C   UNL     1       3.796  50.733 280.624  1.00  0.00     0.111 A 
ATOM      6  C   UNL     1       3.855  51.500 279.435  1.00  0.00     0.134 A 
ATOM      7  C   UNL     1       4.162  50.873 278.218  1.00  0.00     0.093 A 
ATOM      8  C   UNL     1       4.412  49.497 278.167  1.00  0.00     0.123 A 
ATOM      9  C   UNL     1       4.354  48.738 279.337  1.00  0.00     0.094 A 
ATOM     10  C   UNL     1       4.048  49.342 280.559  1.00  0.00     0.146 A 
ATOM     11  O   UNL     1       3.995  48.595 281.656  1.00  0.00    -0.452 OA
ENDROOT
BRANCH   1  12
ATOM     12  C   UNL     1       3.669  48.140 284.001  1.00  0.00     0.025 A 
ATOM     13  C   UNL     1       3.675  48.599 285.331  1.00  0.00     0.016 A 
ATOM     14  C   UNL     1       3.613  47.692 286.392  1.00  0.00     0.051 A 
ATOM     15  C   UNL     1       3.531  46.316 286.141  1.00  0.00     0.157 A 
ATOM     16  C   UNL     1       3.565  46.760 283.757  1.00  0.00     0.062 A 
ATOM     17  C   UNL     1       3.504  45.849 284.822  1.00  0.00     0.158 A 
BRANCH  15  18
ATOM     18  O   UNL     1       3.472  45.408 287.198  1.00  0.00    -0.504 OA
ATOM     19  H   UNL     1       3.780  44.449 287.089  1.00  0.00     0.293 HD
ENDBRANCH  15  18
BRANCH  17  20
ATOM     20  O   UNL     1       3.415  44.481 284.575  1.00  0.00    -0.504 OA
ATOM     21  H   UNL     1       2.808  43.881 285.122  1.00  0.00     0.293 HD
ENDBRANCH  17  20
ENDBRANCH   1  12
BRANCH   2  22
ATOM     22  O   UNL     1       3.228  50.993 284.287  1.00  0.00    -0.502 OA
ATOM     23  H   UNL     1       2.941  50.420 285.071  1.00  0.00     0.293 HD
ENDBRANCH   2  22
BRANCH   6  24
ATOM     24  O   UNL     1       3.610  52.873 279.453  1.00  0.00    -0.507 OA
ATOM     25  H   UNL     1       3.187  53.350 278.666  1.00  0.00     0.293 HD
ENDBRANCH   6  24
BRANCH   8  26
ATOM     26  O   UNL     1       4.719  48.875 276.959  1.00  0.00    -0.508 OA
ATOM     27  H   UNL     1       4.182  49.055 276.119  1.00  0.00     0.293 HD
ENDBRANCH   8  26
TORSDOF 6
ENDMDL
MODEL 7
REMARK VINA RESULT:    -5.116      2.146      2.941
REMARK INTER + INTRA:          -5.989
REMARK INTER:                  -5.915
REMARK INTRA:                  -0.074
REMARK UNBOUND:                 0.174
REMARK SMILES O=c1c(O)c(-c2ccc(O)c(O)c2)oc2cc(O)cc(O)c12
REMARK SMILES IDX 5 1 3 2 2 3 1 4 22 5 20 6 19 7 17 8 16 9 15 10 14 11 6 12
REMARK SMILES IDX 7 13 8 14 9 15 13 16 11 17 10 18 12 20 4 22 21 24 18 26
REMARK H PARENT 10 19 12 21 4 23 21 25 18 27
REMARK Flexibility Score: inf
ROOT
ATOM      1  C   UNL     1       3.597  50.806 281.652  1.00  0.00     0.180 A 
ATOM      2  C   UNL     1       3.277  51.075 282.997  1.00  0.00     0.208 A 
ATOM      3  C   UNL     1       3.222  50.007 283.908  1.00  0.00     0.238 A 
ATOM      4  O   UNL     1       2.947  50.237 285.117  1.00  0.00    -0.285 OA
ATOM      5  C   UNL     1       3.466  48.694 283.457  1.00  0.00     0.111 A 
ATOM      6  C   UNL     1       3.425  47.563 284.308  1.00  0.00     0.134 A 
ATOM      7  C   UNL     1       3.672  46.287 283.780  1.00  0.00     0.093 A 
ATOM      8  C   UNL     1       3.956  46.120 282.420  1.00  0.00     0.123 A 
ATOM      9  C   UNL     1       3.997  47.232 281.578  1.00  0.00     0.094 A 
ATOM     10  C   UNL     1       3.756  48.512 282.084  1.00  0.00     0.146 A 
ATOM     11  O   UNL     1       3.807  49.553 281.261  1.00  0.00    -0.452 OA
ENDROOT
BRANCH   1  12
ATOM     12  C   UNL     1       3.694  51.880 280.638  1.00  0.00     0.025 A 
ATOM     13  C   UNL     1       2.875  51.884 279.494  1.00  0.00     0.016 A 
ATOM     14  C   UNL     1       2.967  52.922 278.563  1.00  0.00     0.051 A 
ATOM     15  C   UNL     1       3.868  53.975 278.766  1.00  0.00     0.157 A 
ATOM     16  C   UNL     1       4.580  52.950 280.846  1.00  0.00     0.062 A 
ATOM     17  C   UNL     1       4.673  53.992 279.911  1.00  0.00     0.158 A 
BRANCH  15  18
ATOM     18  O   UNL     1       3.964  55.011 277.838  1.00  0.00    -0.504 OA
ATOM     19  H   UNL     1       3.446  55.875 277.952  1.00  0.00     0.293 HD
ENDBRANCH  15  18
BRANCH  17  20
ATOM     20  O   UNL     1       5.564  55.044 280.114  1.00  0.00    -0.504 OA
ATOM     21  H   UNL     1       6.487  54.891 280.503  1.00  0.00     0.293 HD
ENDBRANCH  17  20
ENDBRANCH   1  12
BRANCH   2  22
ATOM     22  O   UNL     1       2.990  52.379 283.408  1.00  0.00    -0.502 OA
ATOM     23  H   UNL     1       2.563  52.584 284.303  1.00  0.00     0.293 HD
ENDBRANCH   2  22
BRANCH   6  24
ATOM     24  O   UNL     1       3.145  47.698 285.667  1.00  0.00    -0.507 OA
ATOM     25  H   UNL     1       3.196  46.910 286.303  1.00  0.00     0.293 HD
ENDBRANCH   6  24
BRANCH   8  26
ATOM     26  O   UNL     1       4.199  44.852 281.896  1.00  0.00    -0.508 OA
ATOM     27  H   UNL     1       4.280  44.038 282.494  1.00  0.00     0.293 HD
ENDBRANCH   8  26
TORSDOF 6
ENDMDL
MODEL 8
REMARK VINA RESULT:    -5.030      1.477      6.801
REMARK INTER + INTRA:          -5.885
REMARK INTER:                  -6.177
REMARK INTRA:                   0.292
REMARK UNBOUND:                 0.174
REMARK SMILES O=c1c(O)c(-c2ccc(O)c(O)c2)oc2cc(O)cc(O)c12
REMARK SMILES IDX 5 1 3 2 2 3 1 4 22 5 20 6 19 7 17 8 16 9 15 10 14 11 6 12
REMARK SMILES IDX 7 13 8 14 9 15 13 16 11 17 10 18 12 20 4 22 21 24 18 26
REMARK H PARENT 10 19 12 21 4 23 21 25 18 27
REMARK Flexibility Score: inf
ROOT
ATOM      1  C   UNL     1       3.556  48.158 282.503  1.00  0.00     0.180 A 
ATOM      2  C   UNL     1       3.383  49.477 282.967  1.00  0.00     0.208 A 
ATOM      3  C   UNL     1       3.505  50.538 282.055  1.00  0.00     0.238 A 
ATOM      4  O   UNL     1       3.341  51.722 282.456  1.00  0.00    -0.285 OA
ATOM      5  C   UNL     1       3.817  50.266 280.707  1.00  0.00     0.111 A 
ATOM      6  C   UNL     1       3.961  51.277 279.727  1.00  0.00     0.134 A 
ATOM      7  C   UNL     1       4.281  50.925 278.407  1.00  0.00     0.093 A 
ATOM      8  C   UNL     1       4.460  49.585 278.050  1.00  0.00     0.123 A 
ATOM      9  C   UNL     1       4.318  48.585 279.013  1.00  0.00     0.094 A 
ATOM     10  C   UNL     1       3.998  48.914 280.333  1.00  0.00     0.146 A 
ATOM     11  O   UNL     1       3.864  47.942 281.228  1.00  0.00    -0.452 OA
ENDROOT
BRANCH   1  12
ATOM     12  C   UNL     1       3.424  46.987 283.398  1.00  0.00     0.025 A 
ATOM     13  C   UNL     1       2.968  45.746 282.919  1.00  0.00     0.016 A 
ATOM     14  C   UNL     1       2.875  44.647 283.779  1.00  0.00     0.051 A 
ATOM     15  C   UNL     1       3.249  44.769 285.123  1.00  0.00     0.157 A 
ATOM     16  C   UNL     1       3.817  47.097 284.743  1.00  0.00     0.062 A 
ATOM     17  C   UNL     1       3.723  45.995 285.606  1.00  0.00     0.158 A 
BRANCH  15  18
ATOM     18  O   UNL     1       3.155  43.676 285.984  1.00  0.00    -0.504 OA
ATOM     19  H   UNL     1       2.882  43.788 286.953  1.00  0.00     0.293 HD
ENDBRANCH  15  18
BRANCH  17  20
ATOM     20  O   UNL     1       4.100  46.112 286.942  1.00  0.00    -0.504 OA
ATOM     21  H   UNL     1       3.719  45.502 287.657  1.00  0.00     0.293 HD
ENDBRANCH  17  20
ENDBRANCH   1  12
BRANCH   2  22
ATOM     22  O   UNL     1       3.124  49.723 284.318  1.00  0.00    -0.502 OA
ATOM     23  H   UNL     1       3.614  49.239 285.060  1.00  0.00     0.293 HD
ENDBRANCH   2  22
BRANCH   6  24
ATOM     24  O   UNL     1       3.789  52.623 280.053  1.00  0.00    -0.507 OA
ATOM     25  H   UNL     1       3.288  52.910 280.885  1.00  0.00     0.293 HD
ENDBRANCH   6  24
BRANCH   8  26
ATOM     26  O   UNL     1       4.780  49.235 276.739  1.00  0.00    -0.508 OA
ATOM     27  H   UNL     1       4.744  48.273 276.423  1.00  0.00     0.293 HD
ENDBRANCH   8  26
TORSDOF 6
ENDMDL
MODEL 9
REMARK VINA RESULT:    -4.803      1.564      2.413
REMARK INTER + INTRA:          -5.611
REMARK INTER:                  -5.796
REMARK INTRA:                   0.184
REMARK UNBOUND:                 0.174
REMARK SMILES O=c1c(O)c(-c2ccc(O)c(O)c2)oc2cc(O)cc(O)c12
REMARK SMILES IDX 5 1 3 2 2 3 1 4 22 5 20 6 19 7 17 8 16 9 15 10 14 11 6 12
REMARK SMILES IDX 7 13 8 14 9 15 13 16 11 17 10 18 12 20 4 22 21 24 18 26
REMARK H PARENT 10 19 12 21 4 23 21 25 18 27
REMARK Flexibility Score: inf
ROOT
ATOM      1  C   UNL     1       3.606  49.179 281.875  1.00  0.00     0.180 A 
ATOM      2  C   UNL     1       3.628  50.229 282.814  1.00  0.00     0.208 A 
ATOM      3  C   UNL     1       3.659  49.915 284.182  1.00  0.00     0.238 A 
ATOM      4  O   UNL     1       3.690  50.846 285.031  1.00  0.00    -0.285 OA
ATOM      5  C   UNL     1       3.646  48.564 284.587  1.00  0.00     0.111 A 
ATOM      6  C   UNL     1       3.671  48.163 285.944  1.00  0.00     0.134 A 
ATOM      7  C   UNL     1       3.648  46.797 286.267  1.00  0.00     0.093 A 
ATOM      8  C   UNL     1       3.599  45.828 285.259  1.00  0.00     0.123 A 
ATOM      9  C   UNL     1       3.575  46.219 283.920  1.00  0.00     0.094 A 
ATOM     10  C   UNL     1       3.599  47.574 283.577  1.00  0.00     0.146 A 
ATOM     11  O   UNL     1       3.580  47.918 282.295  1.00  0.00    -0.452 OA
ENDROOT
BRANCH   1  12
ATOM     12  C   UNL     1       3.593  49.430 280.416  1.00  0.00     0.025 A 
ATOM     13  C   UNL     1       2.876  50.506 279.863  1.00  0.00     0.016 A 
ATOM     14  C   UNL     1       2.899  50.737 278.485  1.00  0.00     0.051 A 
ATOM     15  C   UNL     1       3.647  49.905 277.642  1.00  0.00     0.157 A 
ATOM     16  C   UNL     1       4.358  48.612 279.567  1.00  0.00     0.062 A 
ATOM     17  C   UNL     1       4.380  48.843 278.184  1.00  0.00     0.158 A 
BRANCH  15  18
ATOM     18  O   UNL     1       3.670  50.131 276.266  1.00  0.00    -0.504 OA
ATOM     19  H   UNL     1       3.683  49.364 275.604  1.00  0.00     0.293 HD
ENDBRANCH  15  18
BRANCH  17  20
ATOM     20  O   UNL     1       5.129  48.021 277.343  1.00  0.00    -0.504 OA
ATOM     21  H   UNL     1       5.892  48.387 276.785  1.00  0.00     0.293 HD
ENDBRANCH  17  20
ENDBRANCH   1  12
BRANCH   2  22
ATOM     22  O   UNL     1       3.589  51.559 282.387  1.00  0.00    -0.502 OA
ATOM     23  H   UNL     1       4.085  51.879 281.564  1.00  0.00     0.293 HD
ENDBRANCH   2  22
BRANCH   6  24
ATOM     24  O   UNL     1       3.719  49.106 286.971  1.00  0.00    -0.507 OA
ATOM     25  H   UNL     1       4.467  49.112 287.655  1.00  0.00     0.293 HD
ENDBRANCH   6  24
BRANCH   8  26
ATOM     26  O   UNL     1       3.574  44.472 285.579  1.00  0.00    -0.508 OA
ATOM     27  H   UNL     1       3.566  44.155 286.541  1.00  0.00     0.293 HD
ENDBRANCH   8  26
TORSDOF 6
ENDMDL
