MODEL 1
REMARK VINA RESULT:    -6.065      0.000      0.000
REMARK INTER + INTRA:         -12.593
REMARK INTER:                  -9.966
REMARK INTRA:                  -2.627
REMARK UNBOUND:                -2.627
REMARK SMILES C[C@@H]1O[C@@H](OC[C@H]2O[C@H](Oc3c(-c4ccc(O)c(O)c4)oc4cc(O)cc(O)c4c3=O)[C@@H](O)[C@@H](O)[C@H]2O)[C@@H](O)[C@H](O)[C@@H]1O
REMARK SMILES IDX 7 1 36 2 34 3 32 4 9 5 8 6 6 7 5 8 4 9 1 10 2 11 42 12 3 13
REMARK SMILES IDX 40 14 38 15 43 16 41 18 39 20 37 22 35 24 10 26 11 27 12 28
REMARK SMILES IDX 30 29 21 30 29 31 31 32 22 33 27 34 23 35 26 36 24 37 13 38
REMARK SMILES IDX 20 39 14 40 18 41 15 42 16 43 19 44 17 46 28 48 25 50 33 52
REMARK H PARENT 43 17 41 19 39 21 37 23 35 25 19 45 17 47 28 49 25 51 33 53
REMARK Flexibility Score: inf
ROOT
ATOM      1  C   UNL     1     481.057  42.086 459.174  1.00  0.00     0.180 C 
ATOM      2  C   UNL     1     480.235  43.393 459.009  1.00  0.00     0.177 C 
ATOM      3  C   UNL     1     478.748  43.132 459.307  1.00  0.00     0.180 C 
ATOM      4  C   UNL     1     478.583  42.408 460.663  1.00  0.00     0.214 C 
ATOM      5  C   UNL     1     479.492  41.158 460.684  1.00  0.00     0.339 C 
ATOM      6  O   UNL     1     480.856  41.510 460.461  1.00  0.00    -0.332 OA
ENDROOT
BRANCH   1   7
ATOM      7  C   UNL     1     482.564  42.395 458.974  1.00  0.00     0.198 C 
BRANCH   7   8
ATOM      8  O   UNL     1     483.117  43.169 460.026  1.00  0.00    -0.347 OA
BRANCH   8   9
ATOM      9  C   UNL     1     484.497  42.869 460.228  1.00  0.00     0.281 C 
ATOM     10  C   UNL     1     484.309  39.772 462.220  1.00  0.00     0.041 C 
ATOM     11  C   UNL     1     484.482  41.273 461.971  1.00  0.00     0.150 C 
ATOM     12  C   UNL     1     485.690  41.889 462.761  1.00  0.00     0.174 C 
ATOM     13  O   UNL     1     484.622  41.491 460.574  1.00  0.00    -0.344 OA
ATOM     14  C   UNL     1     486.316  43.092 462.007  1.00  0.00     0.179 C 
ATOM     15  C   UNL     1     485.225  43.850 461.215  1.00  0.00     0.202 C 
BRANCH  12  16
ATOM     16  O   UNL     1     486.676  40.953 463.101  1.00  0.00    -0.388 OA
ATOM     17  H   UNL     1     486.287  40.337 463.778  1.00  0.00     0.211 HD
ENDBRANCH  12  16
BRANCH  14  18
ATOM     18  O   UNL     1     487.306  42.635 461.113  1.00  0.00    -0.387 OA
ATOM     19  H   UNL     1     488.172  43.040 461.404  1.00  0.00     0.211 HD
ENDBRANCH  14  18
BRANCH  15  20
ATOM     20  O   UNL     1     484.327  44.526 462.067  1.00  0.00    -0.385 OA
ATOM     21  H   UNL     1     483.914  43.891 462.703  1.00  0.00     0.211 HD
ENDBRANCH  15  20
ENDBRANCH   8   9
ENDBRANCH   7   8
ENDBRANCH   1   7
BRANCH   2  22
ATOM     22  O   UNL     1     480.729  44.393 459.871  1.00  0.00    -0.387 OA
ATOM     23  H   UNL     1     479.953  44.755 460.376  1.00  0.00     0.211 HD
ENDBRANCH   2  22
BRANCH   3  24
ATOM     24  O   UNL     1     478.015  44.331 459.300  1.00  0.00    -0.387 OA
ATOM     25  H   UNL     1     478.045  44.677 458.365  1.00  0.00     0.211 HD
ENDBRANCH   3  24
BRANCH   5  26
ATOM     26  O   UNL     1     479.057  40.167 459.739  1.00  0.00    -0.454 OA
BRANCH  26  27
ATOM     27  C   UNL     1     478.795  38.830 460.093  1.00  0.00     0.214 A 
ATOM     28  C   UNL     1     479.638  37.765 459.698  1.00  0.00     0.180 A 
ATOM     29  C   UNL     1     477.677  38.537 460.883  1.00  0.00     0.239 A 
ATOM     30  O   UNL     1     479.427  36.540 460.175  1.00  0.00    -0.452 OA
ATOM     31  C   UNL     1     477.476  37.221 461.357  1.00  0.00     0.111 A 
ATOM     32  O   UNL     1     476.874  39.463 461.177  1.00  0.00    -0.285 OA
ATOM     33  C   UNL     1     478.415  36.232 460.978  1.00  0.00     0.146 A 
ATOM     34  C   UNL     1     476.402  36.856 462.203  1.00  0.00     0.134 A 
ATOM     35  C   UNL     1     478.293  34.918 461.448  1.00  0.00     0.094 A 
ATOM     36  C   UNL     1     476.294  35.532 462.660  1.00  0.00     0.093 A 
ATOM     37  C   UNL     1     477.235  34.567 462.293  1.00  0.00     0.123 A 
BRANCH  28  38
ATOM     38  C   UNL     1     480.743  37.950 458.733  1.00  0.00     0.025 A 
ATOM     39  C   UNL     1     481.974  38.462 459.176  1.00  0.00     0.062 A 
ATOM     40  C   UNL     1     480.604  37.556 457.391  1.00  0.00     0.016 A 
ATOM     41  C   UNL     1     483.043  38.620 458.279  1.00  0.00     0.158 A 
ATOM     42  C   UNL     1     481.676  37.685 456.503  1.00  0.00     0.051 A 
ATOM     43  C   UNL     1     482.896  38.218 456.939  1.00  0.00     0.157 A 
BRANCH  41  44
ATOM     44  O   UNL     1     484.252  39.165 458.721  1.00  0.00    -0.504 OA
ATOM     45  H   UNL     1     485.022  38.574 459.005  1.00  0.00     0.293 HD
ENDBRANCH  41  44
BRANCH  43  46
ATOM     46  O   UNL     1     483.945  38.342 456.030  1.00  0.00    -0.504 OA
ATOM     47  H   UNL     1     484.159  39.222 455.582  1.00  0.00     0.293 HD
ENDBRANCH  43  46
ENDBRANCH  28  38
BRANCH  34  48
ATOM     48  O   UNL     1     475.445  37.793 462.595  1.00  0.00    -0.507 OA
ATOM     49  H   UNL     1     475.705  38.709 462.946  1.00  0.00     0.293 HD
ENDBRANCH  34  48
BRANCH  37  50
ATOM     50  O   UNL     1     477.111  33.265 462.782  1.00  0.00    -0.508 OA
ATOM     51  H   UNL     1     476.205  32.840 462.929  1.00  0.00     0.293 HD
ENDBRANCH  37  50
ENDBRANCH  26  27
ENDBRANCH   5  26
BRANCH   4  52
ATOM     52  O   UNL     1     478.933  43.234 461.749  1.00  0.00    -0.384 OA
ATOM     53  H   UNL     1     478.832  42.702 462.576  1.00  0.00     0.211 HD
ENDBRANCH   4  52
TORSDOF 16
ENDMDL
MODEL 2
REMARK VINA RESULT:    -6.040      1.777      4.719
REMARK INTER + INTRA:         -12.551
REMARK INTER:                 -10.373
REMARK INTRA:                  -2.178
REMARK UNBOUND:                -2.627
REMARK SMILES C[C@@H]1O[C@@H](OC[C@H]2O[C@H](Oc3c(-c4ccc(O)c(O)c4)oc4cc(O)cc(O)c4c3=O)[C@@H](O)[C@@H](O)[C@H]2O)[C@@H](O)[C@H](O)[C@@H]1O
REMARK SMILES IDX 7 1 36 2 34 3 32 4 9 5 8 6 6 7 5 8 4 9 1 10 2 11 42 12 3 13
REMARK SMILES IDX 40 14 38 15 43 16 41 18 39 20 37 22 35 24 10 26 11 27 12 28
REMARK SMILES IDX 30 29 21 30 29 31 31 32 22 33 27 34 23 35 26 36 24 37 13 38
REMARK SMILES IDX 20 39 14 40 18 41 15 42 16 43 19 44 17 46 28 48 25 50 33 52
REMARK H PARENT 43 17 41 19 39 21 37 23 35 25 19 45 17 47 28 49 25 51 33 53
REMARK Flexibility Score: inf
ROOT
ATOM      1  C   UNL     1     482.041  39.934 457.258  1.00  0.00     0.180 C 
ATOM      2  C   UNL     1     482.033  38.777 456.224  1.00  0.00     0.177 C 
ATOM      3  C   UNL     1     480.999  37.709 456.623  1.00  0.00     0.180 C 
ATOM      4  C   UNL     1     479.626  38.359 456.905  1.00  0.00     0.214 C 
ATOM      5  C   UNL     1     479.810  39.514 457.917  1.00  0.00     0.339 C 
ATOM      6  O   UNL     1     480.738  40.482 457.430  1.00  0.00    -0.332 OA
ENDROOT
BRANCH   1   7
ATOM      7  C   UNL     1     483.011  41.047 456.781  1.00  0.00     0.198 C 
BRANCH   7   8
ATOM      8  O   UNL     1     484.129  41.214 457.637  1.00  0.00    -0.347 OA
BRANCH   8   9
ATOM      9  C   UNL     1     483.961  40.506 458.863  1.00  0.00     0.281 C 
ATOM     10  C   UNL     1     485.236  42.943 461.319  1.00  0.00     0.041 C 
ATOM     11  C   UNL     1     485.284  41.716 460.404  1.00  0.00     0.150 C 
ATOM     12  C   UNL     1     485.909  40.456 461.100  1.00  0.00     0.174 C 
ATOM     13  O   UNL     1     483.969  41.442 459.940  1.00  0.00    -0.344 OA
ATOM     14  C   UNL     1     485.313  39.137 460.542  1.00  0.00     0.179 C 
ATOM     15  C   UNL     1     484.956  39.304 459.047  1.00  0.00     0.202 C 
BRANCH  12  16
ATOM     16  O   UNL     1     485.821  40.485 462.498  1.00  0.00    -0.388 OA
ATOM     17  H   UNL     1     485.418  39.625 462.794  1.00  0.00     0.211 HD
ENDBRANCH  12  16
BRANCH  14  18
ATOM     18  O   UNL     1     484.151  38.792 461.263  1.00  0.00    -0.387 OA
ATOM     19  H   UNL     1     483.422  39.399 460.949  1.00  0.00     0.211 HD
ENDBRANCH  14  18
BRANCH  15  20
ATOM     20  O   UNL     1     486.106  39.424 458.239  1.00  0.00    -0.385 OA
ATOM     21  H   UNL     1     486.894  39.641 458.795  1.00  0.00     0.211 HD
ENDBRANCH  15  20
ENDBRANCH   8   9
ENDBRANCH   7   8
ENDBRANCH   1   7
BRANCH   2  22
ATOM     22  O   UNL     1     481.738  39.274 454.938  1.00  0.00    -0.387 OA
ATOM     23  H   UNL     1     480.786  39.058 454.750  1.00  0.00     0.211 HD
ENDBRANCH   2  22
BRANCH   3  24
ATOM     24  O   UNL     1     480.880  36.726 455.625  1.00  0.00    -0.387 OA
ATOM     25  H   UNL     1     480.574  37.195 454.799  1.00  0.00     0.211 HD
ENDBRANCH   3  24
BRANCH   5  26
ATOM     26  O   UNL     1     480.205  39.030 459.211  1.00  0.00    -0.454 OA
BRANCH  26  27
ATOM     27  C   UNL     1     479.301  38.462 460.129  1.00  0.00     0.214 A 
ATOM     28  C   UNL     1     478.365  39.243 460.848  1.00  0.00     0.180 A 
ATOM     29  C   UNL     1     479.305  37.077 460.326  1.00  0.00     0.239 A 
ATOM     30  O   UNL     1     477.440  38.646 461.595  1.00  0.00    -0.452 OA
ATOM     31  C   UNL     1     478.316  36.480 461.142  1.00  0.00     0.111 A 
ATOM     32  O   UNL     1     480.184  36.378 459.753  1.00  0.00    -0.285 OA
ATOM     33  C   UNL     1     477.367  37.330 461.759  1.00  0.00     0.146 A 
ATOM     34  C   UNL     1     478.220  35.083 461.348  1.00  0.00     0.134 A 
ATOM     35  C   UNL     1     476.339  36.796 462.546  1.00  0.00     0.094 A 
ATOM     36  C   UNL     1     477.185  34.567 462.144  1.00  0.00     0.093 A 
ATOM     37  C   UNL     1     476.244  35.413 462.736  1.00  0.00     0.123 A 
BRANCH  28  38
ATOM     38  C   UNL     1     478.393  40.721 460.831  1.00  0.00     0.025 A 
ATOM     39  C   UNL     1     479.371  41.406 461.571  1.00  0.00     0.062 A 
ATOM     40  C   UNL     1     477.500  41.452 460.030  1.00  0.00     0.016 A 
ATOM     41  C   UNL     1     479.430  42.809 461.547  1.00  0.00     0.158 A 
ATOM     42  C   UNL     1     477.576  42.847 459.981  1.00  0.00     0.051 A 
ATOM     43  C   UNL     1     478.535  43.531 460.738  1.00  0.00     0.157 A 
BRANCH  41  44
ATOM     44  O   UNL     1     480.384  43.483 462.316  1.00  0.00    -0.504 OA
ATOM     45  H   UNL     1     481.191  43.003 462.690  1.00  0.00     0.293 HD
ENDBRANCH  41  44
BRANCH  43  46
ATOM     46  O   UNL     1     478.583  44.923 460.676  1.00  0.00    -0.504 OA
ATOM     47  H   UNL     1     477.757  45.489 460.811  1.00  0.00     0.293 HD
ENDBRANCH  43  46
ENDBRANCH  28  38
BRANCH  34  48
ATOM     48  O   UNL     1     479.137  34.206 460.769  1.00  0.00    -0.507 OA
ATOM     49  H   UNL     1     478.931  33.702 459.912  1.00  0.00     0.293 HD
ENDBRANCH  34  48
BRANCH  37  50
ATOM     50  O   UNL     1     475.214  34.867 463.505  1.00  0.00    -0.508 OA
ATOM     51  H   UNL     1     474.590  34.164 463.129  1.00  0.00     0.293 HD
ENDBRANCH  37  50
ENDBRANCH  26  27
ENDBRANCH   5  26
BRANCH   4  52
ATOM     52  O   UNL     1     479.036  38.879 455.737  1.00  0.00    -0.384 OA
ATOM     53  H   UNL     1     479.263  39.840 455.687  1.00  0.00     0.211 HD
ENDBRANCH   4  52
TORSDOF 16
ENDMDL
MODEL 3
REMARK VINA RESULT:    -6.020      1.768      2.096
REMARK INTER + INTRA:         -12.518
REMARK INTER:                 -10.200
REMARK INTRA:                  -2.318
REMARK UNBOUND:                -2.627
REMARK SMILES C[C@@H]1O[C@@H](OC[C@H]2O[C@H](Oc3c(-c4ccc(O)c(O)c4)oc4cc(O)cc(O)c4c3=O)[C@@H](O)[C@@H](O)[C@H]2O)[C@@H](O)[C@H](O)[C@@H]1O
REMARK SMILES IDX 7 1 36 2 34 3 32 4 9 5 8 6 6 7 5 8 4 9 1 10 2 11 42 12 3 13
REMARK SMILES IDX 40 14 38 15 43 16 41 18 39 20 37 22 35 24 10 26 11 27 12 28
REMARK SMILES IDX 30 29 21 30 29 31 31 32 22 33 27 34 23 35 26 36 24 37 13 38
REMARK SMILES IDX 20 39 14 40 18 41 15 42 16 43 19 44 17 46 28 48 25 50 33 52
REMARK H PARENT 43 17 41 19 39 21 37 23 35 25 19 45 17 47 28 49 25 51 33 53
REMARK Flexibility Score: inf
ROOT
ATOM      1  C   UNL     1     480.317  42.082 458.314  1.00  0.00     0.180 C 
ATOM      2  C   UNL     1     479.602  43.451 458.155  1.00  0.00     0.177 C 
ATOM      3  C   UNL     1     478.167  43.373 458.708  1.00  0.00     0.180 C 
ATOM      4  C   UNL     1     478.165  42.781 460.136  1.00  0.00     0.214 C 
ATOM      5  C   UNL     1     478.948  41.448 460.133  1.00  0.00     0.339 C 
ATOM      6  O   UNL     1     480.282  41.635 459.665  1.00  0.00    -0.332 OA
ENDROOT
BRANCH   1   7
ATOM      7  C   UNL     1     481.792  42.214 457.849  1.00  0.00     0.198 C 
BRANCH   7   8
ATOM      8  O   UNL     1     482.726  41.908 458.873  1.00  0.00    -0.347 OA
BRANCH   8   9
ATOM      9  C   UNL     1     483.343  40.641 458.658  1.00  0.00     0.281 C 
ATOM     10  C   UNL     1     483.467  39.275 462.080  1.00  0.00     0.041 C 
ATOM     11  C   UNL     1     484.007  39.959 460.821  1.00  0.00     0.150 C 
ATOM     12  C   UNL     1     485.419  39.425 460.393  1.00  0.00     0.174 C 
ATOM     13  O   UNL     1     483.062  39.797 459.772  1.00  0.00    -0.344 OA
ATOM     14  C   UNL     1     485.623  39.508 458.857  1.00  0.00     0.179 C 
ATOM     15  C   UNL     1     484.867  40.729 458.285  1.00  0.00     0.202 C 
BRANCH  12  16
ATOM     16  O   UNL     1     485.697  38.132 460.858  1.00  0.00    -0.388 OA
ATOM     17  H   UNL     1     485.031  37.916 461.564  1.00  0.00     0.211 HD
ENDBRANCH  12  16
BRANCH  14  18
ATOM     18  O   UNL     1     485.142  38.333 458.244  1.00  0.00    -0.387 OA
ATOM     19  H   UNL     1     485.788  38.095 457.521  1.00  0.00     0.211 HD
ENDBRANCH  14  18
BRANCH  15  20
ATOM     20  O   UNL     1     485.453  41.949 458.684  1.00  0.00    -0.385 OA
ATOM     21  H   UNL     1     484.818  42.695 458.546  1.00  0.00     0.211 HD
ENDBRANCH  15  20
ENDBRANCH   8   9
ENDBRANCH   7   8
ENDBRANCH   1   7
BRANCH   2  22
ATOM     22  O   UNL     1     480.322  44.459 458.829  1.00  0.00    -0.387 OA
ATOM     23  H   UNL     1     480.721  45.049 458.135  1.00  0.00     0.211 HD
ENDBRANCH   2  22
BRANCH   3  24
ATOM     24  O   UNL     1     477.556  44.638 458.701  1.00  0.00    -0.387 OA
ATOM     25  H   UNL     1     478.279  45.303 458.530  1.00  0.00     0.211 HD
ENDBRANCH   3  24
BRANCH   5  26
ATOM     26  O   UNL     1     478.273  40.436 459.368  1.00  0.00    -0.454 OA
BRANCH  26  27
ATOM     27  C   UNL     1     478.182  39.093 459.781  1.00  0.00     0.214 A 
ATOM     28  C   UNL     1     478.993  38.076 459.224  1.00  0.00     0.180 A 
ATOM     29  C   UNL     1     477.279  38.747 460.792  1.00  0.00     0.239 A 
ATOM     30  O   UNL     1     478.971  36.851 459.744  1.00  0.00    -0.452 OA
ATOM     31  C   UNL     1     477.272  37.431 461.308  1.00  0.00     0.111 A 
ATOM     32  O   UNL     1     476.496  39.626 461.242  1.00  0.00    -0.285 OA
ATOM     33  C   UNL     1     478.175  36.496 460.747  1.00  0.00     0.146 A 
ATOM     34  C   UNL     1     476.428  37.017 462.366  1.00  0.00     0.134 A 
ATOM     35  C   UNL     1     478.244  35.188 461.242  1.00  0.00     0.094 A 
ATOM     36  C   UNL     1     476.509  35.699 462.846  1.00  0.00     0.093 A 
ATOM     37  C   UNL     1     477.414  34.789 462.296  1.00  0.00     0.123 A 
BRANCH  28  38
ATOM     38  C   UNL     1     479.854  38.310 458.044  1.00  0.00     0.025 A 
ATOM     39  C   UNL     1     481.098  37.665 457.953  1.00  0.00     0.062 A 
ATOM     40  C   UNL     1     479.415  39.114 456.979  1.00  0.00     0.016 A 
ATOM     41  C   UNL     1     481.917  37.855 456.829  1.00  0.00     0.158 A 
ATOM     42  C   UNL     1     480.217  39.281 455.845  1.00  0.00     0.051 A 
ATOM     43  C   UNL     1     481.468  38.657 455.765  1.00  0.00     0.157 A 
BRANCH  41  44
ATOM     44  O   UNL     1     483.170  37.238 456.763  1.00  0.00    -0.504 OA
ATOM     45  H   UNL     1     483.803  37.248 457.551  1.00  0.00     0.293 HD
ENDBRANCH  41  44
BRANCH  43  46
ATOM     46  O   UNL     1     482.249  38.848 454.626  1.00  0.00    -0.504 OA
ATOM     47  H   UNL     1     482.541  39.768 454.329  1.00  0.00     0.293 HD
ENDBRANCH  43  46
ENDBRANCH  28  38
BRANCH  34  48
ATOM     48  O   UNL     1     475.515  37.899 462.945  1.00  0.00    -0.507 OA
ATOM     49  H   UNL     1     474.538  37.654 463.069  1.00  0.00     0.293 HD
ENDBRANCH  34  48
BRANCH  37  50
ATOM     50  O   UNL     1     477.484  33.493 462.810  1.00  0.00    -0.508 OA
ATOM     51  H   UNL     1     476.806  33.152 463.480  1.00  0.00     0.293 HD
ENDBRANCH  37  50
ENDBRANCH  26  27
ENDBRANCH   5  26
BRANCH   4  52
ATOM     52  O   UNL     1     478.765  43.649 461.069  1.00  0.00    -0.384 OA
ATOM     53  H   UNL     1     478.067  44.271 461.392  1.00  0.00     0.211 HD
ENDBRANCH   4  52
TORSDOF 16
ENDMDL
MODEL 4
REMARK VINA RESULT:    -5.986      2.043      2.651
REMARK INTER + INTRA:         -12.463
REMARK INTER:                  -9.890
REMARK INTRA:                  -2.574
REMARK UNBOUND:                -2.627
REMARK SMILES C[C@@H]1O[C@@H](OC[C@H]2O[C@H](Oc3c(-c4ccc(O)c(O)c4)oc4cc(O)cc(O)c4c3=O)[C@@H](O)[C@@H](O)[C@H]2O)[C@@H](O)[C@H](O)[C@@H]1O
REMARK SMILES IDX 7 1 36 2 34 3 32 4 9 5 8 6 6 7 5 8 4 9 1 10 2 11 42 12 3 13
REMARK SMILES IDX 40 14 38 15 43 16 41 18 39 20 37 22 35 24 10 26 11 27 12 28
REMARK SMILES IDX 30 29 21 30 29 31 31 32 22 33 27 34 23 35 26 36 24 37 13 38
REMARK SMILES IDX 20 39 14 40 18 41 15 42 16 43 19 44 17 46 28 48 25 50 33 52
REMARK H PARENT 43 17 41 19 39 21 37 23 35 25 19 45 17 47 28 49 25 51 33 53
REMARK Flexibility Score: inf
ROOT
ATOM      1  C   UNL     1     481.638  41.349 460.244  1.00  0.00     0.180 C 
ATOM      2  C   UNL     1     481.649  42.719 459.515  1.00  0.00     0.177 C 
ATOM      3  C   UNL     1     480.299  42.963 458.816  1.00  0.00     0.180 C 
ATOM      4  C   UNL     1     479.128  42.741 459.799  1.00  0.00     0.214 C 
ATOM      5  C   UNL     1     479.286  41.356 460.470  1.00  0.00     0.339 C 
ATOM      6  O   UNL     1     480.539  41.250 461.143  1.00  0.00    -0.332 OA
ENDROOT
BRANCH   1   7
ATOM      7  C   UNL     1     482.966  41.171 461.028  1.00  0.00     0.198 C 
BRANCH   7   8
ATOM      8  O   UNL     1     482.864  41.562 462.388  1.00  0.00    -0.347 OA
BRANCH   8   9
ATOM      9  C   UNL     1     483.251  40.507 463.266  1.00  0.00     0.281 C 
ATOM     10  C   UNL     1     480.137  38.546 463.505  1.00  0.00     0.041 C 
ATOM     11  C   UNL     1     481.199  39.556 463.951  1.00  0.00     0.150 C 
ATOM     12  C   UNL     1     481.591  39.404 465.463  1.00  0.00     0.174 C 
ATOM     13  O   UNL     1     482.338  39.422 463.113  1.00  0.00    -0.344 OA
ATOM     14  C   UNL     1     483.061  39.826 465.720  1.00  0.00     0.179 C 
ATOM     15  C   UNL     1     483.466  40.963 464.754  1.00  0.00     0.202 C 
BRANCH  12  16
ATOM     16  O   UNL     1     481.347  38.125 465.981  1.00  0.00    -0.388 OA
ATOM     17  H   UNL     1     482.161  37.838 466.474  1.00  0.00     0.211 HD
ENDBRANCH  12  16
BRANCH  14  18
ATOM     18  O   UNL     1     483.918  38.723 465.525  1.00  0.00    -0.387 OA
ATOM     19  H   UNL     1     484.850  39.080 465.484  1.00  0.00     0.211 HD
ENDBRANCH  14  18
BRANCH  15  20
ATOM     20  O   UNL     1     482.801  42.171 465.052  1.00  0.00    -0.385 OA
ATOM     21  H   UNL     1     483.333  42.942 464.735  1.00  0.00     0.211 HD
ENDBRANCH  15  20
ENDBRANCH   8   9
ENDBRANCH   7   8
ENDBRANCH   1   7
BRANCH   2  22
ATOM     22  O   UNL     1     481.909  43.758 460.431  1.00  0.00    -0.387 OA
ATOM     23  H   UNL     1     481.750  44.616 459.956  1.00  0.00     0.211 HD
ENDBRANCH   2  22
BRANCH   3  24
ATOM     24  O   UNL     1     480.242  44.258 458.271  1.00  0.00    -0.387 OA
ATOM     25  H   UNL     1     480.586  44.189 457.338  1.00  0.00     0.211 HD
ENDBRANCH   3  24
BRANCH   5  26
ATOM     26  O   UNL     1     479.117  40.286 459.526  1.00  0.00    -0.454 OA
BRANCH  26  27
ATOM     27  C   UNL     1     478.852  38.957 459.910  1.00  0.00     0.214 A 
ATOM     28  C   UNL     1     479.676  37.878 459.513  1.00  0.00     0.180 A 
ATOM     29  C   UNL     1     477.752  38.689 460.732  1.00  0.00     0.239 A 
ATOM     30  O   UNL     1     479.466  36.664 460.016  1.00  0.00    -0.452 OA
ATOM     31  C   UNL     1     477.551  37.383 461.233  1.00  0.00     0.111 A 
ATOM     32  O   UNL     1     476.964  39.628 461.029  1.00  0.00    -0.285 OA
ATOM     33  C   UNL     1     478.471  36.379 460.850  1.00  0.00     0.146 A 
ATOM     34  C   UNL     1     476.494  37.042 462.112  1.00  0.00     0.134 A 
ATOM     35  C   UNL     1     478.349  35.074 461.345  1.00  0.00     0.094 A 
ATOM     36  C   UNL     1     476.385  35.728 462.594  1.00  0.00     0.093 A 
ATOM     37  C   UNL     1     477.309  34.748 462.221  1.00  0.00     0.123 A 
BRANCH  28  38
ATOM     38  C   UNL     1     480.758  38.036 458.518  1.00  0.00     0.025 A 
ATOM     39  C   UNL     1     482.076  38.250 458.954  1.00  0.00     0.062 A 
ATOM     40  C   UNL     1     480.500  37.906 457.143  1.00  0.00     0.016 A 
ATOM     41  C   UNL     1     483.121  38.377 458.024  1.00  0.00     0.158 A 
ATOM     42  C   UNL     1     481.544  38.002 456.217  1.00  0.00     0.051 A 
ATOM     43  C   UNL     1     482.854  38.239 456.650  1.00  0.00     0.157 A 
BRANCH  41  44
ATOM     44  O   UNL     1     484.425  38.626 458.465  1.00  0.00    -0.504 OA
ATOM     45  H   UNL     1     484.971  39.388 458.086  1.00  0.00     0.293 HD
ENDBRANCH  41  44
BRANCH  43  46
ATOM     46  O   UNL     1     483.874  38.339 455.704  1.00  0.00    -0.504 OA
ATOM     47  H   UNL     1     484.416  39.184 455.594  1.00  0.00     0.293 HD
ENDBRANCH  43  46
ENDBRANCH  28  38
BRANCH  34  48
ATOM     48  O   UNL     1     475.556  37.995 462.510  1.00  0.00    -0.507 OA
ATOM     49  H   UNL     1     475.078  37.936 463.404  1.00  0.00     0.293 HD
ENDBRANCH  34  48
BRANCH  37  50
ATOM     50  O   UNL     1     477.186  33.456 462.736  1.00  0.00    -0.508 OA
ATOM     51  H   UNL     1     477.166  33.284 463.733  1.00  0.00     0.293 HD
ENDBRANCH  37  50
ENDBRANCH  26  27
ENDBRANCH   5  26
BRANCH   4  52
ATOM     52  O   UNL     1     479.089  43.724 460.807  1.00  0.00    -0.384 OA
ATOM     53  H   UNL     1     479.132  44.608 460.367  1.00  0.00     0.211 HD
ENDBRANCH   4  52
TORSDOF 16
ENDMDL
MODEL 5
REMARK VINA RESULT:    -5.838      3.008      5.506
REMARK INTER + INTRA:         -12.220
REMARK INTER:                 -10.296
REMARK INTRA:                  -1.924
REMARK UNBOUND:                -2.627
REMARK SMILES C[C@@H]1O[C@@H](OC[C@H]2O[C@H](Oc3c(-c4ccc(O)c(O)c4)oc4cc(O)cc(O)c4c3=O)[C@@H](O)[C@@H](O)[C@H]2O)[C@@H](O)[C@H](O)[C@@H]1O
REMARK SMILES IDX 7 1 36 2 34 3 32 4 9 5 8 6 6 7 5 8 4 9 1 10 2 11 42 12 3 13
REMARK SMILES IDX 40 14 38 15 43 16 41 18 39 20 37 22 35 24 10 26 11 27 12 28
REMARK SMILES IDX 30 29 21 30 29 31 31 32 22 33 27 34 23 35 26 36 24 37 13 38
REMARK SMILES IDX 20 39 14 40 18 41 15 42 16 43 19 44 17 46 28 48 25 50 33 52
REMARK H PARENT 43 17 41 19 39 21 37 23 35 25 19 45 17 47 28 49 25 51 33 53
REMARK Flexibility Score: inf
ROOT
ATOM      1  C   UNL     1     482.475  39.796 462.725  1.00  0.00     0.180 C 
ATOM      2  C   UNL     1     482.668  40.476 464.107  1.00  0.00     0.177 C 
ATOM      3  C   UNL     1     481.312  40.641 464.816  1.00  0.00     0.180 C 
ATOM      4  C   UNL     1     480.540  39.303 464.835  1.00  0.00     0.214 C 
ATOM      5  C   UNL     1     480.471  38.738 463.397  1.00  0.00     0.339 C 
ATOM      6  O   UNL     1     481.776  38.562 462.850  1.00  0.00    -0.332 OA
ENDROOT
BRANCH   1   7
ATOM      7  C   UNL     1     483.861  39.543 462.076  1.00  0.00     0.198 C 
BRANCH   7   8
ATOM      8  O   UNL     1     484.049  40.263 460.868  1.00  0.00    -0.347 OA
BRANCH   8   9
ATOM      9  C   UNL     1     484.381  39.395 459.787  1.00  0.00     0.281 C 
ATOM     10  C   UNL     1     484.563  41.754 456.959  1.00  0.00     0.041 C 
ATOM     11  C   UNL     1     483.932  40.689 457.861  1.00  0.00     0.150 C 
ATOM     12  C   UNL     1     483.235  39.537 457.054  1.00  0.00     0.174 C 
ATOM     13  O   UNL     1     484.934  40.172 458.726  1.00  0.00    -0.344 OA
ATOM     14  C   UNL     1     483.277  38.191 457.824  1.00  0.00     0.179 C 
ATOM     15  C   UNL     1     483.209  38.446 459.347  1.00  0.00     0.202 C 
BRANCH  12  16
ATOM     16  O   UNL     1     483.735  39.379 455.755  1.00  0.00    -0.388 OA
ATOM     17  H   UNL     1     483.168  38.706 455.292  1.00  0.00     0.211 HD
ENDBRANCH  12  16
BRANCH  14  18
ATOM     18  O   UNL     1     484.469  37.501 457.520  1.00  0.00    -0.387 OA
ATOM     19  H   UNL     1     484.931  38.018 456.800  1.00  0.00     0.211 HD
ENDBRANCH  14  18
BRANCH  15  20
ATOM     20  O   UNL     1     481.945  38.926 459.747  1.00  0.00    -0.385 OA
ATOM     21  H   UNL     1     481.975  39.906 459.875  1.00  0.00     0.211 HD
ENDBRANCH  15  20
ENDBRANCH   8   9
ENDBRANCH   7   8
ENDBRANCH   1   7
BRANCH   2  22
ATOM     22  O   UNL     1     483.540  39.712 464.910  1.00  0.00    -0.387 OA
ATOM     23  H   UNL     1     483.574  40.147 465.803  1.00  0.00     0.211 HD
ENDBRANCH   2  22
BRANCH   3  24
ATOM     24  O   UNL     1     481.485  41.126 466.125  1.00  0.00    -0.387 OA
ATOM     25  H   UNL     1     480.871  40.597 466.706  1.00  0.00     0.211 HD
ENDBRANCH   3  24
BRANCH   5  26
ATOM     26  O   UNL     1     479.662  39.560 462.540  1.00  0.00    -0.454 OA
BRANCH  26  27
ATOM     27  C   UNL     1     478.256  39.583 462.599  1.00  0.00     0.214 A 
ATOM     28  C   UNL     1     477.462  38.517 462.114  1.00  0.00     0.180 A 
ATOM     29  C   UNL     1     477.613  40.683 463.178  1.00  0.00     0.239 A 
ATOM     30  O   UNL     1     476.148  38.523 462.321  1.00  0.00    -0.452 OA
ATOM     31  C   UNL     1     476.212  40.661 463.366  1.00  0.00     0.111 A 
ATOM     32  O   UNL     1     478.302  41.674 463.543  1.00  0.00    -0.285 OA
ATOM     33  C   UNL     1     475.505  39.517 462.924  1.00  0.00     0.146 A 
ATOM     34  C   UNL     1     475.496  41.709 463.991  1.00  0.00     0.134 A 
ATOM     35  C   UNL     1     474.121  39.418 463.117  1.00  0.00     0.094 A 
ATOM     36  C   UNL     1     474.108  41.593 464.172  1.00  0.00     0.093 A 
ATOM     37  C   UNL     1     473.421  40.454 463.746  1.00  0.00     0.123 A 
BRANCH  28  38
ATOM     38  C   UNL     1     478.036  37.394 461.343  1.00  0.00     0.025 A 
ATOM     39  C   UNL     1     478.816  37.659 460.206  1.00  0.00     0.062 A 
ATOM     40  C   UNL     1     477.872  36.066 461.771  1.00  0.00     0.016 A 
ATOM     41  C   UNL     1     479.392  36.607 459.476  1.00  0.00     0.158 A 
ATOM     42  C   UNL     1     478.469  35.018 461.063  1.00  0.00     0.051 A 
ATOM     43  C   UNL     1     479.226  35.281 459.915  1.00  0.00     0.157 A 
BRANCH  41  44
ATOM     44  O   UNL     1     480.136  36.878 458.324  1.00  0.00    -0.504 OA
ATOM     45  H   UNL     1     480.550  36.134 457.779  1.00  0.00     0.293 HD
ENDBRANCH  41  44
BRANCH  43  46
ATOM     46  O   UNL     1     479.803  34.216 459.224  1.00  0.00    -0.504 OA
ATOM     47  H   UNL     1     479.692  33.260 459.531  1.00  0.00     0.293 HD
ENDBRANCH  43  46
ENDBRANCH  28  38
BRANCH  34  48
ATOM     48  O   UNL     1     476.147  42.860 464.435  1.00  0.00    -0.507 OA
ATOM     49  H   UNL     1     477.141  42.868 464.643  1.00  0.00     0.293 HD
ENDBRANCH  34  48
BRANCH  37  50
ATOM     50  O   UNL     1     472.045  40.359 463.960  1.00  0.00    -0.508 OA
ATOM     51  H   UNL     1     471.402  41.039 463.574  1.00  0.00     0.293 HD
ENDBRANCH  37  50
ENDBRANCH  26  27
ENDBRANCH   5  26
BRANCH   4  52
ATOM     52  O   UNL     1     481.159  38.346 465.662  1.00  0.00    -0.384 OA
ATOM     53  H   UNL     1     480.501  37.631 465.840  1.00  0.00     0.211 HD
ENDBRANCH   4  52
TORSDOF 16
ENDMDL
MODEL 6
REMARK VINA RESULT:    -5.835      2.830      4.310
REMARK INTER + INTRA:         -12.215
REMARK INTER:                 -10.448
REMARK INTRA:                  -1.768
REMARK UNBOUND:                -2.627
REMARK SMILES C[C@@H]1O[C@@H](OC[C@H]2O[C@H](Oc3c(-c4ccc(O)c(O)c4)oc4cc(O)cc(O)c4c3=O)[C@@H](O)[C@@H](O)[C@H]2O)[C@@H](O)[C@H](O)[C@@H]1O
REMARK SMILES IDX 7 1 36 2 34 3 32 4 9 5 8 6 6 7 5 8 4 9 1 10 2 11 42 12 3 13
REMARK SMILES IDX 40 14 38 15 43 16 41 18 39 20 37 22 35 24 10 26 11 27 12 28
REMARK SMILES IDX 30 29 21 30 29 31 31 32 22 33 27 34 23 35 26 36 24 37 13 38
REMARK SMILES IDX 20 39 14 40 18 41 15 42 16 43 19 44 17 46 28 48 25 50 33 52
REMARK H PARENT 43 17 41 19 39 21 37 23 35 25 19 45 17 47 28 49 25 51 33 53
REMARK Flexibility Score: inf
ROOT
ATOM      1  C   UNL     1     484.552  39.083 460.299  1.00  0.00     0.180 C 
ATOM      2  C   UNL     1     485.156  38.608 458.951  1.00  0.00     0.177 C 
ATOM      3  C   UNL     1     484.036  38.294 457.943  1.00  0.00     0.180 C 
ATOM      4  C   UNL     1     483.041  39.473 457.849  1.00  0.00     0.214 C 
ATOM      5  C   UNL     1     482.567  39.851 459.271  1.00  0.00     0.339 C 
ATOM      6  O   UNL     1     483.671  40.185 460.110  1.00  0.00    -0.332 OA
ENDROOT
BRANCH   1   7
ATOM      7  C   UNL     1     485.697  39.495 461.262  1.00  0.00     0.198 C 
BRANCH   7   8
ATOM      8  O   UNL     1     485.956  40.890 461.253  1.00  0.00    -0.347 OA
BRANCH   8   9
ATOM      9  C   UNL     1     486.961  41.243 462.201  1.00  0.00     0.281 C 
ATOM     10  C   UNL     1     485.010  41.446 465.324  1.00  0.00     0.041 C 
ATOM     11  C   UNL     1     485.733  41.977 464.083  1.00  0.00     0.150 C 
ATOM     12  C   UNL     1     486.641  43.221 464.389  1.00  0.00     0.174 C 
ATOM     13  O   UNL     1     486.492  40.921 463.510  1.00  0.00    -0.344 OA
ATOM     14  C   UNL     1     487.864  43.287 463.437  1.00  0.00     0.179 C 
ATOM     15  C   UNL     1     487.491  42.713 462.050  1.00  0.00     0.202 C 
BRANCH  12  16
ATOM     16  O   UNL     1     487.051  43.302 465.726  1.00  0.00    -0.388 OA
ATOM     17  H   UNL     1     487.939  43.749 465.743  1.00  0.00     0.211 HD
ENDBRANCH  12  16
BRANCH  14  18
ATOM     18  O   UNL     1     488.933  42.542 463.977  1.00  0.00    -0.387 OA
ATOM     19  H   UNL     1     489.556  43.194 464.406  1.00  0.00     0.211 HD
ENDBRANCH  14  18
BRANCH  15  20
ATOM     20  O   UNL     1     486.588  43.547 461.359  1.00  0.00    -0.385 OA
ATOM     21  H   UNL     1     485.753  43.056 461.159  1.00  0.00     0.211 HD
ENDBRANCH  15  20
ENDBRANCH   8   9
ENDBRANCH   7   8
ENDBRANCH   1   7
BRANCH   2  22
ATOM     22  O   UNL     1     486.012  39.596 458.424  1.00  0.00    -0.387 OA
ATOM     23  H   UNL     1     486.172  40.262 459.145  1.00  0.00     0.211 HD
ENDBRANCH   2  22
BRANCH   3  24
ATOM     24  O   UNL     1     484.567  37.999 456.675  1.00  0.00    -0.387 OA
ATOM     25  H   UNL     1     483.790  37.857 456.068  1.00  0.00     0.211 HD
ENDBRANCH   3  24
BRANCH   5  26
ATOM     26  O   UNL     1     481.771  38.810 459.860  1.00  0.00    -0.454 OA
BRANCH  26  27
ATOM     27  C   UNL     1     480.394  38.947 460.120  1.00  0.00     0.214 A 
ATOM     28  C   UNL     1     479.410  38.677 459.139  1.00  0.00     0.180 A 
ATOM     29  C   UNL     1     479.974  39.341 461.395  1.00  0.00     0.239 A 
ATOM     30  O   UNL     1     478.122  38.685 459.473  1.00  0.00    -0.452 OA
ATOM     31  C   UNL     1     478.595  39.354 461.708  1.00  0.00     0.111 A 
ATOM     32  O   UNL     1     480.839  39.661 462.254  1.00  0.00    -0.285 OA
ATOM     33  C   UNL     1     477.683  38.990 460.689  1.00  0.00     0.146 A 
ATOM     34  C   UNL     1     478.093  39.688 462.989  1.00  0.00     0.134 A 
ATOM     35  C   UNL     1     476.307  38.945 460.949  1.00  0.00     0.094 A 
ATOM     36  C   UNL     1     476.711  39.641 463.229  1.00  0.00     0.093 A 
ATOM     37  C   UNL     1     475.820  39.266 462.221  1.00  0.00     0.123 A 
BRANCH  28  38
ATOM     38  C   UNL     1     479.756  38.416 457.726  1.00  0.00     0.025 A 
ATOM     39  C   UNL     1     479.456  39.378 456.748  1.00  0.00     0.062 A 
ATOM     40  C   UNL     1     480.446  37.250 457.355  1.00  0.00     0.016 A 
ATOM     41  C   UNL     1     479.801  39.160 455.404  1.00  0.00     0.158 A 
ATOM     42  C   UNL     1     480.817  37.044 456.022  1.00  0.00     0.051 A 
ATOM     43  C   UNL     1     480.496  37.992 455.043  1.00  0.00     0.157 A 
BRANCH  41  44
ATOM     44  O   UNL     1     479.464  40.106 454.431  1.00  0.00    -0.504 OA
ATOM     45  H   UNL     1     479.940  40.997 454.379  1.00  0.00     0.293 HD
ENDBRANCH  41  44
BRANCH  43  46
ATOM     46  O   UNL     1     480.871  37.756 453.721  1.00  0.00    -0.504 OA
ATOM     47  H   UNL     1     481.367  36.919 453.450  1.00  0.00     0.293 HD
ENDBRANCH  43  46
ENDBRANCH  28  38
BRANCH  34  48
ATOM     48  O   UNL     1     478.953  40.063 464.022  1.00  0.00    -0.507 OA
ATOM     49  H   UNL     1     478.994  41.018 464.365  1.00  0.00     0.293 HD
ENDBRANCH  34  48
BRANCH  37  50
ATOM     50  O   UNL     1     474.452  39.208 462.497  1.00  0.00    -0.508 OA
ATOM     51  H   UNL     1     473.774  39.012 461.772  1.00  0.00     0.293 HD
ENDBRANCH  37  50
ENDBRANCH  26  27
ENDBRANCH   5  26
BRANCH   4  52
ATOM     52  O   UNL     1     483.624  40.610 457.256  1.00  0.00    -0.384 OA
ATOM     53  H   UNL     1     483.888  41.226 457.982  1.00  0.00     0.211 HD
ENDBRANCH   4  52
TORSDOF 16
ENDMDL
MODEL 7
REMARK VINA RESULT:    -5.770      2.979      5.445
REMARK INTER + INTRA:         -12.108
REMARK INTER:                 -10.086
REMARK INTRA:                  -2.022
REMARK UNBOUND:                -2.627
REMARK SMILES C[C@@H]1O[C@@H](OC[C@H]2O[C@H](Oc3c(-c4ccc(O)c(O)c4)oc4cc(O)cc(O)c4c3=O)[C@@H](O)[C@@H](O)[C@H]2O)[C@@H](O)[C@H](O)[C@@H]1O
REMARK SMILES IDX 7 1 36 2 34 3 32 4 9 5 8 6 6 7 5 8 4 9 1 10 2 11 42 12 3 13
REMARK SMILES IDX 40 14 38 15 43 16 41 18 39 20 37 22 35 24 10 26 11 27 12 28
REMARK SMILES IDX 30 29 21 30 29 31 31 32 22 33 27 34 23 35 26 36 24 37 13 38
REMARK SMILES IDX 20 39 14 40 18 41 15 42 16 43 19 44 17 46 28 48 25 50 33 52
REMARK H PARENT 43 17 41 19 39 21 37 23 35 25 19 45 17 47 28 49 25 51 33 53
REMARK Flexibility Score: inf
ROOT
ATOM      1  C   UNL     1     481.814  40.284 463.113  1.00  0.00     0.180 C 
ATOM      2  C   UNL     1     481.622  41.127 464.402  1.00  0.00     0.177 C 
ATOM      3  C   UNL     1     480.123  41.335 464.687  1.00  0.00     0.180 C 
ATOM      4  C   UNL     1     479.370  39.986 464.654  1.00  0.00     0.214 C 
ATOM      5  C   UNL     1     479.698  39.254 463.333  1.00  0.00     0.339 C 
ATOM      6  O   UNL     1     481.103  39.053 463.190  1.00  0.00    -0.332 OA
ENDROOT
BRANCH   1   7
ATOM      7  C   UNL     1     483.325  39.997 462.904  1.00  0.00     0.198 C 
BRANCH   7   8
ATOM      8  O   UNL     1     483.579  39.121 461.819  1.00  0.00    -0.347 OA
BRANCH   8   9
ATOM      9  C   UNL     1     484.032  39.830 460.667  1.00  0.00     0.281 C 
ATOM     10  C   UNL     1     481.727  38.593 458.068  1.00  0.00     0.041 C 
ATOM     11  C   UNL     1     483.035  38.677 458.861  1.00  0.00     0.150 C 
ATOM     12  C   UNL     1     484.308  38.688 457.944  1.00  0.00     0.174 C 
ATOM     13  O   UNL     1     482.994  39.831 459.689  1.00  0.00    -0.344 OA
ATOM     14  C   UNL     1     485.473  39.484 458.588  1.00  0.00     0.179 C 
ATOM     15  C   UNL     1     485.425  39.346 460.127  1.00  0.00     0.202 C 
BRANCH  12  16
ATOM     16  O   UNL     1     484.059  39.144 456.642  1.00  0.00    -0.388 OA
ATOM     17  H   UNL     1     484.441  38.478 456.010  1.00  0.00     0.211 HD
ENDBRANCH  12  16
BRANCH  14  18
ATOM     18  O   UNL     1     485.375  40.846 458.239  1.00  0.00    -0.387 OA
ATOM     19  H   UNL     1     484.617  41.229 458.766  1.00  0.00     0.211 HD
ENDBRANCH  14  18
BRANCH  15  20
ATOM     20  O   UNL     1     485.747  38.040 460.551  1.00  0.00    -0.385 OA
ATOM     21  H   UNL     1     485.212  37.796 461.347  1.00  0.00     0.211 HD
ENDBRANCH  15  20
ENDBRANCH   8   9
ENDBRANCH   7   8
ENDBRANCH   1   7
BRANCH   2  22
ATOM     22  O   UNL     1     482.235  40.489 465.499  1.00  0.00    -0.387 OA
ATOM     23  H   UNL     1     482.745  39.714 465.141  1.00  0.00     0.211 HD
ENDBRANCH   2  22
BRANCH   3  24
ATOM     24  O   UNL     1     479.930  41.974 465.924  1.00  0.00    -0.387 OA
ATOM     25  H   UNL     1     480.765  41.832 466.450  1.00  0.00     0.211 HD
ENDBRANCH   3  24
BRANCH   5  26
ATOM     26  O   UNL     1     479.161  39.946 462.194  1.00  0.00    -0.454 OA
BRANCH  26  27
ATOM     27  C   UNL     1     477.790  39.946 461.870  1.00  0.00     0.214 A 
ATOM     28  C   UNL     1     477.116  38.779 461.439  1.00  0.00     0.180 A 
ATOM     29  C   UNL     1     477.057  41.130 462.000  1.00  0.00     0.239 A 
ATOM     30  O   UNL     1     475.795  38.797 461.282  1.00  0.00    -0.452 OA
ATOM     31  C   UNL     1     475.656  41.114 461.808  1.00  0.00     0.111 A 
ATOM     32  O   UNL     1     477.659  42.194 462.306  1.00  0.00    -0.285 OA
ATOM     33  C   UNL     1     475.051  39.884 461.457  1.00  0.00     0.146 A 
ATOM     34  C   UNL     1     474.837  42.257 461.972  1.00  0.00     0.134 A 
ATOM     35  C   UNL     1     473.663  39.795 461.292  1.00  0.00     0.094 A 
ATOM     36  C   UNL     1     473.448  42.149 461.798  1.00  0.00     0.093 A 
ATOM     37  C   UNL     1     472.859  40.926 461.467  1.00  0.00     0.123 A 
BRANCH  28  38
ATOM     38  C   UNL     1     477.834  37.527 461.116  1.00  0.00     0.025 A 
ATOM     39  C   UNL     1     477.514  36.345 461.804  1.00  0.00     0.062 A 
ATOM     40  C   UNL     1     478.783  37.485 460.081  1.00  0.00     0.016 A 
ATOM     41  C   UNL     1     478.166  35.141 461.493  1.00  0.00     0.158 A 
ATOM     42  C   UNL     1     479.412  36.282 459.749  1.00  0.00     0.051 A 
ATOM     43  C   UNL     1     479.111  35.108 460.451  1.00  0.00     0.157 A 
BRANCH  41  44
ATOM     44  O   UNL     1     477.868  33.978 462.208  1.00  0.00    -0.504 OA
ATOM     45  H   UNL     1     477.978  33.063 461.793  1.00  0.00     0.293 HD
ENDBRANCH  41  44
BRANCH  43  46
ATOM     46  O   UNL     1     479.760  33.924 460.105  1.00  0.00    -0.504 OA
ATOM     47  H   UNL     1     480.548  33.915 459.473  1.00  0.00     0.293 HD
ENDBRANCH  43  46
ENDBRANCH  28  38
BRANCH  34  48
ATOM     48  O   UNL     1     475.388  43.494 462.308  1.00  0.00    -0.507 OA
ATOM     49  H   UNL     1     475.652  44.173 461.600  1.00  0.00     0.293 HD
ENDBRANCH  34  48
BRANCH  37  50
ATOM     50  O   UNL     1     471.473  40.847 461.323  1.00  0.00    -0.508 OA
ATOM     51  H   UNL     1     471.045  40.655 460.426  1.00  0.00     0.293 HD
ENDBRANCH  37  50
ENDBRANCH  26  27
ENDBRANCH   5  26
BRANCH   4  52
ATOM     52  O   UNL     1     479.734  39.151 465.729  1.00  0.00    -0.384 OA
ATOM     53  H   UNL     1     479.682  38.216 465.415  1.00  0.00     0.211 HD
ENDBRANCH   4  52
TORSDOF 16
ENDMDL
MODEL 8
REMARK VINA RESULT:    -5.746      2.846      5.263
REMARK INTER + INTRA:         -12.069
REMARK INTER:                  -9.473
REMARK INTRA:                  -2.596
REMARK UNBOUND:                -2.627
REMARK SMILES C[C@@H]1O[C@@H](OC[C@H]2O[C@H](Oc3c(-c4ccc(O)c(O)c4)oc4cc(O)cc(O)c4c3=O)[C@@H](O)[C@@H](O)[C@H]2O)[C@@H](O)[C@H](O)[C@@H]1O
REMARK SMILES IDX 7 1 36 2 34 3 32 4 9 5 8 6 6 7 5 8 4 9 1 10 2 11 42 12 3 13
REMARK SMILES IDX 40 14 38 15 43 16 41 18 39 20 37 22 35 24 10 26 11 27 12 28
REMARK SMILES IDX 30 29 21 30 29 31 31 32 22 33 27 34 23 35 26 36 24 37 13 38
REMARK SMILES IDX 20 39 14 40 18 41 15 42 16 43 19 44 17 46 28 48 25 50 33 52
REMARK H PARENT 43 17 41 19 39 21 37 23 35 25 19 45 17 47 28 49 25 51 33 53
REMARK Flexibility Score: inf
ROOT
ATOM      1  C   UNL     1     480.388  39.782 461.309  1.00  0.00     0.180 C 
ATOM      2  C   UNL     1     479.074  39.428 462.056  1.00  0.00     0.177 C 
ATOM      3  C   UNL     1     477.998  38.965 461.057  1.00  0.00     0.180 C 
ATOM      4  C   UNL     1     478.555  37.861 460.130  1.00  0.00     0.214 C 
ATOM      5  C   UNL     1     479.879  38.350 459.499  1.00  0.00     0.339 C 
ATOM      6  O   UNL     1     480.831  38.696 460.503  1.00  0.00    -0.332 OA
ENDROOT
BRANCH   1   7
ATOM      7  C   UNL     1     481.488  40.142 462.343  1.00  0.00     0.198 C 
BRANCH   7   8
ATOM      8  O   UNL     1     482.757  39.600 462.015  1.00  0.00    -0.347 OA
BRANCH   8   9
ATOM      9  C   UNL     1     483.818  40.410 462.515  1.00  0.00     0.281 C 
ATOM     10  C   UNL     1     483.755  43.261 460.177  1.00  0.00     0.041 C 
ATOM     11  C   UNL     1     484.247  41.933 460.759  1.00  0.00     0.150 C 
ATOM     12  C   UNL     1     485.811  41.849 460.855  1.00  0.00     0.174 C 
ATOM     13  O   UNL     1     483.648  41.742 462.034  1.00  0.00    -0.344 OA
ATOM     14  C   UNL     1     486.267  40.954 462.038  1.00  0.00     0.179 C 
ATOM     15  C   UNL     1     485.249  39.813 462.265  1.00  0.00     0.202 C 
BRANCH  12  16
ATOM     16  O   UNL     1     486.439  43.101 460.914  1.00  0.00    -0.388 OA
ATOM     17  H   UNL     1     487.371  42.957 461.231  1.00  0.00     0.211 HD
ENDBRANCH  12  16
BRANCH  14  18
ATOM     18  O   UNL     1     486.370  41.727 463.213  1.00  0.00    -0.387 OA
ATOM     19  H   UNL     1     487.279  41.560 463.594  1.00  0.00     0.211 HD
ENDBRANCH  14  18
BRANCH  15  20
ATOM     20  O   UNL     1     485.267  38.871 461.215  1.00  0.00    -0.385 OA
ATOM     21  H   UNL     1     485.913  39.148 460.518  1.00  0.00     0.211 HD
ENDBRANCH  15  20
ENDBRANCH   8   9
ENDBRANCH   7   8
ENDBRANCH   1   7
BRANCH   2  22
ATOM     22  O   UNL     1     479.311  38.417 463.009  1.00  0.00    -0.387 OA
ATOM     23  H   UNL     1     478.594  37.736 462.900  1.00  0.00     0.211 HD
ENDBRANCH   2  22
BRANCH   3  24
ATOM     24  O   UNL     1     476.851  38.507 461.729  1.00  0.00    -0.387 OA
ATOM     25  H   UNL     1     476.870  38.920 462.636  1.00  0.00     0.211 HD
ENDBRANCH   3  24
BRANCH   5  26
ATOM     26  O   UNL     1     479.665  39.447 458.595  1.00  0.00    -0.454 OA
BRANCH  26  27
ATOM     27  C   UNL     1     479.578  39.288 457.199  1.00  0.00     0.214 A 
ATOM     28  C   UNL     1     480.720  39.081 456.390  1.00  0.00     0.180 A 
ATOM     29  C   UNL     1     478.321  39.309 456.585  1.00  0.00     0.239 A 
ATOM     30  O   UNL     1     480.574  38.795 455.099  1.00  0.00    -0.452 OA
ATOM     31  C   UNL     1     478.207  39.017 455.206  1.00  0.00     0.111 A 
ATOM     32  O   UNL     1     477.302  39.570 457.280  1.00  0.00    -0.285 OA
ATOM     33  C   UNL     1     479.395  38.742 454.489  1.00  0.00     0.146 A 
ATOM     34  C   UNL     1     476.968  38.966 454.524  1.00  0.00     0.134 A 
ATOM     35  C   UNL     1     479.344  38.407 453.130  1.00  0.00     0.094 A 
ATOM     36  C   UNL     1     476.938  38.633 453.160  1.00  0.00     0.093 A 
ATOM     37  C   UNL     1     478.115  38.348 452.464  1.00  0.00     0.123 A 
BRANCH  28  38
ATOM     38  C   UNL     1     482.095  39.206 456.920  1.00  0.00     0.025 A 
ATOM     39  C   UNL     1     482.780  38.058 457.350  1.00  0.00     0.062 A 
ATOM     40  C   UNL     1     482.753  40.447 456.934  1.00  0.00     0.016 A 
ATOM     41  C   UNL     1     484.096  38.154 457.831  1.00  0.00     0.158 A 
ATOM     42  C   UNL     1     484.074  40.540 457.385  1.00  0.00     0.051 A 
ATOM     43  C   UNL     1     484.749  39.400 457.837  1.00  0.00     0.157 A 
BRANCH  41  44
ATOM     44  O   UNL     1     484.758  37.012 458.292  1.00  0.00    -0.504 OA
ATOM     45  H   UNL     1     485.010  36.907 459.266  1.00  0.00     0.293 HD
ENDBRANCH  41  44
BRANCH  43  46
ATOM     46  O   UNL     1     486.062  39.523 458.289  1.00  0.00    -0.504 OA
ATOM     47  H   UNL     1     486.851  39.301 457.698  1.00  0.00     0.293 HD
ENDBRANCH  43  46
ENDBRANCH  28  38
BRANCH  34  48
ATOM     48  O   UNL     1     475.770  39.239 455.186  1.00  0.00    -0.507 OA
ATOM     49  H   UNL     1     474.932  38.690 455.025  1.00  0.00     0.293 HD
ENDBRANCH  34  48
BRANCH  37  50
ATOM     50  O   UNL     1     478.049  37.999 451.114  1.00  0.00    -0.508 OA
ATOM     51  H   UNL     1     478.799  37.491 450.662  1.00  0.00     0.293 HD
ENDBRANCH  37  50
ENDBRANCH  26  27
ENDBRANCH   5  26
BRANCH   4  52
ATOM     52  O   UNL     1     478.808  36.663 460.826  1.00  0.00    -0.384 OA
ATOM     53  H   UNL     1     479.056  35.975 460.161  1.00  0.00     0.211 HD
ENDBRANCH   4  52
TORSDOF 16
ENDMDL
MODEL 9
REMARK VINA RESULT:    -5.617      2.688      7.609
REMARK INTER + INTRA:         -11.857
REMARK INTER:                  -8.676
REMARK INTRA:                  -3.180
REMARK UNBOUND:                -2.627
REMARK SMILES C[C@@H]1O[C@@H](OC[C@H]2O[C@H](Oc3c(-c4ccc(O)c(O)c4)oc4cc(O)cc(O)c4c3=O)[C@@H](O)[C@@H](O)[C@H]2O)[C@@H](O)[C@H](O)[C@@H]1O
REMARK SMILES IDX 7 1 36 2 34 3 32 4 9 5 8 6 6 7 5 8 4 9 1 10 2 11 42 12 3 13
REMARK SMILES IDX 40 14 38 15 43 16 41 18 39 20 37 22 35 24 10 26 11 27 12 28
REMARK SMILES IDX 30 29 21 30 29 31 31 32 22 33 27 34 23 35 26 36 24 37 13 38
REMARK SMILES IDX 20 39 14 40 18 41 15 42 16 43 19 44 17 46 28 48 25 50 33 52
REMARK H PARENT 43 17 41 19 39 21 37 23 35 25 19 45 17 47 28 49 25 51 33 53
REMARK Flexibility Score: inf
ROOT
ATOM      1  C   UNL     1     480.612  38.079 459.673  1.00  0.00     0.180 C 
ATOM      2  C   UNL     1     479.345  37.877 460.547  1.00  0.00     0.177 C 
ATOM      3  C   UNL     1     479.591  38.400 461.974  1.00  0.00     0.180 C 
ATOM      4  C   UNL     1     480.153  39.839 461.938  1.00  0.00     0.214 C 
ATOM      5  C   UNL     1     481.379  39.880 460.997  1.00  0.00     0.339 C 
ATOM      6  O   UNL     1     481.037  39.438 459.685  1.00  0.00    -0.332 OA
ENDROOT
BRANCH   1   7
ATOM      7  C   UNL     1     480.308  37.644 458.215  1.00  0.00     0.198 C 
BRANCH   7   8
ATOM      8  O   UNL     1     479.603  38.629 457.477  1.00  0.00    -0.347 OA
BRANCH   8   9
ATOM      9  C   UNL     1     480.412  39.192 456.447  1.00  0.00     0.281 C 
ATOM     10  C   UNL     1     479.467  42.752 456.610  1.00  0.00     0.041 C 
ATOM     11  C   UNL     1     479.454  41.319 456.070  1.00  0.00     0.150 C 
ATOM     12  C   UNL     1     479.533  41.254 454.504  1.00  0.00     0.174 C 
ATOM     13  O   UNL     1     480.523  40.597 456.665  1.00  0.00    -0.344 OA
ATOM     14  C   UNL     1     480.245  39.964 454.019  1.00  0.00     0.179 C 
ATOM     15  C   UNL     1     479.961  38.799 454.995  1.00  0.00     0.202 C 
BRANCH  12  16
ATOM     16  O   UNL     1     480.116  42.388 453.923  1.00  0.00    -0.388 OA
ATOM     17  H   UNL     1     480.540  42.106 453.069  1.00  0.00     0.211 HD
ENDBRANCH  12  16
BRANCH  14  18
ATOM     18  O   UNL     1     481.636  40.182 453.947  1.00  0.00    -0.387 OA
ATOM     19  H   UNL     1     481.857  40.886 454.620  1.00  0.00     0.211 HD
ENDBRANCH  14  18
BRANCH  15  20
ATOM     20  O   UNL     1     478.615  38.380 454.940  1.00  0.00    -0.385 OA
ATOM     21  H   UNL     1     478.463  37.818 454.141  1.00  0.00     0.211 HD
ENDBRANCH  15  20
ENDBRANCH   8   9
ENDBRANCH   7   8
ENDBRANCH   1   7
BRANCH   2  22
ATOM     22  O   UNL     1     478.245  38.546 459.973  1.00  0.00    -0.387 OA
ATOM     23  H   UNL     1     478.109  38.163 459.066  1.00  0.00     0.211 HD
ENDBRANCH   2  22
BRANCH   3  24
ATOM     24  O   UNL     1     478.410  38.354 462.736  1.00  0.00    -0.387 OA
ATOM     25  H   UNL     1     477.653  38.436 462.093  1.00  0.00     0.211 HD
ENDBRANCH   3  24
BRANCH   5  26
ATOM     26  O   UNL     1     482.480  39.122 461.524  1.00  0.00    -0.454 OA
BRANCH  26  27
ATOM     27  C   UNL     1     483.758  39.670 461.741  1.00  0.00     0.214 A 
ATOM     28  C   UNL     1     484.635  39.987 460.676  1.00  0.00     0.180 A 
ATOM     29  C   UNL     1     484.175  39.937 463.049  1.00  0.00     0.239 A 
ATOM     30  O   UNL     1     485.772  40.633 460.923  1.00  0.00    -0.452 OA
ATOM     31  C   UNL     1     485.398  40.610 463.274  1.00  0.00     0.111 A 
ATOM     32  O   UNL     1     483.439  39.589 464.011  1.00  0.00    -0.285 OA
ATOM     33  C   UNL     1     486.176  40.962 462.145  1.00  0.00     0.146 A 
ATOM     34  C   UNL     1     485.864  40.963 464.563  1.00  0.00     0.134 A 
ATOM     35  C   UNL     1     487.377  41.665 462.300  1.00  0.00     0.094 A 
ATOM     36  C   UNL     1     487.074  41.664 464.698  1.00  0.00     0.093 A 
ATOM     37  C   UNL     1     487.826  42.021 463.577  1.00  0.00     0.123 A 
BRANCH  28  38
ATOM     38  C   UNL     1     484.353  39.592 459.279  1.00  0.00     0.025 A 
ATOM     39  C   UNL     1     484.065  40.580 458.323  1.00  0.00     0.062 A 
ATOM     40  C   UNL     1     484.439  38.249 458.876  1.00  0.00     0.016 A 
ATOM     41  C   UNL     1     483.821  40.227 456.986  1.00  0.00     0.158 A 
ATOM     42  C   UNL     1     484.226  37.899 457.540  1.00  0.00     0.051 A 
ATOM     43  C   UNL     1     483.914  38.881 456.591  1.00  0.00     0.157 A 
BRANCH  41  44
ATOM     44  O   UNL     1     483.499  41.214 456.049  1.00  0.00    -0.504 OA
ATOM     45  H   UNL     1     482.596  41.668 456.054  1.00  0.00     0.293 HD
ENDBRANCH  41  44
BRANCH  43  46
ATOM     46  O   UNL     1     483.698  38.501 455.267  1.00  0.00    -0.504 OA
ATOM     47  H   UNL     1     484.366  37.939 454.760  1.00  0.00     0.293 HD
ENDBRANCH  43  46
ENDBRANCH  28  38
BRANCH  34  48
ATOM     48  O   UNL     1     485.139  40.629 465.707  1.00  0.00    -0.507 OA
ATOM     49  H   UNL     1     485.097  41.243 466.514  1.00  0.00     0.293 HD
ENDBRANCH  34  48
BRANCH  37  50
ATOM     50  O   UNL     1     489.013  42.736 463.743  1.00  0.00    -0.508 OA
ATOM     51  H   UNL     1     489.795  42.616 463.112  1.00  0.00     0.293 HD
ENDBRANCH  37  50
ENDBRANCH  26  27
ENDBRANCH   5  26
BRANCH   4  52
ATOM     52  O   UNL     1     479.201  40.767 461.472  1.00  0.00    -0.384 OA
ATOM     53  H   UNL     1     478.660  41.057 462.247  1.00  0.00     0.211 HD
ENDBRANCH   4  52
TORSDOF 16
ENDMDL
