MODEL 1
REMARK VINA RESULT:    -4.425      0.000      0.000
REMARK INTER + INTRA:          -8.335
REMARK INTER:                  -7.011
REMARK INTRA:                  -1.323
REMARK UNBOUND:                -1.323
REMARK SMILES CCCCCCCCCCCC(=O)[O-]
REMARK SMILES IDX 7 1 8 2 9 3 10 4 11 5 12 6 13 7 14 8 6 9 5 10 4 11 3 12 2 13
REMARK SMILES IDX 1 14
REMARK H PARENT
REMARK Flexibility Score: inf
ROOT
ATOM      1  C   UNL     1      15.951 -14.281  39.186  1.00  0.00     0.000 C 
ENDROOT
BRANCH   1   2
ATOM      2  C   UNL     1      15.272 -13.008  38.658  1.00  0.00     0.000 C 
BRANCH   2   3
ATOM      3  C   UNL     1      14.812 -13.194  37.207  1.00  0.00     0.000 C 
BRANCH   3   4
ATOM      4  C   UNL     1      15.871 -12.675  36.223  1.00  0.00     0.006 C 
BRANCH   4   5
ATOM      5  C   UNL     1      16.532 -13.811  35.430  1.00  0.00     0.053 C 
BRANCH   5   6
ATOM      6  C   UNL     1      18.025 -13.771  35.544  1.00  0.00     0.041 C 
ATOM      7  O   UNL     1      18.727 -13.402  34.566  1.00  0.00    -0.550 OA
ATOM      8  O   UNL     1      18.643 -14.173  36.721  1.00  0.00    -0.550 OA
ENDBRANCH   5   6
ENDBRANCH   4   5
ENDBRANCH   3   4
ENDBRANCH   2   3
ENDBRANCH   1   2
BRANCH   1   9
ATOM      9  C   UNL     1      15.108 -15.006  40.248  1.00  0.00     0.000 C 
BRANCH   9  10
ATOM     10  C   UNL     1      14.736 -16.441  39.833  1.00  0.00    -0.000 C 
BRANCH  10  11
ATOM     11  C   UNL     1      13.926 -16.477  38.520  1.00  0.00    -0.000 C 
BRANCH  11  12
ATOM     12  C   UNL     1      14.443 -17.511  37.501  1.00  0.00    -0.000 C 
BRANCH  12  13
ATOM     13  C   UNL     1      15.507 -16.975  36.529  1.00  0.00    -0.003 C 
ATOM     14  C   UNL     1      16.935 -17.239  37.007  1.00  0.00     0.004 C 
ENDBRANCH  12  13
ENDBRANCH  11  12
ENDBRANCH  10  11
ENDBRANCH   9  10
ENDBRANCH   1   9
TORSDOF 10
ENDMDL
MODEL 2
REMARK VINA RESULT:    -4.396      1.405      3.334
REMARK INTER + INTRA:          -8.289
REMARK INTER:                  -6.897
REMARK INTRA:                  -1.392
REMARK UNBOUND:                -1.323
REMARK SMILES CCCCCCCCCCCC(=O)[O-]
REMARK SMILES IDX 7 1 8 2 9 3 10 4 11 5 12 6 13 7 14 8 6 9 5 10 4 11 3 12 2 13
REMARK SMILES IDX 1 14
REMARK H PARENT
REMARK Flexibility Score: inf
ROOT
ATOM      1  C   UNL     1      15.934 -17.583  38.266  1.00  0.00     0.000 C 
ENDROOT
BRANCH   1   2
ATOM      2  C   UNL     1      15.194 -17.010  37.048  1.00  0.00     0.000 C 
BRANCH   2   3
ATOM      3  C   UNL     1      16.126 -16.137  36.200  1.00  0.00     0.000 C 
BRANCH   3   4
ATOM      4  C   UNL     1      17.444 -15.861  36.938  1.00  0.00     0.006 C 
BRANCH   4   5
ATOM      5  C   UNL     1      17.685 -14.360  37.154  1.00  0.00     0.053 C 
BRANCH   5   6
ATOM      6  C   UNL     1      17.395 -13.568  35.916  1.00  0.00     0.041 C 
ATOM      7  O   UNL     1      16.464 -12.721  35.908  1.00  0.00    -0.550 OA
ATOM      8  O   UNL     1      18.131 -13.791  34.759  1.00  0.00    -0.550 OA
ENDBRANCH   5   6
ENDBRANCH   4   5
ENDBRANCH   3   4
ENDBRANCH   2   3
ENDBRANCH   1   2
BRANCH   1   9
ATOM      9  C   UNL     1      15.124 -17.455  39.566  1.00  0.00     0.000 C 
BRANCH   9  10
ATOM     10  C   UNL     1      14.288 -16.164  39.621  1.00  0.00    -0.000 C 
BRANCH  10  11
ATOM     11  C   UNL     1      15.122 -14.949  40.079  1.00  0.00    -0.000 C 
BRANCH  11  12
ATOM     12  C   UNL     1      15.032 -13.742  39.124  1.00  0.00    -0.000 C 
BRANCH  12  13
ATOM     13  C   UNL     1      13.891 -13.822  38.097  1.00  0.00    -0.003 C 
ATOM     14  C   UNL     1      12.861 -12.705  38.267  1.00  0.00     0.004 C 
ENDBRANCH  12  13
ENDBRANCH  11  12
ENDBRANCH  10  11
ENDBRANCH   9  10
ENDBRANCH   1   9
TORSDOF 10
ENDMDL
MODEL 3
REMARK VINA RESULT:    -4.292      2.281      4.682
REMARK INTER + INTRA:          -8.125
REMARK INTER:                  -7.222
REMARK INTRA:                  -0.903
REMARK UNBOUND:                -1.323
REMARK SMILES CCCCCCCCCCCC(=O)[O-]
REMARK SMILES IDX 7 1 8 2 9 3 10 4 11 5 12 6 13 7 14 8 6 9 5 10 4 11 3 12 2 13
REMARK SMILES IDX 1 14
REMARK H PARENT
REMARK Flexibility Score: inf
ROOT
ATOM      1  C   UNL     1      15.458 -13.287  38.583  1.00  0.00     0.000 C 
ENDROOT
BRANCH   1   2
ATOM      2  C   UNL     1      16.060 -14.082  39.752  1.00  0.00     0.000 C 
BRANCH   2   3
ATOM      3  C   UNL     1      15.026 -15.041  40.353  1.00  0.00     0.000 C 
BRANCH   3   4
ATOM      4  C   UNL     1      13.845 -15.250  39.393  1.00  0.00     0.006 C 
BRANCH   4   5
ATOM      5  C   UNL     1      13.730 -16.707  38.925  1.00  0.00     0.053 C 
BRANCH   5   6
ATOM      6  C   UNL     1      14.754 -17.037  37.881  1.00  0.00     0.041 C 
ATOM      7  O   UNL     1      14.540 -16.760  36.672  1.00  0.00    -0.550 OA
ATOM      8  O   UNL     1      15.930 -17.683  38.241  1.00  0.00    -0.550 OA
ENDBRANCH   5   6
ENDBRANCH   4   5
ENDBRANCH   3   4
ENDBRANCH   2   3
ENDBRANCH   1   2
BRANCH   1   9
ATOM      9  C   UNL     1      16.148 -13.588  37.243  1.00  0.00     0.000 C 
BRANCH   9  10
ATOM     10  C   UNL     1      17.377 -14.503  37.400  1.00  0.00    -0.000 C 
BRANCH  10  11
ATOM     11  C   UNL     1      18.515 -14.120  36.431  1.00  0.00    -0.000 C 
BRANCH  11  12
ATOM     12  C   UNL     1      18.020 -13.659  35.046  1.00  0.00    -0.000 C 
BRANCH  12  13
ATOM     13  C   UNL     1      19.137 -13.386  34.025  1.00  0.00    -0.003 C 
ATOM     14  C   UNL     1      18.948 -14.157  32.719  1.00  0.00     0.004 C 
ENDBRANCH  12  13
ENDBRANCH  11  12
ENDBRANCH  10  11
ENDBRANCH   9  10
ENDBRANCH   1   9
TORSDOF 10
ENDMDL
MODEL 4
REMARK VINA RESULT:    -4.283      9.559     12.020
REMARK INTER + INTRA:          -8.111
REMARK INTER:                  -7.112
REMARK INTRA:                  -0.998
REMARK UNBOUND:                -1.323
REMARK SMILES CCCCCCCCCCCC(=O)[O-]
REMARK SMILES IDX 7 1 8 2 9 3 10 4 11 5 12 6 13 7 14 8 6 9 5 10 4 11 3 12 2 13
REMARK SMILES IDX 1 14
REMARK H PARENT
REMARK Flexibility Score: inf
ROOT
ATOM      1  C   UNL     1      21.518 -25.088  33.066  1.00  0.00     0.000 C 
ENDROOT
BRANCH   1   2
ATOM      2  C   UNL     1      20.089 -24.963  33.617  1.00  0.00     0.000 C 
BRANCH   2   3
ATOM      3  C   UNL     1      19.591 -23.516  33.523  1.00  0.00     0.000 C 
BRANCH   3   4
ATOM      4  C   UNL     1      20.742 -22.558  33.180  1.00  0.00     0.006 C 
BRANCH   4   5
ATOM      5  C   UNL     1      20.244 -21.139  32.876  1.00  0.00     0.053 C 
BRANCH   5   6
ATOM      6  C   UNL     1      21.068 -20.478  31.813  1.00  0.00     0.041 C 
ATOM      7  O   UNL     1      22.314 -20.657  31.773  1.00  0.00    -0.550 OA
ATOM      8  O   UNL     1      20.464 -19.636  30.888  1.00  0.00    -0.550 OA
ENDBRANCH   5   6
ENDBRANCH   4   5
ENDBRANCH   3   4
ENDBRANCH   2   3
ENDBRANCH   1   2
BRANCH   1   9
ATOM      9  C   UNL     1      22.425 -25.947  33.962  1.00  0.00     0.000 C 
BRANCH   9  10
ATOM     10  C   UNL     1      23.743 -26.340  33.270  1.00  0.00    -0.000 C 
BRANCH  10  11
ATOM     11  C   UNL     1      24.955 -25.580  33.850  1.00  0.00    -0.000 C 
BRANCH  11  12
ATOM     12  C   UNL     1      25.574 -24.564  32.872  1.00  0.00    -0.000 C 
BRANCH  12  13
ATOM     13  C   UNL     1      24.716 -23.313  32.620  1.00  0.00    -0.003 C 
ATOM     14  C   UNL     1      24.367 -22.565  33.906  1.00  0.00     0.004 C 
ENDBRANCH  12  13
ENDBRANCH  11  12
ENDBRANCH  10  11
ENDBRANCH   9  10
ENDBRANCH   1   9
TORSDOF 10
ENDMDL
MODEL 5
REMARK VINA RESULT:    -4.281      3.073      4.918
REMARK INTER + INTRA:          -8.107
REMARK INTER:                  -6.480
REMARK INTRA:                  -1.627
REMARK UNBOUND:                -1.323
REMARK SMILES CCCCCCCCCCCC(=O)[O-]
REMARK SMILES IDX 7 1 8 2 9 3 10 4 11 5 12 6 13 7 14 8 6 9 5 10 4 11 3 12 2 13
REMARK SMILES IDX 1 14
REMARK H PARENT
REMARK Flexibility Score: inf
ROOT
ATOM      1  C   UNL     1      13.899 -13.630  38.038  1.00  0.00     0.000 C 
ENDROOT
BRANCH   1   2
ATOM      2  C   UNL     1      13.571 -14.891  38.852  1.00  0.00     0.000 C 
BRANCH   2   3
ATOM      3  C   UNL     1      14.690 -15.204  39.852  1.00  0.00     0.000 C 
BRANCH   3   4
ATOM      4  C   UNL     1      15.084 -16.688  39.790  1.00  0.00     0.006 C 
BRANCH   4   5
ATOM      5  C   UNL     1      13.879 -17.597  39.513  1.00  0.00     0.053 C 
BRANCH   5   6
ATOM      6  C   UNL     1      14.305 -18.976  39.112  1.00  0.00     0.041 C 
ATOM      7  O   UNL     1      15.497 -19.345  39.278  1.00  0.00    -0.550 OA
ATOM      8  O   UNL     1      13.392 -19.843  38.524  1.00  0.00    -0.550 OA
ENDBRANCH   5   6
ENDBRANCH   4   5
ENDBRANCH   3   4
ENDBRANCH   2   3
ENDBRANCH   1   2
BRANCH   1   9
ATOM      9  C   UNL     1      15.326 -13.115  38.291  1.00  0.00     0.000 C 
BRANCH   9  10
ATOM     10  C   UNL     1      16.255 -13.317  37.081  1.00  0.00    -0.000 C 
BRANCH  10  11
ATOM     11  C   UNL     1      17.416 -14.284  37.392  1.00  0.00    -0.000 C 
BRANCH  11  12
ATOM     12  C   UNL     1      17.148 -15.735  36.948  1.00  0.00    -0.000 C 
BRANCH  12  13
ATOM     13  C   UNL     1      16.186 -15.873  35.756  1.00  0.00    -0.003 C 
ATOM     14  C   UNL     1      15.052 -16.863  36.020  1.00  0.00     0.004 C 
ENDBRANCH  12  13
ENDBRANCH  11  12
ENDBRANCH  10  11
ENDBRANCH   9  10
ENDBRANCH   1   9
TORSDOF 10
ENDMDL
MODEL 6
REMARK VINA RESULT:    -4.238      2.941      4.876
REMARK INTER + INTRA:          -8.039
REMARK INTER:                  -6.533
REMARK INTRA:                  -1.507
REMARK UNBOUND:                -1.323
REMARK SMILES CCCCCCCCCCCC(=O)[O-]
REMARK SMILES IDX 7 1 8 2 9 3 10 4 11 5 12 6 13 7 14 8 6 9 5 10 4 11 3 12 2 13
REMARK SMILES IDX 1 14
REMARK H PARENT
REMARK Flexibility Score: inf
ROOT
ATOM      1  C   UNL     1      15.971 -13.863  39.170  1.00  0.00     0.000 C 
ENDROOT
BRANCH   1   2
ATOM      2  C   UNL     1      15.189 -14.983  39.872  1.00  0.00     0.000 C 
BRANCH   2   3
ATOM      3  C   UNL     1      13.813 -15.181  39.224  1.00  0.00     0.000 C 
BRANCH   3   4
ATOM      4  C   UNL     1      13.193 -16.521  39.647  1.00  0.00     0.006 C 
BRANCH   4   5
ATOM      5  C   UNL     1      14.224 -17.657  39.667  1.00  0.00     0.053 C 
BRANCH   5   6
ATOM      6  C   UNL     1      13.891 -18.727  38.672  1.00  0.00     0.041 C 
ATOM      7  O   UNL     1      14.115 -19.936  38.942  1.00  0.00    -0.550 OA
ATOM      8  O   UNL     1      13.363 -18.384  37.434  1.00  0.00    -0.550 OA
ENDBRANCH   5   6
ENDBRANCH   4   5
ENDBRANCH   3   4
ENDBRANCH   2   3
ENDBRANCH   1   2
BRANCH   1   9
ATOM      9  C   UNL     1      15.129 -13.120  38.120  1.00  0.00     0.000 C 
BRANCH   9  10
ATOM     10  C   UNL     1      15.899 -12.872  36.809  1.00  0.00    -0.000 C 
BRANCH  10  11
ATOM     11  C   UNL     1      16.975 -13.947  36.553  1.00  0.00    -0.000 C 
BRANCH  11  12
ATOM     12  C   UNL     1      16.532 -15.043  35.565  1.00  0.00    -0.000 C 
BRANCH  12  13
ATOM     13  C   UNL     1      15.902 -16.282  36.223  1.00  0.00    -0.003 C 
ATOM     14  C   UNL     1      16.885 -17.046  37.111  1.00  0.00     0.004 C 
ENDBRANCH  12  13
ENDBRANCH  11  12
ENDBRANCH  10  11
ENDBRANCH   9  10
ENDBRANCH   1   9
TORSDOF 10
ENDMDL
MODEL 7
REMARK VINA RESULT:    -4.170      1.977      2.954
REMARK INTER + INTRA:          -7.932
REMARK INTER:                  -6.459
REMARK INTRA:                  -1.473
REMARK UNBOUND:                -1.323
REMARK SMILES CCCCCCCCCCCC(=O)[O-]
REMARK SMILES IDX 7 1 8 2 9 3 10 4 11 5 12 6 13 7 14 8 6 9 5 10 4 11 3 12 2 13
REMARK SMILES IDX 1 14
REMARK H PARENT
REMARK Flexibility Score: inf
ROOT
ATOM      1  C   UNL     1      15.975 -14.024  39.336  1.00  0.00     0.000 C 
ENDROOT
BRANCH   1   2
ATOM      2  C   UNL     1      15.103 -12.943  38.682  1.00  0.00     0.000 C 
BRANCH   2   3
ATOM      3  C   UNL     1      15.083 -13.102  37.157  1.00  0.00     0.000 C 
BRANCH   3   4
ATOM      4  C   UNL     1      16.468 -13.500  36.627  1.00  0.00     0.006 C 
BRANCH   4   5
ATOM      5  C   UNL     1      16.384 -14.555  35.516  1.00  0.00     0.053 C 
BRANCH   5   6
ATOM      6  C   UNL     1      16.295 -15.943  36.074  1.00  0.00     0.041 C 
ATOM      7  O   UNL     1      15.343 -16.699  35.747  1.00  0.00    -0.550 OA
ATOM      8  O   UNL     1      17.246 -16.388  36.984  1.00  0.00    -0.550 OA
ENDBRANCH   5   6
ENDBRANCH   4   5
ENDBRANCH   3   4
ENDBRANCH   2   3
ENDBRANCH   1   2
BRANCH   1   9
ATOM      9  C   UNL     1      15.167 -14.977  40.232  1.00  0.00     0.000 C 
BRANCH   9  10
ATOM     10  C   UNL     1      14.828 -16.306  39.532  1.00  0.00    -0.000 C 
BRANCH  10  11
ATOM     11  C   UNL     1      13.475 -16.246  38.792  1.00  0.00    -0.000 C 
BRANCH  11  12
ATOM     12  C   UNL     1      12.267 -16.049  39.728  1.00  0.00    -0.000 C 
BRANCH  12  13
ATOM     13  C   UNL     1      11.552 -14.696  39.575  1.00  0.00    -0.003 C 
ATOM     14  C   UNL     1      11.611 -14.153  38.147  1.00  0.00     0.004 C 
ENDBRANCH  12  13
ENDBRANCH  11  12
ENDBRANCH  10  11
ENDBRANCH   9  10
ENDBRANCH   1   9
TORSDOF 10
ENDMDL
MODEL 8
REMARK VINA RESULT:    -4.153      1.910      2.590
REMARK INTER + INTRA:          -7.903
REMARK INTER:                  -6.839
REMARK INTRA:                  -1.065
REMARK UNBOUND:                -1.323
REMARK SMILES CCCCCCCCCCCC(=O)[O-]
REMARK SMILES IDX 7 1 8 2 9 3 10 4 11 5 12 6 13 7 14 8 6 9 5 10 4 11 3 12 2 13
REMARK SMILES IDX 1 14
REMARK H PARENT
REMARK Flexibility Score: inf
ROOT
ATOM      1  C   UNL     1      16.095 -13.918  39.380  1.00  0.00     0.000 C 
ENDROOT
BRANCH   1   2
ATOM      2  C   UNL     1      15.073 -13.029  38.656  1.00  0.00     0.000 C 
BRANCH   2   3
ATOM      3  C   UNL     1      15.189 -13.187  37.135  1.00  0.00     0.000 C 
BRANCH   3   4
ATOM      4  C   UNL     1      16.638 -13.483  36.722  1.00  0.00     0.006 C 
BRANCH   4   5
ATOM      5  C   UNL     1      16.723 -14.572  35.643  1.00  0.00     0.053 C 
BRANCH   5   6
ATOM      6  C   UNL     1      16.442 -15.932  36.205  1.00  0.00     0.041 C 
ATOM      7  O   UNL     1      17.269 -16.483  36.978  1.00  0.00    -0.550 OA
ATOM      8  O   UNL     1      15.281 -16.605  35.847  1.00  0.00    -0.550 OA
ENDBRANCH   5   6
ENDBRANCH   4   5
ENDBRANCH   3   4
ENDBRANCH   2   3
ENDBRANCH   1   2
BRANCH   1   9
ATOM      9  C   UNL     1      15.431 -14.985  40.266  1.00  0.00     0.000 C 
BRANCH   9  10
ATOM     10  C   UNL     1      13.988 -15.300  39.835  1.00  0.00    -0.000 C 
BRANCH  10  11
ATOM     11  C   UNL     1      13.829 -16.757  39.352  1.00  0.00    -0.000 C 
BRANCH  11  12
ATOM     12  C   UNL     1      15.135 -17.573  39.408  1.00  0.00    -0.000 C 
BRANCH  12  13
ATOM     13  C   UNL     1      14.945 -19.066  39.721  1.00  0.00    -0.003 C 
ATOM     14  C   UNL     1      13.551 -19.386  40.260  1.00  0.00     0.004 C 
ENDBRANCH  12  13
ENDBRANCH  11  12
ENDBRANCH  10  11
ENDBRANCH   9  10
ENDBRANCH   1   9
TORSDOF 10
ENDMDL
MODEL 9
REMARK VINA RESULT:    -4.141      3.002      4.886
REMARK INTER + INTRA:          -7.885
REMARK INTER:                  -6.547
REMARK INTRA:                  -1.338
REMARK UNBOUND:                -1.323
REMARK SMILES CCCCCCCCCCCC(=O)[O-]
REMARK SMILES IDX 7 1 8 2 9 3 10 4 11 5 12 6 13 7 14 8 6 9 5 10 4 11 3 12 2 13
REMARK SMILES IDX 1 14
REMARK H PARENT
REMARK Flexibility Score: inf
ROOT
ATOM      1  C   UNL     1      15.893 -12.764  37.401  1.00  0.00     0.000 C 
ENDROOT
BRANCH   1   2
ATOM      2  C   UNL     1      14.878 -13.518  38.273  1.00  0.00     0.000 C 
BRANCH   2   3
ATOM      3  C   UNL     1      15.514 -13.962  39.596  1.00  0.00     0.000 C 
BRANCH   3   4
ATOM      4  C   UNL     1      15.074 -15.386  39.968  1.00  0.00     0.006 C 
BRANCH   4   5
ATOM      5  C   UNL     1      13.600 -15.645  39.628  1.00  0.00     0.053 C 
BRANCH   5   6
ATOM      6  C   UNL     1      13.274 -17.107  39.654  1.00  0.00     0.041 C 
ATOM      7  O   UNL     1      12.098 -17.499  39.438  1.00  0.00    -0.550 OA
ATOM      8  O   UNL     1      14.264 -18.035  39.952  1.00  0.00    -0.550 OA
ENDBRANCH   5   6
ENDBRANCH   4   5
ENDBRANCH   3   4
ENDBRANCH   2   3
ENDBRANCH   1   2
BRANCH   1   9
ATOM      9  C   UNL     1      15.862 -13.215  35.931  1.00  0.00     0.000 C 
BRANCH   9  10
ATOM     10  C   UNL     1      17.112 -14.020  35.531  1.00  0.00    -0.000 C 
BRANCH  10  11
ATOM     11  C   UNL     1      17.817 -14.648  36.752  1.00  0.00    -0.000 C 
BRANCH  11  12
ATOM     12  C   UNL     1      17.354 -16.084  37.062  1.00  0.00    -0.000 C 
BRANCH  12  13
ATOM     13  C   UNL     1      16.516 -16.741  35.953  1.00  0.00    -0.003 C 
ATOM     14  C   UNL     1      15.047 -16.909  36.340  1.00  0.00     0.004 C 
ENDBRANCH  12  13
ENDBRANCH  11  12
ENDBRANCH  10  11
ENDBRANCH   9  10
ENDBRANCH   1   9
TORSDOF 10
ENDMDL
