MODEL 1
REMARK VINA RESULT:    -5.050      0.000      0.000
REMARK INTER + INTRA:         -11.580
REMARK INTER:                  -9.478
REMARK INTRA:                  -2.103
REMARK UNBOUND:                -2.103
REMARK SMILES CCCCCCCCC=CCCCCCCCC(=O)[O-]
REMARK SMILES IDX 10 1 9 2 11 3 12 4 13 5 14 6 15 7 16 8 17 9 18 10 19 11
REMARK SMILES IDX 20 12 8 13 7 14 6 15 5 16 4 17 3 18 2 19 1 20
REMARK H PARENT
REMARK Flexibility Score: inf
ROOT
ATOM      1  C   UNL     1      26.539  13.981  36.241  1.00  0.00    -0.031 C 
ATOM      2  C   UNL     1      25.396  13.269  36.275  1.00  0.00    -0.031 C 
ENDROOT
BRANCH   1   3
ATOM      3  C   UNL     1      27.848  13.495  35.673  1.00  0.00     0.027 C 
BRANCH   3   4
ATOM      4  C   UNL     1      27.999  13.891  34.196  1.00  0.00     0.004 C 
BRANCH   4   5
ATOM      5  C   UNL     1      28.569  12.752  33.336  1.00  0.00     0.000 C 
BRANCH   5   6
ATOM      6  C   UNL     1      28.245  12.924  31.841  1.00  0.00     0.000 C 
BRANCH   6   7
ATOM      7  C   UNL     1      26.742  13.177  31.596  1.00  0.00     0.000 C 
BRANCH   7   8
ATOM      8  C   UNL     1      26.070  12.094  30.735  1.00  0.00     0.006 C 
BRANCH   8   9
ATOM      9  C   UNL     1      26.422  10.672  31.183  1.00  0.00     0.053 C 
BRANCH   9  10
ATOM     10  C   UNL     1      25.232   9.774  31.053  1.00  0.00     0.041 C 
ATOM     11  O   UNL     1      24.079  10.207  31.314  1.00  0.00    -0.550 OA
ATOM     12  O   UNL     1      25.402   8.443  30.690  1.00  0.00    -0.550 OA
ENDBRANCH   9  10
ENDBRANCH   8   9
ENDBRANCH   7   8
ENDBRANCH   6   7
ENDBRANCH   5   6
ENDBRANCH   4   5
ENDBRANCH   3   4
ENDBRANCH   1   3
BRANCH   2  13
ATOM     13  C   UNL     1      25.232  11.851  35.776  1.00  0.00     0.027 C 
BRANCH  13  14
ATOM     14  C   UNL     1      24.862  11.814  34.286  1.00  0.00     0.004 C 
BRANCH  14  15
ATOM     15  C   UNL     1      23.775  12.837  33.926  1.00  0.00     0.000 C 
BRANCH  15  16
ATOM     16  C   UNL     1      22.376  12.220  34.051  1.00  0.00     0.000 C 
BRANCH  16  17
ATOM     17  C   UNL     1      21.545  12.950  35.116  1.00  0.00    -0.000 C 
BRANCH  17  18
ATOM     18  C   UNL     1      20.901  11.989  36.127  1.00  0.00    -0.000 C 
BRANCH  18  19
ATOM     19  C   UNL     1      19.484  12.421  36.533  1.00  0.00    -0.003 C 
ATOM     20  C   UNL     1      19.048  13.666  35.765  1.00  0.00     0.004 C 
ENDBRANCH  18  19
ENDBRANCH  17  18
ENDBRANCH  16  17
ENDBRANCH  15  16
ENDBRANCH  14  15
ENDBRANCH  13  14
ENDBRANCH   2  13
TORSDOF 15
ENDMDL
MODEL 2
REMARK VINA RESULT:    -5.013      2.573      4.260
REMARK INTER + INTRA:         -11.512
REMARK INTER:                  -9.528
REMARK INTRA:                  -1.984
REMARK UNBOUND:                -2.103
REMARK SMILES CCCCCCCCC=CCCCCCCCC(=O)[O-]
REMARK SMILES IDX 10 1 9 2 11 3 12 4 13 5 14 6 15 7 16 8 17 9 18 10 19 11
REMARK SMILES IDX 20 12 8 13 7 14 6 15 5 16 4 17 3 18 2 19 1 20
REMARK H PARENT
REMARK Flexibility Score: inf
ROOT
ATOM      1  C   UNL     1      26.141  10.345  31.425  1.00  0.00    -0.031 C 
ATOM      2  C   UNL     1      25.388  10.926  32.379  1.00  0.00    -0.031 C 
ENDROOT
BRANCH   1   3
ATOM      3  C   UNL     1      26.351  10.886  30.034  1.00  0.00     0.027 C 
BRANCH   3   4
ATOM      4  C   UNL     1      27.750  11.498  29.876  1.00  0.00     0.004 C 
BRANCH   4   5
ATOM      5  C   UNL     1      27.788  12.989  30.247  1.00  0.00     0.000 C 
BRANCH   5   6
ATOM      6  C   UNL     1      28.969  13.337  31.171  1.00  0.00     0.000 C 
BRANCH   6   7
ATOM      7  C   UNL     1      28.778  12.777  32.596  1.00  0.00     0.000 C 
BRANCH   7   8
ATOM      8  C   UNL     1      27.845  13.631  33.471  1.00  0.00     0.006 C 
BRANCH   8   9
ATOM      9  C   UNL     1      27.347  12.886  34.715  1.00  0.00     0.053 C 
BRANCH   9  10
ATOM     10  C   UNL     1      27.002  13.856  35.800  1.00  0.00     0.041 C 
ATOM     11  O   UNL     1      25.931  13.726  36.451  1.00  0.00    -0.550 OA
ATOM     12  O   UNL     1      27.840  14.933  36.063  1.00  0.00    -0.550 OA
ENDBRANCH   9  10
ENDBRANCH   8   9
ENDBRANCH   7   8
ENDBRANCH   6   7
ENDBRANCH   5   6
ENDBRANCH   4   5
ENDBRANCH   3   4
ENDBRANCH   1   3
BRANCH   2  13
ATOM     13  C   UNL     1      24.601  12.207  32.213  1.00  0.00     0.027 C 
BRANCH  13  14
ATOM     14  C   UNL     1      23.112  11.928  31.965  1.00  0.00     0.004 C 
BRANCH  14  15
ATOM     15  C   UNL     1      22.220  12.451  33.101  1.00  0.00     0.000 C 
BRANCH  15  16
ATOM     16  C   UNL     1      23.066  13.057  34.228  1.00  0.00     0.000 C 
BRANCH  16  17
ATOM     17  C   UNL     1      22.619  12.526  35.598  1.00  0.00    -0.000 C 
BRANCH  17  18
ATOM     18  C   UNL     1      21.097  12.330  35.690  1.00  0.00    -0.000 C 
BRANCH  18  19
ATOM     19  C   UNL     1      20.340  13.657  35.846  1.00  0.00    -0.003 C 
ATOM     20  C   UNL     1      18.899  13.418  36.291  1.00  0.00     0.004 C 
ENDBRANCH  18  19
ENDBRANCH  17  18
ENDBRANCH  16  17
ENDBRANCH  15  16
ENDBRANCH  14  15
ENDBRANCH  13  14
ENDBRANCH   2  13
TORSDOF 15
ENDMDL
MODEL 3
REMARK VINA RESULT:    -5.009      2.721      4.381
REMARK INTER + INTRA:         -11.505
REMARK INTER:                  -8.798
REMARK INTRA:                  -2.706
REMARK UNBOUND:                -2.103
REMARK SMILES CCCCCCCCC=CCCCCCCCC(=O)[O-]
REMARK SMILES IDX 10 1 9 2 11 3 12 4 13 5 14 6 15 7 16 8 17 9 18 10 19 11
REMARK SMILES IDX 20 12 8 13 7 14 6 15 5 16 4 17 3 18 2 19 1 20
REMARK H PARENT
REMARK Flexibility Score: inf
ROOT
ATOM      1  C   UNL     1      25.293  11.467  33.025  1.00  0.00    -0.031 C 
ATOM      2  C   UNL     1      24.955  11.626  34.320  1.00  0.00    -0.031 C 
ENDROOT
BRANCH   1   3
ATOM      3  C   UNL     1      25.180  12.530  31.962  1.00  0.00     0.027 C 
BRANCH   3   4
ATOM      4  C   UNL     1      25.982  12.153  30.707  1.00  0.00     0.004 C 
BRANCH   4   5
ATOM      5  C   UNL     1      27.250  11.349  31.036  1.00  0.00     0.000 C 
BRANCH   5   6
ATOM      6  C   UNL     1      28.535  12.061  30.577  1.00  0.00     0.000 C 
BRANCH   6   7
ATOM      7  C   UNL     1      28.858  13.296  31.445  1.00  0.00     0.000 C 
BRANCH   7   8
ATOM      8  C   UNL     1      28.755  13.028  32.956  1.00  0.00     0.006 C 
BRANCH   8   9
ATOM      9  C   UNL     1      27.915  14.077  33.692  1.00  0.00     0.053 C 
BRANCH   9  10
ATOM     10  C   UNL     1      27.970  13.847  35.169  1.00  0.00     0.041 C 
ATOM     11  O   UNL     1      27.999  12.675  35.628  1.00  0.00    -0.550 OA
ATOM     12  O   UNL     1      27.939  14.928  36.043  1.00  0.00    -0.550 OA
ENDBRANCH   9  10
ENDBRANCH   8   9
ENDBRANCH   7   8
ENDBRANCH   6   7
ENDBRANCH   5   6
ENDBRANCH   4   5
ENDBRANCH   3   4
ENDBRANCH   1   3
BRANCH   2  13
ATOM     13  C   UNL     1      24.378  12.886  34.925  1.00  0.00     0.027 C 
BRANCH  13  14
ATOM     14  C   UNL     1      23.209  12.576  35.871  1.00  0.00     0.004 C 
BRANCH  14  15
ATOM     15  C   UNL     1      21.854  12.572  35.147  1.00  0.00     0.000 C 
BRANCH  15  16
ATOM     16  C   UNL     1      21.833  13.608  34.016  1.00  0.00     0.000 C 
BRANCH  16  17
ATOM     17  C   UNL     1      21.527  12.943  32.666  1.00  0.00    -0.000 C 
BRANCH  17  18
ATOM     18  C   UNL     1      21.383  11.417  32.777  1.00  0.00    -0.000 C 
BRANCH  18  19
ATOM     19  C   UNL     1      22.016  10.677  31.591  1.00  0.00    -0.003 C 
ATOM     20  C   UNL     1      21.108   9.554  31.095  1.00  0.00     0.004 C 
ENDBRANCH  18  19
ENDBRANCH  17  18
ENDBRANCH  16  17
ENDBRANCH  15  16
ENDBRANCH  14  15
ENDBRANCH  13  14
ENDBRANCH   2  13
TORSDOF 15
ENDMDL
MODEL 4
REMARK VINA RESULT:    -4.946      2.732      6.793
REMARK INTER + INTRA:         -11.385
REMARK INTER:                  -9.574
REMARK INTRA:                  -1.811
REMARK UNBOUND:                -2.103
REMARK SMILES CCCCCCCCC=CCCCCCCCC(=O)[O-]
REMARK SMILES IDX 10 1 9 2 11 3 12 4 13 5 14 6 15 7 16 8 17 9 18 10 19 11
REMARK SMILES IDX 20 12 8 13 7 14 6 15 5 16 4 17 3 18 2 19 1 20
REMARK H PARENT
REMARK Flexibility Score: inf
ROOT
ATOM      1  C   UNL     1      25.689  11.092  32.934  1.00  0.00    -0.031 C 
ATOM      2  C   UNL     1      25.847  11.119  31.596  1.00  0.00    -0.031 C 
ENDROOT
BRANCH   1   3
ATOM      3  C   UNL     1      25.078  12.197  33.758  1.00  0.00     0.027 C 
BRANCH   3   4
ATOM      4  C   UNL     1      25.023  11.821  35.246  1.00  0.00     0.004 C 
BRANCH   4   5
ATOM      5  C   UNL     1      23.932  12.589  36.009  1.00  0.00     0.000 C 
BRANCH   5   6
ATOM      6  C   UNL     1      22.747  12.981  35.108  1.00  0.00     0.000 C 
BRANCH   6   7
ATOM      7  C   UNL     1      21.399  12.477  35.667  1.00  0.00     0.000 C 
BRANCH   7   8
ATOM      8  C   UNL     1      20.357  13.592  35.852  1.00  0.00     0.006 C 
BRANCH   8   9
ATOM      9  C   UNL     1      19.283  13.592  34.759  1.00  0.00     0.053 C 
BRANCH   9  10
ATOM     10  C   UNL     1      19.595  14.623  33.721  1.00  0.00     0.041 C 
ATOM     11  O   UNL     1      20.583  15.392  33.866  1.00  0.00    -0.550 OA
ATOM     12  O   UNL     1      18.767  14.769  32.614  1.00  0.00    -0.550 OA
ENDBRANCH   9  10
ENDBRANCH   8   9
ENDBRANCH   7   8
ENDBRANCH   6   7
ENDBRANCH   5   6
ENDBRANCH   4   5
ENDBRANCH   3   4
ENDBRANCH   1   3
BRANCH   2  13
ATOM     13  C   UNL     1      25.467  12.270  30.693  1.00  0.00     0.027 C 
BRANCH  13  14
ATOM     14  C   UNL     1      26.703  12.928  30.062  1.00  0.00     0.004 C 
BRANCH  14  15
ATOM     15  C   UNL     1      28.013  12.258  30.502  1.00  0.00     0.000 C 
BRANCH  15  16
ATOM     16  C   UNL     1      28.876  13.224  31.324  1.00  0.00     0.000 C 
BRANCH  16  17
ATOM     17  C   UNL     1      28.836  12.863  32.816  1.00  0.00    -0.000 C 
BRANCH  17  18
ATOM     18  C   UNL     1      28.114  13.922  33.663  1.00  0.00    -0.000 C 
BRANCH  18  19
ATOM     19  C   UNL     1      28.264  13.676  35.171  1.00  0.00    -0.003 C 
ATOM     20  C   UNL     1      27.609  14.794  35.978  1.00  0.00     0.004 C 
ENDBRANCH  18  19
ENDBRANCH  17  18
ENDBRANCH  16  17
ENDBRANCH  15  16
ENDBRANCH  14  15
ENDBRANCH  13  14
ENDBRANCH   2  13
TORSDOF 15
ENDMDL
MODEL 5
REMARK VINA RESULT:    -4.931      2.473      6.212
REMARK INTER + INTRA:         -11.358
REMARK INTER:                  -9.239
REMARK INTRA:                  -2.120
REMARK UNBOUND:                -2.103
REMARK SMILES CCCCCCCCC=CCCCCCCCC(=O)[O-]
REMARK SMILES IDX 10 1 9 2 11 3 12 4 13 5 14 6 15 7 16 8 17 9 18 10 19 11
REMARK SMILES IDX 20 12 8 13 7 14 6 15 5 16 4 17 3 18 2 19 1 20
REMARK H PARENT
REMARK Flexibility Score: inf
ROOT
ATOM      1  C   UNL     1      26.179  10.764  31.705  1.00  0.00    -0.031 C 
ATOM      2  C   UNL     1      27.430  11.152  31.392  1.00  0.00    -0.031 C 
ENDROOT
BRANCH   1   3
ATOM      3  C   UNL     1      24.927  11.554  31.418  1.00  0.00     0.027 C 
BRANCH   3   4
ATOM      4  C   UNL     1      23.666  10.753  31.774  1.00  0.00     0.004 C 
BRANCH   4   5
ATOM      5  C   UNL     1      22.425  11.646  31.932  1.00  0.00     0.000 C 
BRANCH   5   6
ATOM      6  C   UNL     1      22.623  12.749  32.987  1.00  0.00     0.000 C 
BRANCH   6   7
ATOM      7  C   UNL     1      21.280  13.277  33.535  1.00  0.00     0.000 C 
BRANCH   7   8
ATOM      8  C   UNL     1      21.309  13.583  35.042  1.00  0.00     0.006 C 
BRANCH   8   9
ATOM      9  C   UNL     1      21.312  12.318  35.908  1.00  0.00     0.053 C 
BRANCH   9  10
ATOM     10  C   UNL     1      19.920  11.792  36.067  1.00  0.00     0.041 C 
ATOM     11  O   UNL     1      19.141  12.304  36.915  1.00  0.00    -0.550 OA
ATOM     12  O   UNL     1      19.497  10.704  35.314  1.00  0.00    -0.550 OA
ENDBRANCH   9  10
ENDBRANCH   8   9
ENDBRANCH   7   8
ENDBRANCH   6   7
ENDBRANCH   5   6
ENDBRANCH   4   5
ENDBRANCH   3   4
ENDBRANCH   1   3
BRANCH   2  13
ATOM     13  C   UNL     1      27.800  12.457  30.724  1.00  0.00     0.027 C 
BRANCH  13  14
ATOM     14  C   UNL     1      28.729  13.303  31.608  1.00  0.00     0.004 C 
BRANCH  14  15
ATOM     15  C   UNL     1      28.696  12.865  33.080  1.00  0.00     0.000 C 
BRANCH  15  16
ATOM     16  C   UNL     1      27.987  13.913  33.948  1.00  0.00     0.000 C 
BRANCH  16  17
ATOM     17  C   UNL     1      27.523  13.302  35.279  1.00  0.00    -0.000 C 
BRANCH  17  18
ATOM     18  C   UNL     1      26.965  11.880  35.114  1.00  0.00    -0.000 C 
BRANCH  18  19
ATOM     19  C   UNL     1      25.432  11.835  35.181  1.00  0.00    -0.003 C 
ATOM     20  C   UNL     1      24.893  12.876  36.158  1.00  0.00     0.004 C 
ENDBRANCH  18  19
ENDBRANCH  17  18
ENDBRANCH  16  17
ENDBRANCH  15  16
ENDBRANCH  14  15
ENDBRANCH  13  14
ENDBRANCH   2  13
TORSDOF 15
ENDMDL
MODEL 6
REMARK VINA RESULT:    -4.924      1.616      2.830
REMARK INTER + INTRA:         -11.344
REMARK INTER:                  -9.202
REMARK INTRA:                  -2.142
REMARK UNBOUND:                -2.103
REMARK SMILES CCCCCCCCC=CCCCCCCCC(=O)[O-]
REMARK SMILES IDX 10 1 9 2 11 3 12 4 13 5 14 6 15 7 16 8 17 9 18 10 19 11
REMARK SMILES IDX 20 12 8 13 7 14 6 15 5 16 4 17 3 18 2 19 1 20
REMARK H PARENT
REMARK Flexibility Score: inf
ROOT
ATOM      1  C   UNL     1      25.053  12.256  35.938  1.00  0.00    -0.031 C 
ATOM      2  C   UNL     1      23.861  12.786  35.602  1.00  0.00    -0.031 C 
ENDROOT
BRANCH   1   3
ATOM      3  C   UNL     1      25.933  11.447  35.019  1.00  0.00     0.027 C 
BRANCH   3   4
ATOM      4  C   UNL     1      27.401  11.888  35.117  1.00  0.00     0.004 C 
BRANCH   4   5
ATOM      5  C   UNL     1      27.553  13.416  35.197  1.00  0.00     0.000 C 
BRANCH   5   6
ATOM      6  C   UNL     1      27.990  14.036  33.858  1.00  0.00     0.000 C 
BRANCH   6   7
ATOM      7  C   UNL     1      28.479  12.969  32.855  1.00  0.00     0.000 C 
BRANCH   7   8
ATOM      8  C   UNL     1      27.715  12.985  31.521  1.00  0.00     0.006 C 
BRANCH   8   9
ATOM      9  C   UNL     1      26.195  12.895  31.703  1.00  0.00     0.053 C 
BRANCH   9  10
ATOM     10  C   UNL     1      25.691  11.567  31.234  1.00  0.00     0.041 C 
ATOM     11  O   UNL     1      24.675  11.499  30.493  1.00  0.00    -0.550 OA
ATOM     12  O   UNL     1      26.315  10.398  31.655  1.00  0.00    -0.550 OA
ENDBRANCH   9  10
ENDBRANCH   8   9
ENDBRANCH   7   8
ENDBRANCH   6   7
ENDBRANCH   5   6
ENDBRANCH   4   5
ENDBRANCH   3   4
ENDBRANCH   1   3
BRANCH   2  13
ATOM     13  C   UNL     1      23.186  12.641  34.257  1.00  0.00     0.027 C 
BRANCH  13  14
ATOM     14  C   UNL     1      21.738  12.151  34.400  1.00  0.00     0.004 C 
BRANCH  14  15
ATOM     15  C   UNL     1      21.113  12.551  35.745  1.00  0.00     0.000 C 
BRANCH  15  16
ATOM     16  C   UNL     1      20.306  13.848  35.610  1.00  0.00     0.000 C 
BRANCH  16  17
ATOM     17  C   UNL     1      19.201  13.702  34.554  1.00  0.00    -0.000 C 
BRANCH  17  18
ATOM     18  C   UNL     1      19.125  14.908  33.605  1.00  0.00    -0.000 C 
BRANCH  18  19
ATOM     19  C   UNL     1      20.511  15.462  33.242  1.00  0.00    -0.003 C 
ATOM     20  C   UNL     1      21.032  14.835  31.951  1.00  0.00     0.004 C 
ENDBRANCH  18  19
ENDBRANCH  17  18
ENDBRANCH  16  17
ENDBRANCH  15  16
ENDBRANCH  14  15
ENDBRANCH  13  14
ENDBRANCH   2  13
TORSDOF 15
ENDMDL
MODEL 7
REMARK VINA RESULT:    -4.896      2.624      4.240
REMARK INTER + INTRA:         -11.292
REMARK INTER:                  -9.933
REMARK INTRA:                  -1.359
REMARK UNBOUND:                -2.103
REMARK SMILES CCCCCCCCC=CCCCCCCCC(=O)[O-]
REMARK SMILES IDX 10 1 9 2 11 3 12 4 13 5 14 6 15 7 16 8 17 9 18 10 19 11
REMARK SMILES IDX 20 12 8 13 7 14 6 15 5 16 4 17 3 18 2 19 1 20
REMARK H PARENT
REMARK Flexibility Score: inf
ROOT
ATOM      1  C   UNL     1      25.343  11.518  33.520  1.00  0.00    -0.031 C 
ATOM      2  C   UNL     1      24.529  12.255  34.299  1.00  0.00    -0.031 C 
ENDROOT
BRANCH   1   3
ATOM      3  C   UNL     1      24.982  10.964  32.164  1.00  0.00     0.027 C 
BRANCH   3   4
ATOM      4  C   UNL     1      26.235  10.566  31.370  1.00  0.00     0.004 C 
BRANCH   4   5
ATOM      5  C   UNL     1      26.812  11.733  30.554  1.00  0.00     0.000 C 
BRANCH   5   6
ATOM      6  C   UNL     1      28.345  11.828  30.663  1.00  0.00     0.000 C 
BRANCH   6   7
ATOM      7  C   UNL     1      28.795  13.061  31.476  1.00  0.00     0.000 C 
BRANCH   7   8
ATOM      8  C   UNL     1      28.668  12.872  32.997  1.00  0.00     0.006 C 
BRANCH   8   9
ATOM      9  C   UNL     1      27.977  14.052  33.689  1.00  0.00     0.053 C 
BRANCH   9  10
ATOM     10  C   UNL     1      27.882  13.810  35.162  1.00  0.00     0.041 C 
ATOM     11  O   UNL     1      27.975  12.640  35.621  1.00  0.00    -0.550 OA
ATOM     12  O   UNL     1      27.641  14.870  36.027  1.00  0.00    -0.550 OA
ENDBRANCH   9  10
ENDBRANCH   8   9
ENDBRANCH   7   8
ENDBRANCH   6   7
ENDBRANCH   5   6
ENDBRANCH   4   5
ENDBRANCH   3   4
ENDBRANCH   1   3
BRANCH   2  13
ATOM     13  C   UNL     1      23.104  12.633  33.964  1.00  0.00     0.027 C 
BRANCH  13  14
ATOM     14  C   UNL     1      22.226  12.710  35.222  1.00  0.00     0.004 C 
BRANCH  14  15
ATOM     15  C   UNL     1      21.005  13.621  35.031  1.00  0.00     0.000 C 
BRANCH  15  16
ATOM     16  C   UNL     1      19.705  12.867  35.338  1.00  0.00     0.000 C 
BRANCH  16  17
ATOM     17  C   UNL     1      19.942  11.762  36.378  1.00  0.00    -0.000 C 
BRANCH  17  18
ATOM     18  C   UNL     1      19.359  10.407  35.946  1.00  0.00    -0.000 C 
BRANCH  18  19
ATOM     19  C   UNL     1      19.726   9.271  36.912  1.00  0.00    -0.003 C 
ATOM     20  C   UNL     1      18.508   8.817  37.713  1.00  0.00     0.004 C 
ENDBRANCH  18  19
ENDBRANCH  17  18
ENDBRANCH  16  17
ENDBRANCH  15  16
ENDBRANCH  14  15
ENDBRANCH  13  14
ENDBRANCH   2  13
TORSDOF 15
ENDMDL
MODEL 8
REMARK VINA RESULT:    -4.876      2.853      7.311
REMARK INTER + INTRA:         -11.255
REMARK INTER:                  -9.398
REMARK INTRA:                  -1.857
REMARK UNBOUND:                -2.103
REMARK SMILES CCCCCCCCC=CCCCCCCCC(=O)[O-]
REMARK SMILES IDX 10 1 9 2 11 3 12 4 13 5 14 6 15 7 16 8 17 9 18 10 19 11
REMARK SMILES IDX 20 12 8 13 7 14 6 15 5 16 4 17 3 18 2 19 1 20
REMARK H PARENT
REMARK Flexibility Score: inf
ROOT
ATOM      1  C   UNL     1      23.196  11.817  32.690  1.00  0.00    -0.031 C 
ATOM      2  C   UNL     1      24.411  11.961  33.253  1.00  0.00    -0.031 C 
ENDROOT
BRANCH   1   3
ATOM      3  C   UNL     1      21.881  11.976  33.410  1.00  0.00     0.027 C 
BRANCH   3   4
ATOM      4  C   UNL     1      21.389  13.430  33.362  1.00  0.00     0.004 C 
BRANCH   4   5
ATOM      5  C   UNL     1      21.145  14.017  34.761  1.00  0.00     0.000 C 
BRANCH   5   6
ATOM      6  C   UNL     1      20.846  12.933  35.812  1.00  0.00     0.000 C 
BRANCH   6   7
ATOM      7  C   UNL     1      19.372  12.957  36.269  1.00  0.00     0.000 C 
BRANCH   7   8
ATOM      8  C   UNL     1      18.700  11.574  36.246  1.00  0.00     0.006 C 
BRANCH   8   9
ATOM      9  C   UNL     1      19.709  10.421  36.212  1.00  0.00     0.053 C 
BRANCH   9  10
ATOM     10  C   UNL     1      19.209   9.265  37.020  1.00  0.00     0.041 C 
ATOM     11  O   UNL     1      18.394   9.455  37.962  1.00  0.00    -0.550 OA
ATOM     12  O   UNL     1      19.679   7.983  36.764  1.00  0.00    -0.550 OA
ENDBRANCH   9  10
ENDBRANCH   8   9
ENDBRANCH   7   8
ENDBRANCH   6   7
ENDBRANCH   5   6
ENDBRANCH   4   5
ENDBRANCH   3   4
ENDBRANCH   1   3
BRANCH   2  13
ATOM     13  C   UNL     1      24.670  12.280  34.708  1.00  0.00     0.027 C 
BRANCH  13  14
ATOM     14  C   UNL     1      26.143  12.062  35.083  1.00  0.00     0.004 C 
BRANCH  14  15
ATOM     15  C   UNL     1      26.795  13.328  35.659  1.00  0.00     0.000 C 
BRANCH  15  16
ATOM     16  C   UNL     1      27.901  13.846  34.732  1.00  0.00     0.000 C 
BRANCH  16  17
ATOM     17  C   UNL     1      28.449  12.718  33.846  1.00  0.00    -0.000 C 
BRANCH  17  18
ATOM     18  C   UNL     1      28.660  13.158  32.389  1.00  0.00    -0.000 C 
BRANCH  18  19
ATOM     19  C   UNL     1      27.510  12.726  31.468  1.00  0.00    -0.003 C 
ATOM     20  C   UNL     1      27.446  11.206  31.345  1.00  0.00     0.004 C 
ENDBRANCH  18  19
ENDBRANCH  17  18
ENDBRANCH  16  17
ENDBRANCH  15  16
ENDBRANCH  14  15
ENDBRANCH  13  14
ENDBRANCH   2  13
TORSDOF 15
ENDMDL
MODEL 9
REMARK VINA RESULT:    -4.846      2.139      3.808
REMARK INTER + INTRA:         -11.199
REMARK INTER:                  -9.275
REMARK INTRA:                  -1.924
REMARK UNBOUND:                -2.103
REMARK SMILES CCCCCCCCC=CCCCCCCCC(=O)[O-]
REMARK SMILES IDX 10 1 9 2 11 3 12 4 13 5 14 6 15 7 16 8 17 9 18 10 19 11
REMARK SMILES IDX 20 12 8 13 7 14 6 15 5 16 4 17 3 18 2 19 1 20
REMARK H PARENT
REMARK Flexibility Score: inf
ROOT
ATOM      1  C   UNL     1      23.799  12.273  33.835  1.00  0.00    -0.031 C 
ATOM      2  C   UNL     1      22.994  12.182  32.758  1.00  0.00    -0.031 C 
ENDROOT
BRANCH   1   3
ATOM      3  C   UNL     1      23.365  12.719  35.208  1.00  0.00     0.027 C 
BRANCH   3   4
ATOM      4  C   UNL     1      24.548  12.744  36.188  1.00  0.00     0.004 C 
BRANCH   4   5
ATOM      5  C   UNL     1      25.873  12.339  35.524  1.00  0.00     0.000 C 
BRANCH   5   6
ATOM      6  C   UNL     1      26.919  13.467  35.559  1.00  0.00     0.000 C 
BRANCH   6   7
ATOM      7  C   UNL     1      27.787  13.495  34.282  1.00  0.00     0.000 C 
BRANCH   7   8
ATOM      8  C   UNL     1      27.341  12.483  33.214  1.00  0.00     0.006 C 
BRANCH   8   9
ATOM      9  C   UNL     1      27.247  13.096  31.813  1.00  0.00     0.053 C 
BRANCH   9  10
ATOM     10  C   UNL     1      28.432  12.699  30.989  1.00  0.00     0.041 C 
ATOM     11  O   UNL     1      29.418  13.476  30.880  1.00  0.00    -0.550 OA
ATOM     12  O   UNL     1      28.428  11.491  30.303  1.00  0.00    -0.550 OA
ENDBRANCH   9  10
ENDBRANCH   8   9
ENDBRANCH   7   8
ENDBRANCH   6   7
ENDBRANCH   5   6
ENDBRANCH   4   5
ENDBRANCH   3   4
ENDBRANCH   1   3
BRANCH   2  13
ATOM     13  C   UNL     1      21.525  12.537  32.732  1.00  0.00     0.027 C 
BRANCH  13  14
ATOM     14  C   UNL     1      21.301  13.996  32.305  1.00  0.00     0.004 C 
BRANCH  14  15
ATOM     15  C   UNL     1      20.927  14.902  33.487  1.00  0.00     0.000 C 
BRANCH  15  16
ATOM     16  C   UNL     1      19.636  14.422  34.160  1.00  0.00     0.000 C 
BRANCH  16  17
ATOM     17  C   UNL     1      19.897  14.002  35.614  1.00  0.00    -0.000 C 
BRANCH  17  18
ATOM     18  C   UNL     1      18.714  13.241  36.232  1.00  0.00    -0.000 C 
BRANCH  18  19
ATOM     19  C   UNL     1      19.128  11.887  36.827  1.00  0.00    -0.003 C 
ATOM     20  C   UNL     1      19.993  11.098  35.848  1.00  0.00     0.004 C 
ENDBRANCH  18  19
ENDBRANCH  17  18
ENDBRANCH  16  17
ENDBRANCH  15  16
ENDBRANCH  14  15
ENDBRANCH  13  14
ENDBRANCH   2  13
TORSDOF 15
ENDMDL
