MODEL 1
REMARK VINA RESULT:    -3.431      0.000      0.000
REMARK INTER + INTRA:          -9.973
REMARK INTER:                  -7.443
REMARK INTRA:                  -2.530
REMARK UNBOUND:                -2.530
REMARK SMILES CCCCCCCCCCCCCCCCCCCCCC(=O)[O-]
REMARK SMILES IDX 12 1 11 2 10 3 9 4 8 5 7 6 6 7 5 8 4 9 3 10 2 11 1 12 13 13
REMARK SMILES IDX 14 14 15 15 16 16 17 17 18 18 19 19 20 20 21 21 22 22 23 23
REMARK SMILES IDX 24 24
REMARK H PARENT
REMARK Flexibility Score: inf
ROOT
ATOM      1  C   UNL     1      27.690 160.013 116.622  1.00  0.00     0.000 C 
ENDROOT
BRANCH   1   2
ATOM      2  C   UNL     1      26.772 161.245 116.548  1.00  0.00     0.000 C 
BRANCH   2   3
ATOM      3  C   UNL     1      25.345 160.950 117.061  1.00  0.00     0.000 C 
BRANCH   3   4
ATOM      4  C   UNL     1      25.105 161.381 118.520  1.00  0.00    -0.000 C 
BRANCH   4   5
ATOM      5  C   UNL     1      24.878 160.226 119.512  1.00  0.00    -0.000 C 
BRANCH   5   6
ATOM      6  C   UNL     1      26.083 159.896 120.417  1.00  0.00    -0.000 C 
BRANCH   6   7
ATOM      7  C   UNL     1      25.723 159.338 121.807  1.00  0.00    -0.000 C 
BRANCH   7   8
ATOM      8  C   UNL     1      25.576 157.807 121.876  1.00  0.00    -0.000 C 
BRANCH   8   9
ATOM      9  C   UNL     1      26.721 157.065 121.171  1.00  0.00    -0.000 C 
BRANCH   9  10
ATOM     10  C   UNL     1      26.307 155.629 120.816  1.00  0.00    -0.000 C 
BRANCH  10  11
ATOM     11  C   UNL     1      26.132 155.421 119.305  1.00  0.00    -0.003 C 
ATOM     12  C   UNL     1      25.573 156.655 118.598  1.00  0.00     0.004 C 
ENDBRANCH  10  11
ENDBRANCH   9  10
ENDBRANCH   8   9
ENDBRANCH   7   8
ENDBRANCH   6   7
ENDBRANCH   5   6
ENDBRANCH   4   5
ENDBRANCH   3   4
ENDBRANCH   2   3
ENDBRANCH   1   2
BRANCH   1  13
ATOM     13  C   UNL     1      28.429 159.899 117.968  1.00  0.00     0.000 C 
BRANCH  13  14
ATOM     14  C   UNL     1      29.652 160.824 118.125  1.00  0.00     0.000 C 
BRANCH  14  15
ATOM     15  C   UNL     1      30.992 160.231 117.652  1.00  0.00     0.000 C 
BRANCH  15  16
ATOM     16  C   UNL     1      32.206 161.063 118.099  1.00  0.00     0.000 C 
BRANCH  16  17
ATOM     17  C   UNL     1      31.848 162.096 119.181  1.00  0.00     0.000 C 
BRANCH  17  18
ATOM     18  C   UNL     1      32.157 161.594 120.601  1.00  0.00     0.000 C 
BRANCH  18  19
ATOM     19  C   UNL     1      33.226 160.486 120.627  1.00  0.00     0.000 C 
BRANCH  19  20
ATOM     20  C   UNL     1      32.841 159.223 121.419  1.00  0.00     0.006 C 
BRANCH  20  21
ATOM     21  C   UNL     1      32.007 158.231 120.599  1.00  0.00     0.053 C 
BRANCH  21  22
ATOM     22  C   UNL     1      30.669 158.021 121.234  1.00  0.00     0.041 C 
ATOM     23  O   UNL     1      30.380 156.910 121.748  1.00  0.00    -0.550 OA
ATOM     24  O   UNL     1      29.723 159.038 121.214  1.00  0.00    -0.550 OA
ENDBRANCH  21  22
ENDBRANCH  20  21
ENDBRANCH  19  20
ENDBRANCH  18  19
ENDBRANCH  17  18
ENDBRANCH  16  17
ENDBRANCH  15  16
ENDBRANCH  14  15
ENDBRANCH  13  14
ENDBRANCH   1  13
TORSDOF 20
ENDMDL
MODEL 2
REMARK VINA RESULT:    -3.394      2.172      7.147
REMARK INTER + INTRA:          -9.892
REMARK INTER:                  -6.811
REMARK INTRA:                  -3.081
REMARK UNBOUND:                -2.530
REMARK SMILES CCCCCCCCCCCCCCCCCCCCCC(=O)[O-]
REMARK SMILES IDX 12 1 11 2 10 3 9 4 8 5 7 6 6 7 5 8 4 9 3 10 2 11 1 12 13 13
REMARK SMILES IDX 14 14 15 15 16 16 17 17 18 18 19 19 20 20 21 21 22 22 23 23
REMARK SMILES IDX 24 24
REMARK H PARENT
REMARK Flexibility Score: inf
ROOT
ATOM      1  C   UNL     1      28.370 160.138 120.540  1.00  0.00     0.000 C 
ENDROOT
BRANCH   1   2
ATOM      2  C   UNL     1      29.256 159.548 121.650  1.00  0.00     0.000 C 
BRANCH   2   3
ATOM      3  C   UNL     1      29.718 158.108 121.335  1.00  0.00     0.000 C 
BRANCH   3   4
ATOM      4  C   UNL     1      31.240 157.903 121.452  1.00  0.00    -0.000 C 
BRANCH   4   5
ATOM      5  C   UNL     1      32.029 159.135 121.929  1.00  0.00    -0.000 C 
BRANCH   5   6
ATOM      6  C   UNL     1      33.255 159.499 121.067  1.00  0.00    -0.000 C 
BRANCH   6   7
ATOM      7  C   UNL     1      33.545 161.008 120.946  1.00  0.00    -0.000 C 
BRANCH   7   8
ATOM      8  C   UNL     1      32.317 161.922 121.103  1.00  0.00    -0.000 C 
BRANCH   8   9
ATOM      9  C   UNL     1      31.440 161.965 119.843  1.00  0.00    -0.000 C 
BRANCH   9  10
ATOM     10  C   UNL     1      32.298 161.852 118.574  1.00  0.00    -0.000 C 
BRANCH  10  11
ATOM     11  C   UNL     1      32.050 160.546 117.806  1.00  0.00    -0.003 C 
ATOM     12  C   UNL     1      30.575 160.146 117.781  1.00  0.00     0.004 C 
ENDBRANCH  10  11
ENDBRANCH   9  10
ENDBRANCH   8   9
ENDBRANCH   7   8
ENDBRANCH   6   7
ENDBRANCH   5   6
ENDBRANCH   4   5
ENDBRANCH   3   4
ENDBRANCH   2   3
ENDBRANCH   1   2
BRANCH   1  13
ATOM     13  C   UNL     1      26.994 160.598 121.054  1.00  0.00     0.000 C 
BRANCH  13  14
ATOM     14  C   UNL     1      26.356 159.688 122.123  1.00  0.00     0.000 C 
BRANCH  14  15
ATOM     15  C   UNL     1      24.964 159.132 121.769  1.00  0.00     0.000 C 
BRANCH  15  16
ATOM     16  C   UNL     1      24.959 157.605 121.585  1.00  0.00     0.000 C 
BRANCH  16  17
ATOM     17  C   UNL     1      26.249 157.085 120.929  1.00  0.00     0.000 C 
BRANCH  17  18
ATOM     18  C   UNL     1      25.970 156.178 119.718  1.00  0.00     0.000 C 
BRANCH  18  19
ATOM     19  C   UNL     1      25.481 156.959 118.485  1.00  0.00     0.000 C 
BRANCH  19  20
ATOM     20  C   UNL     1      26.122 158.346 118.292  1.00  0.00     0.006 C 
BRANCH  20  21
ATOM     21  C   UNL     1      26.072 158.832 116.838  1.00  0.00     0.053 C 
BRANCH  21  22
ATOM     22  C   UNL     1      26.779 160.144 116.701  1.00  0.00     0.041 C 
ATOM     23  O   UNL     1      27.656 160.300 115.812  1.00  0.00    -0.550 OA
ATOM     24  O   UNL     1      26.504 161.177 117.588  1.00  0.00    -0.550 OA
ENDBRANCH  21  22
ENDBRANCH  20  21
ENDBRANCH  19  20
ENDBRANCH  18  19
ENDBRANCH  17  18
ENDBRANCH  16  17
ENDBRANCH  15  16
ENDBRANCH  14  15
ENDBRANCH  13  14
ENDBRANCH   1  13
TORSDOF 20
ENDMDL
MODEL 3
REMARK VINA RESULT:    -3.205      2.251      7.251
REMARK INTER + INTRA:          -9.481
REMARK INTER:                  -7.440
REMARK INTRA:                  -2.041
REMARK UNBOUND:                -2.530
REMARK SMILES CCCCCCCCCCCCCCCCCCCCCC(=O)[O-]
REMARK SMILES IDX 12 1 11 2 10 3 9 4 8 5 7 6 6 7 5 8 4 9 3 10 2 11 1 12 13 13
REMARK SMILES IDX 14 14 15 15 16 16 17 17 18 18 19 19 20 20 21 21 22 22 23 23
REMARK SMILES IDX 24 24
REMARK H PARENT
REMARK Flexibility Score: inf
ROOT
ATOM      1  C   UNL     1      28.989 160.218 117.598  1.00  0.00     0.000 C 
ENDROOT
BRANCH   1   2
ATOM      2  C   UNL     1      29.159 161.433 118.526  1.00  0.00     0.000 C 
BRANCH   2   3
ATOM      3  C   UNL     1      30.549 161.475 119.197  1.00  0.00     0.000 C 
BRANCH   3   4
ATOM      4  C   UNL     1      31.714 161.167 118.238  1.00  0.00    -0.000 C 
BRANCH   4   5
ATOM      5  C   UNL     1      32.423 159.824 118.483  1.00  0.00    -0.000 C 
BRANCH   5   6
ATOM      6  C   UNL     1      32.184 159.205 119.876  1.00  0.00    -0.000 C 
BRANCH   6   7
ATOM      7  C   UNL     1      33.284 159.492 120.917  1.00  0.00    -0.000 C 
BRANCH   7   8
ATOM      8  C   UNL     1      33.191 160.869 121.598  1.00  0.00    -0.000 C 
BRANCH   8   9
ATOM      9  C   UNL     1      34.542 161.599 121.654  1.00  0.00    -0.000 C 
BRANCH   9  10
ATOM     10  C   UNL     1      35.707 160.600 121.600  1.00  0.00    -0.000 C 
BRANCH  10  11
ATOM     11  C   UNL     1      37.078 161.291 121.568  1.00  0.00    -0.003 C 
ATOM     12  C   UNL     1      38.058 160.617 120.609  1.00  0.00     0.004 C 
ENDBRANCH  10  11
ENDBRANCH   9  10
ENDBRANCH   8   9
ENDBRANCH   7   8
ENDBRANCH   6   7
ENDBRANCH   5   6
ENDBRANCH   4   5
ENDBRANCH   3   4
ENDBRANCH   2   3
ENDBRANCH   1   2
BRANCH   1  13
ATOM     13  C   UNL     1      27.926 160.443 116.507  1.00  0.00     0.000 C 
BRANCH  13  14
ATOM     14  C   UNL     1      26.921 161.576 116.795  1.00  0.00     0.000 C 
BRANCH  14  15
ATOM     15  C   UNL     1      25.471 161.123 117.043  1.00  0.00     0.000 C 
BRANCH  15  16
ATOM     16  C   UNL     1      25.373 159.927 118.005  1.00  0.00     0.000 C 
BRANCH  16  17
ATOM     17  C   UNL     1      25.128 160.359 119.461  1.00  0.00     0.000 C 
BRANCH  17  18
ATOM     18  C   UNL     1      26.359 160.139 120.357  1.00  0.00     0.000 C 
BRANCH  18  19
ATOM     19  C   UNL     1      26.142 159.041 121.414  1.00  0.00     0.000 C 
BRANCH  19  20
ATOM     20  C   UNL     1      25.318 157.830 120.939  1.00  0.00     0.006 C 
BRANCH  20  21
ATOM     21  C   UNL     1      26.129 156.529 120.903  1.00  0.00     0.053 C 
BRANCH  21  22
ATOM     22  C   UNL     1      26.039 155.893 119.553  1.00  0.00     0.041 C 
ATOM     23  O   UNL     1      25.595 156.547 118.573  1.00  0.00    -0.550 OA
ATOM     24  O   UNL     1      26.398 154.561 119.387  1.00  0.00    -0.550 OA
ENDBRANCH  21  22
ENDBRANCH  20  21
ENDBRANCH  19  20
ENDBRANCH  18  19
ENDBRANCH  17  18
ENDBRANCH  16  17
ENDBRANCH  15  16
ENDBRANCH  14  15
ENDBRANCH  13  14
ENDBRANCH   1  13
TORSDOF 20
ENDMDL
MODEL 4
REMARK VINA RESULT:    -2.975      1.873      4.789
REMARK INTER + INTRA:          -8.983
REMARK INTER:                  -7.053
REMARK INTRA:                  -1.930
REMARK UNBOUND:                -2.530
REMARK SMILES CCCCCCCCCCCCCCCCCCCCCC(=O)[O-]
REMARK SMILES IDX 12 1 11 2 10 3 9 4 8 5 7 6 6 7 5 8 4 9 3 10 2 11 1 12 13 13
REMARK SMILES IDX 14 14 15 15 16 16 17 17 18 18 19 19 20 20 21 21 22 22 23 23
REMARK SMILES IDX 24 24
REMARK H PARENT
REMARK Flexibility Score: inf
ROOT
ATOM      1  C   UNL     1      32.012 162.082 118.929  1.00  0.00     0.000 C 
ENDROOT
BRANCH   1   2
ATOM      2  C   UNL     1      30.946 161.826 120.008  1.00  0.00     0.000 C 
BRANCH   2   3
ATOM      3  C   UNL     1      29.515 162.124 119.508  1.00  0.00     0.000 C 
BRANCH   3   4
ATOM      4  C   UNL     1      28.519 160.976 119.752  1.00  0.00    -0.000 C 
BRANCH   4   5
ATOM      5  C   UNL     1      27.289 161.349 120.599  1.00  0.00    -0.000 C 
BRANCH   5   6
ATOM      6  C   UNL     1      26.029 161.722 119.792  1.00  0.00    -0.000 C 
BRANCH   6   7
ATOM      7  C   UNL     1      25.216 160.526 119.258  1.00  0.00    -0.000 C 
BRANCH   7   8
ATOM      8  C   UNL     1      25.119 160.437 117.725  1.00  0.00    -0.000 C 
BRANCH   8   9
ATOM      9  C   UNL     1      25.551 161.733 117.023  1.00  0.00    -0.000 C 
BRANCH   9  10
ATOM     10  C   UNL     1      27.034 161.675 116.629  1.00  0.00    -0.000 C 
BRANCH  10  11
ATOM     11  C   UNL     1      27.524 160.242 116.377  1.00  0.00    -0.003 C 
ATOM     12  C   UNL     1      27.307 159.787 114.934  1.00  0.00     0.004 C 
ENDBRANCH  10  11
ENDBRANCH   9  10
ENDBRANCH   8   9
ENDBRANCH   7   8
ENDBRANCH   6   7
ENDBRANCH   5   6
ENDBRANCH   4   5
ENDBRANCH   3   4
ENDBRANCH   2   3
ENDBRANCH   1   2
BRANCH   1  13
ATOM     13  C   UNL     1      32.190 160.890 117.970  1.00  0.00     0.000 C 
BRANCH  13  14
ATOM     14  C   UNL     1      31.989 159.500 118.608  1.00  0.00     0.000 C 
BRANCH  14  15
ATOM     15  C   UNL     1      32.497 159.361 120.055  1.00  0.00     0.000 C 
BRANCH  15  16
ATOM     16  C   UNL     1      32.104 158.021 120.701  1.00  0.00     0.000 C 
BRANCH  16  17
ATOM     17  C   UNL     1      31.405 158.203 122.059  1.00  0.00     0.000 C 
BRANCH  17  18
ATOM     18  C   UNL     1      29.910 158.530 121.913  1.00  0.00     0.000 C 
BRANCH  18  19
ATOM     19  C   UNL     1      29.034 157.274 121.753  1.00  0.00     0.000 C 
BRANCH  19  20
ATOM     20  C   UNL     1      27.564 157.544 121.381  1.00  0.00     0.006 C 
BRANCH  20  21
ATOM     21  C   UNL     1      26.728 156.264 121.274  1.00  0.00     0.053 C 
BRANCH  21  22
ATOM     22  C   UNL     1      26.210 156.092 119.881  1.00  0.00     0.041 C 
ATOM     23  O   UNL     1      25.925 154.945 119.448  1.00  0.00    -0.550 OA
ATOM     24  O   UNL     1      26.091 157.194 119.043  1.00  0.00    -0.550 OA
ENDBRANCH  21  22
ENDBRANCH  20  21
ENDBRANCH  19  20
ENDBRANCH  18  19
ENDBRANCH  17  18
ENDBRANCH  16  17
ENDBRANCH  15  16
ENDBRANCH  14  15
ENDBRANCH  13  14
ENDBRANCH   1  13
TORSDOF 20
ENDMDL
MODEL 5
REMARK VINA RESULT:    -2.960      2.349      6.737
REMARK INTER + INTRA:          -8.952
REMARK INTER:                  -6.911
REMARK INTRA:                  -2.041
REMARK UNBOUND:                -2.530
REMARK SMILES CCCCCCCCCCCCCCCCCCCCCC(=O)[O-]
REMARK SMILES IDX 12 1 11 2 10 3 9 4 8 5 7 6 6 7 5 8 4 9 3 10 2 11 1 12 13 13
REMARK SMILES IDX 14 14 15 15 16 16 17 17 18 18 19 19 20 20 21 21 22 22 23 23
REMARK SMILES IDX 24 24
REMARK H PARENT
REMARK Flexibility Score: inf
ROOT
ATOM      1  C   UNL     1      28.220 157.287 122.125  1.00  0.00     0.000 C 
ENDROOT
BRANCH   1   2
ATOM      2  C   UNL     1      28.049 158.770 121.755  1.00  0.00     0.000 C 
BRANCH   2   3
ATOM      3  C   UNL     1      29.317 159.602 122.049  1.00  0.00     0.000 C 
BRANCH   3   4
ATOM      4  C   UNL     1      29.123 161.119 121.865  1.00  0.00    -0.000 C 
BRANCH   4   5
ATOM      5  C   UNL     1      28.661 161.551 120.462  1.00  0.00    -0.000 C 
BRANCH   5   6
ATOM      6  C   UNL     1      29.773 161.598 119.394  1.00  0.00    -0.000 C 
BRANCH   6   7
ATOM      7  C   UNL     1      30.203 160.227 118.837  1.00  0.00    -0.000 C 
BRANCH   7   8
ATOM      8  C   UNL     1      31.724 160.008 118.749  1.00  0.00    -0.000 C 
BRANCH   8   9
ATOM      9  C   UNL     1      32.479 160.569 119.962  1.00  0.00    -0.000 C 
BRANCH   9  10
ATOM     10  C   UNL     1      32.951 159.436 120.886  1.00  0.00    -0.000 C 
BRANCH  10  11
ATOM     11  C   UNL     1      32.715 158.044 120.283  1.00  0.00    -0.003 C 
ATOM     12  C   UNL     1      31.631 157.257 121.020  1.00  0.00     0.004 C 
ENDBRANCH  10  11
ENDBRANCH   9  10
ENDBRANCH   8   9
ENDBRANCH   7   8
ENDBRANCH   6   7
ENDBRANCH   5   6
ENDBRANCH   4   5
ENDBRANCH   3   4
ENDBRANCH   2   3
ENDBRANCH   1   2
BRANCH   1  13
ATOM     13  C   UNL     1      26.920 156.477 121.961  1.00  0.00     0.000 C 
BRANCH  13  14
ATOM     14  C   UNL     1      26.949 155.411 120.847  1.00  0.00     0.000 C 
BRANCH  14  15
ATOM     15  C   UNL     1      25.745 155.430 119.887  1.00  0.00     0.000 C 
BRANCH  15  16
ATOM     16  C   UNL     1      25.456 156.829 119.318  1.00  0.00     0.000 C 
BRANCH  16  17
ATOM     17  C   UNL     1      25.602 156.886 117.788  1.00  0.00     0.000 C 
BRANCH  17  18
ATOM     18  C   UNL     1      25.608 158.327 117.249  1.00  0.00     0.000 C 
BRANCH  18  19
ATOM     19  C   UNL     1      26.638 159.227 117.956  1.00  0.00     0.000 C 
BRANCH  19  20
ATOM     20  C   UNL     1      26.423 160.740 117.768  1.00  0.00     0.006 C 
BRANCH  20  21
ATOM     21  C   UNL     1      26.807 161.231 116.367  1.00  0.00     0.053 C 
BRANCH  21  22
ATOM     22  C   UNL     1      27.679 160.227 115.682  1.00  0.00     0.041 C 
ATOM     23  O   UNL     1      28.893 160.121 115.999  1.00  0.00    -0.550 OA
ATOM     24  O   UNL     1      27.164 159.443 114.658  1.00  0.00    -0.550 OA
ENDBRANCH  21  22
ENDBRANCH  20  21
ENDBRANCH  19  20
ENDBRANCH  18  19
ENDBRANCH  17  18
ENDBRANCH  16  17
ENDBRANCH  15  16
ENDBRANCH  14  15
ENDBRANCH  13  14
ENDBRANCH   1  13
TORSDOF 20
ENDMDL
MODEL 6
REMARK VINA RESULT:    -2.930      1.712      2.496
REMARK INTER + INTRA:          -8.886
REMARK INTER:                  -6.316
REMARK INTRA:                  -2.569
REMARK UNBOUND:                -2.530
REMARK SMILES CCCCCCCCCCCCCCCCCCCCCC(=O)[O-]
REMARK SMILES IDX 12 1 11 2 10 3 9 4 8 5 7 6 6 7 5 8 4 9 3 10 2 11 1 12 13 13
REMARK SMILES IDX 14 14 15 15 16 16 17 17 18 18 19 19 20 20 21 21 22 22 23 23
REMARK SMILES IDX 24 24
REMARK H PARENT
REMARK Flexibility Score: inf
ROOT
ATOM      1  C   UNL     1      27.939 160.064 116.451  1.00  0.00     0.000 C 
ENDROOT
BRANCH   1   2
ATOM      2  C   UNL     1      27.102 161.327 116.183  1.00  0.00     0.000 C 
BRANCH   2   3
ATOM      3  C   UNL     1      25.590 161.089 116.392  1.00  0.00     0.000 C 
BRANCH   3   4
ATOM      4  C   UNL     1      25.045 161.673 117.709  1.00  0.00    -0.000 C 
BRANCH   4   5
ATOM      5  C   UNL     1      25.407 160.876 118.975  1.00  0.00    -0.000 C 
BRANCH   5   6
ATOM      6  C   UNL     1      25.017 161.551 120.306  1.00  0.00    -0.000 C 
BRANCH   6   7
ATOM      7  C   UNL     1      25.167 160.665 121.558  1.00  0.00    -0.000 C 
BRANCH   7   8
ATOM      8  C   UNL     1      24.885 159.168 121.334  1.00  0.00    -0.000 C 
BRANCH   8   9
ATOM      9  C   UNL     1      26.130 158.290 121.527  1.00  0.00    -0.000 C 
BRANCH   9  10
ATOM     10  C   UNL     1      26.509 157.583 120.217  1.00  0.00    -0.000 C 
BRANCH  10  11
ATOM     11  C   UNL     1      26.926 156.121 120.433  1.00  0.00    -0.003 C 
ATOM     12  C   UNL     1      26.066 155.137 119.641  1.00  0.00     0.004 C 
ENDBRANCH  10  11
ENDBRANCH   9  10
ENDBRANCH   8   9
ENDBRANCH   7   8
ENDBRANCH   6   7
ENDBRANCH   5   6
ENDBRANCH   4   5
ENDBRANCH   3   4
ENDBRANCH   2   3
ENDBRANCH   1   2
BRANCH   1  13
ATOM     13  C   UNL     1      29.052 160.295 117.489  1.00  0.00     0.000 C 
BRANCH  13  14
ATOM     14  C   UNL     1      28.564 160.525 118.933  1.00  0.00     0.000 C 
BRANCH  14  15
ATOM     15  C   UNL     1      29.034 161.838 119.586  1.00  0.00     0.000 C 
BRANCH  15  16
ATOM     16  C   UNL     1      29.471 161.657 121.049  1.00  0.00     0.000 C 
BRANCH  16  17
ATOM     17  C   UNL     1      28.828 160.426 121.709  1.00  0.00     0.000 C 
BRANCH  17  18
ATOM     18  C   UNL     1      29.859 159.341 122.065  1.00  0.00     0.000 C 
BRANCH  18  19
ATOM     19  C   UNL     1      30.421 158.620 120.827  1.00  0.00     0.000 C 
BRANCH  19  20
ATOM     20  C   UNL     1      31.790 157.943 121.030  1.00  0.00     0.006 C 
BRANCH  20  21
ATOM     21  C   UNL     1      32.969 158.900 120.817  1.00  0.00     0.053 C 
BRANCH  21  22
ATOM     22  C   UNL     1      32.654 159.888 119.740  1.00  0.00     0.041 C 
ATOM     23  O   UNL     1      32.575 161.115 120.009  1.00  0.00    -0.550 OA
ATOM     24  O   UNL     1      32.397 159.448 118.447  1.00  0.00    -0.550 OA
ENDBRANCH  21  22
ENDBRANCH  20  21
ENDBRANCH  19  20
ENDBRANCH  18  19
ENDBRANCH  17  18
ENDBRANCH  16  17
ENDBRANCH  15  16
ENDBRANCH  14  15
ENDBRANCH  13  14
ENDBRANCH   1  13
TORSDOF 20
ENDMDL
MODEL 7
REMARK VINA RESULT:    -2.864      6.615     11.901
REMARK INTER + INTRA:          -8.743
REMARK INTER:                  -7.933
REMARK INTRA:                  -0.809
REMARK UNBOUND:                -2.530
REMARK SMILES CCCCCCCCCCCCCCCCCCCCCC(=O)[O-]
REMARK SMILES IDX 12 1 11 2 10 3 9 4 8 5 7 6 6 7 5 8 4 9 3 10 2 11 1 12 13 13
REMARK SMILES IDX 14 14 15 15 16 16 17 17 18 18 19 19 20 20 21 21 22 22 23 23
REMARK SMILES IDX 24 24
REMARK H PARENT
REMARK Flexibility Score: inf
ROOT
ATOM      1  C   UNL     1      36.281 161.342 122.003  1.00  0.00     0.000 C 
ENDROOT
BRANCH   1   2
ATOM      2  C   UNL     1      37.399 161.320 120.948  1.00  0.00     0.000 C 
BRANCH   2   3
ATOM      3  C   UNL     1      38.729 161.894 121.484  1.00  0.00     0.000 C 
BRANCH   3   4
ATOM      4  C   UNL     1      39.883 161.850 120.465  1.00  0.00    -0.000 C 
BRANCH   4   5
ATOM      5  C   UNL     1      39.493 161.355 119.061  1.00  0.00    -0.000 C 
BRANCH   5   6
ATOM      6  C   UNL     1      40.543 161.617 117.961  1.00  0.00    -0.000 C 
BRANCH   6   7
ATOM      7  C   UNL     1      41.083 160.355 117.259  1.00  0.00    -0.000 C 
BRANCH   7   8
ATOM      8  C   UNL     1      42.480 160.507 116.631  1.00  0.00    -0.000 C 
BRANCH   8   9
ATOM      9  C   UNL     1      42.814 159.383 115.640  1.00  0.00    -0.000 C 
BRANCH   9  10
ATOM     10  C   UNL     1      44.302 159.413 115.259  1.00  0.00    -0.000 C 
BRANCH  10  11
ATOM     11  C   UNL     1      45.069 158.185 115.770  1.00  0.00    -0.003 C 
ATOM     12  C   UNL     1      45.113 158.107 117.296  1.00  0.00     0.004 C 
ENDBRANCH  10  11
ENDBRANCH   9  10
ENDBRANCH   8   9
ENDBRANCH   7   8
ENDBRANCH   6   7
ENDBRANCH   5   6
ENDBRANCH   4   5
ENDBRANCH   3   4
ENDBRANCH   2   3
ENDBRANCH   1   2
BRANCH   1  13
ATOM     13  C   UNL     1      35.217 160.254 121.769  1.00  0.00     0.000 C 
BRANCH  13  14
ATOM     14  C   UNL     1      33.757 160.715 121.951  1.00  0.00     0.000 C 
BRANCH  14  15
ATOM     15  C   UNL     1      32.993 161.016 120.648  1.00  0.00     0.000 C 
BRANCH  15  16
ATOM     16  C   UNL     1      31.544 161.470 120.895  1.00  0.00     0.000 C 
BRANCH  16  17
ATOM     17  C   UNL     1      30.714 161.522 119.601  1.00  0.00     0.000 C 
BRANCH  17  18
ATOM     18  C   UNL     1      30.120 160.154 119.226  1.00  0.00     0.000 C 
BRANCH  18  19
ATOM     19  C   UNL     1      29.680 160.076 117.753  1.00  0.00     0.000 C 
BRANCH  19  20
ATOM     20  C   UNL     1      28.357 160.793 117.426  1.00  0.00     0.006 C 
BRANCH  20  21
ATOM     21  C   UNL     1      27.236 160.464 118.419  1.00  0.00     0.053 C 
BRANCH  21  22
ATOM     22  C   UNL     1      26.685 159.099 118.153  1.00  0.00     0.041 C 
ATOM     23  O   UNL     1      26.181 158.826 117.033  1.00  0.00    -0.550 OA
ATOM     24  O   UNL     1      26.684 158.143 119.161  1.00  0.00    -0.550 OA
ENDBRANCH  21  22
ENDBRANCH  20  21
ENDBRANCH  19  20
ENDBRANCH  18  19
ENDBRANCH  17  18
ENDBRANCH  16  17
ENDBRANCH  15  16
ENDBRANCH  14  15
ENDBRANCH  13  14
ENDBRANCH   1  13
TORSDOF 20
ENDMDL
MODEL 8
REMARK VINA RESULT:    -2.771      1.789      5.920
REMARK INTER + INTRA:          -8.542
REMARK INTER:                  -6.815
REMARK INTRA:                  -1.727
REMARK UNBOUND:                -2.530
REMARK SMILES CCCCCCCCCCCCCCCCCCCCCC(=O)[O-]
REMARK SMILES IDX 12 1 11 2 10 3 9 4 8 5 7 6 6 7 5 8 4 9 3 10 2 11 1 12 13 13
REMARK SMILES IDX 14 14 15 15 16 16 17 17 18 18 19 19 20 20 21 21 22 22 23 23
REMARK SMILES IDX 24 24
REMARK H PARENT
REMARK Flexibility Score: inf
ROOT
ATOM      1  C   UNL     1      29.270 160.267 117.554  1.00  0.00     0.000 C 
ENDROOT
BRANCH   1   2
ATOM      2  C   UNL     1      29.299 161.274 118.717  1.00  0.00     0.000 C 
BRANCH   2   3
ATOM      3  C   UNL     1      30.733 161.733 119.065  1.00  0.00     0.000 C 
BRANCH   3   4
ATOM      4  C   UNL     1      31.787 161.329 118.017  1.00  0.00    -0.000 C 
BRANCH   4   5
ATOM      5  C   UNL     1      32.160 159.836 118.011  1.00  0.00    -0.000 C 
BRANCH   5   6
ATOM      6  C   UNL     1      32.411 159.220 119.402  1.00  0.00    -0.000 C 
BRANCH   6   7
ATOM      7  C   UNL     1      33.219 160.103 120.373  1.00  0.00    -0.000 C 
BRANCH   7   8
ATOM      8  C   UNL     1      32.734 160.076 121.834  1.00  0.00    -0.000 C 
BRANCH   8   9
ATOM      9  C   UNL     1      31.767 158.918 122.121  1.00  0.00    -0.000 C 
BRANCH   9  10
ATOM     10  C   UNL     1      30.338 159.277 121.688  1.00  0.00    -0.000 C 
BRANCH  10  11
ATOM     11  C   UNL     1      29.332 158.153 121.977  1.00  0.00    -0.003 C 
ATOM     12  C   UNL     1      29.885 156.766 121.652  1.00  0.00     0.004 C 
ENDBRANCH  10  11
ENDBRANCH   9  10
ENDBRANCH   8   9
ENDBRANCH   7   8
ENDBRANCH   6   7
ENDBRANCH   5   6
ENDBRANCH   4   5
ENDBRANCH   3   4
ENDBRANCH   2   3
ENDBRANCH   1   2
BRANCH   1  13
ATOM     13  C   UNL     1      28.059 160.465 116.624  1.00  0.00     0.000 C 
BRANCH  13  14
ATOM     14  C   UNL     1      27.256 161.760 116.859  1.00  0.00     0.000 C 
BRANCH  14  15
ATOM     15  C   UNL     1      25.725 161.594 116.863  1.00  0.00     0.000 C 
BRANCH  15  16
ATOM     16  C   UNL     1      25.267 160.275 117.510  1.00  0.00     0.000 C 
BRANCH  16  17
ATOM     17  C   UNL     1      24.875 160.447 118.986  1.00  0.00     0.000 C 
BRANCH  17  18
ATOM     18  C   UNL     1      26.097 160.582 119.910  1.00  0.00     0.000 C 
BRANCH  18  19
ATOM     19  C   UNL     1      26.192 159.449 120.948  1.00  0.00     0.000 C 
BRANCH  19  20
ATOM     20  C   UNL     1      25.087 158.380 120.852  1.00  0.00     0.006 C 
BRANCH  20  21
ATOM     21  C   UNL     1      25.624 156.949 120.979  1.00  0.00     0.053 C 
BRANCH  21  22
ATOM     22  C   UNL     1      25.921 156.381 119.628  1.00  0.00     0.041 C 
ATOM     23  O   UNL     1      25.627 157.028 118.589  1.00  0.00    -0.550 OA
ATOM     24  O   UNL     1      26.479 155.114 119.515  1.00  0.00    -0.550 OA
ENDBRANCH  21  22
ENDBRANCH  20  21
ENDBRANCH  19  20
ENDBRANCH  18  19
ENDBRANCH  17  18
ENDBRANCH  16  17
ENDBRANCH  15  16
ENDBRANCH  14  15
ENDBRANCH  13  14
ENDBRANCH   1  13
TORSDOF 20
ENDMDL
MODEL 9
REMARK VINA RESULT:    -2.658      2.189      7.318
REMARK INTER + INTRA:          -8.297
REMARK INTER:                  -5.964
REMARK INTRA:                  -2.332
REMARK UNBOUND:                -2.530
REMARK SMILES CCCCCCCCCCCCCCCCCCCCCC(=O)[O-]
REMARK SMILES IDX 12 1 11 2 10 3 9 4 8 5 7 6 6 7 5 8 4 9 3 10 2 11 1 12 13 13
REMARK SMILES IDX 14 14 15 15 16 16 17 17 18 18 19 19 20 20 21 21 22 22 23 23
REMARK SMILES IDX 24 24
REMARK H PARENT
REMARK Flexibility Score: inf
ROOT
ATOM      1  C   UNL     1      27.926 156.157 121.782  1.00  0.00     0.000 C 
ENDROOT
BRANCH   1   2
ATOM      2  C   UNL     1      28.700 157.451 122.087  1.00  0.00     0.000 C 
BRANCH   2   3
ATOM      3  C   UNL     1      30.201 157.339 121.739  1.00  0.00     0.000 C 
BRANCH   3   4
ATOM      4  C   UNL     1      31.024 158.582 122.125  1.00  0.00    -0.000 C 
BRANCH   4   5
ATOM      5  C   UNL     1      30.308 159.928 121.918  1.00  0.00    -0.000 C 
BRANCH   5   6
ATOM      6  C   UNL     1      30.886 160.809 120.792  1.00  0.00    -0.000 C 
BRANCH   6   7
ATOM      7  C   UNL     1      31.935 160.122 119.896  1.00  0.00    -0.000 C 
BRANCH   7   8
ATOM      8  C   UNL     1      33.386 160.584 120.121  1.00  0.00    -0.000 C 
BRANCH   8   9
ATOM      9  C   UNL     1      33.500 161.708 121.160  1.00  0.00    -0.000 C 
BRANCH   9  10
ATOM     10  C   UNL     1      34.709 161.483 122.081  1.00  0.00    -0.000 C 
BRANCH  10  11
ATOM     11  C   UNL     1      35.555 160.272 121.662  1.00  0.00    -0.003 C 
ATOM     12  C   UNL     1      36.976 160.656 121.253  1.00  0.00     0.004 C 
ENDBRANCH  10  11
ENDBRANCH   9  10
ENDBRANCH   8   9
ENDBRANCH   7   8
ENDBRANCH   6   7
ENDBRANCH   5   6
ENDBRANCH   4   5
ENDBRANCH   3   4
ENDBRANCH   2   3
ENDBRANCH   1   2
BRANCH   1  13
ATOM     13  C   UNL     1      26.447 156.412 121.439  1.00  0.00     0.000 C 
BRANCH  13  14
ATOM     14  C   UNL     1      26.009 155.940 120.038  1.00  0.00     0.000 C 
BRANCH  14  15
ATOM     15  C   UNL     1      25.683 157.064 119.037  1.00  0.00     0.000 C 
BRANCH  15  16
ATOM     16  C   UNL     1      26.221 158.435 119.480  1.00  0.00     0.000 C 
BRANCH  16  17
ATOM     17  C   UNL     1      25.113 159.496 119.591  1.00  0.00     0.000 C 
BRANCH  17  18
ATOM     18  C   UNL     1      25.646 160.857 120.068  1.00  0.00     0.000 C 
BRANCH  18  19
ATOM     19  C   UNL     1      27.183 160.904 120.151  1.00  0.00     0.000 C 
BRANCH  19  20
ATOM     20  C   UNL     1      27.867 161.808 119.108  1.00  0.00     0.006 C 
BRANCH  20  21
ATOM     21  C   UNL     1      27.307 161.620 117.693  1.00  0.00     0.053 C 
BRANCH  21  22
ATOM     22  C   UNL     1      28.095 160.587 116.952  1.00  0.00     0.041 C 
ATOM     23  O   UNL     1      28.910 159.851 117.566  1.00  0.00    -0.550 OA
ATOM     24  O   UNL     1      27.965 160.471 115.573  1.00  0.00    -0.550 OA
ENDBRANCH  21  22
ENDBRANCH  20  21
ENDBRANCH  19  20
ENDBRANCH  18  19
ENDBRANCH  17  18
ENDBRANCH  16  17
ENDBRANCH  15  16
ENDBRANCH  14  15
ENDBRANCH  13  14
ENDBRANCH   1  13
TORSDOF 20
ENDMDL
