MODEL 1
REMARK VINA RESULT:    -2.814      0.000      0.000
REMARK INTER + INTRA:         -13.213
REMARK INTER:                  -7.092
REMARK INTRA:                  -6.121
REMARK UNBOUND:                -6.121
REMARK SMILES CCCCCCCCCCCCCCCCCCCCCCCCCCCC(=O)[O-]
REMARK SMILES IDX 15 1 16 2 17 3 18 4 19 5 20 6 21 7 22 8 23 9 24 10 25 11
REMARK SMILES IDX 26 12 27 13 28 14 29 15 30 16 14 17 13 18 12 19 11 20 10 21
REMARK SMILES IDX 9 22 8 23 7 24 6 25 5 26 4 27 3 28 2 29 1 30
REMARK H PARENT
REMARK Flexibility Score: inf
ROOT
ATOM      1  C   UNL     1     -99.367  68.485  24.270  1.00  0.00     0.000 C 
ENDROOT
BRANCH   1   2
ATOM      2  C   UNL     1     -99.290  69.075  25.690  1.00  0.00     0.000 C 
BRANCH   2   3
ATOM      3  C   UNL     1    -100.581  68.941  26.527  1.00  0.00     0.000 C 
BRANCH   3   4
ATOM      4  C   UNL     1    -100.386  68.427  27.966  1.00  0.00     0.000 C 
BRANCH   4   5
ATOM      5  C   UNL     1     -99.066  68.907  28.597  1.00  0.00     0.000 C 
BRANCH   5   6
ATOM      6  C   UNL     1     -99.281  69.657  29.921  1.00  0.00     0.000 C 
BRANCH   6   7
ATOM      7  C   UNL     1     -98.693  71.079  29.904  1.00  0.00     0.000 C 
BRANCH   7   8
ATOM      8  C   UNL     1     -98.208  71.498  28.507  1.00  0.00     0.000 C 
BRANCH   8   9
ATOM      9  C   UNL     1     -98.964  72.723  27.958  1.00  0.00     0.000 C 
BRANCH   9  10
ATOM     10  C   UNL     1    -100.231  72.333  27.180  1.00  0.00     0.000 C 
BRANCH  10  11
ATOM     11  C   UNL     1    -101.504  72.950  27.778  1.00  0.00     0.000 C 
BRANCH  11  12
ATOM     12  C   UNL     1    -102.067  72.062  28.898  1.00  0.00     0.006 C 
BRANCH  12  13
ATOM     13  C   UNL     1    -103.012  70.979  28.361  1.00  0.00     0.053 C 
BRANCH  13  14
ATOM     14  C   UNL     1    -104.398  71.129  28.907  1.00  0.00     0.041 C 
ATOM     15  O   UNL     1    -104.681  70.685  30.053  1.00  0.00    -0.550 OA
ATOM     16  O   UNL     1    -105.383  71.746  28.147  1.00  0.00    -0.550 OA
ENDBRANCH  13  14
ENDBRANCH  12  13
ENDBRANCH  11  12
ENDBRANCH  10  11
ENDBRANCH   9  10
ENDBRANCH   8   9
ENDBRANCH   7   8
ENDBRANCH   6   7
ENDBRANCH   5   6
ENDBRANCH   4   5
ENDBRANCH   3   4
ENDBRANCH   2   3
ENDBRANCH   1   2
BRANCH   1  17
ATOM     17  C   UNL     1     -99.041  69.511  23.175  1.00  0.00     0.000 C 
BRANCH  17  18
ATOM     18  C   UNL     1     -98.539  70.826  23.789  1.00  0.00     0.000 C 
BRANCH  18  19
ATOM     19  C   UNL     1     -97.550  71.562  22.870  1.00  0.00     0.000 C 
BRANCH  19  20
ATOM     20  C   UNL     1     -96.928  72.796  23.547  1.00  0.00     0.000 C 
BRANCH  20  21
ATOM     21  C   UNL     1     -97.869  73.434  24.591  1.00  0.00     0.000 C 
BRANCH  21  22
ATOM     22  C   UNL     1     -98.815  74.503  24.010  1.00  0.00    -0.000 C 
BRANCH  22  23
ATOM     23  C   UNL     1    -100.309  74.122  24.002  1.00  0.00    -0.000 C 
BRANCH  23  24
ATOM     24  C   UNL     1    -100.984  74.164  22.617  1.00  0.00    -0.000 C 
BRANCH  24  25
ATOM     25  C   UNL     1    -100.296  73.323  21.526  1.00  0.00    -0.000 C 
BRANCH  25  26
ATOM     26  C   UNL     1    -101.002  71.985  21.222  1.00  0.00    -0.000 C 
BRANCH  26  27
ATOM     27  C   UNL     1    -102.377  71.872  21.905  1.00  0.00    -0.000 C 
BRANCH  27  28
ATOM     28  C   UNL     1    -102.467  70.682  22.878  1.00  0.00    -0.000 C 
BRANCH  28  29
ATOM     29  C   UNL     1    -102.386  71.059  24.368  1.00  0.00    -0.003 C 
ATOM     30  C   UNL     1    -103.495  72.016  24.807  1.00  0.00     0.004 C 
ENDBRANCH  28  29
ENDBRANCH  27  28
ENDBRANCH  26  27
ENDBRANCH  25  26
ENDBRANCH  24  25
ENDBRANCH  23  24
ENDBRANCH  22  23
ENDBRANCH  21  22
ENDBRANCH  20  21
ENDBRANCH  19  20
ENDBRANCH  18  19
ENDBRANCH  17  18
ENDBRANCH   1  17
TORSDOF 26
ENDMDL
MODEL 2
REMARK VINA RESULT:    -2.793      1.717      3.497
REMARK INTER + INTRA:         -13.160
REMARK INTER:                  -7.900
REMARK INTRA:                  -5.259
REMARK UNBOUND:                -6.121
REMARK SMILES CCCCCCCCCCCCCCCCCCCCCCCCCCCC(=O)[O-]
REMARK SMILES IDX 15 1 16 2 17 3 18 4 19 5 20 6 21 7 22 8 23 9 24 10 25 11
REMARK SMILES IDX 26 12 27 13 28 14 29 15 30 16 14 17 13 18 12 19 11 20 10 21
REMARK SMILES IDX 9 22 8 23 7 24 6 25 5 26 4 27 3 28 2 29 1 30
REMARK H PARENT
REMARK Flexibility Score: inf
ROOT
ATOM      1  C   UNL     1    -102.158  70.743  25.711  1.00  0.00     0.000 C 
ENDROOT
BRANCH   1   2
ATOM      2  C   UNL     1    -102.002  70.102  27.102  1.00  0.00     0.000 C 
BRANCH   2   3
ATOM      3  C   UNL     1    -101.114  68.839  27.147  1.00  0.00     0.000 C 
BRANCH   3   4
ATOM      4  C   UNL     1     -99.969  68.799  26.118  1.00  0.00     0.000 C 
BRANCH   4   5
ATOM      5  C   UNL     1     -98.619  69.241  26.709  1.00  0.00     0.000 C 
BRANCH   5   6
ATOM      6  C   UNL     1     -98.583  69.145  28.243  1.00  0.00     0.000 C 
BRANCH   6   7
ATOM      7  C   UNL     1     -98.197  70.473  28.917  1.00  0.00     0.000 C 
BRANCH   7   8
ATOM      8  C   UNL     1     -99.272  70.969  29.897  1.00  0.00     0.000 C 
BRANCH   8   9
ATOM      9  C   UNL     1    -100.124  69.823  30.476  1.00  0.00     0.000 C 
BRANCH   9  10
ATOM     10  C   UNL     1    -101.544  70.277  30.848  1.00  0.00     0.000 C 
BRANCH  10  11
ATOM     11  C   UNL     1    -101.816  71.740  30.467  1.00  0.00     0.000 C 
BRANCH  11  12
ATOM     12  C   UNL     1    -103.309  71.962  30.185  1.00  0.00     0.006 C 
BRANCH  12  13
ATOM     13  C   UNL     1    -104.088  70.643  30.106  1.00  0.00     0.053 C 
BRANCH  13  14
ATOM     14  C   UNL     1    -105.256  70.629  31.043  1.00  0.00     0.041 C 
ATOM     15  O   UNL     1    -106.368  71.096  30.679  1.00  0.00    -0.550 OA
ATOM     16  O   UNL     1    -105.114  70.112  32.325  1.00  0.00    -0.550 OA
ENDBRANCH  13  14
ENDBRANCH  12  13
ENDBRANCH  11  12
ENDBRANCH  10  11
ENDBRANCH   9  10
ENDBRANCH   8   9
ENDBRANCH   7   8
ENDBRANCH   6   7
ENDBRANCH   5   6
ENDBRANCH   4   5
ENDBRANCH   3   4
ENDBRANCH   2   3
ENDBRANCH   1   2
BRANCH   1  17
ATOM     17  C   UNL     1    -101.582  72.165  25.637  1.00  0.00     0.000 C 
BRANCH  17  18
ATOM     18  C   UNL     1    -100.871  72.536  26.947  1.00  0.00     0.000 C 
BRANCH  18  19
ATOM     19  C   UNL     1     -99.482  73.151  26.705  1.00  0.00     0.000 C 
BRANCH  19  20
ATOM     20  C   UNL     1     -98.792  72.568  25.460  1.00  0.00     0.000 C 
BRANCH  20  21
ATOM     21  C   UNL     1     -98.351  73.662  24.463  1.00  0.00     0.000 C 
BRANCH  21  22
ATOM     22  C   UNL     1     -97.122  74.470  24.924  1.00  0.00    -0.000 C 
BRANCH  22  23
ATOM     23  C   UNL     1     -95.869  74.320  24.039  1.00  0.00    -0.000 C 
BRANCH  23  24
ATOM     24  C   UNL     1     -95.664  72.918  23.432  1.00  0.00    -0.000 C 
BRANCH  24  25
ATOM     25  C   UNL     1     -95.557  72.878  21.895  1.00  0.00    -0.000 C 
BRANCH  25  26
ATOM     26  C   UNL     1     -96.354  71.732  21.239  1.00  0.00    -0.000 C 
BRANCH  26  27
ATOM     27  C   UNL     1     -97.679  72.212  20.618  1.00  0.00    -0.000 C 
BRANCH  27  28
ATOM     28  C   UNL     1     -98.913  71.774  21.428  1.00  0.00    -0.000 C 
BRANCH  28  29
ATOM     29  C   UNL     1     -98.685  70.560  22.346  1.00  0.00    -0.003 C 
ATOM     30  C   UNL     1     -99.983  69.867  22.761  1.00  0.00     0.004 C 
ENDBRANCH  28  29
ENDBRANCH  27  28
ENDBRANCH  26  27
ENDBRANCH  25  26
ENDBRANCH  24  25
ENDBRANCH  23  24
ENDBRANCH  22  23
ENDBRANCH  21  22
ENDBRANCH  20  21
ENDBRANCH  19  20
ENDBRANCH  18  19
ENDBRANCH  17  18
ENDBRANCH   1  17
TORSDOF 26
ENDMDL
MODEL 3
REMARK VINA RESULT:    -2.782      1.376      2.103
REMARK INTER + INTRA:         -13.131
REMARK INTER:                  -7.507
REMARK INTRA:                  -5.623
REMARK UNBOUND:                -6.121
REMARK SMILES CCCCCCCCCCCCCCCCCCCCCCCCCCCC(=O)[O-]
REMARK SMILES IDX 15 1 16 2 17 3 18 4 19 5 20 6 21 7 22 8 23 9 24 10 25 11
REMARK SMILES IDX 26 12 27 13 28 14 29 15 30 16 14 17 13 18 12 19 11 20 10 21
REMARK SMILES IDX 9 22 8 23 7 24 6 25 5 26 4 27 3 28 2 29 1 30
REMARK H PARENT
REMARK Flexibility Score: inf
ROOT
ATOM      1  C   UNL     1     -99.096  68.379  24.588  1.00  0.00     0.000 C 
ENDROOT
BRANCH   1   2
ATOM      2  C   UNL     1     -99.264  69.132  25.920  1.00  0.00     0.000 C 
BRANCH   2   3
ATOM      3  C   UNL     1    -100.677  69.064  26.540  1.00  0.00     0.000 C 
BRANCH   3   4
ATOM      4  C   UNL     1    -100.743  68.514  27.977  1.00  0.00     0.000 C 
BRANCH   4   5
ATOM      5  C   UNL     1     -99.400  68.624  28.720  1.00  0.00     0.000 C 
BRANCH   5   6
ATOM      6  C   UNL     1     -99.550  69.214  30.132  1.00  0.00     0.000 C 
BRANCH   6   7
ATOM      7  C   UNL     1     -98.938  70.619  30.262  1.00  0.00     0.000 C 
BRANCH   7   8
ATOM      8  C   UNL     1     -98.349  71.128  28.936  1.00  0.00     0.000 C 
BRANCH   8   9
ATOM      9  C   UNL     1     -98.970  72.463  28.482  1.00  0.00     0.000 C 
BRANCH   9  10
ATOM     10  C   UNL     1    -100.320  72.745  29.162  1.00  0.00     0.000 C 
BRANCH  10  11
ATOM     11  C   UNL     1    -101.508  72.172  28.376  1.00  0.00     0.000 C 
BRANCH  11  12
ATOM     12  C   UNL     1    -102.763  72.101  29.258  1.00  0.00     0.006 C 
BRANCH  12  13
ATOM     13  C   UNL     1    -103.166  70.656  29.581  1.00  0.00     0.053 C 
BRANCH  13  14
ATOM     14  C   UNL     1    -103.403  70.459  31.047  1.00  0.00     0.041 C 
ATOM     15  O   UNL     1    -102.996  71.315  31.877  1.00  0.00    -0.550 OA
ATOM     16  O   UNL     1    -104.062  69.322  31.498  1.00  0.00    -0.550 OA
ENDBRANCH  13  14
ENDBRANCH  12  13
ENDBRANCH  11  12
ENDBRANCH  10  11
ENDBRANCH   9  10
ENDBRANCH   8   9
ENDBRANCH   7   8
ENDBRANCH   6   7
ENDBRANCH   5   6
ENDBRANCH   4   5
ENDBRANCH   3   4
ENDBRANCH   2   3
ENDBRANCH   1   2
BRANCH   1  17
ATOM     17  C   UNL     1     -99.689  69.136  23.391  1.00  0.00     0.000 C 
BRANCH  17  18
ATOM     18  C   UNL     1     -98.615  69.986  22.696  1.00  0.00     0.000 C 
BRANCH  18  19
ATOM     19  C   UNL     1     -99.219  71.152  21.896  1.00  0.00     0.000 C 
BRANCH  19  20
ATOM     20  C   UNL     1     -98.225  72.312  21.711  1.00  0.00     0.000 C 
BRANCH  20  21
ATOM     21  C   UNL     1     -97.001  72.196  22.645  1.00  0.00     0.000 C 
BRANCH  21  22
ATOM     22  C   UNL     1     -96.994  73.221  23.797  1.00  0.00    -0.000 C 
BRANCH  22  23
ATOM     23  C   UNL     1     -97.974  72.920  24.948  1.00  0.00    -0.000 C 
BRANCH  23  24
ATOM     24  C   UNL     1     -99.088  73.967  25.145  1.00  0.00    -0.000 C 
BRANCH  24  25
ATOM     25  C   UNL     1    -100.441  73.615  24.498  1.00  0.00    -0.000 C 
BRANCH  25  26
ATOM     26  C   UNL     1    -100.965  72.208  24.858  1.00  0.00    -0.000 C 
BRANCH  26  27
ATOM     27  C   UNL     1    -102.499  72.108  24.776  1.00  0.00    -0.000 C 
BRANCH  27  28
ATOM     28  C   UNL     1    -102.977  70.899  23.951  1.00  0.00    -0.000 C 
BRANCH  28  29
ATOM     29  C   UNL     1    -102.896  71.088  22.425  1.00  0.00    -0.003 C 
ATOM     30  C   UNL     1    -102.893  69.767  21.655  1.00  0.00     0.004 C 
ENDBRANCH  28  29
ENDBRANCH  27  28
ENDBRANCH  26  27
ENDBRANCH  25  26
ENDBRANCH  24  25
ENDBRANCH  23  24
ENDBRANCH  22  23
ENDBRANCH  21  22
ENDBRANCH  20  21
ENDBRANCH  19  20
ENDBRANCH  18  19
ENDBRANCH  17  18
ENDBRANCH   1  17
TORSDOF 26
ENDMDL
MODEL 4
REMARK VINA RESULT:    -2.776      1.785      5.990
REMARK INTER + INTRA:         -13.115
REMARK INTER:                  -7.901
REMARK INTRA:                  -5.214
REMARK UNBOUND:                -6.121
REMARK SMILES CCCCCCCCCCCCCCCCCCCCCCCCCCCC(=O)[O-]
REMARK SMILES IDX 15 1 16 2 17 3 18 4 19 5 20 6 21 7 22 8 23 9 24 10 25 11
REMARK SMILES IDX 26 12 27 13 28 14 29 15 30 16 14 17 13 18 12 19 11 20 10 21
REMARK SMILES IDX 9 22 8 23 7 24 6 25 5 26 4 27 3 28 2 29 1 30
REMARK H PARENT
REMARK Flexibility Score: inf
ROOT
ATOM      1  C   UNL     1     -98.599  70.184  22.568  1.00  0.00     0.000 C 
ENDROOT
BRANCH   1   2
ATOM      2  C   UNL     1     -99.054  71.468  21.850  1.00  0.00     0.000 C 
BRANCH   2   3
ATOM      3  C   UNL     1     -97.983  72.138  20.960  1.00  0.00     0.000 C 
BRANCH   3   4
ATOM      4  C   UNL     1     -96.530  71.716  21.244  1.00  0.00     0.000 C 
BRANCH   4   5
ATOM      5  C   UNL     1     -95.707  72.826  21.921  1.00  0.00     0.000 C 
BRANCH   5   6
ATOM      6  C   UNL     1     -95.908  72.867  23.445  1.00  0.00     0.000 C 
BRANCH   6   7
ATOM      7  C   UNL     1     -96.613  74.149  23.920  1.00  0.00     0.000 C 
BRANCH   7   8
ATOM      8  C   UNL     1     -98.082  73.904  24.303  1.00  0.00     0.000 C 
BRANCH   8   9
ATOM      9  C   UNL     1     -98.231  73.017  25.553  1.00  0.00     0.000 C 
BRANCH   9  10
ATOM     10  C   UNL     1     -99.701  72.799  25.948  1.00  0.00     0.000 C 
BRANCH  10  11
ATOM     11  C   UNL     1    -100.672  73.095  24.794  1.00  0.00     0.000 C 
BRANCH  11  12
ATOM     12  C   UNL     1    -101.801  72.054  24.751  1.00  0.00     0.006 C 
BRANCH  12  13
ATOM     13  C   UNL     1    -102.573  72.091  23.426  1.00  0.00     0.053 C 
BRANCH  13  14
ATOM     14  C   UNL     1    -104.011  71.714  23.610  1.00  0.00     0.041 C 
ATOM     15  O   UNL     1    -104.457  70.647  23.110  1.00  0.00    -0.550 OA
ATOM     16  O   UNL     1    -104.864  72.548  24.323  1.00  0.00    -0.550 OA
ENDBRANCH  13  14
ENDBRANCH  12  13
ENDBRANCH  11  12
ENDBRANCH  10  11
ENDBRANCH   9  10
ENDBRANCH   8   9
ENDBRANCH   7   8
ENDBRANCH   6   7
ENDBRANCH   5   6
ENDBRANCH   4   5
ENDBRANCH   3   4
ENDBRANCH   2   3
ENDBRANCH   1   2
BRANCH   1  17
ATOM     17  C   UNL     1     -99.658  69.624  23.528  1.00  0.00     0.000 C 
BRANCH  17  18
ATOM     18  C   UNL     1     -99.007  68.749  24.609  1.00  0.00     0.000 C 
BRANCH  18  19
ATOM     19  C   UNL     1     -99.167  69.344  26.019  1.00  0.00     0.000 C 
BRANCH  19  20
ATOM     20  C   UNL     1    -100.564  69.083  26.609  1.00  0.00     0.000 C 
BRANCH  20  21
ATOM     21  C   UNL     1    -100.502  68.521  28.046  1.00  0.00     0.000 C 
BRANCH  21  22
ATOM     22  C   UNL     1     -99.128  68.685  28.724  1.00  0.00    -0.000 C 
BRANCH  22  23
ATOM     23  C   UNL     1     -99.056  69.782  29.804  1.00  0.00    -0.000 C 
BRANCH  23  24
ATOM     24  C   UNL     1     -98.484  71.131  29.326  1.00  0.00    -0.000 C 
BRANCH  24  25
ATOM     25  C   UNL     1     -99.437  72.333  29.461  1.00  0.00    -0.000 C 
BRANCH  25  26
ATOM     26  C   UNL     1    -100.885  71.950  29.836  1.00  0.00    -0.000 C 
BRANCH  26  27
ATOM     27  C   UNL     1    -101.842  72.000  28.632  1.00  0.00    -0.000 C 
BRANCH  27  28
ATOM     28  C   UNL     1    -103.085  71.111  28.817  1.00  0.00    -0.000 C 
BRANCH  28  29
ATOM     29  C   UNL     1    -103.078  70.250  30.093  1.00  0.00    -0.003 C 
ATOM     30  C   UNL     1    -104.181  70.632  31.082  1.00  0.00     0.004 C 
ENDBRANCH  28  29
ENDBRANCH  27  28
ENDBRANCH  26  27
ENDBRANCH  25  26
ENDBRANCH  24  25
ENDBRANCH  23  24
ENDBRANCH  22  23
ENDBRANCH  21  22
ENDBRANCH  20  21
ENDBRANCH  19  20
ENDBRANCH  18  19
ENDBRANCH  17  18
ENDBRANCH   1  17
TORSDOF 26
ENDMDL
MODEL 5
REMARK VINA RESULT:    -2.765      2.259      3.704
REMARK INTER + INTRA:         -13.089
REMARK INTER:                  -7.555
REMARK INTRA:                  -5.534
REMARK UNBOUND:                -6.121
REMARK SMILES CCCCCCCCCCCCCCCCCCCCCCCCCCCC(=O)[O-]
REMARK SMILES IDX 15 1 16 2 17 3 18 4 19 5 20 6 21 7 22 8 23 9 24 10 25 11
REMARK SMILES IDX 26 12 27 13 28 14 29 15 30 16 14 17 13 18 12 19 11 20 10 21
REMARK SMILES IDX 9 22 8 23 7 24 6 25 5 26 4 27 3 28 2 29 1 30
REMARK H PARENT
REMARK Flexibility Score: inf
ROOT
ATOM      1  C   UNL     1     -98.471  70.631  23.433  1.00  0.00     0.000 C 
ENDROOT
BRANCH   1   2
ATOM      2  C   UNL     1     -99.207  69.589  24.294  1.00  0.00     0.000 C 
BRANCH   2   3
ATOM      3  C   UNL     1     -99.317  69.936  25.795  1.00  0.00     0.000 C 
BRANCH   3   4
ATOM      4  C   UNL     1     -98.636  71.250  26.221  1.00  0.00     0.000 C 
BRANCH   4   5
ATOM      5  C   UNL     1     -98.396  71.334  27.739  1.00  0.00     0.000 C 
BRANCH   5   6
ATOM      6  C   UNL     1     -99.099  72.540  28.384  1.00  0.00     0.000 C 
BRANCH   6   7
ATOM      7  C   UNL     1    -100.244  73.097  27.521  1.00  0.00     0.000 C 
BRANCH   7   8
ATOM      8  C   UNL     1    -101.630  72.719  28.068  1.00  0.00     0.000 C 
BRANCH   8   9
ATOM      9  C   UNL     1    -102.349  71.672  27.196  1.00  0.00     0.000 C 
BRANCH   9  10
ATOM     10  C   UNL     1    -102.302  70.263  27.808  1.00  0.00     0.000 C 
BRANCH  10  11
ATOM     11  C   UNL     1    -102.422  70.281  29.340  1.00  0.00     0.000 C 
BRANCH  11  12
ATOM     12  C   UNL     1    -101.159  69.699  29.993  1.00  0.00     0.006 C 
BRANCH  12  13
ATOM     13  C   UNL     1    -100.403  68.752  29.052  1.00  0.00     0.053 C 
BRANCH  13  14
ATOM     14  C   UNL     1     -99.108  68.293  29.647  1.00  0.00     0.041 C 
ATOM     15  O   UNL     1     -98.153  67.948  28.901  1.00  0.00    -0.550 OA
ATOM     16  O   UNL     1     -98.958  68.233  31.027  1.00  0.00    -0.550 OA
ENDBRANCH  13  14
ENDBRANCH  12  13
ENDBRANCH  11  12
ENDBRANCH  10  11
ENDBRANCH   9  10
ENDBRANCH   8   9
ENDBRANCH   7   8
ENDBRANCH   6   7
ENDBRANCH   5   6
ENDBRANCH   4   5
ENDBRANCH   3   4
ENDBRANCH   2   3
ENDBRANCH   1   2
BRANCH   1  17
ATOM     17  C   UNL     1     -99.031  70.736  22.007  1.00  0.00     0.000 C 
BRANCH  17  18
ATOM     18  C   UNL     1     -98.240  71.765  21.184  1.00  0.00     0.000 C 
BRANCH  18  19
ATOM     19  C   UNL     1     -96.722  71.536  21.264  1.00  0.00     0.000 C 
BRANCH  19  20
ATOM     20  C   UNL     1     -95.919  72.762  20.796  1.00  0.00     0.000 C 
BRANCH  20  21
ATOM     21  C   UNL     1     -95.230  73.499  21.965  1.00  0.00     0.000 C 
BRANCH  21  22
ATOM     22  C   UNL     1     -95.599  72.947  23.356  1.00  0.00    -0.000 C 
BRANCH  22  23
ATOM     23  C   UNL     1     -96.417  73.905  24.245  1.00  0.00    -0.000 C 
BRANCH  23  24
ATOM     24  C   UNL     1     -97.645  74.539  23.563  1.00  0.00    -0.000 C 
BRANCH  24  25
ATOM     25  C   UNL     1     -98.982  74.338  24.301  1.00  0.00    -0.000 C 
BRANCH  25  26
ATOM     26  C   UNL     1    -100.173  74.024  23.371  1.00  0.00    -0.000 C 
BRANCH  26  27
ATOM     27  C   UNL     1    -101.218  73.109  24.036  1.00  0.00    -0.000 C 
BRANCH  27  28
ATOM     28  C   UNL     1    -102.091  72.356  23.015  1.00  0.00    -0.000 C 
BRANCH  28  29
ATOM     29  C   UNL     1    -102.537  73.195  21.805  1.00  0.00    -0.003 C 
ATOM     30  C   UNL     1    -101.753  72.879  20.531  1.00  0.00     0.004 C 
ENDBRANCH  28  29
ENDBRANCH  27  28
ENDBRANCH  26  27
ENDBRANCH  25  26
ENDBRANCH  24  25
ENDBRANCH  23  24
ENDBRANCH  22  23
ENDBRANCH  21  22
ENDBRANCH  20  21
ENDBRANCH  19  20
ENDBRANCH  18  19
ENDBRANCH  17  18
ENDBRANCH   1  17
TORSDOF 26
ENDMDL
MODEL 6
REMARK VINA RESULT:    -2.721      2.375      3.724
REMARK INTER + INTRA:         -12.978
REMARK INTER:                  -7.513
REMARK INTRA:                  -5.465
REMARK UNBOUND:                -6.121
REMARK SMILES CCCCCCCCCCCCCCCCCCCCCCCCCCCC(=O)[O-]
REMARK SMILES IDX 15 1 16 2 17 3 18 4 19 5 20 6 21 7 22 8 23 9 24 10 25 11
REMARK SMILES IDX 26 12 27 13 28 14 29 15 30 16 14 17 13 18 12 19 11 20 10 21
REMARK SMILES IDX 9 22 8 23 7 24 6 25 5 26 4 27 3 28 2 29 1 30
REMARK H PARENT
REMARK Flexibility Score: inf
ROOT
ATOM      1  C   UNL     1     -98.228  70.637  22.662  1.00  0.00     0.000 C 
ENDROOT
BRANCH   1   2
ATOM      2  C   UNL     1     -99.539  69.860  22.880  1.00  0.00     0.000 C 
BRANCH   2   3
ATOM      3  C   UNL     1     -99.414  68.593  23.754  1.00  0.00     0.000 C 
BRANCH   3   4
ATOM      4  C   UNL     1     -99.135  68.845  25.248  1.00  0.00     0.000 C 
BRANCH   4   5
ATOM      5  C   UNL     1    -100.396  69.253  26.030  1.00  0.00     0.000 C 
BRANCH   5   6
ATOM      6  C   UNL     1    -100.486  70.770  26.259  1.00  0.00     0.000 C 
BRANCH   6   7
ATOM      7  C   UNL     1     -99.173  71.374  26.789  1.00  0.00     0.000 C 
BRANCH   7   8
ATOM      8  C   UNL     1     -99.406  72.639  27.631  1.00  0.00     0.000 C 
BRANCH   8   9
ATOM      9  C   UNL     1    -100.832  72.716  28.207  1.00  0.00     0.000 C 
BRANCH   9  10
ATOM     10  C   UNL     1    -100.933  72.105  29.614  1.00  0.00     0.000 C 
BRANCH  10  11
ATOM     11  C   UNL     1    -101.910  70.921  29.675  1.00  0.00     0.000 C 
BRANCH  11  12
ATOM     12  C   UNL     1    -101.149  69.588  29.726  1.00  0.00     0.006 C 
BRANCH  12  13
ATOM     13  C   UNL     1     -99.681  69.773  30.132  1.00  0.00     0.053 C 
BRANCH  13  14
ATOM     14  C   UNL     1     -98.854  68.570  29.794  1.00  0.00     0.041 C 
ATOM     15  O   UNL     1     -98.737  67.627  30.621  1.00  0.00    -0.550 OA
ATOM     16  O   UNL     1     -98.202  68.496  28.570  1.00  0.00    -0.550 OA
ENDBRANCH  13  14
ENDBRANCH  12  13
ENDBRANCH  11  12
ENDBRANCH  10  11
ENDBRANCH   9  10
ENDBRANCH   8   9
ENDBRANCH   7   8
ENDBRANCH   6   7
ENDBRANCH   5   6
ENDBRANCH   4   5
ENDBRANCH   3   4
ENDBRANCH   2   3
ENDBRANCH   1   2
BRANCH   1  17
ATOM     17  C   UNL     1     -98.096  71.863  23.577  1.00  0.00     0.000 C 
BRANCH  17  18
ATOM     18  C   UNL     1     -96.656  72.397  23.570  1.00  0.00     0.000 C 
BRANCH  18  19
ATOM     19  C   UNL     1     -96.600  73.932  23.646  1.00  0.00     0.000 C 
BRANCH  19  20
ATOM     20  C   UNL     1     -95.738  74.542  22.527  1.00  0.00     0.000 C 
BRANCH  20  21
ATOM     21  C   UNL     1     -95.156  73.472  21.579  1.00  0.00     0.000 C 
BRANCH  21  22
ATOM     22  C   UNL     1     -95.695  73.553  20.137  1.00  0.00    -0.000 C 
BRANCH  22  23
ATOM     23  C   UNL     1     -97.068  72.890  19.912  1.00  0.00    -0.000 C 
BRANCH  23  24
ATOM     24  C   UNL     1     -98.238  73.870  19.698  1.00  0.00    -0.000 C 
BRANCH  24  25
ATOM     25  C   UNL     1     -99.105  74.139  20.942  1.00  0.00    -0.000 C 
BRANCH  25  26
ATOM     26  C   UNL     1    -100.352  73.237  21.048  1.00  0.00    -0.000 C 
BRANCH  26  27
ATOM     27  C   UNL     1    -101.414  73.804  22.008  1.00  0.00    -0.000 C 
BRANCH  27  28
ATOM     28  C   UNL     1    -101.509  73.018  23.328  1.00  0.00    -0.000 C 
BRANCH  28  29
ATOM     29  C   UNL     1    -101.357  73.872  24.600  1.00  0.00    -0.003 C 
ATOM     30  C   UNL     1    -100.096  74.737  24.596  1.00  0.00     0.004 C 
ENDBRANCH  28  29
ENDBRANCH  27  28
ENDBRANCH  26  27
ENDBRANCH  25  26
ENDBRANCH  24  25
ENDBRANCH  23  24
ENDBRANCH  22  23
ENDBRANCH  21  22
ENDBRANCH  20  21
ENDBRANCH  19  20
ENDBRANCH  18  19
ENDBRANCH  17  18
ENDBRANCH   1  17
TORSDOF 26
ENDMDL
MODEL 7
REMARK VINA RESULT:    -2.719      2.068      4.744
REMARK INTER + INTRA:         -12.973
REMARK INTER:                  -7.429
REMARK INTRA:                  -5.544
REMARK UNBOUND:                -6.121
REMARK SMILES CCCCCCCCCCCCCCCCCCCCCCCCCCCC(=O)[O-]
REMARK SMILES IDX 15 1 16 2 17 3 18 4 19 5 20 6 21 7 22 8 23 9 24 10 25 11
REMARK SMILES IDX 26 12 27 13 28 14 29 15 30 16 14 17 13 18 12 19 11 20 10 21
REMARK SMILES IDX 9 22 8 23 7 24 6 25 5 26 4 27 3 28 2 29 1 30
REMARK H PARENT
REMARK Flexibility Score: inf
ROOT
ATOM      1  C   UNL     1     -98.286  73.124  24.754  1.00  0.00     0.000 C 
ENDROOT
BRANCH   1   2
ATOM      2  C   UNL     1     -98.596  73.142  26.261  1.00  0.00     0.000 C 
BRANCH   2   3
ATOM      3  C   UNL     1    -100.078  73.383  26.624  1.00  0.00     0.000 C 
BRANCH   3   4
ATOM      4  C   UNL     1    -101.077  73.222  25.463  1.00  0.00     0.000 C 
BRANCH   4   5
ATOM      5  C   UNL     1    -101.959  71.968  25.604  1.00  0.00     0.000 C 
BRANCH   5   6
ATOM      6  C   UNL     1    -101.617  71.140  26.853  1.00  0.00     0.000 C 
BRANCH   6   7
ATOM      7  C   UNL     1    -101.949  69.647  26.690  1.00  0.00     0.000 C 
BRANCH   7   8
ATOM      8  C   UNL     1    -100.788  68.736  27.121  1.00  0.00     0.000 C 
BRANCH   8   9
ATOM      9  C   UNL     1    -100.416  68.909  28.606  1.00  0.00     0.000 C 
BRANCH   9  10
ATOM     10  C   UNL     1     -98.896  68.955  28.831  1.00  0.00     0.000 C 
BRANCH  10  11
ATOM     11  C   UNL     1     -98.338  70.385  28.800  1.00  0.00     0.000 C 
BRANCH  11  12
ATOM     12  C   UNL     1     -99.235  71.339  29.603  1.00  0.00     0.006 C 
BRANCH  12  13
ATOM     13  C   UNL     1     -98.904  71.324  31.101  1.00  0.00     0.053 C 
BRANCH  13  14
ATOM     14  C   UNL     1     -99.866  70.475  31.875  1.00  0.00     0.041 C 
ATOM     15  O   UNL     1     -99.456  69.464  32.505  1.00  0.00    -0.550 OA
ATOM     16  O   UNL     1    -101.218  70.792  31.889  1.00  0.00    -0.550 OA
ENDBRANCH  13  14
ENDBRANCH  12  13
ENDBRANCH  11  12
ENDBRANCH  10  11
ENDBRANCH   9  10
ENDBRANCH   8   9
ENDBRANCH   7   8
ENDBRANCH   6   7
ENDBRANCH   5   6
ENDBRANCH   4   5
ENDBRANCH   3   4
ENDBRANCH   2   3
ENDBRANCH   1   2
BRANCH   1  17
ATOM     17  C   UNL     1     -97.797  71.756  24.257  1.00  0.00     0.000 C 
BRANCH  17  18
ATOM     18  C   UNL     1     -98.454  70.618  25.053  1.00  0.00     0.000 C 
BRANCH  18  19
ATOM     19  C   UNL     1     -98.979  69.494  24.144  1.00  0.00     0.000 C 
BRANCH  19  20
ATOM     20  C   UNL     1     -99.269  69.983  22.714  1.00  0.00     0.000 C 
BRANCH  20  21
ATOM     21  C   UNL     1    -100.747  70.384  22.516  1.00  0.00     0.000 C 
BRANCH  21  22
ATOM     22  C   UNL     1    -100.971  71.407  21.385  1.00  0.00    -0.000 C 
BRANCH  22  23
ATOM     23  C   UNL     1    -100.732  72.879  21.776  1.00  0.00    -0.000 C 
BRANCH  23  24
ATOM     24  C   UNL     1     -99.372  73.457  21.338  1.00  0.00    -0.000 C 
BRANCH  24  25
ATOM     25  C   UNL     1     -99.093  73.401  19.824  1.00  0.00    -0.000 C 
BRANCH  25  26
ATOM     26  C   UNL     1     -97.886  72.520  19.439  1.00  0.00    -0.000 C 
BRANCH  26  27
ATOM     27  C   UNL     1     -96.994  72.176  20.645  1.00  0.00    -0.000 C 
BRANCH  27  28
ATOM     28  C   UNL     1     -95.717  73.032  20.710  1.00  0.00    -0.000 C 
BRANCH  28  29
ATOM     29  C   UNL     1     -95.375  73.577  22.108  1.00  0.00    -0.003 C 
ATOM     30  C   UNL     1     -95.992  74.949  22.387  1.00  0.00     0.004 C 
ENDBRANCH  28  29
ENDBRANCH  27  28
ENDBRANCH  26  27
ENDBRANCH  25  26
ENDBRANCH  24  25
ENDBRANCH  23  24
ENDBRANCH  22  23
ENDBRANCH  21  22
ENDBRANCH  20  21
ENDBRANCH  19  20
ENDBRANCH  18  19
ENDBRANCH  17  18
ENDBRANCH   1  17
TORSDOF 26
ENDMDL
MODEL 8
REMARK VINA RESULT:    -2.718      2.081      6.223
REMARK INTER + INTRA:         -12.969
REMARK INTER:                  -6.879
REMARK INTRA:                  -6.090
REMARK UNBOUND:                -6.121
REMARK SMILES CCCCCCCCCCCCCCCCCCCCCCCCCCCC(=O)[O-]
REMARK SMILES IDX 15 1 16 2 17 3 18 4 19 5 20 6 21 7 22 8 23 9 24 10 25 11
REMARK SMILES IDX 26 12 27 13 28 14 29 15 30 16 14 17 13 18 12 19 11 20 10 21
REMARK SMILES IDX 9 22 8 23 7 24 6 25 5 26 4 27 3 28 2 29 1 30
REMARK H PARENT
REMARK Flexibility Score: inf
ROOT
ATOM      1  C   UNL     1    -100.487  70.393  25.169  1.00  0.00     0.000 C 
ENDROOT
BRANCH   1   2
ATOM      2  C   UNL     1     -99.430  69.328  24.824  1.00  0.00     0.000 C 
BRANCH   2   3
ATOM      3  C   UNL     1     -99.119  69.175  23.318  1.00  0.00     0.000 C 
BRANCH   3   4
ATOM      4  C   UNL     1     -99.163  70.478  22.498  1.00  0.00     0.000 C 
BRANCH   4   5
ATOM      5  C   UNL     1     -97.773  70.925  22.013  1.00  0.00     0.000 C 
BRANCH   5   6
ATOM      6  C   UNL     1     -97.381  72.316  22.538  1.00  0.00     0.000 C 
BRANCH   6   7
ATOM      7  C   UNL     1     -97.541  72.446  24.063  1.00  0.00     0.000 C 
BRANCH   7   8
ATOM      8  C   UNL     1     -98.556  73.531  24.457  1.00  0.00     0.000 C 
BRANCH   8   9
ATOM      9  C   UNL     1     -99.024  74.373  23.255  1.00  0.00     0.000 C 
BRANCH   9  10
ATOM     10  C   UNL     1    -100.498  74.122  22.900  1.00  0.00     0.000 C 
BRANCH  10  11
ATOM     11  C   UNL     1    -101.339  73.718  24.120  1.00  0.00     0.000 C 
BRANCH  11  12
ATOM     12  C   UNL     1    -102.597  72.952  23.687  1.00  0.00     0.006 C 
BRANCH  12  13
ATOM     13  C   UNL     1    -102.373  72.149  22.399  1.00  0.00     0.053 C 
BRANCH  13  14
ATOM     14  C   UNL     1    -102.951  70.771  22.494  1.00  0.00     0.041 C 
ATOM     15  O   UNL     1    -103.830  70.509  23.358  1.00  0.00    -0.550 OA
ATOM     16  O   UNL     1    -102.511  69.770  21.637  1.00  0.00    -0.550 OA
ENDBRANCH  13  14
ENDBRANCH  12  13
ENDBRANCH  11  12
ENDBRANCH  10  11
ENDBRANCH   9  10
ENDBRANCH   8   9
ENDBRANCH   7   8
ENDBRANCH   6   7
ENDBRANCH   5   6
ENDBRANCH   4   5
ENDBRANCH   3   4
ENDBRANCH   2   3
ENDBRANCH   1   2
BRANCH   1  17
ATOM     17  C   UNL     1    -101.564  69.879  26.134  1.00  0.00     0.000 C 
BRANCH  17  18
ATOM     18  C   UNL     1    -100.997  68.790  27.057  1.00  0.00     0.000 C 
BRANCH  18  19
ATOM     19  C   UNL     1    -101.108  69.165  28.544  1.00  0.00     0.000 C 
BRANCH  19  20
ATOM     20  C   UNL     1     -99.808  68.886  29.317  1.00  0.00     0.000 C 
BRANCH  20  21
ATOM     21  C   UNL     1     -98.547  69.234  28.497  1.00  0.00     0.000 C 
BRANCH  21  22
ATOM     22  C   UNL     1     -98.028  70.668  28.725  1.00  0.00    -0.000 C 
BRANCH  22  23
ATOM     23  C   UNL     1     -98.415  71.686  27.634  1.00  0.00    -0.000 C 
BRANCH  23  24
ATOM     24  C   UNL     1     -99.172  72.929  28.142  1.00  0.00    -0.000 C 
BRANCH  24  25
ATOM     25  C   UNL     1    -100.691  72.921  27.888  1.00  0.00    -0.000 C 
BRANCH  25  26
ATOM     26  C   UNL     1    -101.537  73.307  29.120  1.00  0.00    -0.000 C 
BRANCH  26  27
ATOM     27  C   UNL     1    -100.810  73.032  30.448  1.00  0.00    -0.000 C 
BRANCH  27  28
ATOM     28  C   UNL     1    -101.298  71.749  31.145  1.00  0.00    -0.000 C 
BRANCH  28  29
ATOM     29  C   UNL     1    -100.353  71.204  32.231  1.00  0.00    -0.003 C 
ATOM     30  C   UNL     1     -98.917  71.708  32.086  1.00  0.00     0.004 C 
ENDBRANCH  28  29
ENDBRANCH  27  28
ENDBRANCH  26  27
ENDBRANCH  25  26
ENDBRANCH  24  25
ENDBRANCH  23  24
ENDBRANCH  22  23
ENDBRANCH  21  22
ENDBRANCH  20  21
ENDBRANCH  19  20
ENDBRANCH  18  19
ENDBRANCH  17  18
ENDBRANCH   1  17
TORSDOF 26
ENDMDL
MODEL 9
REMARK VINA RESULT:    -2.686      2.203      6.705
REMARK INTER + INTRA:         -12.890
REMARK INTER:                  -7.358
REMARK INTRA:                  -5.532
REMARK UNBOUND:                -6.121
REMARK SMILES CCCCCCCCCCCCCCCCCCCCCCCCCCCC(=O)[O-]
REMARK SMILES IDX 15 1 16 2 17 3 18 4 19 5 20 6 21 7 22 8 23 9 24 10 25 11
REMARK SMILES IDX 26 12 27 13 28 14 29 15 30 16 14 17 13 18 12 19 11 20 10 21
REMARK SMILES IDX 9 22 8 23 7 24 6 25 5 26 4 27 3 28 2 29 1 30
REMARK H PARENT
REMARK Flexibility Score: inf
ROOT
ATOM      1  C   UNL     1     -99.001  70.008  22.727  1.00  0.00     0.000 C 
ENDROOT
BRANCH   1   2
ATOM      2  C   UNL     1     -98.019  71.193  22.761  1.00  0.00     0.000 C 
BRANCH   2   3
ATOM      3  C   UNL     1     -98.398  72.333  23.731  1.00  0.00     0.000 C 
BRANCH   3   4
ATOM      4  C   UNL     1     -97.221  73.184  24.243  1.00  0.00     0.000 C 
BRANCH   4   5
ATOM      5  C   UNL     1     -95.914  72.919  23.475  1.00  0.00     0.000 C 
BRANCH   5   6
ATOM      6  C   UNL     1     -95.548  74.062  22.515  1.00  0.00     0.000 C 
BRANCH   6   7
ATOM      7  C   UNL     1     -95.334  73.582  21.068  1.00  0.00     0.000 C 
BRANCH   7   8
ATOM      8  C   UNL     1     -96.548  73.866  20.169  1.00  0.00     0.000 C 
BRANCH   8   9
ATOM      9  C   UNL     1     -97.488  74.934  20.759  1.00  0.00     0.000 C 
BRANCH   9  10
ATOM     10  C   UNL     1     -98.960  74.491  20.751  1.00  0.00     0.000 C 
BRANCH  10  11
ATOM     11  C   UNL     1     -99.194  73.237  19.894  1.00  0.00     0.000 C 
BRANCH  11  12
ATOM     12  C   UNL     1    -100.466  72.500  20.340  1.00  0.00     0.006 C 
BRANCH  12  13
ATOM     13  C   UNL     1    -101.296  73.325  21.332  1.00  0.00     0.053 C 
BRANCH  13  14
ATOM     14  C   UNL     1    -101.926  72.464  22.383  1.00  0.00     0.041 C 
ATOM     15  O   UNL     1    -101.918  72.826  23.589  1.00  0.00    -0.550 OA
ATOM     16  O   UNL     1    -102.508  71.252  22.032  1.00  0.00    -0.550 OA
ENDBRANCH  13  14
ENDBRANCH  12  13
ENDBRANCH  11  12
ENDBRANCH  10  11
ENDBRANCH   9  10
ENDBRANCH   8   9
ENDBRANCH   7   8
ENDBRANCH   6   7
ENDBRANCH   5   6
ENDBRANCH   4   5
ENDBRANCH   3   4
ENDBRANCH   2   3
ENDBRANCH   1   2
BRANCH   1  17
ATOM     17  C   UNL     1     -99.842  69.888  24.006  1.00  0.00     0.000 C 
BRANCH  17  18
ATOM     18  C   UNL     1     -99.354  68.718  24.873  1.00  0.00     0.000 C 
BRANCH  18  19
ATOM     19  C   UNL     1     -99.202  69.109  26.353  1.00  0.00     0.000 C 
BRANCH  19  20
ATOM     20  C   UNL     1    -100.445  68.749  27.185  1.00  0.00     0.000 C 
BRANCH  20  21
ATOM     21  C   UNL     1    -100.110  68.502  28.672  1.00  0.00     0.000 C 
BRANCH  21  22
ATOM     22  C   UNL     1    -100.780  69.499  29.638  1.00  0.00    -0.000 C 
BRANCH  22  23
ATOM     23  C   UNL     1     -99.809  70.357  30.472  1.00  0.00    -0.000 C 
BRANCH  23  24
ATOM     24  C   UNL     1     -98.631  70.961  29.683  1.00  0.00    -0.000 C 
BRANCH  24  25
ATOM     25  C   UNL     1     -98.894  72.351  29.073  1.00  0.00    -0.000 C 
BRANCH  25  26
ATOM     26  C   UNL     1     -98.877  72.375  27.530  1.00  0.00    -0.000 C 
BRANCH  26  27
ATOM     27  C   UNL     1    -100.263  72.666  26.927  1.00  0.00    -0.000 C 
BRANCH  27  28
ATOM     28  C   UNL     1    -101.299  73.091  27.983  1.00  0.00    -0.000 C 
BRANCH  28  29
ATOM     29  C   UNL     1    -102.581  72.240  28.009  1.00  0.00    -0.003 C 
ATOM     30  C   UNL     1    -102.771  71.400  26.745  1.00  0.00     0.004 C 
ENDBRANCH  28  29
ENDBRANCH  27  28
ENDBRANCH  26  27
ENDBRANCH  25  26
ENDBRANCH  24  25
ENDBRANCH  23  24
ENDBRANCH  22  23
ENDBRANCH  21  22
ENDBRANCH  20  21
ENDBRANCH  19  20
ENDBRANCH  18  19
ENDBRANCH  17  18
ENDBRANCH   1  17
TORSDOF 26
ENDMDL
