MODEL 1
REMARK VINA RESULT:    -3.123      0.000      0.000
REMARK INTER + INTRA:         -10.393
REMARK INTER:                  -7.140
REMARK INTRA:                  -3.254
REMARK UNBOUND:                -3.254
REMARK SMILES CCCCCCCCCCCCCCCCCCCCCCCC(=O)[O-]
REMARK SMILES IDX 13 1 14 2 15 3 16 4 17 5 18 6 19 7 20 8 21 9 22 10 23 11
REMARK SMILES IDX 24 12 25 13 26 14 12 15 11 16 10 17 9 18 8 19 7 20 6 21 5 22
REMARK SMILES IDX 4 23 3 24 2 25 1 26
REMARK H PARENT
REMARK Flexibility Score: inf
ROOT
ATOM      1  C   UNL     1      10.458 -30.773  13.350  1.00  0.00     0.000 C 
ENDROOT
BRANCH   1   2
ATOM      2  C   UNL     1      10.379 -29.324  12.843  1.00  0.00     0.000 C 
BRANCH   2   3
ATOM      3  C   UNL     1       8.981 -28.954  12.322  1.00  0.00     0.000 C 
BRANCH   3   4
ATOM      4  C   UNL     1       8.082 -30.185  12.114  1.00  0.00     0.000 C 
BRANCH   4   5
ATOM      5  C   UNL     1       6.620 -29.936  12.527  1.00  0.00     0.000 C 
BRANCH   5   6
ATOM      6  C   UNL     1       6.198 -30.568  13.870  1.00  0.00     0.000 C 
BRANCH   6   7
ATOM      7  C   UNL     1       6.672 -29.810  15.124  1.00  0.00     0.000 C 
BRANCH   7   8
ATOM      8  C   UNL     1       5.925 -30.185  16.417  1.00  0.00     0.000 C 
BRANCH   8   9
ATOM      9  C   UNL     1       6.265 -29.267  17.614  1.00  0.00     0.000 C 
BRANCH   9  10
ATOM     10  C   UNL     1       7.435 -29.784  18.468  1.00  0.00     0.006 C 
BRANCH  10  11
ATOM     11  C   UNL     1       8.501 -28.705  18.706  1.00  0.00     0.053 C 
BRANCH  11  12
ATOM     12  C   UNL     1       9.474 -28.673  17.571  1.00  0.00     0.041 C 
ATOM     13  O   UNL     1      10.320 -27.743  17.487  1.00  0.00    -0.550 OA
ATOM     14  O   UNL     1       9.421 -29.646  16.581  1.00  0.00    -0.550 OA
ENDBRANCH  11  12
ENDBRANCH  10  11
ENDBRANCH   9  10
ENDBRANCH   8   9
ENDBRANCH   7   8
ENDBRANCH   6   7
ENDBRANCH   5   6
ENDBRANCH   4   5
ENDBRANCH   3   4
ENDBRANCH   2   3
ENDBRANCH   1   2
BRANCH   1  15
ATOM     15  C   UNL     1      11.841 -31.379  13.063  1.00  0.00     0.000 C 
BRANCH  15  16
ATOM     16  C   UNL     1      11.771 -32.860  12.655  1.00  0.00     0.000 C 
BRANCH  16  17
ATOM     17  C   UNL     1      10.822 -33.678  13.548  1.00  0.00     0.000 C 
BRANCH  17  18
ATOM     18  C   UNL     1       9.682 -34.347  12.758  1.00  0.00    -0.000 C 
BRANCH  18  19
ATOM     19  C   UNL     1       8.530 -33.410  12.353  1.00  0.00    -0.000 C 
BRANCH  19  20
ATOM     20  C   UNL     1       7.143 -33.984  12.687  1.00  0.00    -0.000 C 
BRANCH  20  21
ATOM     21  C   UNL     1       7.209 -35.125  13.729  1.00  0.00    -0.000 C 
BRANCH  21  22
ATOM     22  C   UNL     1       6.055 -35.093  14.748  1.00  0.00    -0.000 C 
BRANCH  22  23
ATOM     23  C   UNL     1       6.012 -33.827  15.623  1.00  0.00    -0.000 C 
BRANCH  23  24
ATOM     24  C   UNL     1       6.516 -34.053  17.066  1.00  0.00    -0.000 C 
BRANCH  24  25
ATOM     25  C   UNL     1       7.611 -33.057  17.474  1.00  0.00    -0.003 C 
ATOM     26  C   UNL     1       8.535 -32.743  16.300  1.00  0.00     0.004 C 
ENDBRANCH  24  25
ENDBRANCH  23  24
ENDBRANCH  22  23
ENDBRANCH  21  22
ENDBRANCH  20  21
ENDBRANCH  19  20
ENDBRANCH  18  19
ENDBRANCH  17  18
ENDBRANCH  16  17
ENDBRANCH  15  16
ENDBRANCH   1  15
TORSDOF 22
ENDMDL
MODEL 2
REMARK VINA RESULT:    -2.486      1.561      4.816
REMARK INTER + INTRA:          -8.937
REMARK INTER:                  -5.304
REMARK INTRA:                  -3.633
REMARK UNBOUND:                -3.254
REMARK SMILES CCCCCCCCCCCCCCCCCCCCCCCC(=O)[O-]
REMARK SMILES IDX 13 1 14 2 15 3 16 4 17 5 18 6 19 7 20 8 21 9 22 10 23 11
REMARK SMILES IDX 24 12 25 13 26 14 12 15 11 16 10 17 9 18 8 19 7 20 6 21 5 22
REMARK SMILES IDX 4 23 3 24 2 25 1 26
REMARK H PARENT
REMARK Flexibility Score: inf
ROOT
ATOM      1  C   UNL     1       9.229 -28.854  17.512  1.00  0.00     0.000 C 
ENDROOT
BRANCH   1   2
ATOM      2  C   UNL     1       8.746 -29.106  16.075  1.00  0.00     0.000 C 
BRANCH   2   3
ATOM      3  C   UNL     1       9.189 -30.475  15.533  1.00  0.00     0.000 C 
BRANCH   3   4
ATOM      4  C   UNL     1       8.103 -31.152  14.679  1.00  0.00     0.000 C 
BRANCH   4   5
ATOM      5  C   UNL     1       6.924 -30.217  14.357  1.00  0.00     0.000 C 
BRANCH   5   6
ATOM      6  C   UNL     1       6.620 -30.033  12.855  1.00  0.00     0.000 C 
BRANCH   6   7
ATOM      7  C   UNL     1       7.745 -30.479  11.903  1.00  0.00     0.000 C 
BRANCH   7   8
ATOM      8  C   UNL     1       9.005 -29.596  11.948  1.00  0.00     0.000 C 
BRANCH   8   9
ATOM      9  C   UNL     1      10.324 -30.402  11.879  1.00  0.00     0.000 C 
BRANCH   9  10
ATOM     10  C   UNL     1      11.308 -30.064  13.012  1.00  0.00     0.006 C 
BRANCH  10  11
ATOM     11  C   UNL     1      11.166 -28.612  13.489  1.00  0.00     0.053 C 
BRANCH  11  12
ATOM     12  C   UNL     1      12.189 -28.304  14.535  1.00  0.00     0.041 C 
ATOM     13  O   UNL     1      13.417 -28.370  14.260  1.00  0.00    -0.550 OA
ATOM     14  O   UNL     1      11.790 -27.987  15.827  1.00  0.00    -0.550 OA
ENDBRANCH  11  12
ENDBRANCH  10  11
ENDBRANCH   9  10
ENDBRANCH   8   9
ENDBRANCH   7   8
ENDBRANCH   6   7
ENDBRANCH   5   6
ENDBRANCH   4   5
ENDBRANCH   3   4
ENDBRANCH   2   3
ENDBRANCH   1   2
BRANCH   1  15
ATOM     15  C   UNL     1       8.364 -29.622  18.523  1.00  0.00     0.000 C 
BRANCH  15  16
ATOM     16  C   UNL     1       6.883 -29.690  18.115  1.00  0.00     0.000 C 
BRANCH  16  17
ATOM     17  C   UNL     1       6.403 -31.130  17.864  1.00  0.00     0.000 C 
BRANCH  17  18
ATOM     18  C   UNL     1       7.465 -32.188  18.217  1.00  0.00    -0.000 C 
BRANCH  18  19
ATOM     19  C   UNL     1       7.285 -33.551  17.523  1.00  0.00    -0.000 C 
BRANCH  19  20
ATOM     20  C   UNL     1       6.269 -33.508  16.369  1.00  0.00    -0.000 C 
BRANCH  20  21
ATOM     21  C   UNL     1       6.474 -34.657  15.355  1.00  0.00    -0.000 C 
BRANCH  21  22
ATOM     22  C   UNL     1       6.821 -34.170  13.936  1.00  0.00    -0.000 C 
BRANCH  22  23
ATOM     23  C   UNL     1       8.035 -34.871  13.301  1.00  0.00    -0.000 C 
BRANCH  23  24
ATOM     24  C   UNL     1       8.884 -33.947  12.399  1.00  0.00    -0.000 C 
BRANCH  24  25
ATOM     25  C   UNL     1      10.392 -34.178  12.566  1.00  0.00    -0.003 C 
ATOM     26  C   UNL     1      10.912 -33.519  13.841  1.00  0.00     0.004 C 
ENDBRANCH  24  25
ENDBRANCH  23  24
ENDBRANCH  22  23
ENDBRANCH  21  22
ENDBRANCH  20  21
ENDBRANCH  19  20
ENDBRANCH  18  19
ENDBRANCH  17  18
ENDBRANCH  16  17
ENDBRANCH  15  16
ENDBRANCH   1  15
TORSDOF 22
ENDMDL
MODEL 3
REMARK VINA RESULT:    -2.370      2.110      5.889
REMARK INTER + INTRA:          -8.673
REMARK INTER:                  -6.018
REMARK INTRA:                  -2.655
REMARK UNBOUND:                -3.254
REMARK SMILES CCCCCCCCCCCCCCCCCCCCCCCC(=O)[O-]
REMARK SMILES IDX 13 1 14 2 15 3 16 4 17 5 18 6 19 7 20 8 21 9 22 10 23 11
REMARK SMILES IDX 24 12 25 13 26 14 12 15 11 16 10 17 9 18 8 19 7 20 6 21 5 22
REMARK SMILES IDX 4 23 3 24 2 25 1 26
REMARK H PARENT
REMARK Flexibility Score: inf
ROOT
ATOM      1  C   UNL     1       9.859 -28.974  18.444  1.00  0.00     0.000 C 
ENDROOT
BRANCH   1   2
ATOM      2  C   UNL     1       8.421 -29.065  18.978  1.00  0.00     0.000 C 
BRANCH   2   3
ATOM      3  C   UNL     1       7.609 -30.184  18.305  1.00  0.00     0.000 C 
BRANCH   3   4
ATOM      4  C   UNL     1       8.492 -31.345  17.818  1.00  0.00     0.000 C 
BRANCH   4   5
ATOM      5  C   UNL     1       7.919 -32.727  18.183  1.00  0.00     0.000 C 
BRANCH   5   6
ATOM      6  C   UNL     1       7.014 -33.369  17.111  1.00  0.00     0.000 C 
BRANCH   6   7
ATOM      7  C   UNL     1       7.611 -33.406  15.692  1.00  0.00     0.000 C 
BRANCH   7   8
ATOM      8  C   UNL     1       6.867 -34.329  14.711  1.00  0.00     0.000 C 
BRANCH   8   9
ATOM      9  C   UNL     1       7.600 -34.515  13.362  1.00  0.00     0.000 C 
BRANCH   9  10
ATOM     10  C   UNL     1       9.016 -33.912  13.347  1.00  0.00     0.006 C 
BRANCH  10  11
ATOM     11  C   UNL     1      10.106 -34.992  13.374  1.00  0.00     0.053 C 
BRANCH  11  12
ATOM     12  C   UNL     1      11.437 -34.398  13.037  1.00  0.00     0.041 C 
ATOM     13  O   UNL     1      11.869 -33.405  13.680  1.00  0.00    -0.550 OA
ATOM     14  O   UNL     1      12.181 -34.913  11.984  1.00  0.00    -0.550 OA
ENDBRANCH  11  12
ENDBRANCH  10  11
ENDBRANCH   9  10
ENDBRANCH   8   9
ENDBRANCH   7   8
ENDBRANCH   6   7
ENDBRANCH   5   6
ENDBRANCH   4   5
ENDBRANCH   3   4
ENDBRANCH   2   3
ENDBRANCH   1   2
BRANCH   1  15
ATOM     15  C   UNL     1      10.041 -27.724  17.569  1.00  0.00     0.000 C 
BRANCH  15  16
ATOM     16  C   UNL     1      10.818 -28.009  16.273  1.00  0.00     0.000 C 
BRANCH  16  17
ATOM     17  C   UNL     1      10.189 -29.138  15.440  1.00  0.00     0.000 C 
BRANCH  17  18
ATOM     18  C   UNL     1      10.638 -29.120  13.967  1.00  0.00    -0.000 C 
BRANCH  18  19
ATOM     19  C   UNL     1      10.416 -30.436  13.200  1.00  0.00    -0.000 C 
BRANCH  19  20
ATOM     20  C   UNL     1       9.554 -30.258  11.938  1.00  0.00    -0.000 C 
BRANCH  20  21
ATOM     21  C   UNL     1       8.819 -28.898  11.909  1.00  0.00    -0.000 C 
BRANCH  21  22
ATOM     22  C   UNL     1       7.285 -29.031  11.883  1.00  0.00    -0.000 C 
BRANCH  22  23
ATOM     23  C   UNL     1       6.766 -30.463  12.102  1.00  0.00    -0.000 C 
BRANCH  23  24
ATOM     24  C   UNL     1       5.883 -30.618  13.360  1.00  0.00    -0.000 C 
BRANCH  24  25
ATOM     25  C   UNL     1       6.478 -29.921  14.591  1.00  0.00    -0.003 C 
ATOM     26  C   UNL     1       5.876 -30.471  15.881  1.00  0.00     0.004 C 
ENDBRANCH  24  25
ENDBRANCH  23  24
ENDBRANCH  22  23
ENDBRANCH  21  22
ENDBRANCH  20  21
ENDBRANCH  19  20
ENDBRANCH  18  19
ENDBRANCH  17  18
ENDBRANCH  16  17
ENDBRANCH  15  16
ENDBRANCH   1  15
TORSDOF 22
ENDMDL
MODEL 4
REMARK VINA RESULT:    -2.320      1.558      5.371
REMARK INTER + INTRA:          -8.558
REMARK INTER:                  -5.968
REMARK INTRA:                  -2.590
REMARK UNBOUND:                -3.254
REMARK SMILES CCCCCCCCCCCCCCCCCCCCCCCC(=O)[O-]
REMARK SMILES IDX 13 1 14 2 15 3 16 4 17 5 18 6 19 7 20 8 21 9 22 10 23 11
REMARK SMILES IDX 24 12 25 13 26 14 12 15 11 16 10 17 9 18 8 19 7 20 6 21 5 22
REMARK SMILES IDX 4 23 3 24 2 25 1 26
REMARK H PARENT
REMARK Flexibility Score: inf
ROOT
ATOM      1  C   UNL     1      10.267 -29.760  13.035  1.00  0.00     0.000 C 
ENDROOT
BRANCH   1   2
ATOM      2  C   UNL     1      10.441 -30.970  12.104  1.00  0.00     0.000 C 
BRANCH   2   3
ATOM      3  C   UNL     1      11.356 -32.051  12.701  1.00  0.00     0.000 C 
BRANCH   3   4
ATOM      4  C   UNL     1      11.219 -33.405  11.983  1.00  0.00     0.000 C 
BRANCH   4   5
ATOM      5  C   UNL     1      10.203 -34.342  12.660  1.00  0.00     0.000 C 
BRANCH   5   6
ATOM      6  C   UNL     1       8.761 -34.251  12.121  1.00  0.00     0.000 C 
BRANCH   6   7
ATOM      7  C   UNL     1       7.811 -33.364  12.947  1.00  0.00     0.000 C 
BRANCH   7   8
ATOM      8  C   UNL     1       6.327 -33.763  12.858  1.00  0.00     0.000 C 
BRANCH   8   9
ATOM      9  C   UNL     1       5.961 -34.976  13.744  1.00  0.00     0.000 C 
BRANCH   9  10
ATOM     10  C   UNL     1       6.628 -34.945  15.130  1.00  0.00     0.006 C 
BRANCH  10  11
ATOM     11  C   UNL     1       6.295 -33.663  15.905  1.00  0.00     0.053 C 
BRANCH  11  12
ATOM     12  C   UNL     1       7.353 -33.379  16.924  1.00  0.00     0.041 C 
ATOM     13  O   UNL     1       7.260 -33.860  18.085  1.00  0.00    -0.550 OA
ATOM     14  O   UNL     1       8.418 -32.546  16.607  1.00  0.00    -0.550 OA
ENDBRANCH  11  12
ENDBRANCH  10  11
ENDBRANCH   9  10
ENDBRANCH   8   9
ENDBRANCH   7   8
ENDBRANCH   6   7
ENDBRANCH   5   6
ENDBRANCH   4   5
ENDBRANCH   3   4
ENDBRANCH   2   3
ENDBRANCH   1   2
BRANCH   1  15
ATOM     15  C   UNL     1      11.586 -29.425  13.750  1.00  0.00     0.000 C 
BRANCH  15  16
ATOM     16  C   UNL     1      11.576 -28.033  14.403  1.00  0.00     0.000 C 
BRANCH  16  17
ATOM     17  C   UNL     1      11.776 -28.092  15.928  1.00  0.00     0.000 C 
BRANCH  17  18
ATOM     18  C   UNL     1      10.493 -27.765  16.715  1.00  0.00    -0.000 C 
BRANCH  18  19
ATOM     19  C   UNL     1       9.580 -28.970  17.006  1.00  0.00    -0.000 C 
BRANCH  19  20
ATOM     20  C   UNL     1       8.853 -28.860  18.357  1.00  0.00    -0.000 C 
BRANCH  20  21
ATOM     21  C   UNL     1       7.739 -29.919  18.520  1.00  0.00    -0.000 C 
BRANCH  21  22
ATOM     22  C   UNL     1       6.365 -29.449  18.009  1.00  0.00    -0.000 C 
BRANCH  22  23
ATOM     23  C   UNL     1       5.876 -30.171  16.740  1.00  0.00    -0.000 C 
BRANCH  23  24
ATOM     24  C   UNL     1       6.701 -29.835  15.478  1.00  0.00    -0.000 C 
BRANCH  24  25
ATOM     25  C   UNL     1       6.025 -30.310  14.184  1.00  0.00    -0.003 C 
ATOM     26  C   UNL     1       6.799 -29.842  12.955  1.00  0.00     0.004 C 
ENDBRANCH  24  25
ENDBRANCH  23  24
ENDBRANCH  22  23
ENDBRANCH  21  22
ENDBRANCH  20  21
ENDBRANCH  19  20
ENDBRANCH  18  19
ENDBRANCH  17  18
ENDBRANCH  16  17
ENDBRANCH  15  16
ENDBRANCH   1  15
TORSDOF 22
ENDMDL
MODEL 5
REMARK VINA RESULT:    -2.208      2.086      4.623
REMARK INTER + INTRA:          -8.301
REMARK INTER:                  -5.079
REMARK INTRA:                  -3.221
REMARK UNBOUND:                -3.254
REMARK SMILES CCCCCCCCCCCCCCCCCCCCCCCC(=O)[O-]
REMARK SMILES IDX 13 1 14 2 15 3 16 4 17 5 18 6 19 7 20 8 21 9 22 10 23 11
REMARK SMILES IDX 24 12 25 13 26 14 12 15 11 16 10 17 9 18 8 19 7 20 6 21 5 22
REMARK SMILES IDX 4 23 3 24 2 25 1 26
REMARK H PARENT
REMARK Flexibility Score: inf
ROOT
ATOM      1  C   UNL     1      11.241 -28.086  15.962  1.00  0.00     0.000 C 
ENDROOT
BRANCH   1   2
ATOM      2  C   UNL     1      10.051 -28.740  16.681  1.00  0.00     0.000 C 
BRANCH   2   3
ATOM      3  C   UNL     1      10.091 -28.531  18.203  1.00  0.00     0.000 C 
BRANCH   3   4
ATOM      4  C   UNL     1       8.755 -28.876  18.883  1.00  0.00     0.000 C 
BRANCH   4   5
ATOM      5  C   UNL     1       7.707 -27.757  18.746  1.00  0.00     0.000 C 
BRANCH   5   6
ATOM      6  C   UNL     1       6.239 -28.205  18.905  1.00  0.00     0.000 C 
BRANCH   6   7
ATOM      7  C   UNL     1       5.876 -29.515  18.181  1.00  0.00     0.000 C 
BRANCH   7   8
ATOM      8  C   UNL     1       6.009 -29.455  16.648  1.00  0.00     0.000 C 
BRANCH   8   9
ATOM      9  C   UNL     1       6.926 -30.555  16.066  1.00  0.00     0.000 C 
BRANCH   9  10
ATOM     10  C   UNL     1       7.383 -31.588  17.111  1.00  0.00     0.006 C 
BRANCH  10  11
ATOM     11  C   UNL     1       7.394 -33.016  16.548  1.00  0.00     0.053 C 
BRANCH  11  12
ATOM     12  C   UNL     1       7.021 -33.999  17.612  1.00  0.00     0.041 C 
ATOM     13  O   UNL     1       7.765 -34.158  18.616  1.00  0.00    -0.550 OA
ATOM     14  O   UNL     1       5.876 -34.772  17.474  1.00  0.00    -0.550 OA
ENDBRANCH  11  12
ENDBRANCH  10  11
ENDBRANCH   9  10
ENDBRANCH   8   9
ENDBRANCH   7   8
ENDBRANCH   6   7
ENDBRANCH   5   6
ENDBRANCH   4   5
ENDBRANCH   3   4
ENDBRANCH   2   3
ENDBRANCH   1   2
BRANCH   1  15
ATOM     15  C   UNL     1      11.184 -28.354  14.450  1.00  0.00     0.000 C 
BRANCH  15  16
ATOM     16  C   UNL     1      10.121 -29.398  14.068  1.00  0.00     0.000 C 
BRANCH  16  17
ATOM     17  C   UNL     1      10.417 -30.079  12.720  1.00  0.00     0.000 C 
BRANCH  17  18
ATOM     18  C   UNL     1       9.141 -30.506  11.970  1.00  0.00    -0.000 C 
BRANCH  18  19
ATOM     19  C   UNL     1       7.852 -29.789  12.413  1.00  0.00    -0.000 C 
BRANCH  19  20
ATOM     20  C   UNL     1       6.685 -30.758  12.669  1.00  0.00    -0.000 C 
BRANCH  20  21
ATOM     21  C   UNL     1       6.843 -32.092  11.904  1.00  0.00    -0.000 C 
BRANCH  21  22
ATOM     22  C   UNL     1       6.993 -33.316  12.826  1.00  0.00    -0.000 C 
BRANCH  22  23
ATOM     23  C   UNL     1       8.253 -34.160  12.564  1.00  0.00    -0.000 C 
BRANCH  23  24
ATOM     24  C   UNL     1       9.524 -33.606  13.247  1.00  0.00    -0.000 C 
BRANCH  24  25
ATOM     25  C   UNL     1      10.791 -34.381  12.859  1.00  0.00    -0.003 C 
ATOM     26  C   UNL     1      12.005 -33.459  12.803  1.00  0.00     0.004 C 
ENDBRANCH  24  25
ENDBRANCH  23  24
ENDBRANCH  22  23
ENDBRANCH  21  22
ENDBRANCH  20  21
ENDBRANCH  19  20
ENDBRANCH  18  19
ENDBRANCH  17  18
ENDBRANCH  16  17
ENDBRANCH  15  16
ENDBRANCH   1  15
TORSDOF 22
ENDMDL
MODEL 6
REMARK VINA RESULT:    -2.073      1.547      4.984
REMARK INTER + INTRA:          -7.993
REMARK INTER:                  -5.729
REMARK INTRA:                  -2.264
REMARK UNBOUND:                -3.254
REMARK SMILES CCCCCCCCCCCCCCCCCCCCCCCC(=O)[O-]
REMARK SMILES IDX 13 1 14 2 15 3 16 4 17 5 18 6 19 7 20 8 21 9 22 10 23 11
REMARK SMILES IDX 24 12 25 13 26 14 12 15 11 16 10 17 9 18 8 19 7 20 6 21 5 22
REMARK SMILES IDX 4 23 3 24 2 25 1 26
REMARK H PARENT
REMARK Flexibility Score: inf
ROOT
ATOM      1  C   UNL     1      11.099 -30.006  13.302  1.00  0.00     0.000 C 
ENDROOT
BRANCH   1   2
ATOM      2  C   UNL     1      10.931 -31.356  12.587  1.00  0.00     0.000 C 
BRANCH   2   3
ATOM      3  C   UNL     1      11.601 -32.514  13.343  1.00  0.00     0.000 C 
BRANCH   3   4
ATOM      4  C   UNL     1      10.582 -33.512  13.920  1.00  0.00     0.000 C 
BRANCH   4   5
ATOM      5  C   UNL     1       9.868 -34.334  12.832  1.00  0.00     0.000 C 
BRANCH   5   6
ATOM      6  C   UNL     1       8.847 -33.553  11.979  1.00  0.00     0.000 C 
BRANCH   6   7
ATOM      7  C   UNL     1       7.399 -34.071  12.060  1.00  0.00     0.000 C 
BRANCH   7   8
ATOM      8  C   UNL     1       7.157 -35.119  13.161  1.00  0.00     0.000 C 
BRANCH   8   9
ATOM      9  C   UNL     1       6.316 -34.585  14.344  1.00  0.00     0.000 C 
BRANCH   9  10
ATOM     10  C   UNL     1       7.167 -34.018  15.494  1.00  0.00     0.006 C 
BRANCH  10  11
ATOM     11  C   UNL     1       6.612 -34.406  16.872  1.00  0.00     0.053 C 
BRANCH  11  12
ATOM     12  C   UNL     1       7.463 -33.829  17.958  1.00  0.00     0.041 C 
ATOM     13  O   UNL     1       8.039 -32.721  17.791  1.00  0.00    -0.550 OA
ATOM     14  O   UNL     1       7.656 -34.534  19.139  1.00  0.00    -0.550 OA
ENDBRANCH  11  12
ENDBRANCH  10  11
ENDBRANCH   9  10
ENDBRANCH   8   9
ENDBRANCH   7   8
ENDBRANCH   6   7
ENDBRANCH   5   6
ENDBRANCH   4   5
ENDBRANCH   3   4
ENDBRANCH   2   3
ENDBRANCH   1   2
BRANCH   1  15
ATOM     15  C   UNL     1      10.006 -29.810  14.365  1.00  0.00     0.000 C 
BRANCH  15  16
ATOM     16  C   UNL     1       8.751 -29.116  13.811  1.00  0.00     0.000 C 
BRANCH  16  17
ATOM     17  C   UNL     1       8.321 -29.672  12.443  1.00  0.00     0.000 C 
BRANCH  17  18
ATOM     18  C   UNL     1       6.876 -30.206  12.439  1.00  0.00    -0.000 C 
BRANCH  18  19
ATOM     19  C   UNL     1       6.484 -31.040  13.672  1.00  0.00    -0.000 C 
BRANCH  19  20
ATOM     20  C   UNL     1       5.875 -30.192  14.802  1.00  0.00    -0.000 C 
BRANCH  20  21
ATOM     21  C   UNL     1       6.524 -30.479  16.176  1.00  0.00    -0.000 C 
BRANCH  21  22
ATOM     22  C   UNL     1       6.169 -29.437  17.252  1.00  0.00    -0.000 C 
BRANCH  22  23
ATOM     23  C   UNL     1       6.882 -29.647  18.601  1.00  0.00    -0.000 C 
BRANCH  23  24
ATOM     24  C   UNL     1       8.027 -28.641  18.860  1.00  0.00    -0.000 C 
BRANCH  24  25
ATOM     25  C   UNL     1       9.372 -29.117  18.295  1.00  0.00    -0.003 C 
ATOM     26  C   UNL     1       9.994 -28.057  17.389  1.00  0.00     0.004 C 
ENDBRANCH  24  25
ENDBRANCH  23  24
ENDBRANCH  22  23
ENDBRANCH  21  22
ENDBRANCH  20  21
ENDBRANCH  19  20
ENDBRANCH  18  19
ENDBRANCH  17  18
ENDBRANCH  16  17
ENDBRANCH  15  16
ENDBRANCH   1  15
TORSDOF 22
ENDMDL
MODEL 7
REMARK VINA RESULT:    -1.674      2.143      5.366
REMARK INTER + INTRA:          -7.080
REMARK INTER:                  -4.915
REMARK INTRA:                  -2.165
REMARK UNBOUND:                -3.254
REMARK SMILES CCCCCCCCCCCCCCCCCCCCCCCC(=O)[O-]
REMARK SMILES IDX 13 1 14 2 15 3 16 4 17 5 18 6 19 7 20 8 21 9 22 10 23 11
REMARK SMILES IDX 24 12 25 13 26 14 12 15 11 16 10 17 9 18 8 19 7 20 6 21 5 22
REMARK SMILES IDX 4 23 3 24 2 25 1 26
REMARK H PARENT
REMARK Flexibility Score: inf
ROOT
ATOM      1  C   UNL     1      10.390 -28.936  14.793  1.00  0.00     0.000 C 
ENDROOT
BRANCH   1   2
ATOM      2  C   UNL     1      10.683 -29.624  13.451  1.00  0.00     0.000 C 
BRANCH   2   3
ATOM      3  C   UNL     1       9.844 -29.052  12.297  1.00  0.00     0.000 C 
BRANCH   3   4
ATOM      4  C   UNL     1       8.700 -29.991  11.875  1.00  0.00     0.000 C 
BRANCH   4   5
ATOM      5  C   UNL     1       7.441 -29.828  12.746  1.00  0.00     0.000 C 
BRANCH   5   6
ATOM      6  C   UNL     1       6.251 -30.731  12.359  1.00  0.00     0.000 C 
BRANCH   6   7
ATOM      7  C   UNL     1       6.634 -32.146  11.885  1.00  0.00     0.000 C 
BRANCH   7   8
ATOM      8  C   UNL     1       6.334 -33.262  12.902  1.00  0.00     0.000 C 
BRANCH   8   9
ATOM      9  C   UNL     1       6.591 -34.683  12.350  1.00  0.00     0.000 C 
BRANCH   9  10
ATOM     10  C   UNL     1       8.045 -34.914  11.905  1.00  0.00     0.006 C 
BRANCH  10  11
ATOM     11  C   UNL     1       9.036 -34.780  13.069  1.00  0.00     0.053 C 
BRANCH  11  12
ATOM     12  C   UNL     1      10.313 -34.159  12.600  1.00  0.00     0.041 C 
ATOM     13  O   UNL     1      10.485 -32.914  12.694  1.00  0.00    -0.550 OA
ATOM     14  O   UNL     1      11.297 -34.948  12.017  1.00  0.00    -0.550 OA
ENDBRANCH  11  12
ENDBRANCH  10  11
ENDBRANCH   9  10
ENDBRANCH   8   9
ENDBRANCH   7   8
ENDBRANCH   6   7
ENDBRANCH   5   6
ENDBRANCH   4   5
ENDBRANCH   3   4
ENDBRANCH   2   3
ENDBRANCH   1   2
BRANCH   1  15
ATOM     15  C   UNL     1       9.083 -29.464  15.406  1.00  0.00     0.000 C 
BRANCH  15  16
ATOM     16  C   UNL     1       9.240 -30.855  16.042  1.00  0.00     0.000 C 
BRANCH  16  17
ATOM     17  C   UNL     1       8.349 -31.917  15.373  1.00  0.00     0.000 C 
BRANCH  17  18
ATOM     18  C   UNL     1       7.416 -32.631  16.368  1.00  0.00    -0.000 C 
BRANCH  18  19
ATOM     19  C   UNL     1       6.075 -31.921  16.631  1.00  0.00    -0.000 C 
BRANCH  19  20
ATOM     20  C   UNL     1       6.074 -30.452  16.175  1.00  0.00    -0.000 C 
BRANCH  20  21
ATOM     21  C   UNL     1       5.969 -29.463  17.359  1.00  0.00    -0.000 C 
BRANCH  21  22
ATOM     22  C   UNL     1       6.550 -30.016  18.673  1.00  0.00    -0.000 C 
BRANCH  22  23
ATOM     23  C   UNL     1       8.083 -29.916  18.783  1.00  0.00    -0.000 C 
BRANCH  23  24
ATOM     24  C   UNL     1       8.603 -28.467  18.911  1.00  0.00    -0.000 C 
BRANCH  24  25
ATOM     25  C   UNL     1      10.059 -28.316  18.449  1.00  0.00    -0.003 C 
ATOM     26  C   UNL     1      10.220 -27.115  17.521  1.00  0.00     0.004 C 
ENDBRANCH  24  25
ENDBRANCH  23  24
ENDBRANCH  22  23
ENDBRANCH  21  22
ENDBRANCH  20  21
ENDBRANCH  19  20
ENDBRANCH  18  19
ENDBRANCH  17  18
ENDBRANCH  16  17
ENDBRANCH  15  16
ENDBRANCH   1  15
TORSDOF 22
ENDMDL
MODEL 8
REMARK VINA RESULT:    -1.556      1.315      4.611
REMARK INTER + INTRA:          -6.810
REMARK INTER:                  -5.172
REMARK INTRA:                  -1.639
REMARK UNBOUND:                -3.254
REMARK SMILES CCCCCCCCCCCCCCCCCCCCCCCC(=O)[O-]
REMARK SMILES IDX 13 1 14 2 15 3 16 4 17 5 18 6 19 7 20 8 21 9 22 10 23 11
REMARK SMILES IDX 24 12 25 13 26 14 12 15 11 16 10 17 9 18 8 19 7 20 6 21 5 22
REMARK SMILES IDX 4 23 3 24 2 25 1 26
REMARK H PARENT
REMARK Flexibility Score: inf
ROOT
ATOM      1  C   UNL     1       8.764 -29.410  17.811  1.00  0.00     0.000 C 
ENDROOT
BRANCH   1   2
ATOM      2  C   UNL     1       7.613 -29.259  18.817  1.00  0.00     0.000 C 
BRANCH   2   3
ATOM      3  C   UNL     1       6.245 -29.611  18.210  1.00  0.00     0.000 C 
BRANCH   3   4
ATOM      4  C   UNL     1       6.074 -29.066  16.782  1.00  0.00     0.000 C 
BRANCH   4   5
ATOM      5  C   UNL     1       5.875 -30.178  15.737  1.00  0.00     0.000 C 
BRANCH   5   6
ATOM      6  C   UNL     1       6.520 -29.913  14.360  1.00  0.00     0.000 C 
BRANCH   6   7
ATOM      7  C   UNL     1       7.646 -30.888  13.970  1.00  0.00     0.000 C 
BRANCH   7   8
ATOM      8  C   UNL     1       8.102 -30.781  12.503  1.00  0.00     0.000 C 
BRANCH   8   9
ATOM      9  C   UNL     1       8.722 -29.409  12.150  1.00  0.00     0.000 C 
BRANCH   9  10
ATOM     10  C   UNL     1      10.138 -29.213  12.719  1.00  0.00     0.006 C 
BRANCH  10  11
ATOM     11  C   UNL     1      10.169 -29.329  14.250  1.00  0.00     0.053 C 
BRANCH  11  12
ATOM     12  C   UNL     1      11.369 -28.628  14.802  1.00  0.00     0.041 C 
ATOM     13  O   UNL     1      11.278 -27.958  15.865  1.00  0.00    -0.550 OA
ATOM     14  O   UNL     1      12.578 -28.678  14.121  1.00  0.00    -0.550 OA
ENDBRANCH  11  12
ENDBRANCH  10  11
ENDBRANCH   9  10
ENDBRANCH   8   9
ENDBRANCH   7   8
ENDBRANCH   6   7
ENDBRANCH   5   6
ENDBRANCH   4   5
ENDBRANCH   3   4
ENDBRANCH   2   3
ENDBRANCH   1   2
BRANCH   1  15
ATOM     15  C   UNL     1       9.019 -30.890  17.487  1.00  0.00     0.000 C 
BRANCH  15  16
ATOM     16  C   UNL     1       7.735 -31.736  17.501  1.00  0.00     0.000 C 
BRANCH  16  17
ATOM     17  C   UNL     1       8.019 -33.247  17.454  1.00  0.00     0.000 C 
BRANCH  17  18
ATOM     18  C   UNL     1       6.789 -34.077  17.040  1.00  0.00    -0.000 C 
BRANCH  18  19
ATOM     19  C   UNL     1       6.042 -33.563  15.795  1.00  0.00    -0.000 C 
BRANCH  19  20
ATOM     20  C   UNL     1       5.877 -34.639  14.708  1.00  0.00    -0.000 C 
BRANCH  20  21
ATOM     21  C   UNL     1       7.231 -35.117  14.135  1.00  0.00    -0.000 C 
BRANCH  21  22
ATOM     22  C   UNL     1       7.630 -34.406  12.829  1.00  0.00    -0.000 C 
BRANCH  22  23
ATOM     23  C   UNL     1       9.148 -34.327  12.586  1.00  0.00    -0.000 C 
BRANCH  23  24
ATOM     24  C   UNL     1       9.946 -33.811  13.804  1.00  0.00    -0.000 C 
BRANCH  24  25
ATOM     25  C   UNL     1      11.069 -32.842  13.410  1.00  0.00    -0.003 C 
ATOM     26  C   UNL     1      11.732 -33.270  12.103  1.00  0.00     0.004 C 
ENDBRANCH  24  25
ENDBRANCH  23  24
ENDBRANCH  22  23
ENDBRANCH  21  22
ENDBRANCH  20  21
ENDBRANCH  19  20
ENDBRANCH  18  19
ENDBRANCH  17  18
ENDBRANCH  16  17
ENDBRANCH  15  16
ENDBRANCH   1  15
TORSDOF 22
ENDMDL
MODEL 9
REMARK VINA RESULT:    -1.394      2.104      5.620
REMARK INTER + INTRA:          -6.440
REMARK INTER:                  -3.940
REMARK INTRA:                  -2.500
REMARK UNBOUND:                -3.254
REMARK SMILES CCCCCCCCCCCCCCCCCCCCCCCC(=O)[O-]
REMARK SMILES IDX 13 1 14 2 15 3 16 4 17 5 18 6 19 7 20 8 21 9 22 10 23 11
REMARK SMILES IDX 24 12 25 13 26 14 12 15 11 16 10 17 9 18 8 19 7 20 6 21 5 22
REMARK SMILES IDX 4 23 3 24 2 25 1 26
REMARK H PARENT
REMARK Flexibility Score: inf
ROOT
ATOM      1  C   UNL     1      10.026 -27.580  18.577  1.00  0.00     0.000 C 
ENDROOT
BRANCH   1   2
ATOM      2  C   UNL     1       9.133 -28.656  19.214  1.00  0.00     0.000 C 
BRANCH   2   3
ATOM      3  C   UNL     1       7.723 -28.692  18.604  1.00  0.00     0.000 C 
BRANCH   3   4
ATOM      4  C   UNL     1       7.017 -30.041  18.824  1.00  0.00     0.000 C 
BRANCH   4   5
ATOM      5  C   UNL     1       6.764 -30.805  17.513  1.00  0.00     0.000 C 
BRANCH   5   6
ATOM      6  C   UNL     1       7.296 -32.253  17.480  1.00  0.00     0.000 C 
BRANCH   6   7
ATOM      7  C   UNL     1       8.500 -32.483  16.547  1.00  0.00     0.000 C 
BRANCH   7   8
ATOM      8  C   UNL     1       8.126 -32.907  15.116  1.00  0.00     0.000 C 
BRANCH   8   9
ATOM      9  C   UNL     1       6.668 -33.406  14.983  1.00  0.00     0.000 C 
BRANCH   9  10
ATOM     10  C   UNL     1       5.986 -32.965  13.677  1.00  0.00     0.006 C 
BRANCH  10  11
ATOM     11  C   UNL     1       5.876 -31.438  13.567  1.00  0.00     0.053 C 
BRANCH  11  12
ATOM     12  C   UNL     1       6.765 -30.927  12.478  1.00  0.00     0.041 C 
ATOM     13  O   UNL     1       7.546 -31.712  11.877  1.00  0.00    -0.550 OA
ATOM     14  O   UNL     1       6.764 -29.576  12.156  1.00  0.00    -0.550 OA
ENDBRANCH  11  12
ENDBRANCH  10  11
ENDBRANCH   9  10
ENDBRANCH   8   9
ENDBRANCH   7   8
ENDBRANCH   6   7
ENDBRANCH   5   6
ENDBRANCH   4   5
ENDBRANCH   3   4
ENDBRANCH   2   3
ENDBRANCH   1   2
BRANCH   1  15
ATOM     15  C   UNL     1      10.057 -27.728  17.048  1.00  0.00     0.000 C 
BRANCH  15  16
ATOM     16  C   UNL     1      10.243 -29.184  16.591  1.00  0.00     0.000 C 
BRANCH  16  17
ATOM     17  C   UNL     1       9.645 -29.450  15.199  1.00  0.00     0.000 C 
BRANCH  17  18
ATOM     18  C   UNL     1      10.591 -29.047  14.052  1.00  0.00    -0.000 C 
BRANCH  18  19
ATOM     19  C   UNL     1      10.062 -29.340  12.636  1.00  0.00    -0.000 C 
BRANCH  19  20
ATOM     20  C   UNL     1      10.900 -30.392  11.888  1.00  0.00    -0.000 C 
BRANCH  20  21
ATOM     21  C   UNL     1      10.624 -31.831  12.384  1.00  0.00    -0.000 C 
BRANCH  21  22
ATOM     22  C   UNL     1      11.872 -32.535  12.948  1.00  0.00    -0.000 C 
BRANCH  22  23
ATOM     23  C   UNL     1      11.567 -33.726  13.874  1.00  0.00    -0.000 C 
BRANCH  23  24
ATOM     24  C   UNL     1      11.224 -35.029  13.117  1.00  0.00    -0.000 C 
BRANCH  24  25
ATOM     25  C   UNL     1      10.245 -34.800  11.958  1.00  0.00    -0.003 C 
ATOM     26  C   UNL     1       8.802 -35.022  12.403  1.00  0.00     0.004 C 
ENDBRANCH  24  25
ENDBRANCH  23  24
ENDBRANCH  22  23
ENDBRANCH  21  22
ENDBRANCH  20  21
ENDBRANCH  19  20
ENDBRANCH  18  19
ENDBRANCH  17  18
ENDBRANCH  16  17
ENDBRANCH  15  16
ENDBRANCH   1  15
TORSDOF 22
ENDMDL
