MODEL 1
REMARK VINA RESULT:    -3.729      0.000      0.000
REMARK INTER + INTRA:         -10.754
REMARK INTER:                  -8.526
REMARK INTRA:                  -2.228
REMARK UNBOUND:                -2.228
REMARK SMILES CCCCCCCCCCCCCCCCCCCCCCCC(=O)[O-]
REMARK SMILES IDX 13 1 14 2 15 3 16 4 17 5 18 6 19 7 20 8 21 9 22 10 23 11
REMARK SMILES IDX 24 12 25 13 26 14 12 15 11 16 10 17 9 18 8 19 7 20 6 21 5 22
REMARK SMILES IDX 4 23 3 24 2 25 1 26
REMARK H PARENT
REMARK Flexibility Score: inf
ROOT
ATOM      1  C   UNL     1       9.076  23.278  26.551  1.00  0.00     0.000 C 
ENDROOT
BRANCH   1   2
ATOM      2  C   UNL     1       9.034  24.276  27.714  1.00  0.00     0.000 C 
BRANCH   2   3
ATOM      3  C   UNL     1       8.975  23.549  29.067  1.00  0.00     0.000 C 
BRANCH   3   4
ATOM      4  C   UNL     1       8.101  24.284  30.096  1.00  0.00     0.000 C 
BRANCH   4   5
ATOM      5  C   UNL     1       8.489  23.952  31.548  1.00  0.00     0.000 C 
BRANCH   5   6
ATOM      6  C   UNL     1       7.322  23.345  32.345  1.00  0.00     0.000 C 
BRANCH   6   7
ATOM      7  C   UNL     1       6.949  24.117  33.625  1.00  0.00     0.000 C 
BRANCH   7   8
ATOM      8  C   UNL     1       5.511  23.836  34.119  1.00  0.00     0.000 C 
BRANCH   8   9
ATOM      9  C   UNL     1       5.032  22.402  33.837  1.00  0.00     0.000 C 
BRANCH   9  10
ATOM     10  C   UNL     1       3.533  22.338  33.508  1.00  0.00     0.006 C 
BRANCH  10  11
ATOM     11  C   UNL     1       3.139  23.451  32.530  1.00  0.00     0.053 C 
BRANCH  11  12
ATOM     12  C   UNL     1       2.447  22.882  31.331  1.00  0.00     0.041 C 
ATOM     13  O   UNL     1       2.358  21.633  31.184  1.00  0.00    -0.550 OA
ATOM     14  O   UNL     1       1.869  23.730  30.394  1.00  0.00    -0.550 OA
ENDBRANCH  11  12
ENDBRANCH  10  11
ENDBRANCH   9  10
ENDBRANCH   8   9
ENDBRANCH   7   8
ENDBRANCH   6   7
ENDBRANCH   5   6
ENDBRANCH   4   5
ENDBRANCH   3   4
ENDBRANCH   2   3
ENDBRANCH   1   2
BRANCH   1  15
ATOM     15  C   UNL     1       9.081  24.008  25.198  1.00  0.00     0.000 C 
BRANCH  15  16
ATOM     16  C   UNL     1       7.882  23.626  24.316  1.00  0.00     0.000 C 
BRANCH  16  17
ATOM     17  C   UNL     1       7.169  24.854  23.723  1.00  0.00     0.000 C 
BRANCH  17  18
ATOM     18  C   UNL     1       5.779  24.511  23.143  1.00  0.00    -0.000 C 
BRANCH  18  19
ATOM     19  C   UNL     1       4.648  25.437  23.633  1.00  0.00    -0.000 C 
BRANCH  19  20
ATOM     20  C   UNL     1       4.236  25.256  25.105  1.00  0.00    -0.000 C 
BRANCH  20  21
ATOM     21  C   UNL     1       4.281  26.540  25.954  1.00  0.00    -0.000 C 
BRANCH  21  22
ATOM     22  C   UNL     1       5.189  26.408  27.188  1.00  0.00    -0.000 C 
BRANCH  22  23
ATOM     23  C   UNL     1       6.679  26.321  26.823  1.00  0.00    -0.000 C 
BRANCH  23  24
ATOM     24  C   UNL     1       7.468  27.568  27.263  1.00  0.00    -0.000 C 
BRANCH  24  25
ATOM     25  C   UNL     1       8.902  27.582  26.709  1.00  0.00    -0.003 C 
ATOM     26  C   UNL     1       8.945  27.649  25.182  1.00  0.00     0.004 C 
ENDBRANCH  24  25
ENDBRANCH  23  24
ENDBRANCH  22  23
ENDBRANCH  21  22
ENDBRANCH  20  21
ENDBRANCH  19  20
ENDBRANCH  18  19
ENDBRANCH  17  18
ENDBRANCH  16  17
ENDBRANCH  15  16
ENDBRANCH   1  15
TORSDOF 22
ENDMDL
MODEL 2
REMARK VINA RESULT:    -2.773      1.200      3.103
REMARK INTER + INTRA:          -8.568
REMARK INTER:                  -6.942
REMARK INTRA:                  -1.627
REMARK UNBOUND:                -2.228
REMARK SMILES CCCCCCCCCCCCCCCCCCCCCCCC(=O)[O-]
REMARK SMILES IDX 13 1 14 2 15 3 16 4 17 5 18 6 19 7 20 8 21 9 22 10 23 11
REMARK SMILES IDX 24 12 25 13 26 14 12 15 11 16 10 17 9 18 8 19 7 20 6 21 5 22
REMARK SMILES IDX 4 23 3 24 2 25 1 26
REMARK H PARENT
REMARK Flexibility Score: inf
ROOT
ATOM      1  C   UNL     1       8.733  25.095  27.990  1.00  0.00     0.000 C 
ENDROOT
BRANCH   1   2
ATOM      2  C   UNL     1       8.783  24.629  29.450  1.00  0.00     0.000 C 
BRANCH   2   3
ATOM      3  C   UNL     1       7.586  25.173  30.247  1.00  0.00     0.000 C 
BRANCH   3   4
ATOM      4  C   UNL     1       7.817  25.129  31.766  1.00  0.00     0.000 C 
BRANCH   4   5
ATOM      5  C   UNL     1       8.365  23.772  32.243  1.00  0.00     0.000 C 
BRANCH   5   6
ATOM      6  C   UNL     1       8.132  23.538  33.746  1.00  0.00     0.000 C 
BRANCH   6   7
ATOM      7  C   UNL     1       6.679  23.190  34.123  1.00  0.00     0.000 C 
BRANCH   7   8
ATOM      8  C   UNL     1       6.288  21.731  33.795  1.00  0.00     0.000 C 
BRANCH   8   9
ATOM      9  C   UNL     1       4.778  21.459  33.906  1.00  0.00     0.000 C 
BRANCH   9  10
ATOM     10  C   UNL     1       3.936  22.721  33.667  1.00  0.00     0.006 C 
BRANCH  10  11
ATOM     11  C   UNL     1       2.495  22.356  33.289  1.00  0.00     0.053 C 
BRANCH  11  12
ATOM     12  C   UNL     1       2.451  21.695  31.948  1.00  0.00     0.041 C 
ATOM     13  O   UNL     1       2.412  22.393  30.899  1.00  0.00    -0.550 OA
ATOM     14  O   UNL     1       2.488  20.309  31.854  1.00  0.00    -0.550 OA
ENDBRANCH  11  12
ENDBRANCH  10  11
ENDBRANCH   9  10
ENDBRANCH   8   9
ENDBRANCH   7   8
ENDBRANCH   6   7
ENDBRANCH   5   6
ENDBRANCH   4   5
ENDBRANCH   3   4
ENDBRANCH   2   3
ENDBRANCH   1   2
BRANCH   1  15
ATOM     15  C   UNL     1       8.380  26.589  27.901  1.00  0.00     0.000 C 
BRANCH  15  16
ATOM     16  C   UNL     1       9.012  27.274  26.679  1.00  0.00     0.000 C 
BRANCH  16  17
ATOM     17  C   UNL     1       8.442  26.752  25.348  1.00  0.00     0.000 C 
BRANCH  17  18
ATOM     18  C   UNL     1       9.125  25.449  24.881  1.00  0.00    -0.000 C 
BRANCH  18  19
ATOM     19  C   UNL     1       9.120  25.250  23.352  1.00  0.00    -0.000 C 
BRANCH  19  20
ATOM     20  C   UNL     1       7.727  25.205  22.697  1.00  0.00    -0.000 C 
BRANCH  20  21
ATOM     21  C   UNL     1       6.601  24.672  23.602  1.00  0.00    -0.000 C 
BRANCH  21  22
ATOM     22  C   UNL     1       5.199  25.043  23.092  1.00  0.00    -0.000 C 
BRANCH  22  23
ATOM     23  C   UNL     1       4.275  25.553  24.209  1.00  0.00    -0.000 C 
BRANCH  23  24
ATOM     24  C   UNL     1       4.861  25.315  25.613  1.00  0.00    -0.000 C 
BRANCH  24  25
ATOM     25  C   UNL     1       4.852  26.587  26.477  1.00  0.00    -0.003 C 
ATOM     26  C   UNL     1       4.580  26.297  27.953  1.00  0.00     0.004 C 
ENDBRANCH  24  25
ENDBRANCH  23  24
ENDBRANCH  22  23
ENDBRANCH  21  22
ENDBRANCH  20  21
ENDBRANCH  19  20
ENDBRANCH  18  19
ENDBRANCH  17  18
ENDBRANCH  16  17
ENDBRANCH  15  16
ENDBRANCH   1  15
TORSDOF 22
ENDMDL
MODEL 3
REMARK VINA RESULT:    -2.659      5.087     10.891
REMARK INTER + INTRA:          -8.307
REMARK INTER:                  -7.180
REMARK INTRA:                  -1.127
REMARK UNBOUND:                -2.228
REMARK SMILES CCCCCCCCCCCCCCCCCCCCCCCC(=O)[O-]
REMARK SMILES IDX 13 1 14 2 15 3 16 4 17 5 18 6 19 7 20 8 21 9 22 10 23 11
REMARK SMILES IDX 24 12 25 13 26 14 12 15 11 16 10 17 9 18 8 19 7 20 6 21 5 22
REMARK SMILES IDX 4 23 3 24 2 25 1 26
REMARK H PARENT
REMARK Flexibility Score: inf
ROOT
ATOM      1  C   UNL     1       6.600  25.434  24.664  1.00  0.00     0.000 C 
ENDROOT
BRANCH   1   2
ATOM      2  C   UNL     1       7.212  24.782  23.418  1.00  0.00     0.000 C 
BRANCH   2   3
ATOM      3  C   UNL     1       8.684  25.191  23.244  1.00  0.00     0.000 C 
BRANCH   3   4
ATOM      4  C   UNL     1       9.125  25.204  21.772  1.00  0.00     0.000 C 
BRANCH   4   5
ATOM      5  C   UNL     1       8.960  26.586  21.116  1.00  0.00     0.000 C 
BRANCH   5   6
ATOM      6  C   UNL     1       8.733  26.494  19.597  1.00  0.00     0.000 C 
BRANCH   6   7
ATOM      7  C   UNL     1       8.628  27.854  18.881  1.00  0.00     0.000 C 
BRANCH   7   8
ATOM      8  C   UNL     1       8.061  27.754  17.446  1.00  0.00     0.000 C 
BRANCH   8   9
ATOM      9  C   UNL     1       7.595  29.104  16.873  1.00  0.00     0.000 C 
BRANCH   9  10
ATOM     10  C   UNL     1       6.065  29.241  16.867  1.00  0.00     0.006 C 
BRANCH  10  11
ATOM     11  C   UNL     1       5.411  28.119  17.682  1.00  0.00     0.053 C 
BRANCH  11  12
ATOM     12  C   UNL     1       4.382  28.673  18.616  1.00  0.00     0.041 C 
ATOM     13  O   UNL     1       4.169  29.914  18.660  1.00  0.00    -0.550 OA
ATOM     14  O   UNL     1       3.632  27.816  19.413  1.00  0.00    -0.550 OA
ENDBRANCH  11  12
ENDBRANCH  10  11
ENDBRANCH   9  10
ENDBRANCH   8   9
ENDBRANCH   7   8
ENDBRANCH   6   7
ENDBRANCH   5   6
ENDBRANCH   4   5
ENDBRANCH   3   4
ENDBRANCH   2   3
ENDBRANCH   1   2
BRANCH   1  15
ATOM     15  C   UNL     1       7.696  25.988  25.589  1.00  0.00     0.000 C 
BRANCH  15  16
ATOM     16  C   UNL     1       7.525  25.531  27.046  1.00  0.00     0.000 C 
BRANCH  16  17
ATOM     17  C   UNL     1       8.843  25.585  27.840  1.00  0.00     0.000 C 
BRANCH  17  18
ATOM     18  C   UNL     1       8.622  25.913  29.333  1.00  0.00    -0.000 C 
BRANCH  18  19
ATOM     19  C   UNL     1       8.386  24.675  30.220  1.00  0.00    -0.000 C 
BRANCH  19  20
ATOM     20  C   UNL     1       7.229  24.795  31.228  1.00  0.00    -0.000 C 
BRANCH  20  21
ATOM     21  C   UNL     1       7.645  24.695  32.708  1.00  0.00    -0.000 C 
BRANCH  21  22
ATOM     22  C   UNL     1       6.505  24.205  33.616  1.00  0.00    -0.000 C 
BRANCH  22  23
ATOM     23  C   UNL     1       6.240  22.698  33.477  1.00  0.00    -0.000 C 
BRANCH  23  24
ATOM     24  C   UNL     1       4.797  22.316  33.855  1.00  0.00    -0.000 C 
BRANCH  24  25
ATOM     25  C   UNL     1       3.778  23.393  33.448  1.00  0.00    -0.003 C 
ATOM     26  C   UNL     1       2.997  23.022  32.187  1.00  0.00     0.004 C 
ENDBRANCH  24  25
ENDBRANCH  23  24
ENDBRANCH  22  23
ENDBRANCH  21  22
ENDBRANCH  20  21
ENDBRANCH  19  20
ENDBRANCH  18  19
ENDBRANCH  17  18
ENDBRANCH  16  17
ENDBRANCH  15  16
ENDBRANCH   1  15
TORSDOF 22
ENDMDL
MODEL 4
REMARK VINA RESULT:    -2.380      4.510      6.642
REMARK INTER + INTRA:          -7.670
REMARK INTER:                  -6.173
REMARK INTRA:                  -1.497
REMARK UNBOUND:                -2.228
REMARK SMILES CCCCCCCCCCCCCCCCCCCCCCCC(=O)[O-]
REMARK SMILES IDX 13 1 14 2 15 3 16 4 17 5 18 6 19 7 20 8 21 9 22 10 23 11
REMARK SMILES IDX 24 12 25 13 26 14 12 15 11 16 10 17 9 18 8 19 7 20 6 21 5 22
REMARK SMILES IDX 4 23 3 24 2 25 1 26
REMARK H PARENT
REMARK Flexibility Score: inf
ROOT
ATOM      1  C   UNL     1       7.092  25.209  22.841  1.00  0.00     0.000 C 
ENDROOT
BRANCH   1   2
ATOM      2  C   UNL     1       6.921  24.878  24.329  1.00  0.00     0.000 C 
BRANCH   2   3
ATOM      3  C   UNL     1       8.141  24.114  24.870  1.00  0.00     0.000 C 
BRANCH   3   4
ATOM      4  C   UNL     1       8.615  24.646  26.232  1.00  0.00     0.000 C 
BRANCH   4   5
ATOM      5  C   UNL     1       8.597  26.183  26.307  1.00  0.00     0.000 C 
BRANCH   5   6
ATOM      6  C   UNL     1       8.869  26.706  27.728  1.00  0.00     0.000 C 
BRANCH   6   7
ATOM      7  C   UNL     1       8.920  25.615  28.814  1.00  0.00     0.000 C 
BRANCH   7   8
ATOM      8  C   UNL     1       7.689  25.617  29.749  1.00  0.00     0.000 C 
BRANCH   8   9
ATOM      9  C   UNL     1       8.035  25.350  31.224  1.00  0.00     0.000 C 
BRANCH   9  10
ATOM     10  C   UNL     1       7.899  23.867  31.600  1.00  0.00     0.006 C 
BRANCH  10  11
ATOM     11  C   UNL     1       6.593  23.612  32.361  1.00  0.00     0.053 C 
BRANCH  11  12
ATOM     12  C   UNL     1       6.805  22.618  33.459  1.00  0.00     0.041 C 
ATOM     13  O   UNL     1       7.893  22.598  34.095  1.00  0.00    -0.550 OA
ATOM     14  O   UNL     1       5.789  21.736  33.804  1.00  0.00    -0.550 OA
ENDBRANCH  11  12
ENDBRANCH  10  11
ENDBRANCH   9  10
ENDBRANCH   8   9
ENDBRANCH   7   8
ENDBRANCH   6   7
ENDBRANCH   5   6
ENDBRANCH   4   5
ENDBRANCH   3   4
ENDBRANCH   2   3
ENDBRANCH   1   2
BRANCH   1  15
ATOM     15  C   UNL     1       8.580  25.303  22.465  1.00  0.00     0.000 C 
BRANCH  15  16
ATOM     16  C   UNL     1       8.877  26.474  21.515  1.00  0.00     0.000 C 
BRANCH  16  17
ATOM     17  C   UNL     1       8.977  26.031  20.045  1.00  0.00     0.000 C 
BRANCH  17  18
ATOM     18  C   UNL     1       9.125  27.224  19.075  1.00  0.00    -0.000 C 
BRANCH  18  19
ATOM     19  C   UNL     1       7.822  27.606  18.346  1.00  0.00    -0.000 C 
BRANCH  19  20
ATOM     20  C   UNL     1       7.985  28.597  17.179  1.00  0.00    -0.000 C 
BRANCH  20  21
ATOM     21  C   UNL     1       7.054  28.343  15.978  1.00  0.00    -0.000 C 
BRANCH  21  22
ATOM     22  C   UNL     1       5.566  28.353  16.364  1.00  0.00    -0.000 C 
BRANCH  22  23
ATOM     23  C   UNL     1       5.085  29.732  16.844  1.00  0.00    -0.000 C 
BRANCH  23  24
ATOM     24  C   UNL     1       4.209  29.644  18.107  1.00  0.00    -0.000 C 
BRANCH  24  25
ATOM     25  C   UNL     1       4.126  28.215  18.666  1.00  0.00    -0.003 C 
ATOM     26  C   UNL     1       3.705  28.178  20.135  1.00  0.00     0.004 C 
ENDBRANCH  24  25
ENDBRANCH  23  24
ENDBRANCH  22  23
ENDBRANCH  21  22
ENDBRANCH  20  21
ENDBRANCH  19  20
ENDBRANCH  18  19
ENDBRANCH  17  18
ENDBRANCH  16  17
ENDBRANCH  15  16
ENDBRANCH   1  15
TORSDOF 22
ENDMDL
MODEL 5
REMARK VINA RESULT:    -2.267      3.232      5.503
REMARK INTER + INTRA:          -7.410
REMARK INTER:                  -5.919
REMARK INTRA:                  -1.491
REMARK UNBOUND:                -2.228
REMARK SMILES CCCCCCCCCCCCCCCCCCCCCCCC(=O)[O-]
REMARK SMILES IDX 13 1 14 2 15 3 16 4 17 5 18 6 19 7 20 8 21 9 22 10 23 11
REMARK SMILES IDX 24 12 25 13 26 14 12 15 11 16 10 17 9 18 8 19 7 20 6 21 5 22
REMARK SMILES IDX 4 23 3 24 2 25 1 26
REMARK H PARENT
REMARK Flexibility Score: inf
ROOT
ATOM      1  C   UNL     1       4.018  26.164  25.888  1.00  0.00     0.000 C 
ENDROOT
BRANCH   1   2
ATOM      2  C   UNL     1       4.754  26.631  27.151  1.00  0.00     0.000 C 
BRANCH   2   3
ATOM      3  C   UNL     1       6.265  26.369  27.041  1.00  0.00     0.000 C 
BRANCH   3   4
ATOM      4  C   UNL     1       6.883  25.908  28.371  1.00  0.00     0.000 C 
BRANCH   4   5
ATOM      5  C   UNL     1       8.368  25.529  28.234  1.00  0.00     0.000 C 
BRANCH   5   6
ATOM      6  C   UNL     1       9.031  25.244  29.594  1.00  0.00     0.000 C 
BRANCH   6   7
ATOM      7  C   UNL     1       8.230  25.738  30.814  1.00  0.00     0.000 C 
BRANCH   7   8
ATOM      8  C   UNL     1       8.852  25.328  32.168  1.00  0.00     0.000 C 
BRANCH   8   9
ATOM      9  C   UNL     1       9.125  23.819  32.288  1.00  0.00     0.000 C 
BRANCH   9  10
ATOM     10  C   UNL     1       8.592  23.230  33.603  1.00  0.00     0.006 C 
BRANCH  10  11
ATOM     11  C   UNL     1       7.397  22.305  33.345  1.00  0.00     0.053 C 
BRANCH  11  12
ATOM     12  C   UNL     1       6.109  23.012  33.625  1.00  0.00     0.041 C 
ATOM     13  O   UNL     1       5.091  22.357  33.978  1.00  0.00    -0.550 OA
ATOM     14  O   UNL     1       6.041  24.396  33.533  1.00  0.00    -0.550 OA
ENDBRANCH  11  12
ENDBRANCH  10  11
ENDBRANCH   9  10
ENDBRANCH   8   9
ENDBRANCH   7   8
ENDBRANCH   6   7
ENDBRANCH   5   6
ENDBRANCH   4   5
ENDBRANCH   3   4
ENDBRANCH   2   3
ENDBRANCH   1   2
BRANCH   1  15
ATOM     15  C   UNL     1       4.831  25.092  25.143  1.00  0.00     0.000 C 
BRANCH  15  16
ATOM     16  C   UNL     1       4.683  25.194  23.617  1.00  0.00     0.000 C 
BRANCH  16  17
ATOM     17  C   UNL     1       6.035  25.113  22.886  1.00  0.00     0.000 C 
BRANCH  17  18
ATOM     18  C   UNL     1       7.185  24.665  23.814  1.00  0.00    -0.000 C 
BRANCH  18  19
ATOM     19  C   UNL     1       8.534  25.350  23.518  1.00  0.00    -0.000 C 
BRANCH  19  20
ATOM     20  C   UNL     1       9.034  25.225  22.067  1.00  0.00    -0.000 C 
BRANCH  20  21
ATOM     21  C   UNL     1       9.125  26.555  21.296  1.00  0.00    -0.000 C 
BRANCH  21  22
ATOM     22  C   UNL     1       9.000  26.372  19.774  1.00  0.00    -0.000 C 
BRANCH  22  23
ATOM     23  C   UNL     1       8.333  27.572  19.083  1.00  0.00    -0.000 C 
BRANCH  23  24
ATOM     24  C   UNL     1       8.171  27.364  17.566  1.00  0.00    -0.000 C 
BRANCH  24  25
ATOM     25  C   UNL     1       6.873  27.983  17.024  1.00  0.00    -0.003 C 
ATOM     26  C   UNL     1       5.867  28.310  18.128  1.00  0.00     0.004 C 
ENDBRANCH  24  25
ENDBRANCH  23  24
ENDBRANCH  22  23
ENDBRANCH  21  22
ENDBRANCH  20  21
ENDBRANCH  19  20
ENDBRANCH  18  19
ENDBRANCH  17  18
ENDBRANCH  16  17
ENDBRANCH  15  16
ENDBRANCH   1  15
TORSDOF 22
ENDMDL
MODEL 6
REMARK VINA RESULT:    -2.205      5.283     11.011
REMARK INTER + INTRA:          -7.269
REMARK INTER:                  -6.326
REMARK INTRA:                  -0.943
REMARK UNBOUND:                -2.228
REMARK SMILES CCCCCCCCCCCCCCCCCCCCCCCC(=O)[O-]
REMARK SMILES IDX 13 1 14 2 15 3 16 4 17 5 18 6 19 7 20 8 21 9 22 10 23 11
REMARK SMILES IDX 24 12 25 13 26 14 12 15 11 16 10 17 9 18 8 19 7 20 6 21 5 22
REMARK SMILES IDX 4 23 3 24 2 25 1 26
REMARK H PARENT
REMARK Flexibility Score: inf
ROOT
ATOM      1  C   UNL     1       8.353  24.592  27.335  1.00  0.00     0.000 C 
ENDROOT
BRANCH   1   2
ATOM      2  C   UNL     1       9.124  25.014  26.078  1.00  0.00     0.000 C 
BRANCH   2   3
ATOM      3  C   UNL     1       8.240  24.908  24.825  1.00  0.00     0.000 C 
BRANCH   3   4
ATOM      4  C   UNL     1       9.061  24.800  23.530  1.00  0.00     0.000 C 
BRANCH   4   5
ATOM      5  C   UNL     1       9.123  26.128  22.755  1.00  0.00     0.000 C 
BRANCH   5   6
ATOM      6  C   UNL     1       9.054  25.924  21.231  1.00  0.00     0.000 C 
BRANCH   6   7
ATOM      7  C   UNL     1       9.105  27.225  20.407  1.00  0.00     0.000 C 
BRANCH   7   8
ATOM      8  C   UNL     1       8.128  27.236  19.209  1.00  0.00     0.000 C 
BRANCH   8   9
ATOM      9  C   UNL     1       8.815  27.499  17.857  1.00  0.00     0.000 C 
BRANCH   9  10
ATOM     10  C   UNL     1       7.929  28.307  16.897  1.00  0.00     0.006 C 
BRANCH  10  11
ATOM     11  C   UNL     1       6.456  27.911  17.046  1.00  0.00     0.053 C 
BRANCH  11  12
ATOM     12  C   UNL     1       5.619  29.103  17.387  1.00  0.00     0.041 C 
ATOM     13  O   UNL     1       4.576  28.967  18.083  1.00  0.00    -0.550 OA
ATOM     14  O   UNL     1       6.008  30.369  16.968  1.00  0.00    -0.550 OA
ENDBRANCH  11  12
ENDBRANCH  10  11
ENDBRANCH   9  10
ENDBRANCH   8   9
ENDBRANCH   7   8
ENDBRANCH   6   7
ENDBRANCH   5   6
ENDBRANCH   4   5
ENDBRANCH   3   4
ENDBRANCH   2   3
ENDBRANCH   1   2
BRANCH   1  15
ATOM     15  C   UNL     1       7.835  25.820  28.102  1.00  0.00     0.000 C 
BRANCH  15  16
ATOM     16  C   UNL     1       8.643  26.104  29.378  1.00  0.00     0.000 C 
BRANCH  16  17
ATOM     17  C   UNL     1       7.971  25.537  30.641  1.00  0.00     0.000 C 
BRANCH  17  18
ATOM     18  C   UNL     1       8.978  24.857  31.594  1.00  0.00    -0.000 C 
BRANCH  18  19
ATOM     19  C   UNL     1       8.569  24.908  33.079  1.00  0.00    -0.000 C 
BRANCH  19  20
ATOM     20  C   UNL     1       8.327  23.541  33.745  1.00  0.00    -0.000 C 
BRANCH  20  21
ATOM     21  C   UNL     1       7.272  22.659  33.050  1.00  0.00    -0.000 C 
BRANCH  21  22
ATOM     22  C   UNL     1       5.907  23.354  32.919  1.00  0.00    -0.000 C 
BRANCH  22  23
ATOM     23  C   UNL     1       4.786  22.608  33.661  1.00  0.00    -0.000 C 
BRANCH  23  24
ATOM     24  C   UNL     1       3.400  23.231  33.415  1.00  0.00    -0.000 C 
BRANCH  24  25
ATOM     25  C   UNL     1       2.608  22.492  32.324  1.00  0.00    -0.003 C 
ATOM     26  C   UNL     1       2.349  23.360  31.092  1.00  0.00     0.004 C 
ENDBRANCH  24  25
ENDBRANCH  23  24
ENDBRANCH  22  23
ENDBRANCH  21  22
ENDBRANCH  20  21
ENDBRANCH  19  20
ENDBRANCH  18  19
ENDBRANCH  17  18
ENDBRANCH  16  17
ENDBRANCH  15  16
ENDBRANCH   1  15
TORSDOF 22
ENDMDL
MODEL 7
REMARK VINA RESULT:    -2.165      3.578      5.174
REMARK INTER + INTRA:          -7.178
REMARK INTER:                  -5.835
REMARK INTRA:                  -1.343
REMARK UNBOUND:                -2.228
REMARK SMILES CCCCCCCCCCCCCCCCCCCCCCCC(=O)[O-]
REMARK SMILES IDX 13 1 14 2 15 3 16 4 17 5 18 6 19 7 20 8 21 9 22 10 23 11
REMARK SMILES IDX 24 12 25 13 26 14 12 15 11 16 10 17 9 18 8 19 7 20 6 21 5 22
REMARK SMILES IDX 4 23 3 24 2 25 1 26
REMARK H PARENT
REMARK Flexibility Score: inf
ROOT
ATOM      1  C   UNL     1       5.163  26.171  26.322  1.00  0.00     0.000 C 
ENDROOT
BRANCH   1   2
ATOM      2  C   UNL     1       5.756  26.372  27.722  1.00  0.00     0.000 C 
BRANCH   2   3
ATOM      3  C   UNL     1       7.276  26.145  27.718  1.00  0.00     0.000 C 
BRANCH   3   4
ATOM      4  C   UNL     1       7.856  26.000  29.134  1.00  0.00     0.000 C 
BRANCH   4   5
ATOM      5  C   UNL     1       8.413  24.591  29.405  1.00  0.00     0.000 C 
BRANCH   5   6
ATOM      6  C   UNL     1       8.078  24.087  30.820  1.00  0.00     0.000 C 
BRANCH   6   7
ATOM      7  C   UNL     1       8.252  25.138  31.933  1.00  0.00     0.000 C 
BRANCH   7   8
ATOM      8  C   UNL     1       6.970  25.373  32.765  1.00  0.00     0.000 C 
BRANCH   8   9
ATOM      9  C   UNL     1       6.656  24.231  33.747  1.00  0.00     0.000 C 
BRANCH   9  10
ATOM     10  C   UNL     1       5.156  23.908  33.810  1.00  0.00     0.006 C 
BRANCH  10  11
ATOM     11  C   UNL     1       4.706  23.147  32.557  1.00  0.00     0.053 C 
BRANCH  11  12
ATOM     12  C   UNL     1       3.247  23.357  32.305  1.00  0.00     0.041 C 
ATOM     13  O   UNL     1       2.447  23.478  33.272  1.00  0.00    -0.550 OA
ATOM     14  O   UNL     1       2.773  23.456  31.002  1.00  0.00    -0.550 OA
ENDBRANCH  11  12
ENDBRANCH  10  11
ENDBRANCH   9  10
ENDBRANCH   8   9
ENDBRANCH   7   8
ENDBRANCH   6   7
ENDBRANCH   5   6
ENDBRANCH   4   5
ENDBRANCH   3   4
ENDBRANCH   2   3
ENDBRANCH   1   2
BRANCH   1  15
ATOM     15  C   UNL     1       6.220  25.624  25.350  1.00  0.00     0.000 C 
BRANCH  15  16
ATOM     16  C   UNL     1       5.628  25.248  23.982  1.00  0.00     0.000 C 
BRANCH  16  17
ATOM     17  C   UNL     1       6.666  24.606  23.045  1.00  0.00     0.000 C 
BRANCH  17  18
ATOM     18  C   UNL     1       8.118  24.896  23.482  1.00  0.00    -0.000 C 
BRANCH  18  19
ATOM     19  C   UNL     1       8.868  25.876  22.558  1.00  0.00    -0.000 C 
BRANCH  19  20
ATOM     20  C   UNL     1       8.551  25.743  21.057  1.00  0.00    -0.000 C 
BRANCH  20  21
ATOM     21  C   UNL     1       9.125  26.864  20.171  1.00  0.00    -0.000 C 
BRANCH  21  22
ATOM     22  C   UNL     1       8.737  26.712  18.691  1.00  0.00    -0.000 C 
BRANCH  22  23
ATOM     23  C   UNL     1       7.770  27.808  18.215  1.00  0.00    -0.000 C 
BRANCH  23  24
ATOM     24  C   UNL     1       8.298  28.566  16.983  1.00  0.00    -0.000 C 
BRANCH  24  25
ATOM     25  C   UNL     1       7.428  29.783  16.625  1.00  0.00    -0.003 C 
ATOM     26  C   UNL     1       5.939  29.535  16.863  1.00  0.00     0.004 C 
ENDBRANCH  24  25
ENDBRANCH  23  24
ENDBRANCH  22  23
ENDBRANCH  21  22
ENDBRANCH  20  21
ENDBRANCH  19  20
ENDBRANCH  18  19
ENDBRANCH  17  18
ENDBRANCH  16  17
ENDBRANCH  15  16
ENDBRANCH   1  15
TORSDOF 22
ENDMDL
MODEL 8
REMARK VINA RESULT:    -2.117      2.214      4.941
REMARK INTER + INTRA:          -7.069
REMARK INTER:                  -4.990
REMARK INTRA:                  -2.079
REMARK UNBOUND:                -2.228
REMARK SMILES CCCCCCCCCCCCCCCCCCCCCCCC(=O)[O-]
REMARK SMILES IDX 13 1 14 2 15 3 16 4 17 5 18 6 19 7 20 8 21 9 22 10 23 11
REMARK SMILES IDX 24 12 25 13 26 14 12 15 11 16 10 17 9 18 8 19 7 20 6 21 5 22
REMARK SMILES IDX 4 23 3 24 2 25 1 26
REMARK H PARENT
REMARK Flexibility Score: inf
ROOT
ATOM      1  C   UNL     1       3.125  24.127  29.608  1.00  0.00     0.000 C 
ENDROOT
BRANCH   1   2
ATOM      2  C   UNL     1       1.774  23.524  30.010  1.00  0.00     0.000 C 
BRANCH   2   3
ATOM      3  C   UNL     1       1.674  23.356  31.535  1.00  0.00     0.000 C 
BRANCH   3   4
ATOM      4  C   UNL     1       2.404  22.101  32.041  1.00  0.00     0.000 C 
BRANCH   4   5
ATOM      5  C   UNL     1       2.850  22.226  33.509  1.00  0.00     0.000 C 
BRANCH   5   6
ATOM      6  C   UNL     1       4.195  21.528  33.777  1.00  0.00     0.000 C 
BRANCH   6   7
ATOM      7  C   UNL     1       5.422  22.458  33.722  1.00  0.00     0.000 C 
BRANCH   7   8
ATOM      8  C   UNL     1       6.745  21.758  34.108  1.00  0.00     0.000 C 
BRANCH   8   9
ATOM      9  C   UNL     1       7.971  22.300  33.353  1.00  0.00     0.000 C 
BRANCH   9  10
ATOM     10  C   UNL     1       8.590  23.524  34.044  1.00  0.00     0.006 C 
BRANCH  10  11
ATOM     11  C   UNL     1       9.000  24.585  33.017  1.00  0.00     0.053 C 
BRANCH  11  12
ATOM     12  C   UNL     1       7.805  25.342  32.530  1.00  0.00     0.041 C 
ATOM     13  O   UNL     1       7.036  25.908  33.352  1.00  0.00    -0.550 OA
ATOM     14  O   UNL     1       7.559  25.452  31.167  1.00  0.00    -0.550 OA
ENDBRANCH  11  12
ENDBRANCH  10  11
ENDBRANCH   9  10
ENDBRANCH   8   9
ENDBRANCH   7   8
ENDBRANCH   6   7
ENDBRANCH   5   6
ENDBRANCH   4   5
ENDBRANCH   3   4
ENDBRANCH   2   3
ENDBRANCH   1   2
BRANCH   1  15
ATOM     15  C   UNL     1       3.006  24.917  28.294  1.00  0.00     0.000 C 
BRANCH  15  16
ATOM     16  C   UNL     1       4.219  25.825  28.037  1.00  0.00     0.000 C 
BRANCH  16  17
ATOM     17  C   UNL     1       4.234  26.402  26.611  1.00  0.00     0.000 C 
BRANCH  17  18
ATOM     18  C   UNL     1       3.970  25.328  25.534  1.00  0.00    -0.000 C 
BRANCH  18  19
ATOM     19  C   UNL     1       4.582  25.655  24.157  1.00  0.00    -0.000 C 
BRANCH  19  20
ATOM     20  C   UNL     1       5.477  24.557  23.555  1.00  0.00    -0.000 C 
BRANCH  20  21
ATOM     21  C   UNL     1       6.966  24.930  23.429  1.00  0.00    -0.000 C 
BRANCH  21  22
ATOM     22  C   UNL     1       7.867  24.117  24.373  1.00  0.00    -0.000 C 
BRANCH  22  23
ATOM     23  C   UNL     1       8.774  25.004  25.240  1.00  0.00    -0.000 C 
BRANCH  23  24
ATOM     24  C   UNL     1       8.364  26.488  25.197  1.00  0.00    -0.000 C 
BRANCH  24  25
ATOM     25  C   UNL     1       7.797  26.980  26.539  1.00  0.00    -0.003 C 
ATOM     26  C   UNL     1       7.784  25.890  27.610  1.00  0.00     0.004 C 
ENDBRANCH  24  25
ENDBRANCH  23  24
ENDBRANCH  22  23
ENDBRANCH  21  22
ENDBRANCH  20  21
ENDBRANCH  19  20
ENDBRANCH  18  19
ENDBRANCH  17  18
ENDBRANCH  16  17
ENDBRANCH  15  16
ENDBRANCH   1  15
TORSDOF 22
ENDMDL
