MODEL 1
REMARK VINA RESULT:    12.963      0.000      0.000
REMARK INTER + INTRA:          15.203
REMARK INTER:                  15.615
REMARK INTRA:                  -0.412
REMARK UNBOUND:                -0.412
REMARK SMILES O=c1c(O)c(-c2ccc(O)cc2O)oc2cc(O)cc(O)c12
REMARK SMILES IDX 5 1 3 2 2 3 1 4 22 5 20 6 19 7 17 8 16 9 15 10 14 11 6 12
REMARK SMILES IDX 8 13 7 14 9 15 11 16 12 17 10 18 13 20 4 22 21 24 18 26
REMARK H PARENT 10 19 13 21 4 23 21 25 18 27
REMARK Flexibility Score: inf
ROOT
ATOM      1  C   UNL     1     -19.534  -6.875  11.996  1.00  0.00     0.184 A 
ATOM      2  C   UNL     1     -20.373  -7.649  12.817  1.00  0.00     0.208 A 
ATOM      3  C   UNL     1     -20.617  -8.985  12.467  1.00  0.00     0.238 A 
ATOM      4  O   UNL     1     -21.378  -9.687  13.189  1.00  0.00    -0.285 OA
ATOM      5  C   UNL     1     -20.004  -9.528  11.320  1.00  0.00     0.111 A 
ATOM      6  C   UNL     1     -20.194 -10.867  10.899  1.00  0.00     0.134 A 
ATOM      7  C   UNL     1     -19.541 -11.335   9.749  1.00  0.00     0.093 A 
ATOM      8  C   UNL     1     -18.702 -10.490   9.013  1.00  0.00     0.123 A 
ATOM      9  C   UNL     1     -18.511  -9.170   9.423  1.00  0.00     0.094 A 
ATOM     10  C   UNL     1     -19.154  -8.684  10.565  1.00  0.00     0.146 A 
ATOM     11  O   UNL     1     -18.959  -7.422  10.930  1.00  0.00    -0.451 OA
ENDROOT
BRANCH   1  12
ATOM     12  C   UNL     1     -19.244  -5.459  12.301  1.00  0.00     0.063 A 
ATOM     13  C   UNL     1     -20.022  -3.158  12.422  1.00  0.00     0.047 A 
ATOM     14  C   UNL     1     -20.261  -4.506  12.137  1.00  0.00     0.020 A 
ATOM     15  C   UNL     1     -18.767  -2.750  12.886  1.00  0.00     0.119 A 
ATOM     16  C   UNL     1     -17.755  -3.695  13.074  1.00  0.00     0.093 A 
ATOM     17  C   UNL     1     -17.988  -5.051  12.796  1.00  0.00     0.130 A 
BRANCH  15  18
ATOM     18  O   UNL     1     -18.516  -1.409  13.169  1.00  0.00    -0.508 OA
ATOM     19  H   UNL     1     -18.923  -0.665  12.614  1.00  0.00     0.293 HD
ENDBRANCH  15  18
BRANCH  17  20
ATOM     20  O   UNL     1     -16.985  -5.990  13.034  1.00  0.00    -0.507 OA
ATOM     21  H   UNL     1     -16.736  -6.276  13.975  1.00  0.00     0.293 HD
ENDBRANCH  17  20
ENDBRANCH   1  12
BRANCH   2  22
ATOM     22  O   UNL     1     -20.930  -7.095  13.973  1.00  0.00    -0.502 OA
ATOM     23  H   UNL     1     -20.555  -6.260  14.407  1.00  0.00     0.293 HD
ENDBRANCH   2  22
BRANCH   6  24
ATOM     24  O   UNL     1     -21.025 -11.732  11.613  1.00  0.00    -0.507 OA
ATOM     25  H   UNL     1     -21.044 -11.736  12.626  1.00  0.00     0.293 HD
ENDBRANCH   6  24
BRANCH   8  26
ATOM     26  O   UNL     1     -18.051 -10.955   7.872  1.00  0.00    -0.508 OA
ATOM     27  H   UNL     1     -17.527 -11.823   7.877  1.00  0.00     0.293 HD
ENDBRANCH   8  26
TORSDOF 6
ENDMDL
MODEL 2
REMARK VINA RESULT:    13.668      1.156      2.805
REMARK INTER + INTRA:          16.053
REMARK INTER:                  16.335
REMARK INTRA:                  -0.282
REMARK UNBOUND:                -0.412
REMARK SMILES O=c1c(O)c(-c2ccc(O)cc2O)oc2cc(O)cc(O)c12
REMARK SMILES IDX 5 1 3 2 2 3 1 4 22 5 20 6 19 7 17 8 16 9 15 10 14 11 6 12
REMARK SMILES IDX 8 13 7 14 9 15 11 16 12 17 10 18 13 20 4 22 21 24 18 26
REMARK H PARENT 10 19 13 21 4 23 21 25 18 27
REMARK Flexibility Score: inf
ROOT
ATOM      1  C   UNL     1     -19.057  -6.846  11.359  1.00  0.00     0.184 A 
ATOM      2  C   UNL     1     -18.135  -7.214  10.363  1.00  0.00     0.208 A 
ATOM      3  C   UNL     1     -18.170  -8.522   9.858  1.00  0.00     0.238 A 
ATOM      4  O   UNL     1     -17.341  -8.868   8.972  1.00  0.00    -0.285 OA
ATOM      5  C   UNL     1     -19.134  -9.430  10.341  1.00  0.00     0.111 A 
ATOM      6  C   UNL     1     -19.239 -10.766   9.884  1.00  0.00     0.134 A 
ATOM      7  C   UNL     1     -20.231 -11.606  10.409  1.00  0.00     0.093 A 
ATOM      8  C   UNL     1     -21.121 -11.136  11.383  1.00  0.00     0.123 A 
ATOM      9  C   UNL     1     -21.022  -9.820  11.837  1.00  0.00     0.094 A 
ATOM     10  C   UNL     1     -20.038  -8.968  11.327  1.00  0.00     0.146 A 
ATOM     11  O   UNL     1     -19.963  -7.722  11.782  1.00  0.00    -0.451 OA
ENDROOT
BRANCH   1  12
ATOM     12  C   UNL     1     -19.068  -5.488  11.942  1.00  0.00     0.063 A 
ATOM     13  C   UNL     1     -20.252  -3.398  12.315  1.00  0.00     0.047 A 
ATOM     14  C   UNL     1     -20.206  -4.685  11.772  1.00  0.00     0.020 A 
ATOM     15  C   UNL     1     -19.166  -2.904  13.046  1.00  0.00     0.119 A 
ATOM     16  C   UNL     1     -18.038  -3.706  13.240  1.00  0.00     0.093 A 
ATOM     17  C   UNL     1     -17.985  -5.001  12.703  1.00  0.00     0.130 A 
BRANCH  15  18
ATOM     18  O   UNL     1     -19.199  -1.622  13.589  1.00  0.00    -0.508 OA
ATOM     19  H   UNL     1     -18.367  -1.186  13.969  1.00  0.00     0.293 HD
ENDBRANCH  15  18
BRANCH  17  20
ATOM     20  O   UNL     1     -16.874  -5.809  12.946  1.00  0.00    -0.507 OA
ATOM     21  H   UNL     1     -16.468  -5.890  13.870  1.00  0.00     0.293 HD
ENDBRANCH  17  20
ENDBRANCH   1  12
BRANCH   2  22
ATOM     22  O   UNL     1     -17.222  -6.277   9.872  1.00  0.00    -0.502 OA
ATOM     23  H   UNL     1     -16.477  -6.530   9.233  1.00  0.00     0.293 HD
ENDBRANCH   2  22
BRANCH   6  24
ATOM     24  O   UNL     1     -18.366 -11.263   8.914  1.00  0.00    -0.507 OA
ATOM     25  H   UNL     1     -18.496 -11.063   7.929  1.00  0.00     0.293 HD
ENDBRANCH   6  24
BRANCH   8  26
ATOM     26  O   UNL     1     -22.109 -11.969  11.903  1.00  0.00    -0.508 OA
ATOM     27  H   UNL     1     -22.703 -12.527  11.301  1.00  0.00     0.293 HD
ENDBRANCH   8  26
TORSDOF 6
ENDMDL
MODEL 3
REMARK VINA RESULT:    15.533      1.573      2.691
REMARK INTER + INTRA:          18.299
REMARK INTER:                  18.621
REMARK INTRA:                  -0.322
REMARK UNBOUND:                -0.412
REMARK SMILES O=c1c(O)c(-c2ccc(O)cc2O)oc2cc(O)cc(O)c12
REMARK SMILES IDX 5 1 3 2 2 3 1 4 22 5 20 6 19 7 17 8 16 9 15 10 14 11 6 12
REMARK SMILES IDX 8 13 7 14 9 15 11 16 12 17 10 18 13 20 4 22 21 24 18 26
REMARK H PARENT 10 19 13 21 4 23 21 25 18 27
REMARK Flexibility Score: inf
ROOT
ATOM      1  C   UNL     1     -19.053  -6.465  11.897  1.00  0.00     0.184 A 
ATOM      2  C   UNL     1     -19.346  -6.791  10.561  1.00  0.00     0.208 A 
ATOM      3  C   UNL     1     -19.461  -8.142  10.203  1.00  0.00     0.238 A 
ATOM      4  O   UNL     1     -19.712  -8.448   9.005  1.00  0.00    -0.285 OA
ATOM      5  C   UNL     1     -19.301  -9.140  11.186  1.00  0.00     0.111 A 
ATOM      6  C   UNL     1     -19.404 -10.524  10.910  1.00  0.00     0.134 A 
ATOM      7  C   UNL     1     -19.240 -11.455  11.947  1.00  0.00     0.093 A 
ATOM      8  C   UNL     1     -18.977 -11.027  13.254  1.00  0.00     0.123 A 
ATOM      9  C   UNL     1     -18.874  -9.664  13.531  1.00  0.00     0.094 A 
ATOM     10  C   UNL     1     -19.032  -8.721  12.512  1.00  0.00     0.146 A 
ATOM     11  O   UNL     1     -18.925  -7.429  12.803  1.00  0.00    -0.451 OA
ENDROOT
BRANCH   1  12
ATOM     12  C   UNL     1     -18.908  -5.063  12.339  1.00  0.00     0.063 A 
ATOM     13  C   UNL     1     -19.896  -2.857  12.610  1.00  0.00     0.047 A 
ATOM     14  C   UNL     1     -19.997  -4.188  12.196  1.00  0.00     0.020 A 
ATOM     15  C   UNL     1     -18.708  -2.388  13.183  1.00  0.00     0.119 A 
ATOM     16  C   UNL     1     -17.628  -3.258  13.351  1.00  0.00     0.093 A 
ATOM     17  C   UNL     1     -17.722  -4.597  12.944  1.00  0.00     0.130 A 
BRANCH  15  18
ATOM     18  O   UNL     1     -18.594  -1.062  13.596  1.00  0.00    -0.508 OA
ATOM     19  H   UNL     1     -17.702  -0.668  13.872  1.00  0.00     0.293 HD
ENDBRANCH  15  18
BRANCH  17  20
ATOM     20  O   UNL     1     -16.654  -5.466  13.162  1.00  0.00    -0.507 OA
ATOM     21  H   UNL     1     -16.560  -6.333  12.646  1.00  0.00     0.293 HD
ENDBRANCH  17  20
ENDBRANCH   1  12
BRANCH   2  22
ATOM     22  O   UNL     1     -19.544  -5.778   9.619  1.00  0.00    -0.502 OA
ATOM     23  H   UNL     1     -19.584  -4.799   9.876  1.00  0.00     0.293 HD
ENDBRANCH   2  22
BRANCH   6  24
ATOM     24  O   UNL     1     -19.667 -10.981   9.618  1.00  0.00    -0.507 OA
ATOM     25  H   UNL     1     -19.621 -11.965   9.380  1.00  0.00     0.293 HD
ENDBRANCH   6  24
BRANCH   8  26
ATOM     26  O   UNL     1     -18.816 -11.951  14.284  1.00  0.00    -0.508 OA
ATOM     27  H   UNL     1     -18.445 -11.679  15.187  1.00  0.00     0.293 HD
ENDBRANCH   8  26
TORSDOF 6
ENDMDL
