MODEL 1
REMARK VINA RESULT:    -6.766      0.000      0.000
REMARK INTER + INTRA:          -7.602
REMARK INTER:                  -7.359
REMARK INTRA:                  -0.243
REMARK UNBOUND:                -0.243
REMARK SMILES C[C@@H]1[C@H](C)CC[C@@]2(C(=O)[O-])CC[C@]3(C)C(=CC[C@@H]4[C@]5(C)CC[C@@H](O)C(C)(C)[C@H]5CC[C@]43C)[C@@H]12
REMARK SMILES IDX 7 1 6 2 11 3 33 4 5 5 12 6 15 7 2 8 3 9 13 10 16 11 1 12
REMARK SMILES IDX 4 13 14 14 31 15 17 16 18 17 30 18 32 19 19 20 29 21 28 22
REMARK SMILES IDX 21 23 20 24 25 25 22 26 23 27 26 28 27 29 8 30 9 31 10 32
REMARK SMILES IDX 24 33
REMARK H PARENT 24 34
REMARK Flexibility Score: inf
ROOT
ATOM      1  C   UNL     1       1.708 -25.435   2.202  1.00  0.00     0.017 C 
ATOM      2  C   UNL     1       1.727 -24.008   1.523  1.00  0.00     0.014 C 
ATOM      3  C   UNL     1       0.301 -25.629   2.868  1.00  0.00     0.014 C 
ATOM      4  C   UNL     1       2.006 -26.575   1.135  1.00  0.00     0.030 C 
ATOM      5  C   UNL     1       1.398 -24.069   0.033  1.00  0.00     0.004 C 
ATOM      6  C   UNL     1      -0.061 -27.103   3.124  1.00  0.00     0.013 C 
ATOM      7  C   UNL     1       0.722 -27.325   0.707  1.00  0.00    -0.063 C 
ATOM      8  C   UNL     1       2.974 -26.122  -0.023  1.00  0.00    -0.003 C 
ATOM      9  C   UNL     1       2.517 -24.795  -0.740  1.00  0.00    -0.011 C 
ATOM     10  C   UNL     1      -0.076 -28.022   1.839  1.00  0.00    -0.006 C 
ATOM     11  C   UNL     1       0.335 -27.414  -0.600  1.00  0.00    -0.027 C 
ATOM     12  C   UNL     1       4.441 -26.107   0.483  1.00  0.00     0.008 C 
ATOM     13  C   UNL     1       3.662 -23.815  -1.101  1.00  0.00     0.008 C 
ATOM     14  C   UNL     1       0.716 -29.319   2.230  1.00  0.00     0.017 C 
ATOM     15  C   UNL     1      -1.578 -28.325   1.319  1.00  0.00    -0.020 C 
ATOM     16  C   UNL     1      -0.873 -28.175  -1.123  1.00  0.00     0.032 C 
ATOM     17  C   UNL     1      -1.453 -29.119  -0.051  1.00  0.00     0.006 C 
ATOM     18  C   UNL     1      -2.424 -29.177   2.324  1.00  0.00     0.008 C 
ATOM     19  C   UNL     1      -2.302 -26.934   1.142  1.00  0.00     0.012 C 
ATOM     20  C   UNL     1      -2.662 -30.115  -0.443  1.00  0.00    -0.025 C 
ATOM     21  C   UNL     1      -3.835 -29.588   1.816  1.00  0.00     0.005 C 
ATOM     22  C   UNL     1      -3.969 -29.628   0.271  1.00  0.00     0.003 C 
ATOM     23  C   UNL     1      -2.934 -30.249  -1.990  1.00  0.00     0.010 C 
ATOM     24  C   UNL     1      -2.266 -31.555   0.039  1.00  0.00     0.012 C 
ATOM     25  C   UNL     1      -5.335 -30.149  -0.322  1.00  0.00    -0.006 C 
ATOM     26  C   UNL     1      -4.069 -29.353  -2.498  1.00  0.00     0.033 C 
ATOM     27  C   UNL     1      -5.437 -29.686  -1.836  1.00  0.00     0.120 C 
ATOM     28  C   UNL     1      -5.510 -31.686  -0.185  1.00  0.00     0.014 C 
ATOM     29  C   UNL     1      -6.517 -29.501   0.449  1.00  0.00     0.014 C 
ENDROOT
BRANCH   1  30
ATOM     30  C   UNL     1       2.750 -25.478   3.339  1.00  0.00     0.048 C 
ATOM     31  O   UNL     1       3.093 -24.434   3.952  1.00  0.00    -0.550 OA
ATOM     32  O   UNL     1       3.304 -26.686   3.749  1.00  0.00    -0.550 OA
ENDBRANCH   1  30
BRANCH  27  33
ATOM     33  O   UNL     1      -6.113 -30.649  -2.606  1.00  0.00    -0.393 OA
ATOM     34  H   UNL     1      -5.437 -31.088  -3.192  1.00  0.00     0.210 HD
ENDBRANCH  27  33
TORSDOF 2
ENDMDL
MODEL 2
REMARK VINA RESULT:    -6.445      4.921     11.086
REMARK INTER + INTRA:          -7.253
REMARK INTER:                  -7.012
REMARK INTRA:                  -0.241
REMARK UNBOUND:                -0.243
REMARK SMILES C[C@@H]1[C@H](C)CC[C@@]2(C(=O)[O-])CC[C@]3(C)C(=CC[C@@H]4[C@]5(C)CC[C@@H](O)C(C)(C)[C@H]5CC[C@]43C)[C@@H]12
REMARK SMILES IDX 7 1 6 2 11 3 33 4 5 5 12 6 15 7 2 8 3 9 13 10 16 11 1 12
REMARK SMILES IDX 4 13 14 14 31 15 17 16 18 17 30 18 32 19 19 20 29 21 28 22
REMARK SMILES IDX 21 23 20 24 25 25 22 26 23 27 26 28 27 29 8 30 9 31 10 32
REMARK SMILES IDX 24 33
REMARK H PARENT 24 34
REMARK Flexibility Score: inf
ROOT
ATOM      1  C   UNL     1      -9.392 -32.751  -5.715  1.00  0.00     0.017 C 
ATOM      2  C   UNL     1      -8.846 -33.335  -7.078  1.00  0.00     0.014 C 
ATOM      3  C   UNL     1      -8.819 -33.634  -4.552  1.00  0.00     0.014 C 
ATOM      4  C   UNL     1      -8.974 -31.226  -5.544  1.00  0.00     0.030 C 
ATOM      5  C   UNL     1      -7.605 -32.596  -7.572  1.00  0.00     0.004 C 
ATOM      6  C   UNL     1      -8.831 -32.931  -3.182  1.00  0.00     0.013 C 
ATOM      7  C   UNL     1      -7.795 -31.050  -4.558  1.00  0.00    -0.063 C 
ATOM      8  C   UNL     1      -8.874 -30.440  -6.906  1.00  0.00    -0.003 C 
ATOM      9  C   UNL     1      -7.960 -31.150  -7.975  1.00  0.00    -0.011 C 
ATOM     10  C   UNL     1      -8.021 -31.577  -3.117  1.00  0.00    -0.006 C 
ATOM     11  C   UNL     1      -6.636 -30.421  -4.916  1.00  0.00    -0.027 C 
ATOM     12  C   UNL     1     -10.293 -30.072  -7.416  1.00  0.00     0.008 C 
ATOM     13  C   UNL     1      -8.489 -31.099  -9.431  1.00  0.00     0.008 C 
ATOM     14  C   UNL     1      -8.959 -30.550  -2.392  1.00  0.00     0.017 C 
ATOM     15  C   UNL     1      -6.587 -31.754  -2.388  1.00  0.00    -0.020 C 
ATOM     16  C   UNL     1      -5.450 -30.149  -4.004  1.00  0.00     0.032 C 
ATOM     17  C   UNL     1      -5.813 -30.373  -2.523  1.00  0.00     0.006 C 
ATOM     18  C   UNL     1      -6.703 -32.124  -0.871  1.00  0.00     0.008 C 
ATOM     19  C   UNL     1      -5.835 -32.937  -3.113  1.00  0.00     0.012 C 
ATOM     20  C   UNL     1      -4.731 -30.014  -1.380  1.00  0.00    -0.025 C 
ATOM     21  C   UNL     1      -5.352 -32.193  -0.104  1.00  0.00     0.005 C 
ATOM     22  C   UNL     1      -4.215 -31.348  -0.737  1.00  0.00     0.003 C 
ATOM     23  C   UNL     1      -3.499 -29.166  -1.877  1.00  0.00     0.010 C 
ATOM     24  C   UNL     1      -5.450 -29.121  -0.310  1.00  0.00     0.012 C 
ATOM     25  C   UNL     1      -2.848 -31.272   0.047  1.00  0.00    -0.006 C 
ATOM     26  C   UNL     1      -2.257 -30.008  -2.195  1.00  0.00     0.033 C 
ATOM     27  C   UNL     1      -1.721 -30.776  -0.952  1.00  0.00     0.120 C 
ATOM     28  C   UNL     1      -2.922 -30.374   1.312  1.00  0.00     0.014 C 
ATOM     29  C   UNL     1      -2.451 -32.691   0.537  1.00  0.00     0.014 C 
ENDROOT
BRANCH   1  30
ATOM     30  C   UNL     1     -10.927 -32.894  -5.670  1.00  0.00     0.048 C 
ATOM     31  O   UNL     1     -11.515 -33.823  -6.284  1.00  0.00    -0.550 OA
ATOM     32  O   UNL     1     -11.700 -32.025  -4.909  1.00  0.00    -0.550 OA
ENDBRANCH   1  30
BRANCH  27  33
ATOM     33  O   UNL     1      -0.774 -29.983  -0.280  1.00  0.00    -0.393 OA
ATOM     34  H   UNL     1      -0.089 -30.598   0.102  1.00  0.00     0.210 HD
ENDBRANCH  27  33
TORSDOF 2
ENDMDL
MODEL 3
REMARK VINA RESULT:    -6.429      2.136      7.848
REMARK INTER + INTRA:          -7.235
REMARK INTER:                  -6.993
REMARK INTRA:                  -0.242
REMARK UNBOUND:                -0.243
REMARK SMILES C[C@@H]1[C@H](C)CC[C@@]2(C(=O)[O-])CC[C@]3(C)C(=CC[C@@H]4[C@]5(C)CC[C@@H](O)C(C)(C)[C@H]5CC[C@]43C)[C@@H]12
REMARK SMILES IDX 7 1 6 2 11 3 33 4 5 5 12 6 15 7 2 8 3 9 13 10 16 11 1 12
REMARK SMILES IDX 4 13 14 14 31 15 17 16 18 17 30 18 32 19 19 20 29 21 28 22
REMARK SMILES IDX 21 23 20 24 25 25 22 26 23 27 26 28 27 29 8 30 9 31 10 32
REMARK SMILES IDX 24 33
REMARK H PARENT 24 34
REMARK Flexibility Score: inf
ROOT
ATOM      1  C   UNL     1      -3.244 -30.431   1.915  1.00  0.00     0.017 C 
ATOM      2  C   UNL     1      -3.394 -31.559   0.818  1.00  0.00     0.014 C 
ATOM      3  C   UNL     1      -1.876 -30.656   2.650  1.00  0.00     0.014 C 
ATOM      4  C   UNL     1      -3.317 -28.986   1.257  1.00  0.00     0.030 C 
ATOM      5  C   UNL     1      -2.951 -31.086  -0.565  1.00  0.00     0.004 C 
ATOM      6  C   UNL     1      -1.351 -29.401   3.371  1.00  0.00     0.013 C 
ATOM      7  C   UNL     1      -1.921 -28.332   1.127  1.00  0.00    -0.063 C 
ATOM      8  C   UNL     1      -4.247 -28.914  -0.013  1.00  0.00    -0.003 C 
ATOM      9  C   UNL     1      -3.910 -30.004  -1.100  1.00  0.00    -0.011 C 
ATOM     10  C   UNL     1      -1.126 -28.141   2.445  1.00  0.00    -0.006 C 
ATOM     11  C   UNL     1      -1.431 -27.898  -0.073  1.00  0.00    -0.027 C 
ATOM     12  C   UNL     1      -5.738 -28.875   0.418  1.00  0.00     0.008 C 
ATOM     13  C   UNL     1      -5.140 -30.650  -1.788  1.00  0.00     0.008 C 
ATOM     14  C   UNL     1      -1.774 -26.931   3.203  1.00  0.00     0.017 C 
ATOM     15  C   UNL     1       0.436 -27.910   2.092  1.00  0.00    -0.020 C 
ATOM     16  C   UNL     1      -0.102 -27.192  -0.290  1.00  0.00     0.032 C 
ATOM     17  C   UNL     1       0.513 -26.720   1.042  1.00  0.00     0.006 C 
ATOM     18  C   UNL     1       1.307 -27.542   3.341  1.00  0.00     0.008 C 
ATOM     19  C   UNL     1       0.990 -29.266   1.505  1.00  0.00     0.012 C 
ATOM     20  C   UNL     1       1.863 -25.835   1.022  1.00  0.00    -0.025 C 
ATOM     21  C   UNL     1       2.792 -27.199   3.031  1.00  0.00     0.005 C 
ATOM     22  C   UNL     1       3.043 -26.701   1.583  1.00  0.00     0.003 C 
ATOM     23  C   UNL     1       2.262 -25.268  -0.393  1.00  0.00     0.010 C 
ATOM     24  C   UNL     1       1.618 -24.575   1.924  1.00  0.00     0.012 C 
ATOM     25  C   UNL     1       4.503 -26.223   1.227  1.00  0.00    -0.006 C 
ATOM     26  C   UNL     1       3.309 -26.115  -1.126  1.00  0.00     0.033 C 
ATOM     27  C   UNL     1       4.656 -26.203  -0.351  1.00  0.00     0.120 C 
ATOM     28  C   UNL     1       4.860 -24.845   1.850  1.00  0.00     0.014 C 
ATOM     29  C   UNL     1       5.534 -27.240   1.787  1.00  0.00     0.014 C 
ENDROOT
BRANCH   1  30
ATOM     30  C   UNL     1      -4.352 -30.594   2.976  1.00  0.00     0.048 C 
ATOM     31  O   UNL     1      -4.875 -31.715   3.209  1.00  0.00    -0.550 OA
ATOM     32  O   UNL     1      -4.771 -29.509   3.738  1.00  0.00    -0.550 OA
ENDBRANCH   1  30
BRANCH  27  33
ATOM     33  O   UNL     1       5.502 -25.156  -0.756  1.00  0.00    -0.393 OA
ATOM     34  H   UNL     1       5.175 -24.322  -0.320  1.00  0.00     0.210 HD
ENDBRANCH  27  33
TORSDOF 2
ENDMDL
MODEL 4
REMARK VINA RESULT:    -6.345      7.529      9.499
REMARK INTER + INTRA:          -7.144
REMARK INTER:                  -6.904
REMARK INTRA:                  -0.239
REMARK UNBOUND:                -0.243
REMARK SMILES C[C@@H]1[C@H](C)CC[C@@]2(C(=O)[O-])CC[C@]3(C)C(=CC[C@@H]4[C@]5(C)CC[C@@H](O)C(C)(C)[C@H]5CC[C@]43C)[C@@H]12
REMARK SMILES IDX 7 1 6 2 11 3 33 4 5 5 12 6 15 7 2 8 3 9 13 10 16 11 1 12
REMARK SMILES IDX 4 13 14 14 31 15 17 16 18 17 30 18 32 19 19 20 29 21 28 22
REMARK SMILES IDX 21 23 20 24 25 25 22 26 23 27 26 28 27 29 8 30 9 31 10 32
REMARK SMILES IDX 24 33
REMARK H PARENT 24 34
REMARK Flexibility Score: inf
ROOT
ATOM      1  C   UNL     1      -9.689 -28.247   2.219  1.00  0.00     0.017 C 
ATOM      2  C   UNL     1      -8.891 -26.980   2.721  1.00  0.00     0.014 C 
ATOM      3  C   UNL     1     -10.276 -27.915   0.803  1.00  0.00     0.014 C 
ATOM      4  C   UNL     1      -8.748 -29.528   2.171  1.00  0.00     0.030 C 
ATOM      5  C   UNL     1      -7.393 -27.087   2.441  1.00  0.00     0.004 C 
ATOM      6  C   UNL     1     -10.635 -29.163  -0.023  1.00  0.00     0.013 C 
ATOM      7  C   UNL     1      -8.303 -29.872   0.729  1.00  0.00    -0.063 C 
ATOM      8  C   UNL     1      -7.621 -29.529   3.272  1.00  0.00    -0.003 C 
ATOM      9  C   UNL     1      -6.763 -28.208   3.293  1.00  0.00    -0.011 C 
ATOM     10  C   UNL     1      -9.438 -30.158  -0.289  1.00  0.00    -0.006 C 
ATOM     11  C   UNL     1      -6.986 -29.969   0.379  1.00  0.00    -0.027 C 
ATOM     12  C   UNL     1      -8.219 -29.928   4.648  1.00  0.00     0.008 C 
ATOM     13  C   UNL     1      -6.393 -27.685   4.703  1.00  0.00     0.008 C 
ATOM     14  C   UNL     1      -9.991 -31.591   0.028  1.00  0.00     0.017 C 
ATOM     15  C   UNL     1      -8.848 -30.021  -1.790  1.00  0.00    -0.020 C 
ATOM     16  C   UNL     1      -6.454 -30.358  -0.991  1.00  0.00     0.032 C 
ATOM     17  C   UNL     1      -7.564 -30.952  -1.881  1.00  0.00     0.006 C 
ATOM     18  C   UNL     1      -9.866 -30.451  -2.899  1.00  0.00     0.008 C 
ATOM     19  C   UNL     1      -8.502 -28.499  -2.021  1.00  0.00     0.012 C 
ATOM     20  C   UNL     1      -7.181 -31.549  -3.332  1.00  0.00    -0.025 C 
ATOM     21  C   UNL     1      -9.303 -30.444  -4.349  1.00  0.00     0.005 C 
ATOM     22  C   UNL     1      -7.762 -30.600  -4.436  1.00  0.00     0.003 C 
ATOM     23  C   UNL     1      -5.638 -31.750  -3.579  1.00  0.00     0.010 C 
ATOM     24  C   UNL     1      -7.812 -32.981  -3.438  1.00  0.00     0.012 C 
ATOM     25  C   UNL     1      -7.128 -30.719  -5.876  1.00  0.00    -0.006 C 
ATOM     26  C   UNL     1      -4.979 -30.597  -4.347  1.00  0.00     0.033 C 
ATOM     27  C   UNL     1      -5.577 -30.408  -5.771  1.00  0.00     0.120 C 
ATOM     28  C   UNL     1      -7.387 -32.099  -6.542  1.00  0.00     0.014 C 
ATOM     29  C   UNL     1      -7.760 -29.653  -6.812  1.00  0.00     0.014 C 
ENDROOT
BRANCH   1  30
ATOM     30  C   UNL     1     -10.892 -28.501   3.152  1.00  0.00     0.048 C 
ATOM     31  O   UNL     1     -11.455 -27.556   3.764  1.00  0.00    -0.550 OA
ATOM     32  O   UNL     1     -11.416 -29.780   3.303  1.00  0.00    -0.550 OA
ENDBRANCH   1  30
BRANCH  27  33
ATOM     33  O   UNL     1      -4.851 -31.182  -6.694  1.00  0.00    -0.393 OA
ATOM     34  H   UNL     1      -5.423 -31.957  -6.948  1.00  0.00     0.210 HD
ENDBRANCH  27  33
TORSDOF 2
ENDMDL
MODEL 5
REMARK VINA RESULT:    -6.081      2.073      8.683
REMARK INTER + INTRA:          -6.857
REMARK INTER:                  -6.614
REMARK INTRA:                  -0.243
REMARK UNBOUND:                -0.243
REMARK SMILES C[C@@H]1[C@H](C)CC[C@@]2(C(=O)[O-])CC[C@]3(C)C(=CC[C@@H]4[C@]5(C)CC[C@@H](O)C(C)(C)[C@H]5CC[C@]43C)[C@@H]12
REMARK SMILES IDX 7 1 6 2 11 3 33 4 5 5 12 6 15 7 2 8 3 9 13 10 16 11 1 12
REMARK SMILES IDX 4 13 14 14 31 15 17 16 18 17 30 18 32 19 19 20 29 21 28 22
REMARK SMILES IDX 21 23 20 24 25 25 22 26 23 27 26 28 27 29 8 30 9 31 10 32
REMARK SMILES IDX 24 33
REMARK H PARENT 24 34
REMARK Flexibility Score: inf
ROOT
ATOM      1  C   UNL     1      -5.923 -32.367  -2.402  1.00  0.00     0.017 C 
ATOM      2  C   UNL     1      -5.397 -32.947  -3.774  1.00  0.00     0.014 C 
ATOM      3  C   UNL     1      -4.964 -32.874  -1.269  1.00  0.00     0.014 C 
ATOM      4  C   UNL     1      -5.981 -30.778  -2.443  1.00  0.00     0.030 C 
ATOM      5  C   UNL     1      -4.519 -31.951  -4.529  1.00  0.00     0.004 C 
ATOM      6  C   UNL     1      -5.022 -32.024   0.014  1.00  0.00     0.013 C 
ATOM      7  C   UNL     1      -4.801 -30.130  -1.680  1.00  0.00    -0.063 C 
ATOM      8  C   UNL     1      -6.300 -30.193  -3.870  1.00  0.00    -0.003 C 
ATOM      9  C   UNL     1      -5.353 -30.744  -5.002  1.00  0.00    -0.011 C 
ATOM     10  C   UNL     1      -4.670 -30.496  -0.179  1.00  0.00    -0.006 C 
ATOM     11  C   UNL     1      -3.949 -29.244  -2.277  1.00  0.00    -0.027 C 
ATOM     12  C   UNL     1      -7.816 -30.331  -4.177  1.00  0.00     0.008 C 
ATOM     13  C   UNL     1      -6.049 -31.051  -6.352  1.00  0.00     0.008 C 
ATOM     14  C   UNL     1      -5.783 -29.700   0.589  1.00  0.00     0.017 C 
ATOM     15  C   UNL     1      -3.173 -30.143   0.323  1.00  0.00    -0.020 C 
ATOM     16  C   UNL     1      -2.802 -28.514  -1.597  1.00  0.00     0.032 C 
ATOM     17  C   UNL     1      -2.889 -28.628  -0.063  1.00  0.00     0.006 C 
ATOM     18  C   UNL     1      -2.978 -30.319   1.867  1.00  0.00     0.008 C 
ATOM     19  C   UNL     1      -2.188 -31.141  -0.401  1.00  0.00     0.012 C 
ATOM     20  C   UNL     1      -1.838 -27.814   0.853  1.00  0.00    -0.025 C 
ATOM     21  C   UNL     1      -1.587 -29.881   2.410  1.00  0.00     0.005 C 
ATOM     22  C   UNL     1      -0.857 -28.836   1.526  1.00  0.00     0.003 C 
ATOM     23  C   UNL     1      -1.002 -26.719   0.088  1.00  0.00     0.010 C 
ATOM     24  C   UNL     1      -2.659 -27.033   1.937  1.00  0.00     0.012 C 
ATOM     25  C   UNL     1       0.505 -28.256   2.069  1.00  0.00    -0.006 C 
ATOM     26  C   UNL     1       0.390 -27.195  -0.346  1.00  0.00     0.033 C 
ATOM     27  C   UNL     1       1.288 -27.593   0.860  1.00  0.00     0.120 C 
ATOM     28  C   UNL     1       0.315 -27.253   3.240  1.00  0.00     0.014 C 
ATOM     29  C   UNL     1       1.381 -29.414   2.619  1.00  0.00     0.014 C 
ENDROOT
BRANCH   1  30
ATOM     30  C   UNL     1      -7.319 -32.947  -2.097  1.00  0.00     0.048 C 
ATOM     31  O   UNL     1      -7.676 -34.065  -2.552  1.00  0.00    -0.550 OA
ATOM     32  O   UNL     1      -8.206 -32.267  -1.270  1.00  0.00    -0.550 OA
ENDBRANCH   1  30
BRANCH  27  33
ATOM     33  O   UNL     1       2.019 -26.473   1.294  1.00  0.00    -0.393 OA
ATOM     34  H   UNL     1       1.792 -26.323   2.253  1.00  0.00     0.210 HD
ENDBRANCH  27  33
TORSDOF 2
ENDMDL
MODEL 6
REMARK VINA RESULT:    -6.055      3.558      9.636
REMARK INTER + INTRA:          -6.829
REMARK INTER:                  -6.586
REMARK INTRA:                  -0.242
REMARK UNBOUND:                -0.243
REMARK SMILES C[C@@H]1[C@H](C)CC[C@@]2(C(=O)[O-])CC[C@]3(C)C(=CC[C@@H]4[C@]5(C)CC[C@@H](O)C(C)(C)[C@H]5CC[C@]43C)[C@@H]12
REMARK SMILES IDX 7 1 6 2 11 3 33 4 5 5 12 6 15 7 2 8 3 9 13 10 16 11 1 12
REMARK SMILES IDX 4 13 14 14 31 15 17 16 18 17 30 18 32 19 19 20 29 21 28 22
REMARK SMILES IDX 21 23 20 24 25 25 22 26 23 27 26 28 27 29 8 30 9 31 10 32
REMARK SMILES IDX 24 33
REMARK H PARENT 24 34
REMARK Flexibility Score: inf
ROOT
ATOM      1  C   UNL     1      -8.263 -32.178  -3.301  1.00  0.00     0.017 C 
ATOM      2  C   UNL     1      -7.777 -33.080  -4.504  1.00  0.00     0.014 C 
ATOM      3  C   UNL     1      -7.748 -32.833  -1.973  1.00  0.00     0.014 C 
ATOM      4  C   UNL     1      -7.731 -30.688  -3.459  1.00  0.00     0.030 C 
ATOM      5  C   UNL     1      -6.487 -32.560  -5.137  1.00  0.00     0.004 C 
ATOM      6  C   UNL     1      -7.693 -31.854  -0.785  1.00  0.00     0.013 C 
ATOM      7  C   UNL     1      -6.532 -30.395  -2.525  1.00  0.00    -0.063 C 
ATOM      8  C   UNL     1      -7.584 -30.222  -4.956  1.00  0.00    -0.003 C 
ATOM      9  C   UNL     1      -6.737 -31.211  -5.842  1.00  0.00    -0.011 C 
ATOM     10  C   UNL     1      -6.783 -30.583  -1.006  1.00  0.00    -0.006 C 
ATOM     11  C   UNL     1      -5.332 -29.947  -3.002  1.00  0.00    -0.027 C 
ATOM     12  C   UNL     1      -8.976 -29.865  -5.543  1.00  0.00     0.008 C 
ATOM     13  C   UNL     1      -7.274 -31.433  -7.279  1.00  0.00     0.008 C 
ATOM     14  C   UNL     1      -7.634 -29.356  -0.524  1.00  0.00     0.017 C 
ATOM     15  C   UNL     1      -5.359 -30.708  -0.246  1.00  0.00    -0.020 C 
ATOM     16  C   UNL     1      -4.121 -29.577  -2.161  1.00  0.00     0.032 C 
ATOM     17  C   UNL     1      -4.485 -29.451  -0.669  1.00  0.00     0.006 C 
ATOM     18  C   UNL     1      -5.488 -30.735   1.314  1.00  0.00     0.008 C 
ATOM     19  C   UNL     1      -4.706 -32.072  -0.696  1.00  0.00     0.012 C 
ATOM     20  C   UNL     1      -3.368 -28.939   0.379  1.00  0.00    -0.025 C 
ATOM     21  C   UNL     1      -4.139 -30.740   2.087  1.00  0.00     0.005 C 
ATOM     22  C   UNL     1      -2.948 -30.139   1.296  1.00  0.00     0.003 C 
ATOM     23  C   UNL     1      -2.080 -28.313  -0.280  1.00  0.00     0.010 C 
ATOM     24  C   UNL     1      -4.007 -27.785   1.228  1.00  0.00     0.012 C 
ATOM     25  C   UNL     1      -1.572 -30.001   2.054  1.00  0.00    -0.006 C 
ATOM     26  C   UNL     1      -0.908 -29.294  -0.402  1.00  0.00     0.033 C 
ATOM     27  C   UNL     1      -0.420 -29.817   0.980  1.00  0.00     0.120 C 
ATOM     28  C   UNL     1      -1.565 -28.850   3.097  1.00  0.00     0.014 C 
ATOM     29  C   UNL     1      -1.278 -31.308   2.840  1.00  0.00     0.014 C 
ENDROOT
BRANCH   1  30
ATOM     30  C   UNL     1      -9.805 -32.192  -3.237  1.00  0.00     0.048 C 
ATOM     31  O   UNL     1     -10.468 -33.169  -3.673  1.00  0.00    -0.550 OA
ATOM     32  O   UNL     1     -10.501 -31.141  -2.652  1.00  0.00    -0.550 OA
ENDBRANCH   1  30
BRANCH  27  33
ATOM     33  O   UNL     1       0.591 -28.973   1.474  1.00  0.00    -0.393 OA
ATOM     34  H   UNL     1       1.025 -29.443   2.237  1.00  0.00     0.210 HD
ENDBRANCH  27  33
TORSDOF 2
ENDMDL
MODEL 7
REMARK VINA RESULT:    -6.032      6.791     10.013
REMARK INTER + INTRA:          -6.804
REMARK INTER:                  -6.561
REMARK INTRA:                  -0.243
REMARK UNBOUND:                -0.243
REMARK SMILES C[C@@H]1[C@H](C)CC[C@@]2(C(=O)[O-])CC[C@]3(C)C(=CC[C@@H]4[C@]5(C)CC[C@@H](O)C(C)(C)[C@H]5CC[C@]43C)[C@@H]12
REMARK SMILES IDX 7 1 6 2 11 3 33 4 5 5 12 6 15 7 2 8 3 9 13 10 16 11 1 12
REMARK SMILES IDX 4 13 14 14 31 15 17 16 18 17 30 18 32 19 19 20 29 21 28 22
REMARK SMILES IDX 21 23 20 24 25 25 22 26 23 27 26 28 27 29 8 30 9 31 10 32
REMARK SMILES IDX 24 33
REMARK H PARENT 24 34
REMARK Flexibility Score: inf
ROOT
ATOM      1  C   UNL     1      -9.138 -29.587   1.079  1.00  0.00     0.017 C 
ATOM      2  C   UNL     1      -8.604 -28.132   1.390  1.00  0.00     0.014 C 
ATOM      3  C   UNL     1     -10.346 -29.452   0.088  1.00  0.00     0.014 C 
ATOM      4  C   UNL     1      -7.985 -30.495   0.468  1.00  0.00     0.030 C 
ATOM      5  C   UNL     1      -7.413 -27.750   0.513  1.00  0.00     0.004 C 
ATOM      6  C   UNL     1     -10.650 -30.744  -0.692  1.00  0.00     0.013 C 
ATOM      7  C   UNL     1      -8.127 -30.668  -1.063  1.00  0.00    -0.063 C 
ATOM      8  C   UNL     1      -6.546 -30.139   1.003  1.00  0.00    -0.003 C 
ATOM      9  C   UNL     1      -6.184 -28.613   0.863  1.00  0.00    -0.011 C 
ATOM     10  C   UNL     1      -9.454 -31.298  -1.562  1.00  0.00    -0.006 C 
ATOM     11  C   UNL     1      -7.124 -30.334  -1.928  1.00  0.00    -0.027 C 
ATOM     12  C   UNL     1      -6.349 -30.719   2.430  1.00  0.00     0.008 C 
ATOM     13  C   UNL     1      -5.410 -28.007   2.062  1.00  0.00     0.008 C 
ATOM     14  C   UNL     1      -9.378 -32.835  -1.258  1.00  0.00     0.017 C 
ATOM     15  C   UNL     1      -9.637 -30.969  -3.136  1.00  0.00    -0.020 C 
ATOM     16  C   UNL     1      -7.149 -30.522  -3.437  1.00  0.00     0.032 C 
ATOM     17  C   UNL     1      -8.310 -31.436  -3.874  1.00  0.00     0.006 C 
ATOM     18  C   UNL     1     -10.862 -31.697  -3.785  1.00  0.00     0.008 C 
ATOM     19  C   UNL     1      -9.880 -29.415  -3.265  1.00  0.00     0.012 C 
ATOM     20  C   UNL     1      -8.437 -31.868  -5.425  1.00  0.00    -0.025 C 
ATOM     21  C   UNL     1     -11.008 -31.500  -5.321  1.00  0.00     0.005 C 
ATOM     22  C   UNL     1      -9.683 -31.151  -6.049  1.00  0.00     0.003 C 
ATOM     23  C   UNL     1      -7.166 -31.560  -6.305  1.00  0.00     0.010 C 
ATOM     24  C   UNL     1      -8.609 -33.426  -5.471  1.00  0.00     0.012 C 
ATOM     25  C   UNL     1      -9.728 -31.050  -7.622  1.00  0.00    -0.006 C 
ATOM     26  C   UNL     1      -7.266 -30.251  -7.099  1.00  0.00     0.033 C 
ATOM     27  C   UNL     1      -8.446 -30.256  -8.113  1.00  0.00     0.120 C 
ATOM     28  C   UNL     1      -9.839 -32.435  -8.317  1.00  0.00     0.014 C 
ATOM     29  C   UNL     1     -10.979 -30.238  -8.056  1.00  0.00     0.014 C 
ENDROOT
BRANCH   1  30
ATOM     30  C   UNL     1      -9.691 -30.220   2.373  1.00  0.00     0.048 C 
ATOM     31  O   UNL     1     -10.136 -29.509   3.311  1.00  0.00    -0.550 OA
ATOM     32  O   UNL     1      -9.755 -31.601   2.516  1.00  0.00    -0.550 OA
ENDBRANCH   1  30
BRANCH  27  33
ATOM     33  O   UNL     1      -8.000 -30.749  -9.353  1.00  0.00    -0.393 OA
ATOM     34  H   UNL     1      -7.097 -30.362  -9.519  1.00  0.00     0.210 HD
ENDBRANCH  27  33
TORSDOF 2
ENDMDL
MODEL 8
REMARK VINA RESULT:    -5.961      5.178      8.447
REMARK INTER + INTRA:          -6.726
REMARK INTER:                  -6.486
REMARK INTRA:                  -0.240
REMARK UNBOUND:                -0.243
REMARK SMILES C[C@@H]1[C@H](C)CC[C@@]2(C(=O)[O-])CC[C@]3(C)C(=CC[C@@H]4[C@]5(C)CC[C@@H](O)C(C)(C)[C@H]5CC[C@]43C)[C@@H]12
REMARK SMILES IDX 7 1 6 2 11 3 33 4 5 5 12 6 15 7 2 8 3 9 13 10 16 11 1 12
REMARK SMILES IDX 4 13 14 14 31 15 17 16 18 17 30 18 32 19 19 20 29 21 28 22
REMARK SMILES IDX 21 23 20 24 25 25 22 26 23 27 26 28 27 29 8 30 9 31 10 32
REMARK SMILES IDX 24 33
REMARK H PARENT 24 34
REMARK Flexibility Score: inf
ROOT
ATOM      1  C   UNL     1      -4.293 -31.006   0.314  1.00  0.00     0.017 C 
ATOM      2  C   UNL     1      -5.116 -31.468   1.582  1.00  0.00     0.014 C 
ATOM      3  C   UNL     1      -4.233 -32.214  -0.685  1.00  0.00     0.014 C 
ATOM      4  C   UNL     1      -4.959 -29.729  -0.359  1.00  0.00     0.030 C 
ATOM      5  C   UNL     1      -6.583 -31.050   1.507  1.00  0.00     0.004 C 
ATOM      6  C   UNL     1      -3.923 -31.798  -2.135  1.00  0.00     0.013 C 
ATOM      7  C   UNL     1      -5.750 -30.089  -1.639  1.00  0.00    -0.063 C 
ATOM      8  C   UNL     1      -5.680 -28.774   0.666  1.00  0.00    -0.003 C 
ATOM      9  C   UNL     1      -6.714 -29.516   1.595  1.00  0.00    -0.011 C 
ATOM     10  C   UNL     1      -4.946 -30.778  -2.773  1.00  0.00    -0.006 C 
ATOM     11  C   UNL     1      -7.072 -29.775  -1.788  1.00  0.00    -0.027 C 
ATOM     12  C   UNL     1      -4.631 -27.919   1.427  1.00  0.00     0.008 C 
ATOM     13  C   UNL     1      -6.725 -29.049   3.072  1.00  0.00     0.008 C 
ATOM     14  C   UNL     1      -4.075 -29.669  -3.459  1.00  0.00     0.017 C 
ATOM     15  C   UNL     1      -5.978 -31.498  -3.790  1.00  0.00    -0.020 C 
ATOM     16  C   UNL     1      -7.915 -30.034  -3.026  1.00  0.00     0.032 C 
ATOM     17  C   UNL     1      -7.040 -30.406  -4.239  1.00  0.00     0.006 C 
ATOM     18  C   UNL     1      -5.284 -32.086  -5.065  1.00  0.00     0.008 C 
ATOM     19  C   UNL     1      -6.644 -32.698  -3.011  1.00  0.00     0.012 C 
ATOM     20  C   UNL     1      -7.731 -30.595  -5.687  1.00  0.00    -0.025 C 
ATOM     21  C   UNL     1      -6.251 -32.687  -6.124  1.00  0.00     0.005 C 
ATOM     22  C   UNL     1      -7.692 -32.114  -6.070  1.00  0.00     0.003 C 
ATOM     23  C   UNL     1      -9.215 -30.072  -5.785  1.00  0.00     0.010 C 
ATOM     24  C   UNL     1      -6.916 -29.738  -6.717  1.00  0.00     0.012 C 
ATOM     25  C   UNL     1      -8.701 -32.587  -7.187  1.00  0.00    -0.006 C 
ATOM     26  C   UNL     1     -10.270 -31.170  -5.607  1.00  0.00     0.033 C 
ATOM     27  C   UNL     1     -10.177 -32.273  -6.700  1.00  0.00     0.120 C 
ATOM     28  C   UNL     1      -8.413 -31.952  -8.575  1.00  0.00     0.014 C 
ATOM     29  C   UNL     1      -8.584 -34.125  -7.374  1.00  0.00     0.014 C 
ENDROOT
BRANCH   1  30
ATOM     30  C   UNL     1      -2.839 -30.697   0.728  1.00  0.00     0.048 C 
ATOM     31  O   UNL     1      -2.298 -31.283   1.702  1.00  0.00    -0.550 OA
ATOM     32  O   UNL     1      -2.071 -29.793   0.004  1.00  0.00    -0.550 OA
ENDBRANCH   1  30
BRANCH  27  33
ATOM     33  O   UNL     1     -10.997 -31.929  -7.789  1.00  0.00    -0.393 OA
ATOM     34  H   UNL     1     -10.400 -31.725  -8.559  1.00  0.00     0.210 HD
ENDBRANCH  27  33
TORSDOF 2
ENDMDL
MODEL 9
REMARK VINA RESULT:    -5.915      2.736      9.590
REMARK INTER + INTRA:          -6.677
REMARK INTER:                  -6.456
REMARK INTRA:                  -0.220
REMARK UNBOUND:                -0.243
REMARK SMILES C[C@@H]1[C@H](C)CC[C@@]2(C(=O)[O-])CC[C@]3(C)C(=CC[C@@H]4[C@]5(C)CC[C@@H](O)C(C)(C)[C@H]5CC[C@]43C)[C@@H]12
REMARK SMILES IDX 7 1 6 2 11 3 33 4 5 5 12 6 15 7 2 8 3 9 13 10 16 11 1 12
REMARK SMILES IDX 4 13 14 14 31 15 17 16 18 17 30 18 32 19 19 20 29 21 28 22
REMARK SMILES IDX 21 23 20 24 25 25 22 26 23 27 26 28 27 29 8 30 9 31 10 32
REMARK SMILES IDX 24 33
REMARK H PARENT 24 34
REMARK Flexibility Score: inf
ROOT
ATOM      1  C   UNL     1      -7.357 -31.672  -3.762  1.00  0.00     0.017 C 
ATOM      2  C   UNL     1      -8.312 -30.577  -4.384  1.00  0.00     0.014 C 
ATOM      3  C   UNL     1      -5.888 -31.324  -4.187  1.00  0.00     0.014 C 
ATOM      4  C   UNL     1      -7.506 -31.721  -2.179  1.00  0.00     0.030 C 
ATOM      5  C   UNL     1      -8.641 -29.462  -3.394  1.00  0.00     0.004 C 
ATOM      6  C   UNL     1      -4.818 -31.964  -3.284  1.00  0.00     0.013 C 
ATOM      7  C   UNL     1      -6.330 -31.020  -1.459  1.00  0.00    -0.063 C 
ATOM      8  C   UNL     1      -8.953 -31.366  -1.667  1.00  0.00    -0.003 C 
ATOM      9  C   UNL     1      -9.504 -30.004  -2.236  1.00  0.00    -0.011 C 
ATOM     10  C   UNL     1      -4.913 -31.578  -1.755  1.00  0.00    -0.006 C 
ATOM     11  C   UNL     1      -6.525 -29.998  -0.573  1.00  0.00    -0.027 C 
ATOM     12  C   UNL     1      -9.903 -32.577  -1.869  1.00  0.00     0.008 C 
ATOM     13  C   UNL     1     -11.004 -30.011  -2.625  1.00  0.00     0.008 C 
ATOM     14  C   UNL     1      -4.774 -32.925  -0.963  1.00  0.00     0.017 C 
ATOM     15  C   UNL     1      -3.810 -30.473  -1.331  1.00  0.00    -0.020 C 
ATOM     16  C   UNL     1      -5.441 -29.290   0.224  1.00  0.00     0.032 C 
ATOM     17  C   UNL     1      -4.107 -30.060   0.174  1.00  0.00     0.006 C 
ATOM     18  C   UNL     1      -2.337 -30.995  -1.432  1.00  0.00     0.008 C 
ATOM     19  C   UNL     1      -3.956 -29.258  -2.327  1.00  0.00     0.012 C 
ATOM     20  C   UNL     1      -2.861 -29.545   1.062  1.00  0.00    -0.025 C 
ATOM     21  C   UNL     1      -1.250 -30.005  -0.926  1.00  0.00     0.005 C 
ATOM     22  C   UNL     1      -1.764 -28.964   0.103  1.00  0.00     0.003 C 
ATOM     23  C   UNL     1      -3.225 -28.463   2.149  1.00  0.00     0.010 C 
ATOM     24  C   UNL     1      -2.308 -30.774   1.863  1.00  0.00     0.012 C 
ATOM     25  C   UNL     1      -0.697 -28.000   0.752  1.00  0.00    -0.006 C 
ATOM     26  C   UNL     1      -2.958 -27.021   1.701  1.00  0.00     0.033 C 
ATOM     27  C   UNL     1      -1.457 -26.761   1.386  1.00  0.00     0.120 C 
ATOM     28  C   UNL     1       0.206 -28.709   1.797  1.00  0.00     0.014 C 
ATOM     29  C   UNL     1       0.250 -27.456  -0.352  1.00  0.00     0.014 C 
ENDROOT
BRANCH   1  30
ATOM     30  C   UNL     1      -7.685 -33.050  -4.374  1.00  0.00     0.048 C 
ATOM     31  O   UNL     1      -7.403 -34.117  -3.769  1.00  0.00    -0.550 OA
ATOM     32  O   UNL     1      -8.346 -33.147  -5.593  1.00  0.00    -0.550 OA
ENDBRANCH   1  30
BRANCH  27  33
ATOM     33  O   UNL     1      -0.801 -26.317   2.548  1.00  0.00    -0.393 OA
ATOM     34  H   UNL     1       0.123 -26.688   2.528  1.00  0.00     0.210 HD
ENDBRANCH  27  33
TORSDOF 2
ENDMDL
