MODEL 1
REMARK VINA RESULT:    -6.789      0.000      0.000
REMARK INTER + INTRA:         -14.358
REMARK INTER:                 -11.154
REMARK INTRA:                  -3.204
REMARK UNBOUND:                -3.204
REMARK SMILES C[C@@H]1O[C@@H](OC[C@@H]2O[C@H](Oc3c(-c4ccc(O)c(O)c4)oc4cc(O)cc(O)c4c3=O)[C@@H](O)[C@@H](O)[C@H]2O)[C@@H](O)[C@@H](O)[C@H]1O
REMARK SMILES IDX 7 1 36 2 34 3 32 4 9 5 8 6 6 7 5 8 4 9 1 10 2 11 42 12 3 13
REMARK SMILES IDX 40 14 38 15 43 16 41 18 39 20 37 22 35 24 10 26 11 27 12 28
REMARK SMILES IDX 30 29 21 30 29 31 31 32 22 33 27 34 23 35 26 36 24 37 13 38
REMARK SMILES IDX 20 39 14 40 18 41 15 42 16 43 19 44 17 46 28 48 25 50 33 52
REMARK H PARENT 43 17 41 19 39 21 37 23 35 25 19 45 17 47 28 49 25 51 33 53
REMARK Flexibility Score: inf
ROOT
ATOM      1  C   UNL     1     -10.991  36.376  -3.441  1.00  0.00     0.180 C 
ATOM      2  C   UNL     1     -10.034  35.229  -3.006  1.00  0.00     0.177 C 
ATOM      3  C   UNL     1     -10.477  34.687  -1.632  1.00  0.00     0.180 C 
ATOM      4  C   UNL     1     -11.941  34.288  -1.657  1.00  0.00     0.214 C 
ATOM      5  C   UNL     1     -12.818  35.478  -2.166  1.00  0.00     0.339 C 
ATOM      6  O   UNL     1     -12.357  35.955  -3.417  1.00  0.00    -0.332 OA
ENDROOT
BRANCH   1   7
ATOM      7  C   UNL     1     -10.743  37.721  -2.706  1.00  0.00     0.198 C 
BRANCH   7   8
ATOM      8  O   UNL     1     -11.576  38.760  -3.238  1.00  0.00    -0.347 OA
BRANCH   8   9
ATOM      9  C   UNL     1     -11.354  38.937  -4.629  1.00  0.00     0.281 C 
ATOM     10  C   UNL     1     -10.064  42.384  -4.741  1.00  0.00     0.041 C 
ATOM     11  C   UNL     1     -11.111  41.283  -4.567  1.00  0.00     0.150 C 
ATOM     12  C   UNL     1     -12.355  41.530  -5.453  1.00  0.00     0.174 C 
ATOM     13  O   UNL     1     -10.501  40.047  -4.900  1.00  0.00    -0.344 OA
ATOM     14  C   UNL     1     -13.376  40.408  -5.165  1.00  0.00     0.179 C 
ATOM     15  C   UNL     1     -12.694  39.056  -5.415  1.00  0.00     0.202 C 
BRANCH  12  16
ATOM     16  O   UNL     1     -12.935  42.781  -5.193  1.00  0.00    -0.388 OA
ATOM     17  H   UNL     1     -13.686  42.904  -5.828  1.00  0.00     0.211 HD
ENDBRANCH  12  16
BRANCH  14  18
ATOM     18  O   UNL     1     -13.887  40.429  -3.848  1.00  0.00    -0.387 OA
ATOM     19  H   UNL     1     -13.284  39.882  -3.264  1.00  0.00     0.211 HD
ENDBRANCH  14  18
BRANCH  15  20
ATOM     20  O   UNL     1     -13.568  38.004  -5.108  1.00  0.00    -0.385 OA
ATOM     21  H   UNL     1     -13.659  37.980  -4.115  1.00  0.00     0.211 HD
ENDBRANCH  15  20
ENDBRANCH   8   9
ENDBRANCH   7   8
ENDBRANCH   1   7
BRANCH   2  22
ATOM     22  O   UNL     1     -10.031  34.204  -3.977  1.00  0.00    -0.387 OA
ATOM     23  H   UNL     1     -10.667  33.503  -3.652  1.00  0.00     0.211 HD
ENDBRANCH   2  22
BRANCH   3  24
ATOM     24  O   UNL     1      -9.670  33.619  -1.215  1.00  0.00    -0.387 OA
ATOM     25  H   UNL     1     -10.011  33.372  -0.312  1.00  0.00     0.211 HD
ENDBRANCH   3  24
BRANCH   5  26
ATOM     26  O   UNL     1     -12.835  36.566  -1.220  1.00  0.00    -0.454 OA
BRANCH  26  27
ATOM     27  C   UNL     1     -13.970  36.976  -0.501  1.00  0.00     0.214 A 
ATOM     28  C   UNL     1     -14.287  36.432   0.763  1.00  0.00     0.180 A 
ATOM     29  C   UNL     1     -14.833  37.911  -1.078  1.00  0.00     0.239 A 
ATOM     30  O   UNL     1     -15.369  36.882   1.410  1.00  0.00    -0.452 OA
ATOM     31  C   UNL     1     -15.919  38.419  -0.331  1.00  0.00     0.111 A 
ATOM     32  O   UNL     1     -14.671  38.255  -2.276  1.00  0.00    -0.285 OA
ATOM     33  C   UNL     1     -16.162  37.835   0.929  1.00  0.00     0.146 A 
ATOM     34  C   UNL     1     -16.756  39.463  -0.798  1.00  0.00     0.134 A 
ATOM     35  C   UNL     1     -17.273  38.240   1.676  1.00  0.00     0.094 A 
ATOM     36  C   UNL     1     -17.873  39.836  -0.050  1.00  0.00     0.093 A 
ATOM     37  C   UNL     1     -18.135  39.225   1.186  1.00  0.00     0.123 A 
BRANCH  28  38
ATOM     38  C   UNL     1     -13.509  35.334   1.392  1.00  0.00     0.025 A 
ATOM     39  C   UNL     1     -14.052  34.040   1.432  1.00  0.00     0.062 A 
ATOM     40  C   UNL     1     -12.205  35.538   1.889  1.00  0.00     0.016 A 
ATOM     41  C   UNL     1     -13.335  32.973   1.994  1.00  0.00     0.158 A 
ATOM     42  C   UNL     1     -11.497  34.485   2.474  1.00  0.00     0.051 A 
ATOM     43  C   UNL     1     -12.058  33.200   2.538  1.00  0.00     0.157 A 
BRANCH  41  44
ATOM     44  O   UNL     1     -13.878  31.688   2.005  1.00  0.00    -0.504 OA
ATOM     45  H   UNL     1     -14.547  31.403   2.712  1.00  0.00     0.293 HD
ENDBRANCH  41  44
BRANCH  43  46
ATOM     46  O   UNL     1     -11.332  32.170   3.125  1.00  0.00    -0.504 OA
ATOM     47  H   UNL     1     -11.747  31.530   3.795  1.00  0.00     0.293 HD
ENDBRANCH  43  46
ENDBRANCH  28  38
BRANCH  34  48
ATOM     48  O   UNL     1     -16.459  40.199  -1.954  1.00  0.00    -0.507 OA
ATOM     49  H   UNL     1     -16.115  41.146  -1.878  1.00  0.00     0.293 HD
ENDBRANCH  34  48
BRANCH  37  50
ATOM     50  O   UNL     1     -19.239  39.637   1.928  1.00  0.00    -0.508 OA
ATOM     51  H   UNL     1     -20.025  40.100   1.488  1.00  0.00     0.293 HD
ENDBRANCH  37  50
ENDBRANCH  26  27
ENDBRANCH   5  26
BRANCH   4  52
ATOM     52  O   UNL     1     -12.122  33.102  -2.399  1.00  0.00    -0.384 OA
ATOM     53  H   UNL     1     -13.017  32.718  -2.180  1.00  0.00     0.211 HD
ENDBRANCH   4  52
TORSDOF 16
ENDMDL
MODEL 2
REMARK VINA RESULT:    -6.585      1.731      7.716
REMARK INTER + INTRA:         -14.024
REMARK INTER:                 -11.770
REMARK INTRA:                  -2.253
REMARK UNBOUND:                -3.204
REMARK SMILES C[C@@H]1O[C@@H](OC[C@@H]2O[C@H](Oc3c(-c4ccc(O)c(O)c4)oc4cc(O)cc(O)c4c3=O)[C@@H](O)[C@@H](O)[C@H]2O)[C@@H](O)[C@@H](O)[C@H]1O
REMARK SMILES IDX 7 1 36 2 34 3 32 4 9 5 8 6 6 7 5 8 4 9 1 10 2 11 42 12 3 13
REMARK SMILES IDX 40 14 38 15 43 16 41 18 39 20 37 22 35 24 10 26 11 27 12 28
REMARK SMILES IDX 30 29 21 30 29 31 31 32 22 33 27 34 23 35 26 36 24 37 13 38
REMARK SMILES IDX 20 39 14 40 18 41 15 42 16 43 19 44 17 46 28 48 25 50 33 52
REMARK H PARENT 43 17 41 19 39 21 37 23 35 25 19 45 17 47 28 49 25 51 33 53
REMARK Flexibility Score: inf
ROOT
ATOM      1  C   UNL     1     -15.876  37.287  -0.943  1.00  0.00     0.180 C 
ATOM      2  C   UNL     1     -17.062  38.292  -0.997  1.00  0.00     0.177 C 
ATOM      3  C   UNL     1     -16.728  39.424  -1.989  1.00  0.00     0.180 C 
ATOM      4  C   UNL     1     -16.342  38.858  -3.343  1.00  0.00     0.214 C 
ATOM      5  C   UNL     1     -15.191  37.813  -3.185  1.00  0.00     0.339 C 
ATOM      6  O   UNL     1     -15.535  36.810  -2.247  1.00  0.00    -0.332 OA
ENDROOT
BRANCH   1   7
ATOM      7  C   UNL     1     -14.654  37.790  -0.129  1.00  0.00     0.198 C 
BRANCH   7   8
ATOM      8  O   UNL     1     -14.342  36.890   0.943  1.00  0.00    -0.347 OA
BRANCH   8   9
ATOM      9  C   UNL     1     -13.037  36.350   0.798  1.00  0.00     0.281 C 
ATOM     10  C   UNL     1     -13.746  33.127  -0.834  1.00  0.00     0.041 C 
ATOM     11  C   UNL     1     -13.712  34.143   0.307  1.00  0.00     0.150 C 
ATOM     12  C   UNL     1     -13.048  33.557   1.576  1.00  0.00     0.174 C 
ATOM     13  O   UNL     1     -12.999  35.282  -0.146  1.00  0.00    -0.344 OA
ATOM     14  C   UNL     1     -13.114  34.628   2.687  1.00  0.00     0.179 C 
ATOM     15  C   UNL     1     -12.442  35.907   2.169  1.00  0.00     0.202 C 
BRANCH  12  16
ATOM     16  O   UNL     1     -13.691  32.386   2.003  1.00  0.00    -0.388 OA
ATOM     17  H   UNL     1     -13.508  32.276   2.970  1.00  0.00     0.211 HD
ENDBRANCH  12  16
BRANCH  14  18
ATOM     18  O   UNL     1     -14.429  34.935   3.102  1.00  0.00    -0.387 OA
ATOM     19  H   UNL     1     -14.382  35.628   3.824  1.00  0.00     0.211 HD
ENDBRANCH  14  18
BRANCH  15  20
ATOM     20  O   UNL     1     -12.533  36.927   3.125  1.00  0.00    -0.385 OA
ATOM     21  H   UNL     1     -11.877  37.632   2.864  1.00  0.00     0.211 HD
ENDBRANCH  15  20
ENDBRANCH   8   9
ENDBRANCH   7   8
ENDBRANCH   1   7
BRANCH   2  22
ATOM     22  O   UNL     1     -18.248  37.624  -1.372  1.00  0.00    -0.387 OA
ATOM     23  H   UNL     1     -18.983  38.302  -1.323  1.00  0.00     0.211 HD
ENDBRANCH   2  22
BRANCH   3  24
ATOM     24  O   UNL     1     -17.786  40.336  -2.106  1.00  0.00    -0.387 OA
ATOM     25  H   UNL     1     -17.799  40.599  -3.066  1.00  0.00     0.211 HD
ENDBRANCH   3  24
BRANCH   5  26
ATOM     26  O   UNL     1     -13.958  38.440  -2.777  1.00  0.00    -0.454 OA
BRANCH  26  27
ATOM     27  C   UNL     1     -13.027  39.013  -3.660  1.00  0.00     0.214 A 
ATOM     28  C   UNL     1     -11.942  38.273  -4.179  1.00  0.00     0.180 A 
ATOM     29  C   UNL     1     -13.154  40.364  -3.991  1.00  0.00     0.239 A 
ATOM     30  O   UNL     1     -11.103  38.868  -5.036  1.00  0.00    -0.452 OA
ATOM     31  C   UNL     1     -12.297  40.933  -4.959  1.00  0.00     0.111 A 
ATOM     32  O   UNL     1     -13.993  41.080  -3.387  1.00  0.00    -0.285 OA
ATOM     33  C   UNL     1     -11.246  40.127  -5.442  1.00  0.00     0.146 A 
ATOM     34  C   UNL     1     -12.450  42.256  -5.444  1.00  0.00     0.134 A 
ATOM     35  C   UNL     1     -10.318  40.664  -6.339  1.00  0.00     0.094 A 
ATOM     36  C   UNL     1     -11.500  42.783  -6.318  1.00  0.00     0.093 A 
ATOM     37  C   UNL     1     -10.432  41.990  -6.767  1.00  0.00     0.123 A 
BRANCH  28  38
ATOM     38  C   UNL     1     -11.645  36.875  -3.775  1.00  0.00     0.025 A 
ATOM     39  C   UNL     1     -10.540  36.617  -2.949  1.00  0.00     0.062 A 
ATOM     40  C   UNL     1     -12.485  35.802  -4.139  1.00  0.00     0.016 A 
ATOM     41  C   UNL     1     -10.244  35.312  -2.525  1.00  0.00     0.158 A 
ATOM     42  C   UNL     1     -12.180  34.497  -3.742  1.00  0.00     0.051 A 
ATOM     43  C   UNL     1     -11.057  34.242  -2.942  1.00  0.00     0.157 A 
BRANCH  41  44
ATOM     44  O   UNL     1      -9.157  35.074  -1.685  1.00  0.00    -0.504 OA
ATOM     45  H   UNL     1      -8.991  35.644  -0.861  1.00  0.00     0.293 HD
ENDBRANCH  41  44
BRANCH  43  46
ATOM     46  O   UNL     1     -10.777  32.935  -2.560  1.00  0.00    -0.504 OA
ATOM     47  H   UNL     1     -10.719  32.177  -3.233  1.00  0.00     0.293 HD
ENDBRANCH  43  46
ENDBRANCH  28  38
BRANCH  34  48
ATOM     48  O   UNL     1     -13.572  43.039  -5.137  1.00  0.00    -0.507 OA
ATOM     49  H   UNL     1     -14.456  42.598  -4.923  1.00  0.00     0.293 HD
ENDBRANCH  34  48
BRANCH  37  50
ATOM     50  O   UNL     1      -9.515  42.529  -7.664  1.00  0.00    -0.508 OA
ATOM     51  H   UNL     1      -9.307  43.520  -7.672  1.00  0.00     0.293 HD
ENDBRANCH  37  50
ENDBRANCH  26  27
ENDBRANCH   5  26
BRANCH   4  52
ATOM     52  O   UNL     1     -17.475  38.346  -4.010  1.00  0.00    -0.384 OA
ATOM     53  H   UNL     1     -18.283  38.842  -3.698  1.00  0.00     0.211 HD
ENDBRANCH   4  52
TORSDOF 16
ENDMDL
MODEL 3
REMARK VINA RESULT:    -6.245      2.029      6.302
REMARK INTER + INTRA:         -13.465
REMARK INTER:                 -11.366
REMARK INTRA:                  -2.099
REMARK UNBOUND:                -3.204
REMARK SMILES C[C@@H]1O[C@@H](OC[C@@H]2O[C@H](Oc3c(-c4ccc(O)c(O)c4)oc4cc(O)cc(O)c4c3=O)[C@@H](O)[C@@H](O)[C@H]2O)[C@@H](O)[C@@H](O)[C@H]1O
REMARK SMILES IDX 7 1 36 2 34 3 32 4 9 5 8 6 6 7 5 8 4 9 1 10 2 11 42 12 3 13
REMARK SMILES IDX 40 14 38 15 43 16 41 18 39 20 37 22 35 24 10 26 11 27 12 28
REMARK SMILES IDX 30 29 21 30 29 31 31 32 22 33 27 34 23 35 26 36 24 37 13 38
REMARK SMILES IDX 20 39 14 40 18 41 15 42 16 43 19 44 17 46 28 48 25 50 33 52
REMARK H PARENT 43 17 41 19 39 21 37 23 35 25 19 45 17 47 28 49 25 51 33 53
REMARK Flexibility Score: inf
ROOT
ATOM      1  C   UNL     1     -14.436  37.335   1.502  1.00  0.00     0.180 C 
ATOM      2  C   UNL     1     -13.684  36.019   1.849  1.00  0.00     0.177 C 
ATOM      3  C   UNL     1     -12.651  35.714   0.745  1.00  0.00     0.180 C 
ATOM      4  C   UNL     1     -11.735  36.903   0.522  1.00  0.00     0.214 C 
ATOM      5  C   UNL     1     -12.576  38.190   0.245  1.00  0.00     0.339 C 
ATOM      6  O   UNL     1     -13.525  38.413   1.272  1.00  0.00    -0.332 OA
ENDROOT
BRANCH   1   7
ATOM      7  C   UNL     1     -15.506  37.180   0.389  1.00  0.00     0.198 C 
BRANCH   7   8
ATOM      8  O   UNL     1     -16.229  38.404   0.193  1.00  0.00    -0.347 OA
BRANCH   8   9
ATOM      9  C   UNL     1     -17.608  38.157  -0.033  1.00  0.00     0.281 C 
ATOM     10  C   UNL     1     -17.488  35.864  -2.912  1.00  0.00     0.041 C 
ATOM     11  C   UNL     1     -17.362  37.198  -2.175  1.00  0.00     0.150 C 
ATOM     12  C   UNL     1     -18.172  38.316  -2.873  1.00  0.00     0.174 C 
ATOM     13  O   UNL     1     -17.821  37.005  -0.847  1.00  0.00    -0.344 OA
ATOM     14  C   UNL     1     -17.936  39.631  -2.097  1.00  0.00     0.179 C 
ATOM     15  C   UNL     1     -18.326  39.405  -0.630  1.00  0.00     0.202 C 
BRANCH  12  16
ATOM     16  O   UNL     1     -17.786  38.476  -4.212  1.00  0.00    -0.388 OA
ATOM     17  H   UNL     1     -18.353  39.186  -4.607  1.00  0.00     0.211 HD
ENDBRANCH  12  16
BRANCH  14  18
ATOM     18  O   UNL     1     -16.602  40.091  -2.153  1.00  0.00    -0.387 OA
ATOM     19  H   UNL     1     -16.449  40.721  -1.389  1.00  0.00     0.211 HD
ENDBRANCH  14  18
BRANCH  15  20
ATOM     20  O   UNL     1     -18.070  40.557   0.126  1.00  0.00    -0.385 OA
ATOM     21  H   UNL     1     -18.780  40.612   0.825  1.00  0.00     0.211 HD
ENDBRANCH  15  20
ENDBRANCH   8   9
ENDBRANCH   7   8
ENDBRANCH   1   7
BRANCH   2  22
ATOM     22  O   UNL     1     -13.058  36.133   3.109  1.00  0.00    -0.387 OA
ATOM     23  H   UNL     1     -12.610  35.255   3.285  1.00  0.00     0.211 HD
ENDBRANCH   2  22
BRANCH   3  24
ATOM     24  O   UNL     1     -11.915  34.556   1.033  1.00  0.00    -0.387 OA
ATOM     25  H   UNL     1     -12.277  33.858   0.422  1.00  0.00     0.211 HD
ENDBRANCH   3  24
BRANCH   5  26
ATOM     26  O   UNL     1     -13.259  38.115  -1.023  1.00  0.00    -0.454 OA
BRANCH  26  27
ATOM     27  C   UNL     1     -12.851  38.789  -2.186  1.00  0.00     0.214 A 
ATOM     28  C   UNL     1     -12.131  38.135  -3.210  1.00  0.00     0.180 A 
ATOM     29  C   UNL     1     -13.123  40.153  -2.307  1.00  0.00     0.239 A 
ATOM     30  O   UNL     1     -11.792  38.825  -4.306  1.00  0.00    -0.452 OA
ATOM     31  C   UNL     1     -12.820  40.826  -3.511  1.00  0.00     0.111 A 
ATOM     32  O   UNL     1     -13.586  40.788  -1.324  1.00  0.00    -0.285 OA
ATOM     33  C   UNL     1     -12.113  40.102  -4.492  1.00  0.00     0.146 A 
ATOM     34  C   UNL     1     -13.187  42.173  -3.756  1.00  0.00     0.134 A 
ATOM     35  C   UNL     1     -11.713  40.742  -5.670  1.00  0.00     0.094 A 
ATOM     36  C   UNL     1     -12.758  42.801  -4.925  1.00  0.00     0.093 A 
ATOM     37  C   UNL     1     -12.020  42.089  -5.883  1.00  0.00     0.123 A 
BRANCH  28  38
ATOM     38  C   UNL     1     -11.674  36.725  -3.109  1.00  0.00     0.025 A 
ATOM     39  C   UNL     1     -12.606  35.719  -2.810  1.00  0.00     0.062 A 
ATOM     40  C   UNL     1     -10.339  36.356  -3.377  1.00  0.00     0.016 A 
ATOM     41  C   UNL     1     -12.216  34.373  -2.734  1.00  0.00     0.158 A 
ATOM     42  C   UNL     1      -9.940  35.021  -3.275  1.00  0.00     0.051 A 
ATOM     43  C   UNL     1     -10.871  34.024  -2.946  1.00  0.00     0.157 A 
BRANCH  41  44
ATOM     44  O   UNL     1     -13.158  33.382  -2.459  1.00  0.00    -0.504 OA
ATOM     45  H   UNL     1     -13.643  32.892  -3.205  1.00  0.00     0.293 HD
ENDBRANCH  41  44
BRANCH  43  46
ATOM     46  O   UNL     1     -10.447  32.703  -2.853  1.00  0.00    -0.504 OA
ATOM     47  H   UNL     1     -10.257  32.137  -3.675  1.00  0.00     0.293 HD
ENDBRANCH  43  46
ENDBRANCH  28  38
BRANCH  34  48
ATOM     48  O   UNL     1     -14.039  42.884  -2.899  1.00  0.00    -0.507 OA
ATOM     49  H   UNL     1     -13.748  43.774  -2.518  1.00  0.00     0.293 HD
ENDBRANCH  34  48
BRANCH  37  50
ATOM     50  O   UNL     1     -11.630  42.730  -7.056  1.00  0.00    -0.508 OA
ATOM     51  H   UNL     1     -12.245  42.778  -7.859  1.00  0.00     0.293 HD
ENDBRANCH  37  50
ENDBRANCH  26  27
ENDBRANCH   5  26
BRANCH   4  52
ATOM     52  O   UNL     1     -10.832  37.044   1.596  1.00  0.00    -0.384 OA
ATOM     53  H   UNL     1     -10.858  37.989   1.916  1.00  0.00     0.211 HD
ENDBRANCH   4  52
TORSDOF 16
ENDMDL
MODEL 4
REMARK VINA RESULT:    -5.996      2.434      7.638
REMARK INTER + INTRA:         -13.056
REMARK INTER:                 -10.507
REMARK INTRA:                  -2.549
REMARK UNBOUND:                -3.204
REMARK SMILES C[C@@H]1O[C@@H](OC[C@@H]2O[C@H](Oc3c(-c4ccc(O)c(O)c4)oc4cc(O)cc(O)c4c3=O)[C@@H](O)[C@@H](O)[C@H]2O)[C@@H](O)[C@@H](O)[C@H]1O
REMARK SMILES IDX 7 1 36 2 34 3 32 4 9 5 8 6 6 7 5 8 4 9 1 10 2 11 42 12 3 13
REMARK SMILES IDX 40 14 38 15 43 16 41 18 39 20 37 22 35 24 10 26 11 27 12 28
REMARK SMILES IDX 30 29 21 30 29 31 31 32 22 33 27 34 23 35 26 36 24 37 13 38
REMARK SMILES IDX 20 39 14 40 18 41 15 42 16 43 19 44 17 46 28 48 25 50 33 52
REMARK H PARENT 43 17 41 19 39 21 37 23 35 25 19 45 17 47 28 49 25 51 33 53
REMARK Flexibility Score: inf
ROOT
ATOM      1  C   UNL     1     -14.602  35.340   1.764  1.00  0.00     0.180 C 
ATOM      2  C   UNL     1     -15.886  35.738   2.544  1.00  0.00     0.177 C 
ATOM      3  C   UNL     1     -16.565  36.930   1.840  1.00  0.00     0.180 C 
ATOM      4  C   UNL     1     -16.809  36.621   0.374  1.00  0.00     0.214 C 
ATOM      5  C   UNL     1     -15.479  36.170  -0.313  1.00  0.00     0.339 C 
ATOM      6  O   UNL     1     -14.884  35.091   0.384  1.00  0.00    -0.332 OA
ENDROOT
BRANCH   1   7
ATOM      7  C   UNL     1     -13.401  36.298   1.987  1.00  0.00     0.198 C 
BRANCH   7   8
ATOM      8  O   UNL     1     -12.161  35.577   2.003  1.00  0.00    -0.347 OA
BRANCH   8   9
ATOM      9  C   UNL     1     -11.245  36.149   2.924  1.00  0.00     0.281 C 
ATOM     10  C   UNL     1     -11.134  39.648   1.783  1.00  0.00     0.041 C 
ATOM     11  C   UNL     1     -10.865  38.144   1.723  1.00  0.00     0.150 C 
ATOM     12  C   UNL     1      -9.364  37.838   1.504  1.00  0.00     0.174 C 
ATOM     13  O   UNL     1     -11.317  37.573   2.940  1.00  0.00    -0.344 OA
ATOM     14  C   UNL     1      -9.200  36.306   1.396  1.00  0.00     0.179 C 
ATOM     15  C   UNL     1      -9.787  35.665   2.661  1.00  0.00     0.202 C 
BRANCH  12  16
ATOM     16  O   UNL     1      -8.875  38.454   0.343  1.00  0.00    -0.388 OA
ATOM     17  H   UNL     1      -9.348  39.319   0.237  1.00  0.00     0.211 HD
ENDBRANCH  12  16
BRANCH  14  18
ATOM     18  O   UNL     1      -9.831  35.747   0.262  1.00  0.00    -0.387 OA
ATOM     19  H   UNL     1      -9.924  34.759   0.403  1.00  0.00     0.211 HD
ENDBRANCH  14  18
BRANCH  15  20
ATOM     20  O   UNL     1      -9.714  34.268   2.578  1.00  0.00    -0.385 OA
ATOM     21  H   UNL     1      -9.267  34.049   1.714  1.00  0.00     0.211 HD
ENDBRANCH  15  20
ENDBRANCH   8   9
ENDBRANCH   7   8
ENDBRANCH   1   7
BRANCH   2  22
ATOM     22  O   UNL     1     -16.764  34.635   2.631  1.00  0.00    -0.387 OA
ATOM     23  H   UNL     1     -16.495  34.121   3.446  1.00  0.00     0.211 HD
ENDBRANCH   2  22
BRANCH   3  24
ATOM     24  O   UNL     1     -17.754  37.300   2.483  1.00  0.00    -0.387 OA
ATOM     25  H   UNL     1     -17.898  38.254   2.236  1.00  0.00     0.211 HD
ENDBRANCH   3  24
BRANCH   5  26
ATOM     26  O   UNL     1     -14.534  37.255  -0.404  1.00  0.00    -0.454 OA
BRANCH  26  27
ATOM     27  C   UNL     1     -13.970  37.718  -1.604  1.00  0.00     0.214 A 
ATOM     28  C   UNL     1     -14.745  38.370  -2.588  1.00  0.00     0.180 A 
ATOM     29  C   UNL     1     -12.615  37.481  -1.849  1.00  0.00     0.239 A 
ATOM     30  O   UNL     1     -14.145  38.811  -3.700  1.00  0.00    -0.452 OA
ATOM     31  C   UNL     1     -12.002  38.032  -2.995  1.00  0.00     0.111 A 
ATOM     32  O   UNL     1     -11.962  36.735  -1.076  1.00  0.00    -0.285 OA
ATOM     33  C   UNL     1     -12.840  38.681  -3.924  1.00  0.00     0.146 A 
ATOM     34  C   UNL     1     -10.608  37.948  -3.242  1.00  0.00     0.134 A 
ATOM     35  C   UNL     1     -12.301  39.172  -5.118  1.00  0.00     0.094 A 
ATOM     36  C   UNL     1     -10.093  38.420  -4.448  1.00  0.00     0.093 A 
ATOM     37  C   UNL     1     -10.937  39.032  -5.389  1.00  0.00     0.123 A 
BRANCH  28  38
ATOM     38  C   UNL     1     -16.217  38.542  -2.480  1.00  0.00     0.025 A 
ATOM     39  C   UNL     1     -16.734  39.541  -1.640  1.00  0.00     0.062 A 
ATOM     40  C   UNL     1     -17.113  37.776  -3.254  1.00  0.00     0.016 A 
ATOM     41  C   UNL     1     -18.117  39.750  -1.533  1.00  0.00     0.158 A 
ATOM     42  C   UNL     1     -18.492  37.962  -3.132  1.00  0.00     0.051 A 
ATOM     43  C   UNL     1     -19.004  38.942  -2.268  1.00  0.00     0.157 A 
BRANCH  41  44
ATOM     44  O   UNL     1     -18.616  40.762  -0.713  1.00  0.00    -0.504 OA
ATOM     45  H   UNL     1     -18.544  41.739  -0.977  1.00  0.00     0.293 HD
ENDBRANCH  41  44
BRANCH  43  46
ATOM     46  O   UNL     1     -20.380  39.106  -2.166  1.00  0.00    -0.504 OA
ATOM     47  H   UNL     1     -21.024  38.323  -2.233  1.00  0.00     0.293 HD
ENDBRANCH  43  46
ENDBRANCH  28  38
BRANCH  34  48
ATOM     48  O   UNL     1      -9.706  37.475  -2.278  1.00  0.00    -0.507 OA
ATOM     49  H   UNL     1      -9.166  38.127  -1.727  1.00  0.00     0.293 HD
ENDBRANCH  34  48
BRANCH  37  50
ATOM     50  O   UNL     1     -10.393  39.523  -6.572  1.00  0.00    -0.508 OA
ATOM     51  H   UNL     1      -9.911  40.414  -6.600  1.00  0.00     0.293 HD
ENDBRANCH  37  50
ENDBRANCH  26  27
ENDBRANCH   5  26
BRANCH   4  52
ATOM     52  O   UNL     1     -17.858  35.690   0.229  1.00  0.00    -0.384 OA
ATOM     53  H   UNL     1     -17.549  34.802   0.564  1.00  0.00     0.211 HD
ENDBRANCH   4  52
TORSDOF 16
ENDMDL
MODEL 5
REMARK VINA RESULT:    -5.916      2.561      6.817
REMARK INTER + INTRA:         -12.924
REMARK INTER:                 -10.956
REMARK INTRA:                  -1.968
REMARK UNBOUND:                -3.204
REMARK SMILES C[C@@H]1O[C@@H](OC[C@@H]2O[C@H](Oc3c(-c4ccc(O)c(O)c4)oc4cc(O)cc(O)c4c3=O)[C@@H](O)[C@@H](O)[C@H]2O)[C@@H](O)[C@@H](O)[C@H]1O
REMARK SMILES IDX 7 1 36 2 34 3 32 4 9 5 8 6 6 7 5 8 4 9 1 10 2 11 42 12 3 13
REMARK SMILES IDX 40 14 38 15 43 16 41 18 39 20 37 22 35 24 10 26 11 27 12 28
REMARK SMILES IDX 30 29 21 30 29 31 31 32 22 33 27 34 23 35 26 36 24 37 13 38
REMARK SMILES IDX 20 39 14 40 18 41 15 42 16 43 19 44 17 46 28 48 25 50 33 52
REMARK H PARENT 43 17 41 19 39 21 37 23 35 25 19 45 17 47 28 49 25 51 33 53
REMARK Flexibility Score: inf
ROOT
ATOM      1  C   UNL     1     -13.248  38.763   0.441  1.00  0.00     0.180 C 
ATOM      2  C   UNL     1     -12.687  37.391   0.911  1.00  0.00     0.177 C 
ATOM      3  C   UNL     1     -11.727  36.837  -0.161  1.00  0.00     0.180 C 
ATOM      4  C   UNL     1     -10.653  37.855  -0.500  1.00  0.00     0.214 C 
ATOM      5  C   UNL     1     -11.306  39.219  -0.898  1.00  0.00     0.339 C 
ATOM      6  O   UNL     1     -12.196  39.672   0.106  1.00  0.00    -0.332 OA
ENDROOT
BRANCH   1   7
ATOM      7  C   UNL     1     -14.348  38.659  -0.649  1.00  0.00     0.198 C 
BRANCH   7   8
ATOM      8  O   UNL     1     -15.364  37.720  -0.270  1.00  0.00    -0.347 OA
BRANCH   8   9
ATOM      9  C   UNL     1     -15.459  36.658  -1.207  1.00  0.00     0.281 C 
ATOM     10  C   UNL     1     -14.900  38.425  -4.389  1.00  0.00     0.041 C 
ATOM     11  C   UNL     1     -15.661  38.012  -3.129  1.00  0.00     0.150 C 
ATOM     12  C   UNL     1     -17.080  37.493  -3.462  1.00  0.00     0.174 C 
ATOM     13  O   UNL     1     -14.904  37.008  -2.474  1.00  0.00    -0.344 OA
ATOM     14  C   UNL     1     -17.790  37.160  -2.132  1.00  0.00     0.179 C 
ATOM     15  C   UNL     1     -16.927  36.154  -1.359  1.00  0.00     0.202 C 
BRANCH  12  16
ATOM     16  O   UNL     1     -17.824  38.443  -4.176  1.00  0.00    -0.388 OA
ATOM     17  H   UNL     1     -18.564  38.749  -3.591  1.00  0.00     0.211 HD
ENDBRANCH  12  16
BRANCH  14  18
ATOM     18  O   UNL     1     -18.024  38.289  -1.315  1.00  0.00    -0.387 OA
ATOM     19  H   UNL     1     -17.406  38.246  -0.527  1.00  0.00     0.211 HD
ENDBRANCH  14  18
BRANCH  15  20
ATOM     20  O   UNL     1     -17.505  35.869  -0.115  1.00  0.00    -0.385 OA
ATOM     21  H   UNL     1     -17.922  34.966  -0.186  1.00  0.00     0.211 HD
ENDBRANCH  15  20
ENDBRANCH   8   9
ENDBRANCH   7   8
ENDBRANCH   1   7
BRANCH   2  22
ATOM     22  O   UNL     1     -12.030  37.533   2.153  1.00  0.00    -0.387 OA
ATOM     23  H   UNL     1     -11.970  38.516   2.331  1.00  0.00     0.211 HD
ENDBRANCH   2  22
BRANCH   3  24
ATOM     24  O   UNL     1     -11.159  35.618   0.235  1.00  0.00    -0.387 OA
ATOM     25  H   UNL     1     -10.308  35.863   0.691  1.00  0.00     0.211 HD
ENDBRANCH   3  24
BRANCH   5  26
ATOM     26  O   UNL     1     -12.014  39.123  -2.151  1.00  0.00    -0.454 OA
BRANCH  26  27
ATOM     27  C   UNL     1     -11.459  39.437  -3.402  1.00  0.00     0.214 A 
ATOM     28  C   UNL     1     -10.955  38.439  -4.264  1.00  0.00     0.180 A 
ATOM     29  C   UNL     1     -11.359  40.778  -3.779  1.00  0.00     0.239 A 
ATOM     30  O   UNL     1     -10.461  38.799  -5.455  1.00  0.00    -0.452 OA
ATOM     31  C   UNL     1     -10.907  41.113  -5.074  1.00  0.00     0.111 A 
ATOM     32  O   UNL     1     -11.621  41.683  -2.945  1.00  0.00    -0.285 OA
ATOM     33  C   UNL     1     -10.434  40.059  -5.882  1.00  0.00     0.146 A 
ATOM     34  C   UNL     1     -10.905  42.439  -5.574  1.00  0.00     0.134 A 
ATOM     35  C   UNL     1      -9.896  40.341  -7.142  1.00  0.00     0.094 A 
ATOM     36  C   UNL     1     -10.343  42.704  -6.822  1.00  0.00     0.093 A 
ATOM     37  C   UNL     1      -9.836  41.657  -7.608  1.00  0.00     0.123 A 
BRANCH  28  38
ATOM     38  C   UNL     1     -10.889  37.002  -3.892  1.00  0.00     0.025 A 
ATOM     39  C   UNL     1     -12.079  36.297  -3.653  1.00  0.00     0.062 A 
ATOM     40  C   UNL     1      -9.665  36.303  -3.843  1.00  0.00     0.016 A 
ATOM     41  C   UNL     1     -12.057  34.933  -3.326  1.00  0.00     0.158 A 
ATOM     42  C   UNL     1      -9.635  34.951  -3.491  1.00  0.00     0.051 A 
ATOM     43  C   UNL     1     -10.826  34.260  -3.224  1.00  0.00     0.157 A 
BRANCH  41  44
ATOM     44  O   UNL     1     -13.248  34.240  -3.114  1.00  0.00    -0.504 OA
ATOM     45  H   UNL     1     -13.924  34.109  -3.860  1.00  0.00     0.293 HD
ENDBRANCH  41  44
BRANCH  43  46
ATOM     46  O   UNL     1     -10.767  32.915  -2.877  1.00  0.00    -0.504 OA
ATOM     47  H   UNL     1     -11.275  32.202  -3.392  1.00  0.00     0.293 HD
ENDBRANCH  43  46
ENDBRANCH  28  38
BRANCH  34  48
ATOM     48  O   UNL     1     -11.524  43.496  -4.890  1.00  0.00    -0.507 OA
ATOM     49  H   UNL     1     -12.329  43.957  -5.291  1.00  0.00     0.293 HD
ENDBRANCH  34  48
BRANCH  37  50
ATOM     50  O   UNL     1      -9.308  41.944  -8.863  1.00  0.00    -0.508 OA
ATOM     51  H   UNL     1      -9.161  42.899  -9.167  1.00  0.00     0.293 HD
ENDBRANCH  37  50
ENDBRANCH  26  27
ENDBRANCH   5  26
BRANCH   4  52
ATOM     52  O   UNL     1      -9.722  37.967   0.553  1.00  0.00    -0.384 OA
ATOM     53  H   UNL     1      -9.836  37.188   1.167  1.00  0.00     0.211 HD
ENDBRANCH   4  52
TORSDOF 16
ENDMDL
MODEL 6
REMARK VINA RESULT:    -5.898      2.162      3.249
REMARK INTER + INTRA:         -12.895
REMARK INTER:                 -11.007
REMARK INTRA:                  -1.888
REMARK UNBOUND:                -3.204
REMARK SMILES C[C@@H]1O[C@@H](OC[C@@H]2O[C@H](Oc3c(-c4ccc(O)c(O)c4)oc4cc(O)cc(O)c4c3=O)[C@@H](O)[C@@H](O)[C@H]2O)[C@@H](O)[C@@H](O)[C@H]1O
REMARK SMILES IDX 7 1 36 2 34 3 32 4 9 5 8 6 6 7 5 8 4 9 1 10 2 11 42 12 3 13
REMARK SMILES IDX 40 14 38 15 43 16 41 18 39 20 37 22 35 24 10 26 11 27 12 28
REMARK SMILES IDX 30 29 21 30 29 31 31 32 22 33 27 34 23 35 26 36 24 37 13 38
REMARK SMILES IDX 20 39 14 40 18 41 15 42 16 43 19 44 17 46 28 48 25 50 33 52
REMARK H PARENT 43 17 41 19 39 21 37 23 35 25 19 45 17 47 28 49 25 51 33 53
REMARK Flexibility Score: inf
ROOT
ATOM      1  C   UNL     1     -11.244  36.283  -3.261  1.00  0.00     0.180 C 
ATOM      2  C   UNL     1     -10.239  35.196  -2.785  1.00  0.00     0.177 C 
ATOM      3  C   UNL     1     -10.759  34.554  -1.483  1.00  0.00     0.180 C 
ATOM      4  C   UNL     1     -12.176  34.041  -1.665  1.00  0.00     0.214 C 
ATOM      5  C   UNL     1     -13.099  35.180  -2.205  1.00  0.00     0.339 C 
ATOM      6  O   UNL     1     -12.567  35.754  -3.385  1.00  0.00    -0.332 OA
ENDROOT
BRANCH   1   7
ATOM      7  C   UNL     1     -11.180  37.606  -2.451  1.00  0.00     0.198 C 
BRANCH   7   8
ATOM      8  O   UNL     1     -11.721  38.700  -3.205  1.00  0.00    -0.347 OA
BRANCH   8   9
ATOM      9  C   UNL     1     -11.346  38.619  -4.571  1.00  0.00     0.281 C 
ATOM     10  C   UNL     1      -9.471  41.757  -5.014  1.00  0.00     0.041 C 
ATOM     11  C   UNL     1     -10.705  40.877  -4.810  1.00  0.00     0.150 C 
ATOM     12  C   UNL     1     -11.801  41.175  -5.860  1.00  0.00     0.174 C 
ATOM     13  O   UNL     1     -10.291  39.523  -4.894  1.00  0.00    -0.344 OA
ATOM     14  C   UNL     1     -13.024  40.288  -5.538  1.00  0.00     0.179 C 
ATOM     15  C   UNL     1     -12.568  38.823  -5.516  1.00  0.00     0.202 C 
BRANCH  12  16
ATOM     16  O   UNL     1     -12.176  42.527  -5.846  1.00  0.00    -0.388 OA
ATOM     17  H   UNL     1     -11.472  43.031  -5.364  1.00  0.00     0.211 HD
ENDBRANCH  12  16
BRANCH  14  18
ATOM     18  O   UNL     1     -13.641  40.597  -4.304  1.00  0.00    -0.387 OA
ATOM     19  H   UNL     1     -12.950  40.983  -3.691  1.00  0.00     0.211 HD
ENDBRANCH  14  18
BRANCH  15  20
ATOM     20  O   UNL     1     -13.635  37.985  -5.168  1.00  0.00    -0.385 OA
ATOM     21  H   UNL     1     -13.640  37.914  -4.173  1.00  0.00     0.211 HD
ENDBRANCH  15  20
ENDBRANCH   8   9
ENDBRANCH   7   8
ENDBRANCH   1   7
BRANCH   2  22
ATOM     22  O   UNL     1     -10.060  34.224  -3.793  1.00  0.00    -0.387 OA
ATOM     23  H   UNL     1     -10.610  33.432  -3.524  1.00  0.00     0.211 HD
ENDBRANCH   2  22
BRANCH   3  24
ATOM     24  O   UNL     1      -9.907  33.535  -1.035  1.00  0.00    -0.387 OA
ATOM     25  H   UNL     1      -9.631  33.810  -0.119  1.00  0.00     0.211 HD
ENDBRANCH   3  24
BRANCH   5  26
ATOM     26  O   UNL     1     -13.295  36.216  -1.221  1.00  0.00    -0.454 OA
BRANCH  26  27
ATOM     27  C   UNL     1     -14.393  37.092  -1.197  1.00  0.00     0.214 A 
ATOM     28  C   UNL     1     -14.369  38.294  -0.456  1.00  0.00     0.180 A 
ATOM     29  C   UNL     1     -15.555  36.737  -1.884  1.00  0.00     0.239 A 
ATOM     30  O   UNL     1     -15.437  39.099  -0.492  1.00  0.00    -0.452 OA
ATOM     31  C   UNL     1     -16.630  37.649  -1.965  1.00  0.00     0.111 A 
ATOM     32  O   UNL     1     -15.660  35.587  -2.383  1.00  0.00    -0.285 OA
ATOM     33  C   UNL     1     -16.526  38.834  -1.209  1.00  0.00     0.146 A 
ATOM     34  C   UNL     1     -17.784  37.415  -2.754  1.00  0.00     0.134 A 
ATOM     35  C   UNL     1     -17.596  39.735  -1.184  1.00  0.00     0.094 A 
ATOM     36  C   UNL     1     -18.850  38.312  -2.697  1.00  0.00     0.093 A 
ATOM     37  C   UNL     1     -18.759  39.473  -1.912  1.00  0.00     0.123 A 
BRANCH  28  38
ATOM     38  C   UNL     1     -13.234  38.687   0.418  1.00  0.00     0.025 A 
ATOM     39  C   UNL     1     -12.551  39.887   0.162  1.00  0.00     0.062 A 
ATOM     40  C   UNL     1     -12.865  37.924   1.546  1.00  0.00     0.016 A 
ATOM     41  C   UNL     1     -11.492  40.304   0.983  1.00  0.00     0.158 A 
ATOM     42  C   UNL     1     -11.793  38.321   2.350  1.00  0.00     0.051 A 
ATOM     43  C   UNL     1     -11.096  39.506   2.071  1.00  0.00     0.157 A 
BRANCH  41  44
ATOM     44  O   UNL     1     -10.839  41.510   0.730  1.00  0.00    -0.504 OA
ATOM     45  H   UNL     1      -9.931  41.715   1.135  1.00  0.00     0.293 HD
ENDBRANCH  41  44
BRANCH  43  46
ATOM     46  O   UNL     1     -10.035  39.877   2.888  1.00  0.00    -0.504 OA
ATOM     47  H   UNL     1      -9.674  40.826   2.907  1.00  0.00     0.293 HD
ENDBRANCH  43  46
ENDBRANCH  28  38
BRANCH  34  48
ATOM     48  O   UNL     1     -17.867  36.347  -3.659  1.00  0.00    -0.507 OA
ATOM     49  H   UNL     1     -18.767  36.037  -3.996  1.00  0.00     0.293 HD
ENDBRANCH  34  48
BRANCH  37  50
ATOM     50  O   UNL     1     -19.825  40.368  -1.896  1.00  0.00    -0.508 OA
ATOM     51  H   UNL     1     -20.764  40.065  -1.669  1.00  0.00     0.293 HD
ENDBRANCH  37  50
ENDBRANCH  26  27
ENDBRANCH   5  26
BRANCH   4  52
ATOM     52  O   UNL     1     -12.187  32.882  -2.469  1.00  0.00    -0.384 OA
ATOM     53  H   UNL     1     -11.976  32.092  -1.898  1.00  0.00     0.211 HD
ENDBRANCH   4  52
TORSDOF 16
ENDMDL
MODEL 7
REMARK VINA RESULT:    -5.637      2.010      7.579
REMARK INTER + INTRA:         -12.466
REMARK INTER:                 -11.188
REMARK INTRA:                  -1.277
REMARK UNBOUND:                -3.204
REMARK SMILES C[C@@H]1O[C@@H](OC[C@@H]2O[C@H](Oc3c(-c4ccc(O)c(O)c4)oc4cc(O)cc(O)c4c3=O)[C@@H](O)[C@@H](O)[C@H]2O)[C@@H](O)[C@@H](O)[C@H]1O
REMARK SMILES IDX 7 1 36 2 34 3 32 4 9 5 8 6 6 7 5 8 4 9 1 10 2 11 42 12 3 13
REMARK SMILES IDX 40 14 38 15 43 16 41 18 39 20 37 22 35 24 10 26 11 27 12 28
REMARK SMILES IDX 30 29 21 30 29 31 31 32 22 33 27 34 23 35 26 36 24 37 13 38
REMARK SMILES IDX 20 39 14 40 18 41 15 42 16 43 19 44 17 46 28 48 25 50 33 52
REMARK H PARENT 43 17 41 19 39 21 37 23 35 25 19 45 17 47 28 49 25 51 33 53
REMARK Flexibility Score: inf
ROOT
ATOM      1  C   UNL     1     -12.491  36.453  -0.540  1.00  0.00     0.180 C 
ATOM      2  C   UNL     1     -12.905  34.957  -0.443  1.00  0.00     0.177 C 
ATOM      3  C   UNL     1     -13.329  34.453  -1.836  1.00  0.00     0.180 C 
ATOM      4  C   UNL     1     -12.242  34.723  -2.861  1.00  0.00     0.214 C 
ATOM      5  C   UNL     1     -11.846  36.235  -2.843  1.00  0.00     0.339 C 
ATOM      6  O   UNL     1     -11.488  36.655  -1.539  1.00  0.00    -0.332 OA
ENDROOT
BRANCH   1   7
ATOM      7  C   UNL     1     -13.686  37.437  -0.654  1.00  0.00     0.198 C 
BRANCH   7   8
ATOM      8  O   UNL     1     -14.873  36.877  -0.074  1.00  0.00    -0.347 OA
BRANCH   8   9
ATOM      9  C   UNL     1     -14.978  37.207   1.302  1.00  0.00     0.281 C 
ATOM     10  C   UNL     1     -15.299  33.878   2.842  1.00  0.00     0.041 C 
ATOM     11  C   UNL     1     -15.740  35.096   2.030  1.00  0.00     0.150 C 
ATOM     12  C   UNL     1     -17.099  35.649   2.518  1.00  0.00     0.174 C 
ATOM     13  O   UNL     1     -14.730  36.084   2.145  1.00  0.00    -0.344 OA
ATOM     14  C   UNL     1     -17.489  36.832   1.605  1.00  0.00     0.179 C 
ATOM     15  C   UNL     1     -16.353  37.863   1.633  1.00  0.00     0.202 C 
BRANCH  12  16
ATOM     16  O   UNL     1     -18.101  34.667   2.482  1.00  0.00    -0.388 OA
ATOM     17  H   UNL     1     -18.952  35.094   2.755  1.00  0.00     0.211 HD
ENDBRANCH  12  16
BRANCH  14  18
ATOM     18  O   UNL     1     -17.737  36.457   0.265  1.00  0.00    -0.387 OA
ATOM     19  H   UNL     1     -17.506  37.229  -0.330  1.00  0.00     0.211 HD
ENDBRANCH  14  18
BRANCH  15  20
ATOM     20  O   UNL     1     -16.638  38.928   0.769  1.00  0.00    -0.385 OA
ATOM     21  H   UNL     1     -15.975  39.647   0.962  1.00  0.00     0.211 HD
ENDBRANCH  15  20
ENDBRANCH   8   9
ENDBRANCH   7   8
ENDBRANCH   1   7
BRANCH   2  22
ATOM     22  O   UNL     1     -11.837  34.189   0.070  1.00  0.00    -0.387 OA
ATOM     23  H   UNL     1     -12.243  33.357   0.451  1.00  0.00     0.211 HD
ENDBRANCH   2  22
BRANCH   3  24
ATOM     24  O   UNL     1     -13.672  33.094  -1.811  1.00  0.00    -0.387 OA
ATOM     25  H   UNL     1     -14.276  32.962  -2.592  1.00  0.00     0.211 HD
ENDBRANCH   3  24
BRANCH   5  26
ATOM     26  O   UNL     1     -12.914  37.069  -3.335  1.00  0.00    -0.454 OA
BRANCH  26  27
ATOM     27  C   UNL     1     -12.725  38.294  -3.996  1.00  0.00     0.214 A 
ATOM     28  C   UNL     1     -13.737  39.277  -4.044  1.00  0.00     0.180 A 
ATOM     29  C   UNL     1     -11.521  38.521  -4.666  1.00  0.00     0.239 A 
ATOM     30  O   UNL     1     -13.489  40.434  -4.669  1.00  0.00    -0.452 OA
ATOM     31  C   UNL     1     -11.266  39.784  -5.244  1.00  0.00     0.111 A 
ATOM     32  O   UNL     1     -10.692  37.584  -4.798  1.00  0.00    -0.285 OA
ATOM     33  C   UNL     1     -12.321  40.718  -5.240  1.00  0.00     0.146 A 
ATOM     34  C   UNL     1     -10.019  40.132  -5.822  1.00  0.00     0.134 A 
ATOM     35  C   UNL     1     -12.153  41.955  -5.872  1.00  0.00     0.094 A 
ATOM     36  C   UNL     1      -9.879  41.359  -6.469  1.00  0.00     0.093 A 
ATOM     37  C   UNL     1     -10.945  42.272  -6.497  1.00  0.00     0.123 A 
BRANCH  28  38
ATOM     38  C   UNL     1     -15.098  39.070  -3.484  1.00  0.00     0.025 A 
ATOM     39  C   UNL     1     -15.809  37.906  -3.815  1.00  0.00     0.062 A 
ATOM     40  C   UNL     1     -15.670  39.976  -2.567  1.00  0.00     0.016 A 
ATOM     41  C   UNL     1     -17.085  37.663  -3.284  1.00  0.00     0.158 A 
ATOM     42  C   UNL     1     -16.951  39.753  -2.056  1.00  0.00     0.051 A 
ATOM     43  C   UNL     1     -17.669  38.603  -2.415  1.00  0.00     0.157 A 
BRANCH  41  44
ATOM     44  O   UNL     1     -17.770  36.491  -3.603  1.00  0.00    -0.504 OA
ATOM     45  H   UNL     1     -18.500  36.481  -4.308  1.00  0.00     0.293 HD
ENDBRANCH  41  44
BRANCH  43  46
ATOM     46  O   UNL     1     -18.941  38.405  -1.891  1.00  0.00    -0.504 OA
ATOM     47  H   UNL     1     -19.110  37.792  -1.099  1.00  0.00     0.293 HD
ENDBRANCH  43  46
ENDBRANCH  28  38
BRANCH  34  48
ATOM     48  O   UNL     1      -8.885  39.316  -5.699  1.00  0.00    -0.507 OA
ATOM     49  H   UNL     1      -8.441  39.197  -4.799  1.00  0.00     0.293 HD
ENDBRANCH  34  48
BRANCH  37  50
ATOM     50  O   UNL     1     -10.769  43.503  -7.123  1.00  0.00    -0.508 OA
ATOM     51  H   UNL     1      -9.845  43.882  -7.290  1.00  0.00     0.293 HD
ENDBRANCH  37  50
ENDBRANCH  26  27
ENDBRANCH   5  26
BRANCH   4  52
ATOM     52  O   UNL     1     -11.148  33.854  -2.667  1.00  0.00    -0.384 OA
ATOM     53  H   UNL     1     -11.414  32.934  -2.947  1.00  0.00     0.211 HD
ENDBRANCH   4  52
TORSDOF 16
ENDMDL
MODEL 8
REMARK VINA RESULT:    -5.620      2.775      6.401
REMARK INTER + INTRA:         -12.438
REMARK INTER:                  -9.705
REMARK INTRA:                  -2.733
REMARK UNBOUND:                -3.204
REMARK SMILES C[C@@H]1O[C@@H](OC[C@@H]2O[C@H](Oc3c(-c4ccc(O)c(O)c4)oc4cc(O)cc(O)c4c3=O)[C@@H](O)[C@@H](O)[C@H]2O)[C@@H](O)[C@@H](O)[C@H]1O
REMARK SMILES IDX 7 1 36 2 34 3 32 4 9 5 8 6 6 7 5 8 4 9 1 10 2 11 42 12 3 13
REMARK SMILES IDX 40 14 38 15 43 16 41 18 39 20 37 22 35 24 10 26 11 27 12 28
REMARK SMILES IDX 30 29 21 30 29 31 31 32 22 33 27 34 23 35 26 36 24 37 13 38
REMARK SMILES IDX 20 39 14 40 18 41 15 42 16 43 19 44 17 46 28 48 25 50 33 52
REMARK H PARENT 43 17 41 19 39 21 37 23 35 25 19 45 17 47 28 49 25 51 33 53
REMARK Flexibility Score: inf
ROOT
ATOM      1  C   UNL     1     -13.409  40.072  -4.342  1.00  0.00     0.180 C 
ATOM      2  C   UNL     1     -12.505  41.329  -4.493  1.00  0.00     0.177 C 
ATOM      3  C   UNL     1     -11.488  41.370  -3.336  1.00  0.00     0.180 C 
ATOM      4  C   UNL     1     -10.715  40.066  -3.252  1.00  0.00     0.214 C 
ATOM      5  C   UNL     1     -11.702  38.857  -3.167  1.00  0.00     0.339 C 
ATOM      6  O   UNL     1     -12.630  38.878  -4.236  1.00  0.00    -0.332 OA
ENDROOT
BRANCH   1   7
ATOM      7  C   UNL     1     -14.497  40.202  -3.242  1.00  0.00     0.198 C 
BRANCH   7   8
ATOM      8  O   UNL     1     -15.364  39.059  -3.236  1.00  0.00    -0.347 OA
BRANCH   8   9
ATOM      9  C   UNL     1     -16.563  39.326  -2.525  1.00  0.00     0.281 C 
ATOM     10  C   UNL     1     -15.727  38.076   0.835  1.00  0.00     0.041 C 
ATOM     11  C   UNL     1     -16.071  37.980  -0.651  1.00  0.00     0.150 C 
ATOM     12  C   UNL     1     -17.265  37.029  -0.902  1.00  0.00     0.174 C 
ATOM     13  O   UNL     1     -16.371  39.287  -1.113  1.00  0.00    -0.344 OA
ATOM     14  C   UNL     1     -17.498  36.948  -2.427  1.00  0.00     0.179 C 
ATOM     15  C   UNL     1     -17.715  38.370  -2.960  1.00  0.00     0.202 C 
BRANCH  12  16
ATOM     16  O   UNL     1     -17.022  35.746  -0.388  1.00  0.00    -0.388 OA
ATOM     17  H   UNL     1     -17.843  35.208  -0.517  1.00  0.00     0.211 HD
ENDBRANCH  12  16
BRANCH  14  18
ATOM     18  O   UNL     1     -16.431  36.349  -3.134  1.00  0.00    -0.387 OA
ATOM     19  H   UNL     1     -15.983  35.685  -2.532  1.00  0.00     0.211 HD
ENDBRANCH  14  18
BRANCH  15  20
ATOM     20  O   UNL     1     -17.871  38.351  -4.353  1.00  0.00    -0.385 OA
ATOM     21  H   UNL     1     -18.551  39.043  -4.581  1.00  0.00     0.211 HD
ENDBRANCH  15  20
ENDBRANCH   8   9
ENDBRANCH   7   8
ENDBRANCH   1   7
BRANCH   2  22
ATOM     22  O   UNL     1     -11.849  41.308  -5.743  1.00  0.00    -0.387 OA
ATOM     23  H   UNL     1     -12.549  41.493  -6.435  1.00  0.00     0.211 HD
ENDBRANCH   2  22
BRANCH   3  24
ATOM     24  O   UNL     1     -10.619  42.464  -3.451  1.00  0.00    -0.387 OA
ATOM     25  H   UNL     1     -10.527  42.622  -4.430  1.00  0.00     0.211 HD
ENDBRANCH   3  24
BRANCH   5  26
ATOM     26  O   UNL     1     -12.420  38.844  -1.916  1.00  0.00    -0.454 OA
BRANCH  26  27
ATOM     27  C   UNL     1     -12.488  37.740  -1.050  1.00  0.00     0.214 A 
ATOM     28  C   UNL     1     -11.898  37.763   0.232  1.00  0.00     0.180 A 
ATOM     29  C   UNL     1     -13.112  36.572  -1.493  1.00  0.00     0.239 A 
ATOM     30  O   UNL     1     -12.018  36.688   1.021  1.00  0.00    -0.452 OA
ATOM     31  C   UNL     1     -13.289  35.489  -0.604  1.00  0.00     0.111 A 
ATOM     32  O   UNL     1     -13.467  36.470  -2.696  1.00  0.00    -0.285 OA
ATOM     33  C   UNL     1     -12.683  35.593   0.664  1.00  0.00     0.146 A 
ATOM     34  C   UNL     1     -14.029  34.327  -0.939  1.00  0.00     0.134 A 
ATOM     35  C   UNL     1     -12.754  34.517   1.555  1.00  0.00     0.094 A 
ATOM     36  C   UNL     1     -14.067  33.255  -0.048  1.00  0.00     0.093 A 
ATOM     37  C   UNL     1     -13.430  33.347   1.199  1.00  0.00     0.123 A 
BRANCH  28  38
ATOM     38  C   UNL     1     -11.093  38.906   0.735  1.00  0.00     0.025 A 
ATOM     39  C   UNL     1     -11.459  40.215   0.382  1.00  0.00     0.062 A 
ATOM     40  C   UNL     1     -10.010  38.720   1.620  1.00  0.00     0.016 A 
ATOM     41  C   UNL     1     -10.738  41.320   0.860  1.00  0.00     0.158 A 
ATOM     42  C   UNL     1      -9.273  39.815   2.077  1.00  0.00     0.051 A 
ATOM     43  C   UNL     1      -9.625  41.118   1.696  1.00  0.00     0.157 A 
BRANCH  41  44
ATOM     44  O   UNL     1     -11.128  42.615   0.521  1.00  0.00    -0.504 OA
ATOM     45  H   UNL     1     -12.028  42.800   0.089  1.00  0.00     0.293 HD
ENDBRANCH  41  44
BRANCH  43  46
ATOM     46  O   UNL     1      -8.875  42.190   2.167  1.00  0.00    -0.504 OA
ATOM     47  H   UNL     1      -9.182  43.152   2.062  1.00  0.00     0.293 HD
ENDBRANCH  43  46
ENDBRANCH  28  38
BRANCH  34  48
ATOM     48  O   UNL     1     -14.797  34.242  -2.109  1.00  0.00    -0.507 OA
ATOM     49  H   UNL     1     -15.752  33.914  -2.066  1.00  0.00     0.293 HD
ENDBRANCH  34  48
BRANCH  37  50
ATOM     50  O   UNL     1     -13.509  32.274   2.084  1.00  0.00    -0.508 OA
ATOM     51  H   UNL     1     -14.402  31.894   2.371  1.00  0.00     0.293 HD
ENDBRANCH  37  50
ENDBRANCH  26  27
ENDBRANCH   5  26
BRANCH   4  52
ATOM     52  O   UNL     1      -9.794  39.963  -4.314  1.00  0.00    -0.384 OA
ATOM     53  H   UNL     1      -9.355  40.850  -4.446  1.00  0.00     0.211 HD
ENDBRANCH   4  52
TORSDOF 16
ENDMDL
MODEL 9
REMARK VINA RESULT:    -5.583      2.960      6.433
REMARK INTER + INTRA:         -12.378
REMARK INTER:                 -10.511
REMARK INTRA:                  -1.866
REMARK UNBOUND:                -3.204
REMARK SMILES C[C@@H]1O[C@@H](OC[C@@H]2O[C@H](Oc3c(-c4ccc(O)c(O)c4)oc4cc(O)cc(O)c4c3=O)[C@@H](O)[C@@H](O)[C@H]2O)[C@@H](O)[C@@H](O)[C@H]1O
REMARK SMILES IDX 7 1 36 2 34 3 32 4 9 5 8 6 6 7 5 8 4 9 1 10 2 11 42 12 3 13
REMARK SMILES IDX 40 14 38 15 43 16 41 18 39 20 37 22 35 24 10 26 11 27 12 28
REMARK SMILES IDX 30 29 21 30 29 31 31 32 22 33 27 34 23 35 26 36 24 37 13 38
REMARK SMILES IDX 20 39 14 40 18 41 15 42 16 43 19 44 17 46 28 48 25 50 33 52
REMARK H PARENT 43 17 41 19 39 21 37 23 35 25 19 45 17 47 28 49 25 51 33 53
REMARK Flexibility Score: inf
ROOT
ATOM      1  C   UNL     1     -12.803  40.934  -3.456  1.00  0.00     0.180 C 
ATOM      2  C   UNL     1     -11.710  40.249  -4.324  1.00  0.00     0.177 C 
ATOM      3  C   UNL     1     -11.688  38.738  -4.021  1.00  0.00     0.180 C 
ATOM      4  C   UNL     1     -13.071  38.135  -4.189  1.00  0.00     0.214 C 
ATOM      5  C   UNL     1     -14.113  38.924  -3.332  1.00  0.00     0.339 C 
ATOM      6  O   UNL     1     -14.077  40.308  -3.630  1.00  0.00    -0.332 OA
ENDROOT
BRANCH   1   7
ATOM      7  C   UNL     1     -12.404  41.126  -1.968  1.00  0.00     0.198 C 
BRANCH   7   8
ATOM      8  O   UNL     1     -11.845  42.428  -1.747  1.00  0.00    -0.347 OA
BRANCH   8   9
ATOM      9  C   UNL     1     -10.432  42.367  -1.626  1.00  0.00     0.281 C 
ATOM     10  C   UNL     1     -10.033  41.245   1.857  1.00  0.00     0.041 C 
ATOM     11  C   UNL     1     -10.368  42.218   0.727  1.00  0.00     0.150 C 
ATOM     12  C   UNL     1      -9.617  43.561   0.887  1.00  0.00     0.174 C 
ATOM     13  O   UNL     1     -10.021  41.597  -0.499  1.00  0.00    -0.344 OA
ATOM     14  C   UNL     1     -10.064  44.497  -0.259  1.00  0.00     0.179 C 
ATOM     15  C   UNL     1      -9.796  43.790  -1.594  1.00  0.00     0.202 C 
BRANCH  12  16
ATOM     16  O   UNL     1      -9.888  44.161   2.126  1.00  0.00    -0.388 OA
ATOM     17  H   UNL     1     -10.429  44.974   1.956  1.00  0.00     0.211 HD
ENDBRANCH  12  16
BRANCH  14  18
ATOM     18  O   UNL     1     -11.428  44.859  -0.196  1.00  0.00    -0.387 OA
ATOM     19  H   UNL     1     -11.759  45.017  -1.128  1.00  0.00     0.211 HD
ENDBRANCH  14  18
BRANCH  15  20
ATOM     20  O   UNL     1     -10.243  44.579  -2.662  1.00  0.00    -0.385 OA
ATOM     21  H   UNL     1     -10.944  45.190  -2.302  1.00  0.00     0.211 HD
ENDBRANCH  15  20
ENDBRANCH   8   9
ENDBRANCH   7   8
ENDBRANCH   1   7
BRANCH   2  22
ATOM     22  O   UNL     1     -11.956  40.486  -5.694  1.00  0.00    -0.387 OA
ATOM     23  H   UNL     1     -11.218  40.037  -6.198  1.00  0.00     0.211 HD
ENDBRANCH   2  22
BRANCH   3  24
ATOM     24  O   UNL     1     -10.745  38.066  -4.812  1.00  0.00    -0.387 OA
ATOM     25  H   UNL     1     -11.195  37.923  -5.689  1.00  0.00     0.211 HD
ENDBRANCH   3  24
BRANCH   5  26
ATOM     26  O   UNL     1     -13.890  38.736  -1.920  1.00  0.00    -0.454 OA
BRANCH  26  27
ATOM     27  C   UNL     1     -14.161  37.547  -1.224  1.00  0.00     0.214 A 
ATOM     28  C   UNL     1     -15.481  37.144  -0.924  1.00  0.00     0.180 A 
ATOM     29  C   UNL     1     -13.092  36.769  -0.775  1.00  0.00     0.239 A 
ATOM     30  O   UNL     1     -15.676  35.987  -0.280  1.00  0.00    -0.452 OA
ATOM     31  C   UNL     1     -13.339  35.517  -0.170  1.00  0.00     0.111 A 
ATOM     32  O   UNL     1     -11.917  37.211  -0.862  1.00  0.00    -0.285 OA
ATOM     33  C   UNL     1     -14.683  35.179   0.083  1.00  0.00     0.146 A 
ATOM     34  C   UNL     1     -12.306  34.615   0.189  1.00  0.00     0.134 A 
ATOM     35  C   UNL     1     -14.983  33.990   0.755  1.00  0.00     0.094 A 
ATOM     36  C   UNL     1     -12.622  33.446   0.881  1.00  0.00     0.093 A 
ATOM     37  C   UNL     1     -13.960  33.132   1.166  1.00  0.00     0.123 A 
BRANCH  28  38
ATOM     38  C   UNL     1     -16.673  37.974  -1.236  1.00  0.00     0.025 A 
ATOM     39  C   UNL     1     -16.962  39.092  -0.439  1.00  0.00     0.062 A 
ATOM     40  C   UNL     1     -17.488  37.712  -2.358  1.00  0.00     0.016 A 
ATOM     41  C   UNL     1     -18.064  39.914  -0.719  1.00  0.00     0.158 A 
ATOM     42  C   UNL     1     -18.602  38.512  -2.626  1.00  0.00     0.051 A 
ATOM     43  C   UNL     1     -18.902  39.610  -1.807  1.00  0.00     0.157 A 
BRANCH  41  44
ATOM     44  O   UNL     1     -18.324  41.036   0.067  1.00  0.00    -0.504 OA
ATOM     45  H   UNL     1     -18.130  41.974  -0.268  1.00  0.00     0.293 HD
ENDBRANCH  41  44
BRANCH  43  46
ATOM     46  O   UNL     1     -20.016  40.389  -2.098  1.00  0.00    -0.504 OA
ATOM     47  H   UNL     1     -20.915  40.233  -1.653  1.00  0.00     0.293 HD
ENDBRANCH  43  46
ENDBRANCH  28  38
BRANCH  34  48
ATOM     48  O   UNL     1     -10.972  34.815  -0.196  1.00  0.00    -0.507 OA
ATOM     49  H   UNL     1     -10.544  35.724  -0.090  1.00  0.00     0.293 HD
ENDBRANCH  34  48
BRANCH  37  50
ATOM     50  O   UNL     1     -14.252  31.943   1.831  1.00  0.00    -0.508 OA
ATOM     51  H   UNL     1     -15.067  31.859   2.426  1.00  0.00     0.293 HD
ENDBRANCH  37  50
ENDBRANCH  26  27
ENDBRANCH   5  26
BRANCH   4  52
ATOM     52  O   UNL     1     -13.415  38.052  -5.554  1.00  0.00    -0.384 OA
ATOM     53  H   UNL     1     -14.384  37.821  -5.628  1.00  0.00     0.211 HD
ENDBRANCH   4  52
TORSDOF 16
ENDMDL
