MODEL 1
REMARK VINA RESULT:    -4.943      0.000      0.000
REMARK INTER + INTRA:          -5.607
REMARK INTER:                  -5.665
REMARK INTRA:                   0.058
REMARK UNBOUND:                 0.058
REMARK SMILES O=C([O-])C=Cc1ccc(O)cc1
REMARK SMILES IDX 6 1 7 2 12 3 8 4 11 5 9 6 5 7 4 8 2 9 1 10 3 11 10 12
REMARK H PARENT 10 13
REMARK Flexibility Score: inf
ROOT
ATOM      1  C   UNL     1       2.349  28.406  57.667  1.00  0.00    -0.025 A 
ATOM      2  C   UNL     1       3.310  28.850  56.746  1.00  0.00     0.012 A 
ATOM      3  C   UNL     1       2.680  27.371  58.560  1.00  0.00     0.012 A 
ATOM      4  C   UNL     1       4.563  28.234  56.681  1.00  0.00     0.047 A 
ATOM      5  C   UNL     1       3.934  26.757  58.494  1.00  0.00     0.047 A 
ATOM      6  C   UNL     1       4.877  27.183  57.553  1.00  0.00     0.115 A 
ENDROOT
BRANCH   1   7
ATOM      7  C   UNL     1       1.051  29.107  57.754  1.00  0.00     0.010 C 
ATOM      8  C   UNL     1       0.187  29.269  56.740  1.00  0.00     0.025 C 
BRANCH   8   9
ATOM      9  C   UNL     1       0.458  28.950  55.326  1.00  0.00     0.064 C 
ATOM     10  O   UNL     1       0.707  29.883  54.520  1.00  0.00    -0.545 OA
ATOM     11  O   UNL     1       0.516  27.636  54.876  1.00  0.00    -0.545 OA
ENDBRANCH   8   9
ENDBRANCH   1   7
BRANCH   6  12
ATOM     12  O   UNL     1       6.123  26.561  57.498  1.00  0.00    -0.508 OA
ATOM     13  H   UNL     1       6.890  26.961  56.971  1.00  0.00     0.293 HD
ENDBRANCH   6  12
TORSDOF 3
ENDMDL
MODEL 2
REMARK VINA RESULT:    -4.736      1.266      4.692
REMARK INTER + INTRA:          -5.370
REMARK INTER:                  -5.489
REMARK INTRA:                   0.119
REMARK UNBOUND:                 0.058
REMARK SMILES O=C([O-])C=Cc1ccc(O)cc1
REMARK SMILES IDX 6 1 7 2 12 3 8 4 11 5 9 6 5 7 4 8 2 9 1 10 3 11 10 12
REMARK H PARENT 10 13
REMARK Flexibility Score: inf
ROOT
ATOM      1  C   UNL     1       2.311  28.156  57.132  1.00  0.00    -0.025 A 
ATOM      2  C   UNL     1       2.742  28.087  55.799  1.00  0.00     0.012 A 
ATOM      3  C   UNL     1       1.150  28.885  57.443  1.00  0.00     0.012 A 
ATOM      4  C   UNL     1       2.054  28.780  54.798  1.00  0.00     0.047 A 
ATOM      5  C   UNL     1       0.464  29.578  56.440  1.00  0.00     0.047 A 
ATOM      6  C   UNL     1       0.915  29.530  55.117  1.00  0.00     0.115 A 
ENDROOT
BRANCH   1   7
ATOM      7  C   UNL     1       3.022  27.373  58.164  1.00  0.00     0.010 C 
ATOM      8  C   UNL     1       4.338  27.437  58.418  1.00  0.00     0.025 C 
BRANCH   8   9
ATOM      9  C   UNL     1       5.335  28.149  57.597  1.00  0.00     0.064 C 
ATOM     10  O   UNL     1       6.118  27.488  56.867  1.00  0.00    -0.545 OA
ATOM     11  O   UNL     1       5.382  29.537  57.555  1.00  0.00    -0.545 OA
ENDBRANCH   8   9
ENDBRANCH   1   7
BRANCH   6  12
ATOM     12  O   UNL     1       0.222  30.225  54.128  1.00  0.00    -0.508 OA
ATOM     13  H   UNL     1      -0.790  30.215  54.086  1.00  0.00     0.293 HD
ENDBRANCH   6  12
TORSDOF 3
ENDMDL
MODEL 3
REMARK VINA RESULT:    -4.666      2.096      4.798
REMARK INTER + INTRA:          -5.289
REMARK INTER:                  -5.646
REMARK INTRA:                   0.357
REMARK UNBOUND:                 0.058
REMARK SMILES O=C([O-])C=Cc1ccc(O)cc1
REMARK SMILES IDX 6 1 7 2 12 3 8 4 11 5 9 6 5 7 4 8 2 9 1 10 3 11 10 12
REMARK H PARENT 10 13
REMARK Flexibility Score: inf
ROOT
ATOM      1  C   UNL     1       1.817  28.722  55.621  1.00  0.00    -0.025 A 
ATOM      2  C   UNL     1       0.914  29.499  54.880  1.00  0.00     0.012 A 
ATOM      3  C   UNL     1       1.542  28.447  56.971  1.00  0.00     0.012 A 
ATOM      4  C   UNL     1      -0.221  30.038  55.494  1.00  0.00     0.047 A 
ATOM      5  C   UNL     1       0.406  28.987  57.583  1.00  0.00     0.047 A 
ATOM      6  C   UNL     1      -0.476  29.786  56.848  1.00  0.00     0.115 A 
ENDROOT
BRANCH   1   7
ATOM      7  C   UNL     1       2.981  28.119  54.939  1.00  0.00     0.010 C 
ATOM      8  C   UNL     1       4.147  27.804  55.524  1.00  0.00     0.025 C 
BRANCH   8   9
ATOM      9  C   UNL     1       4.543  28.174  56.896  1.00  0.00     0.064 C 
ATOM     10  O   UNL     1       4.926  29.349  57.131  1.00  0.00    -0.545 OA
ATOM     11  O   UNL     1       4.436  27.275  57.950  1.00  0.00    -0.545 OA
ENDBRANCH   8   9
ENDBRANCH   1   7
BRANCH   6  12
ATOM     12  O   UNL     1      -1.603  30.319  57.470  1.00  0.00    -0.508 OA
ATOM     13  H   UNL     1      -1.707  30.303  58.478  1.00  0.00     0.293 HD
ENDBRANCH   6  12
TORSDOF 3
ENDMDL
MODEL 4
REMARK VINA RESULT:    -4.588      8.920     11.005
REMARK INTER + INTRA:          -5.200
REMARK INTER:                  -4.949
REMARK INTRA:                  -0.251
REMARK UNBOUND:                 0.058
REMARK SMILES O=C([O-])C=Cc1ccc(O)cc1
REMARK SMILES IDX 6 1 7 2 12 3 8 4 11 5 9 6 5 7 4 8 2 9 1 10 3 11 10 12
REMARK H PARENT 10 13
REMARK Flexibility Score: inf
ROOT
ATOM      1  C   UNL     1      -7.204  31.884  57.730  1.00  0.00    -0.025 A 
ATOM      2  C   UNL     1      -6.365  31.903  58.854  1.00  0.00     0.012 A 
ATOM      3  C   UNL     1      -7.337  30.695  56.991  1.00  0.00     0.012 A 
ATOM      4  C   UNL     1      -5.627  30.767  59.203  1.00  0.00     0.047 A 
ATOM      5  C   UNL     1      -6.599  29.561  57.342  1.00  0.00     0.047 A 
ATOM      6  C   UNL     1      -5.740  29.594  58.445  1.00  0.00     0.115 A 
ENDROOT
BRANCH   1   7
ATOM      7  C   UNL     1      -8.014  33.078  57.412  1.00  0.00     0.010 C 
ATOM      8  C   UNL     1      -9.267  33.303  57.835  1.00  0.00     0.025 C 
BRANCH   8   9
ATOM      9  C   UNL     1     -10.125  32.323  58.529  1.00  0.00     0.064 C 
ATOM     10  O   UNL     1     -11.022  31.723  57.883  1.00  0.00    -0.545 OA
ATOM     11  O   UNL     1      -9.918  31.994  59.863  1.00  0.00    -0.545 OA
ENDBRANCH   8   9
ENDBRANCH   1   7
BRANCH   6  12
ATOM     12  O   UNL     1      -5.010  28.456  58.783  1.00  0.00    -0.508 OA
ATOM     13  H   UNL     1      -5.399  27.527  58.675  1.00  0.00     0.293 HD
ENDBRANCH   6  12
TORSDOF 3
ENDMDL
MODEL 5
REMARK VINA RESULT:    -4.391      2.575      4.525
REMARK INTER + INTRA:          -4.974
REMARK INTER:                  -5.072
REMARK INTRA:                   0.098
REMARK UNBOUND:                 0.058
REMARK SMILES O=C([O-])C=Cc1ccc(O)cc1
REMARK SMILES IDX 6 1 7 2 12 3 8 4 11 5 9 6 5 7 4 8 2 9 1 10 3 11 10 12
REMARK H PARENT 10 13
REMARK Flexibility Score: inf
ROOT
ATOM      1  C   UNL     1       2.775  28.371  55.846  1.00  0.00    -0.025 A 
ATOM      2  C   UNL     1       2.499  28.897  57.117  1.00  0.00     0.012 A 
ATOM      3  C   UNL     1       1.724  28.212  54.925  1.00  0.00     0.012 A 
ATOM      4  C   UNL     1       1.186  29.210  57.482  1.00  0.00     0.047 A 
ATOM      5  C   UNL     1       0.412  28.525  55.292  1.00  0.00     0.047 A 
ATOM      6  C   UNL     1       0.138  29.021  56.571  1.00  0.00     0.115 A 
ENDROOT
BRANCH   1   7
ATOM      7  C   UNL     1       4.176  28.099  55.464  1.00  0.00     0.010 C 
ATOM      8  C   UNL     1       4.809  28.626  54.406  1.00  0.00     0.025 C 
BRANCH   8   9
ATOM      9  C   UNL     1       4.173  29.415  53.334  1.00  0.00     0.064 C 
ATOM     10  O   UNL     1       3.976  28.883  52.211  1.00  0.00    -0.545 OA
ATOM     11  O   UNL     1       3.721  30.711  53.556  1.00  0.00    -0.545 OA
ENDBRANCH   8   9
ENDBRANCH   1   7
BRANCH   6  12
ATOM     12  O   UNL     1      -1.175  29.328  56.923  1.00  0.00    -0.508 OA
ATOM     13  H   UNL     1      -1.772  28.648  57.377  1.00  0.00     0.293 HD
ENDBRANCH   6  12
TORSDOF 3
ENDMDL
MODEL 6
REMARK VINA RESULT:    -4.260      2.605      3.684
REMARK INTER + INTRA:          -4.824
REMARK INTER:                  -4.864
REMARK INTRA:                   0.041
REMARK UNBOUND:                 0.058
REMARK SMILES O=C([O-])C=Cc1ccc(O)cc1
REMARK SMILES IDX 6 1 7 2 12 3 8 4 11 5 9 6 5 7 4 8 2 9 1 10 3 11 10 12
REMARK H PARENT 10 13
REMARK Flexibility Score: inf
ROOT
ATOM      1  C   UNL     1       4.293  28.408  55.943  1.00  0.00    -0.025 A 
ATOM      2  C   UNL     1       5.380  29.295  55.926  1.00  0.00     0.012 A 
ATOM      3  C   UNL     1       3.668  28.062  54.732  1.00  0.00     0.012 A 
ATOM      4  C   UNL     1       5.803  29.869  54.723  1.00  0.00     0.047 A 
ATOM      5  C   UNL     1       4.094  28.638  53.530  1.00  0.00     0.047 A 
ATOM      6  C   UNL     1       5.158  29.545  53.522  1.00  0.00     0.115 A 
ENDROOT
BRANCH   1   7
ATOM      7  C   UNL     1       3.898  27.772  57.217  1.00  0.00     0.010 C 
ATOM      8  C   UNL     1       2.659  27.769  57.731  1.00  0.00     0.025 C 
BRANCH   8   9
ATOM      9  C   UNL     1       1.518  28.553  57.222  1.00  0.00     0.064 C 
ATOM     10  O   UNL     1       1.267  29.677  57.729  1.00  0.00    -0.545 OA
ATOM     11  O   UNL     1       0.757  28.112  56.145  1.00  0.00    -0.545 OA
ENDBRANCH   8   9
ENDBRANCH   1   7
BRANCH   6  12
ATOM     12  O   UNL     1       5.570  30.112  52.318  1.00  0.00    -0.508 OA
ATOM     13  H   UNL     1       6.535  30.378  52.163  1.00  0.00     0.293 HD
ENDBRANCH   6  12
TORSDOF 3
ENDMDL
MODEL 7
REMARK VINA RESULT:    -4.257      8.731      9.972
REMARK INTER + INTRA:          -4.820
REMARK INTER:                  -4.557
REMARK INTRA:                  -0.263
REMARK UNBOUND:                 0.058
REMARK SMILES O=C([O-])C=Cc1ccc(O)cc1
REMARK SMILES IDX 6 1 7 2 12 3 8 4 11 5 9 6 5 7 4 8 2 9 1 10 3 11 10 12
REMARK H PARENT 10 13
REMARK Flexibility Score: inf
ROOT
ATOM      1  C   UNL     1      -7.180  28.254  57.120  1.00  0.00    -0.025 A 
ATOM      2  C   UNL     1      -8.010  29.374  56.961  1.00  0.00     0.012 A 
ATOM      3  C   UNL     1      -5.981  28.384  57.842  1.00  0.00     0.012 A 
ATOM      4  C   UNL     1      -7.623  30.617  57.471  1.00  0.00     0.047 A 
ATOM      5  C   UNL     1      -5.596  29.628  58.352  1.00  0.00     0.047 A 
ATOM      6  C   UNL     1      -6.413  30.748  58.165  1.00  0.00     0.115 A 
ENDROOT
BRANCH   1   7
ATOM      7  C   UNL     1      -7.634  26.940  56.619  1.00  0.00     0.010 C 
ATOM      8  C   UNL     1      -7.417  26.462  55.384  1.00  0.00     0.025 C 
BRANCH   8   9
ATOM      9  C   UNL     1      -6.858  27.230  54.255  1.00  0.00     0.064 C 
ATOM     10  O   UNL     1      -5.694  26.975  53.852  1.00  0.00    -0.545 OA
ATOM     11  O   UNL     1      -7.614  28.180  53.579  1.00  0.00    -0.545 OA
ENDBRANCH   8   9
ENDBRANCH   1   7
BRANCH   6  12
ATOM     12  O   UNL     1      -6.016  31.982  58.677  1.00  0.00    -0.508 OA
ATOM     13  H   UNL     1      -5.150  32.419  58.388  1.00  0.00     0.293 HD
ENDBRANCH   6  12
TORSDOF 3
ENDMDL
MODEL 8
REMARK VINA RESULT:    -4.200      3.215      4.340
REMARK INTER + INTRA:          -4.756
REMARK INTER:                  -4.492
REMARK INTRA:                  -0.263
REMARK UNBOUND:                 0.058
REMARK SMILES O=C([O-])C=Cc1ccc(O)cc1
REMARK SMILES IDX 6 1 7 2 12 3 8 4 11 5 9 6 5 7 4 8 2 9 1 10 3 11 10 12
REMARK H PARENT 10 13
REMARK Flexibility Score: inf
ROOT
ATOM      1  C   UNL     1       3.717  28.338  54.279  1.00  0.00    -0.025 A 
ATOM      2  C   UNL     1       4.592  28.204  55.368  1.00  0.00     0.012 A 
ATOM      3  C   UNL     1       2.337  28.461  54.517  1.00  0.00     0.012 A 
ATOM      4  C   UNL     1       4.091  28.140  56.672  1.00  0.00     0.047 A 
ATOM      5  C   UNL     1       1.838  28.397  55.823  1.00  0.00     0.047 A 
ATOM      6  C   UNL     1       2.712  28.233  56.902  1.00  0.00     0.115 A 
ENDROOT
BRANCH   1   7
ATOM      7  C   UNL     1       4.272  28.457  52.915  1.00  0.00     0.010 C 
ATOM      8  C   UNL     1       4.651  29.602  52.328  1.00  0.00     0.025 C 
BRANCH   8   9
ATOM      9  C   UNL     1       4.408  30.957  52.858  1.00  0.00     0.064 C 
ATOM     10  O   UNL     1       5.382  31.649  53.252  1.00  0.00    -0.545 OA
ATOM     11  O   UNL     1       3.136  31.516  52.866  1.00  0.00    -0.545 OA
ENDBRANCH   8   9
ENDBRANCH   1   7
BRANCH   6  12
ATOM     12  O   UNL     1       2.201  28.169  58.197  1.00  0.00    -0.508 OA
ATOM     13  H   UNL     1       2.811  28.160  59.005  1.00  0.00     0.293 HD
ENDBRANCH   6  12
TORSDOF 3
ENDMDL
MODEL 9
REMARK VINA RESULT:    -2.815      1.463      4.958
REMARK INTER + INTRA:          -3.168
REMARK INTER:                  -3.539
REMARK INTRA:                   0.371
REMARK UNBOUND:                 0.058
REMARK SMILES O=C([O-])C=Cc1ccc(O)cc1
REMARK SMILES IDX 6 1 7 2 12 3 8 4 11 5 9 6 5 7 4 8 2 9 1 10 3 11 10 12
REMARK H PARENT 10 13
REMARK Flexibility Score: inf
ROOT
ATOM      1  C   UNL     1       3.956  28.634  56.725  1.00  0.00    -0.025 A 
ATOM      2  C   UNL     1       2.766  28.828  57.442  1.00  0.00     0.012 A 
ATOM      3  C   UNL     1       3.890  28.306  55.359  1.00  0.00     0.012 A 
ATOM      4  C   UNL     1       1.528  28.646  56.818  1.00  0.00     0.047 A 
ATOM      5  C   UNL     1       2.650  28.125  54.738  1.00  0.00     0.047 A 
ATOM      6  C   UNL     1       1.467  28.290  55.464  1.00  0.00     0.115 A 
ENDROOT
BRANCH   1   7
ATOM      7  C   UNL     1       5.251  28.884  57.391  1.00  0.00     0.010 C 
ATOM      8  C   UNL     1       5.898  28.016  58.182  1.00  0.00     0.025 C 
BRANCH   8   9
ATOM      9  C   UNL     1       5.349  26.741  58.682  1.00  0.00     0.064 C 
ATOM     10  O   UNL     1       6.125  25.769  58.873  1.00  0.00    -0.545 OA
ATOM     11  O   UNL     1       4.006  26.609  59.015  1.00  0.00    -0.545 OA
ENDBRANCH   8   9
ENDBRANCH   1   7
BRANCH   6  12
ATOM     12  O   UNL     1       0.239  28.105  54.832  1.00  0.00    -0.508 OA
ATOM     13  H   UNL     1      -0.432  28.859  54.751  1.00  0.00     0.293 HD
ENDBRANCH   6  12
TORSDOF 3
ENDMDL
