MODEL 1
REMARK VINA RESULT:    -4.480      0.000      0.000
REMARK INTER + INTRA:          -4.742
REMARK INTER:                  -4.742
REMARK INTRA:                   0.000
REMARK UNBOUND:                 0.000
REMARK SMILES O=c1ccc2cc(O)c(O)cc2o1
REMARK SMILES IDX 4 1 3 2 2 3 1 4 13 5 12 6 11 7 9 8 7 9 6 10 5 11 8 12 10 14
REMARK H PARENT 8 13 10 15
REMARK Flexibility Score: inf
ROOT
ATOM      1  C   UNL     1     -10.873   4.627 -26.197  1.00  0.00     0.019 A 
ATOM      2  C   UNL     1     -10.503   3.327 -25.855  1.00  0.00     0.094 A 
ATOM      3  C   UNL     1      -9.149   3.041 -25.647  1.00  0.00     0.336 A 
ATOM      4  O   UNL     1      -8.794   1.873 -25.338  1.00  0.00    -0.246 OA
ATOM      5  O   UNL     1      -8.231   3.995 -25.774  1.00  0.00    -0.423 OA
ATOM      6  C   UNL     1      -8.542   5.248 -26.099  1.00  0.00     0.142 A 
ATOM      7  C   UNL     1      -7.534   6.210 -26.219  1.00  0.00     0.098 A 
ATOM      8  C   UNL     1      -7.856   7.532 -26.562  1.00  0.00     0.161 A 
ATOM      9  C   UNL     1      -9.194   7.893 -26.785  1.00  0.00     0.158 A 
ATOM     10  C   UNL     1     -10.209   6.931 -26.666  1.00  0.00     0.062 A 
ATOM     11  C   UNL     1      -9.888   5.611 -26.325  1.00  0.00     0.022 A 
ENDROOT
BRANCH   9  12
ATOM     12  O   UNL     1      -9.505   9.208 -27.125  1.00  0.00    -0.504 OA
ATOM     13  H   UNL     1     -10.221   9.423 -27.809  1.00  0.00     0.293 HD
ENDBRANCH   9  12
BRANCH   8  14
ATOM     14  O   UNL     1      -6.854   8.493 -26.681  1.00  0.00    -0.504 OA
ATOM     15  H   UNL     1      -6.580   9.074 -25.896  1.00  0.00     0.293 HD
ENDBRANCH   8  14
TORSDOF 2
ENDMDL
MODEL 2
REMARK VINA RESULT:    -4.273     12.223     13.567
REMARK INTER + INTRA:          -4.522
REMARK INTER:                  -4.522
REMARK INTRA:                   0.000
REMARK UNBOUND:                 0.000
REMARK SMILES O=c1ccc2cc(O)c(O)cc2o1
REMARK SMILES IDX 4 1 3 2 2 3 1 4 13 5 12 6 11 7 9 8 7 9 6 10 5 11 8 12 10 14
REMARK H PARENT 8 13 10 15
REMARK Flexibility Score: inf
ROOT
ATOM      1  C   UNL     1     -18.096   0.835 -18.578  1.00  0.00     0.019 A 
ATOM      2  C   UNL     1     -18.104   0.180 -17.347  1.00  0.00     0.094 A 
ATOM      3  C   UNL     1     -18.778   0.769 -16.271  1.00  0.00     0.336 A 
ATOM      4  O   UNL     1     -18.797   0.194 -15.150  1.00  0.00    -0.246 OA
ATOM      5  O   UNL     1     -19.401   1.935 -16.422  1.00  0.00    -0.423 OA
ATOM      6  C   UNL     1     -19.417   2.593 -17.580  1.00  0.00     0.142 A 
ATOM      7  C   UNL     1     -20.087   3.815 -17.680  1.00  0.00     0.098 A 
ATOM      8  C   UNL     1     -20.108   4.512 -18.897  1.00  0.00     0.161 A 
ATOM      9  C   UNL     1     -19.454   3.982 -20.020  1.00  0.00     0.158 A 
ATOM     10  C   UNL     1     -18.779   2.755 -19.925  1.00  0.00     0.062 A 
ATOM     11  C   UNL     1     -18.758   2.059 -18.709  1.00  0.00     0.022 A 
ENDROOT
BRANCH   9  12
ATOM     12  O   UNL     1     -19.478   4.681 -21.225  1.00  0.00    -0.504 OA
ATOM     13  H   UNL     1     -19.091   4.286 -22.074  1.00  0.00     0.293 HD
ENDBRANCH   9  12
BRANCH   8  14
ATOM     14  O   UNL     1     -20.776   5.731 -19.001  1.00  0.00    -0.504 OA
ATOM     15  H   UNL     1     -20.379   6.586 -18.628  1.00  0.00     0.293 HD
ENDBRANCH   8  14
TORSDOF 2
ENDMDL
MODEL 3
REMARK VINA RESULT:    -4.140      3.912      6.036
REMARK INTER + INTRA:          -4.382
REMARK INTER:                  -4.382
REMARK INTRA:                   0.000
REMARK UNBOUND:                 0.000
REMARK SMILES O=c1ccc2cc(O)c(O)cc2o1
REMARK SMILES IDX 4 1 3 2 2 3 1 4 13 5 12 6 11 7 9 8 7 9 6 10 5 11 8 12 10 14
REMARK H PARENT 8 13 10 15
REMARK Flexibility Score: inf
ROOT
ATOM      1  C   UNL     1      -5.683   6.275 -24.048  1.00  0.00     0.019 A 
ATOM      2  C   UNL     1      -6.221   6.312 -25.334  1.00  0.00     0.094 A 
ATOM      3  C   UNL     1      -7.082   5.286 -25.737  1.00  0.00     0.336 A 
ATOM      4  O   UNL     1      -7.579   5.300 -26.895  1.00  0.00    -0.246 OA
ATOM      5  O   UNL     1      -7.382   4.292 -24.906  1.00  0.00    -0.423 OA
ATOM      6  C   UNL     1      -6.890   4.218 -23.671  1.00  0.00     0.142 A 
ATOM      7  C   UNL     1      -7.240   3.149 -22.841  1.00  0.00     0.098 A 
ATOM      8  C   UNL     1      -6.724   3.068 -21.539  1.00  0.00     0.161 A 
ATOM      9  C   UNL     1      -5.854   4.062 -21.065  1.00  0.00     0.158 A 
ATOM     10  C   UNL     1      -5.500   5.137 -21.894  1.00  0.00     0.062 A 
ATOM     11  C   UNL     1      -6.014   5.218 -23.195  1.00  0.00     0.022 A 
ENDROOT
BRANCH   9  12
ATOM     12  O   UNL     1      -5.346   3.973 -19.771  1.00  0.00    -0.504 OA
ATOM     13  H   UNL     1      -4.386   3.701 -19.596  1.00  0.00     0.293 HD
ENDBRANCH   9  12
BRANCH   8  14
ATOM     14  O   UNL     1      -7.071   2.003 -20.709  1.00  0.00    -0.504 OA
ATOM     15  H   UNL     1      -7.877   1.420 -20.904  1.00  0.00     0.293 HD
ENDBRANCH   8  14
TORSDOF 2
ENDMDL
MODEL 4
REMARK VINA RESULT:    -4.111     21.996     23.001
REMARK INTER + INTRA:          -4.352
REMARK INTER:                  -4.352
REMARK INTRA:                   0.000
REMARK UNBOUND:                 0.000
REMARK SMILES O=c1ccc2cc(O)c(O)cc2o1
REMARK SMILES IDX 4 1 3 2 2 3 1 4 13 5 12 6 11 7 9 8 7 9 6 10 5 11 8 12 10 14
REMARK H PARENT 8 13 10 15
REMARK Flexibility Score: inf
ROOT
ATOM      1  C   UNL     1     -22.961  13.146  -8.880  1.00  0.00     0.019 A 
ATOM      2  C   UNL     1     -22.191  13.905  -7.999  1.00  0.00     0.094 A 
ATOM      3  C   UNL     1     -21.709  15.149  -8.421  1.00  0.00     0.336 A 
ATOM      4  O   UNL     1     -21.012  15.850  -7.640  1.00  0.00    -0.246 OA
ATOM      5  O   UNL     1     -21.983  15.600  -9.642  1.00  0.00    -0.423 OA
ATOM      6  C   UNL     1     -22.713  14.907 -10.513  1.00  0.00     0.142 A 
ATOM      7  C   UNL     1     -22.968  15.430 -11.784  1.00  0.00     0.098 A 
ATOM      8  C   UNL     1     -23.737  14.704 -12.706  1.00  0.00     0.161 A 
ATOM      9  C   UNL     1     -24.254  13.448 -12.353  1.00  0.00     0.158 A 
ATOM     10  C   UNL     1     -24.001  12.918 -11.079  1.00  0.00     0.062 A 
ATOM     11  C   UNL     1     -23.232  13.642 -10.158  1.00  0.00     0.022 A 
ENDROOT
BRANCH   9  12
ATOM     12  O   UNL     1     -25.017  12.733 -13.275  1.00  0.00    -0.504 OA
ATOM     13  H   UNL     1     -25.867  13.117 -13.670  1.00  0.00     0.293 HD
ENDBRANCH   9  12
BRANCH   8  14
ATOM     14  O   UNL     1     -23.993  15.223 -13.974  1.00  0.00    -0.504 OA
ATOM     15  H   UNL     1     -24.931  15.482 -14.261  1.00  0.00     0.293 HD
ENDBRANCH   8  14
TORSDOF 2
ENDMDL
MODEL 5
REMARK VINA RESULT:    -4.088      3.763      5.638
REMARK INTER + INTRA:          -4.327
REMARK INTER:                  -4.327
REMARK INTRA:                   0.000
REMARK UNBOUND:                 0.000
REMARK SMILES O=c1ccc2cc(O)c(O)cc2o1
REMARK SMILES IDX 4 1 3 2 2 3 1 4 13 5 12 6 11 7 9 8 7 9 6 10 5 11 8 12 10 14
REMARK H PARENT 8 13 10 15
REMARK Flexibility Score: inf
ROOT
ATOM      1  C   UNL     1      -7.922   3.677 -25.015  1.00  0.00     0.019 A 
ATOM      2  C   UNL     1      -7.761   4.627 -26.023  1.00  0.00     0.094 A 
ATOM      3  C   UNL     1      -6.933   5.730 -25.789  1.00  0.00     0.336 A 
ATOM      4  O   UNL     1      -6.775   6.599 -26.687  1.00  0.00    -0.246 OA
ATOM      5  O   UNL     1      -6.308   5.869 -24.623  1.00  0.00    -0.423 OA
ATOM      6  C   UNL     1      -6.435   4.986 -23.634  1.00  0.00     0.142 A 
ATOM      7  C   UNL     1      -5.755   5.184 -22.429  1.00  0.00     0.098 A 
ATOM      8  C   UNL     1      -5.885   4.256 -21.384  1.00  0.00     0.161 A 
ATOM      9  C   UNL     1      -6.699   3.125 -21.547  1.00  0.00     0.158 A 
ATOM     10  C   UNL     1      -7.384   2.922 -22.755  1.00  0.00     0.062 A 
ATOM     11  C   UNL     1      -7.255   3.848 -23.798  1.00  0.00     0.022 A 
ENDROOT
BRANCH   9  12
ATOM     12  O   UNL     1      -6.823   2.209 -20.504  1.00  0.00    -0.504 OA
ATOM     13  H   UNL     1      -7.578   1.534 -20.479  1.00  0.00     0.293 HD
ENDBRANCH   9  12
BRANCH   8  14
ATOM     14  O   UNL     1      -5.208   4.450 -20.181  1.00  0.00    -0.504 OA
ATOM     15  H   UNL     1      -4.261   4.113 -20.046  1.00  0.00     0.293 HD
ENDBRANCH   8  14
TORSDOF 2
ENDMDL
MODEL 6
REMARK VINA RESULT:    -4.022      1.123      4.545
REMARK INTER + INTRA:          -4.257
REMARK INTER:                  -4.257
REMARK INTRA:                   0.000
REMARK UNBOUND:                 0.000
REMARK SMILES O=c1ccc2cc(O)c(O)cc2o1
REMARK SMILES IDX 4 1 3 2 2 3 1 4 13 5 12 6 11 7 9 8 7 9 6 10 5 11 8 12 10 14
REMARK H PARENT 8 13 10 15
REMARK Flexibility Score: inf
ROOT
ATOM      1  C   UNL     1     -10.245   6.698 -26.822  1.00  0.00     0.019 A 
ATOM      2  C   UNL     1      -9.270   7.660 -27.082  1.00  0.00     0.094 A 
ATOM      3  C   UNL     1      -7.940   7.385 -26.745  1.00  0.00     0.336 A 
ATOM      4  O   UNL     1      -7.045   8.241 -26.972  1.00  0.00    -0.246 OA
ATOM      5  O   UNL     1      -7.613   6.223 -26.187  1.00  0.00    -0.423 OA
ATOM      6  C   UNL     1      -8.512   5.278 -25.921  1.00  0.00     0.142 A 
ATOM      7  C   UNL     1      -8.110   4.076 -25.332  1.00  0.00     0.098 A 
ATOM      8  C   UNL     1      -9.054   3.077 -25.050  1.00  0.00     0.161 A 
ATOM      9  C   UNL     1     -10.407   3.282 -25.361  1.00  0.00     0.158 A 
ATOM     10  C   UNL     1     -10.816   4.487 -25.952  1.00  0.00     0.062 A 
ATOM     11  C   UNL     1      -9.874   5.486 -26.233  1.00  0.00     0.022 A 
ENDROOT
BRANCH   9  12
ATOM     12  O   UNL     1     -11.338   2.285 -25.077  1.00  0.00    -0.504 OA
ATOM     13  H   UNL     1     -12.331   2.483 -25.035  1.00  0.00     0.293 HD
ENDBRANCH   9  12
BRANCH   8  14
ATOM     14  O   UNL     1      -8.657   1.877 -24.463  1.00  0.00    -0.504 OA
ATOM     15  H   UNL     1      -8.565   1.026 -25.007  1.00  0.00     0.293 HD
ENDBRANCH   8  14
TORSDOF 2
ENDMDL
MODEL 7
REMARK VINA RESULT:    -3.705      8.287     10.076
REMARK INTER + INTRA:          -3.921
REMARK INTER:                  -3.921
REMARK INTRA:                   0.000
REMARK UNBOUND:                 0.000
REMARK SMILES O=c1ccc2cc(O)c(O)cc2o1
REMARK SMILES IDX 4 1 3 2 2 3 1 4 13 5 12 6 11 7 9 8 7 9 6 10 5 11 8 12 10 14
REMARK H PARENT 8 13 10 15
REMARK Flexibility Score: inf
ROOT
ATOM      1  C   UNL     1      -4.956   2.390 -19.558  1.00  0.00     0.019 A 
ATOM      2  C   UNL     1      -5.106   1.602 -20.700  1.00  0.00     0.094 A 
ATOM      3  C   UNL     1      -6.079   0.597 -20.706  1.00  0.00     0.336 A 
ATOM      4  O   UNL     1      -6.231  -0.125 -21.727  1.00  0.00    -0.246 OA
ATOM      5  O   UNL     1      -6.848   0.397 -19.639  1.00  0.00    -0.423 OA
ATOM      6  C   UNL     1      -6.737   1.125 -18.530  1.00  0.00     0.142 A 
ATOM      7  C   UNL     1      -7.573   0.868 -17.439  1.00  0.00     0.098 A 
ATOM      8  C   UNL     1      -7.460   1.633 -16.268  1.00  0.00     0.161 A 
ATOM      9  C   UNL     1      -6.507   2.659 -16.189  1.00  0.00     0.158 A 
ATOM     10  C   UNL     1      -5.666   2.920 -17.281  1.00  0.00     0.062 A 
ATOM     11  C   UNL     1      -5.777   2.157 -18.451  1.00  0.00     0.022 A 
ENDROOT
BRANCH   9  12
ATOM     12  O   UNL     1      -6.401   3.414 -15.022  1.00  0.00    -0.504 OA
ATOM     13  H   UNL     1      -6.315   2.974 -14.113  1.00  0.00     0.293 HD
ENDBRANCH   9  12
BRANCH   8  14
ATOM     14  O   UNL     1      -8.292   1.381 -15.178  1.00  0.00    -0.504 OA
ATOM     15  H   UNL     1      -9.010   0.666 -15.215  1.00  0.00     0.293 HD
ENDBRANCH   8  14
TORSDOF 2
ENDMDL
MODEL 8
REMARK VINA RESULT:    -3.041      8.484     10.156
REMARK INTER + INTRA:          -3.218
REMARK INTER:                  -3.218
REMARK INTRA:                   0.000
REMARK UNBOUND:                 0.000
REMARK SMILES O=c1ccc2cc(O)c(O)cc2o1
REMARK SMILES IDX 4 1 3 2 2 3 1 4 13 5 12 6 11 7 9 8 7 9 6 10 5 11 8 12 10 14
REMARK H PARENT 8 13 10 15
REMARK Flexibility Score: inf
ROOT
ATOM      1  C   UNL     1      -7.834   1.338 -16.442  1.00  0.00     0.019 A 
ATOM      2  C   UNL     1      -7.407   2.117 -15.368  1.00  0.00     0.094 A 
ATOM      3  C   UNL     1      -6.262   2.908 -15.517  1.00  0.00     0.336 A 
ATOM      4  O   UNL     1      -5.860   3.619 -14.558  1.00  0.00    -0.246 OA
ATOM      5  O   UNL     1      -5.593   2.916 -16.667  1.00  0.00    -0.423 OA
ATOM      6  C   UNL     1      -5.966   2.186 -17.716  1.00  0.00     0.142 A 
ATOM      7  C   UNL     1      -5.224   2.234 -18.900  1.00  0.00     0.098 A 
ATOM      8  C   UNL     1      -5.613   1.467 -20.009  1.00  0.00     0.161 A 
ATOM      9  C   UNL     1      -6.751   0.650 -19.932  1.00  0.00     0.158 A 
ATOM     10  C   UNL     1      -7.499   0.599 -18.747  1.00  0.00     0.062 A 
ATOM     11  C   UNL     1      -7.111   1.364 -17.639  1.00  0.00     0.022 A 
ENDROOT
BRANCH   9  12
ATOM     12  O   UNL     1      -7.130  -0.108 -21.038  1.00  0.00    -0.504 OA
ATOM     13  H   UNL     1      -7.587  -1.006 -20.933  1.00  0.00     0.293 HD
ENDBRANCH   9  12
BRANCH   8  14
ATOM     14  O   UNL     1      -4.875   1.512 -21.190  1.00  0.00    -0.504 OA
ATOM     15  H   UNL     1      -4.913   2.315 -21.808  1.00  0.00     0.293 HD
ENDBRANCH   8  14
TORSDOF 2
ENDMDL
