MODEL 1
REMARK VINA RESULT:    -7.555      0.000      0.000
REMARK INTER + INTRA:         -15.448
REMARK INTER:                 -12.414
REMARK INTRA:                  -3.034
REMARK UNBOUND:                -3.034
REMARK SMILES C[C@H]1O[C@H](OC[C@H]2O[C@@H](Oc3c(-c4ccc(O)c(O)c4)oc4cc(O)cc(O)c4c3=O)[C@@H](O)[C@H](O)[C@H]2O)[C@@H](O)[C@@H](O)[C@@H]1O
REMARK SMILES IDX 7 1 36 2 34 3 32 4 9 5 8 6 6 7 5 8 4 9 1 10 2 11 42 12 3 13
REMARK SMILES IDX 40 14 38 15 43 16 41 18 39 20 37 22 35 24 10 26 11 27 12 28
REMARK SMILES IDX 30 29 21 30 29 31 31 32 22 33 27 34 23 35 26 36 24 37 13 38
REMARK SMILES IDX 20 39 14 40 18 41 15 42 16 43 19 44 17 46 28 48 25 50 33 52
REMARK H PARENT 43 17 41 19 39 21 37 23 35 25 19 45 17 47 28 49 25 51 33 53
REMARK Flexibility Score: inf
ROOT
ATOM      1  C   UNL     1      -9.059 -30.929  49.404  1.00  0.00     0.180 C 
ATOM      2  C   UNL     1     -10.198 -30.394  50.282  1.00  0.00     0.177 C 
ATOM      3  C   UNL     1     -10.781 -31.753  50.868  1.00  0.00     0.180 C 
ATOM      4  C   UNL     1     -11.219 -32.607  49.546  1.00  0.00     0.214 C 
ATOM      5  C   UNL     1     -10.262 -32.467  48.316  1.00  0.00     0.339 C 
ATOM      6  O   UNL     1      -9.780 -31.158  48.243  1.00  0.00    -0.332 OA
ENDROOT
BRANCH   1   7
ATOM      7  C   UNL     1      -7.724 -31.859  49.871  1.00  0.00     0.198 C 
BRANCH   7   8
ATOM      8  O   UNL     1      -6.319 -31.287  50.091  1.00  0.00    -0.347 OA
BRANCH   8   9
ATOM      9  C   UNL     1      -5.574 -30.540  48.991  1.00  0.00     0.281 C 
ATOM     10  C   UNL     1      -7.195 -28.471  47.838  1.00  0.00     0.041 C 
ATOM     11  C   UNL     1      -5.718 -28.185  48.225  1.00  0.00     0.150 C 
ATOM     12  C   UNL     1      -4.866 -28.383  46.901  1.00  0.00     0.174 C 
ATOM     13  O   UNL     1      -5.279 -29.099  49.288  1.00  0.00    -0.344 OA
ATOM     14  C   UNL     1      -4.682 -29.893  46.479  1.00  0.00     0.179 C 
ATOM     15  C   UNL     1      -4.750 -31.002  47.722  1.00  0.00     0.202 C 
BRANCH  12  16
ATOM     16  O   UNL     1      -3.603 -27.736  47.122  1.00  0.00    -0.388 OA
ATOM     17  H   UNL     1      -2.785 -28.313  46.918  1.00  0.00     0.211 HD
ENDBRANCH  12  16
BRANCH  14  18
ATOM     18  O   UNL     1      -5.219 -30.209  45.200  1.00  0.00    -0.387 OA
ATOM     19  H   UNL     1      -4.788 -30.991  44.659  1.00  0.00     0.211 HD
ENDBRANCH  14  18
BRANCH  15  20
ATOM     20  O   UNL     1      -5.022 -32.317  47.309  1.00  0.00    -0.385 OA
ATOM     21  H   UNL     1      -6.057 -32.386  47.429  1.00  0.00     0.211 HD
ENDBRANCH  15  20
ENDBRANCH   8   9
ENDBRANCH   7   8
ENDBRANCH   1   7
BRANCH   2  22
ATOM     22  O   UNL     1      -9.756 -29.054  50.515  1.00  0.00    -0.387 OA
ATOM     23  H   UNL     1      -8.801 -29.139  50.884  1.00  0.00     0.211 HD
ENDBRANCH   2  22
BRANCH   3  24
ATOM     24  O   UNL     1     -11.884 -31.551  51.757  1.00  0.00    -0.387 OA
ATOM     25  H   UNL     1     -11.510 -31.932  52.628  1.00  0.00     0.211 HD
ENDBRANCH   3  24
BRANCH   5  26
ATOM     26  O   UNL     1      -9.151 -33.282  47.952  1.00  0.00    -0.454 OA
BRANCH  26  27
ATOM     27  C   UNL     1      -9.008 -33.715  46.527  1.00  0.00     0.214 A 
ATOM     28  C   UNL     1      -9.615 -34.925  46.096  1.00  0.00     0.180 A 
ATOM     29  C   UNL     1      -8.303 -32.885  45.547  1.00  0.00     0.239 A 
ATOM     30  O   UNL     1      -9.628 -35.002  44.770  1.00  0.00    -0.452 OA
ATOM     31  C   UNL     1      -8.454 -33.081  44.148  1.00  0.00     0.111 A 
ATOM     32  O   UNL     1      -7.527 -31.968  45.916  1.00  0.00    -0.285 OA
ATOM     33  C   UNL     1      -9.324 -34.087  43.808  1.00  0.00     0.146 A 
ATOM     34  C   UNL     1      -7.928 -32.302  43.057  1.00  0.00     0.134 A 
ATOM     35  C   UNL     1     -10.061 -34.065  42.705  1.00  0.00     0.094 A 
ATOM     36  C   UNL     1      -8.566 -32.314  41.790  1.00  0.00     0.093 A 
ATOM     37  C   UNL     1      -9.627 -33.268  41.623  1.00  0.00     0.123 A 
BRANCH  28  38
ATOM     38  C   UNL     1     -10.525 -35.876  46.785  1.00  0.00     0.025 A 
ATOM     39  C   UNL     1     -11.009 -36.959  45.998  1.00  0.00     0.062 A 
ATOM     40  C   UNL     1      -9.747 -36.471  47.868  1.00  0.00     0.016 A 
ATOM     41  C   UNL     1     -10.303 -38.098  45.690  1.00  0.00     0.158 A 
ATOM     42  C   UNL     1      -8.770 -37.380  47.503  1.00  0.00     0.051 A 
ATOM     43  C   UNL     1      -8.982 -38.162  46.317  1.00  0.00     0.157 A 
BRANCH  41  44
ATOM     44  O   UNL     1     -10.790 -39.129  44.936  1.00  0.00    -0.504 OA
ATOM     45  H   UNL     1     -11.354 -39.972  45.361  1.00  0.00     0.293 HD
ENDBRANCH  41  44
BRANCH  43  46
ATOM     46  O   UNL     1      -8.083 -39.139  45.810  1.00  0.00    -0.504 OA
ATOM     47  H   UNL     1      -7.880 -39.159  44.814  1.00  0.00     0.293 HD
ENDBRANCH  43  46
ENDBRANCH  28  38
BRANCH  34  48
ATOM     48  O   UNL     1      -6.724 -31.591  43.227  1.00  0.00    -0.507 OA
ATOM     49  H   UNL     1      -6.539 -30.648  42.822  1.00  0.00     0.293 HD
ENDBRANCH  34  48
BRANCH  37  50
ATOM     50  O   UNL     1     -10.308 -33.314  40.375  1.00  0.00    -0.508 OA
ATOM     51  H   UNL     1     -10.580 -32.463  39.913  1.00  0.00     0.293 HD
ENDBRANCH  37  50
ENDBRANCH  26  27
ENDBRANCH   5  26
BRANCH   4  52
ATOM     52  O   UNL     1     -11.384 -33.985  49.882  1.00  0.00    -0.384 OA
ATOM     53  H   UNL     1     -11.750 -34.412  49.029  1.00  0.00     0.211 HD
ENDBRANCH   4  52
TORSDOF 16
ENDMDL
MODEL 2
REMARK VINA RESULT:    -7.263      1.358      2.282
REMARK INTER + INTRA:         -14.968
REMARK INTER:                 -13.684
REMARK INTRA:                  -1.283
REMARK UNBOUND:                -3.034
REMARK SMILES C[C@H]1O[C@H](OC[C@H]2O[C@@H](Oc3c(-c4ccc(O)c(O)c4)oc4cc(O)cc(O)c4c3=O)[C@@H](O)[C@H](O)[C@H]2O)[C@@H](O)[C@@H](O)[C@@H]1O
REMARK SMILES IDX 7 1 36 2 34 3 32 4 9 5 8 6 6 7 5 8 4 9 1 10 2 11 42 12 3 13
REMARK SMILES IDX 40 14 38 15 43 16 41 18 39 20 37 22 35 24 10 26 11 27 12 28
REMARK SMILES IDX 30 29 21 30 29 31 31 32 22 33 27 34 23 35 26 36 24 37 13 38
REMARK SMILES IDX 20 39 14 40 18 41 15 42 16 43 19 44 17 46 28 48 25 50 33 52
REMARK H PARENT 43 17 41 19 39 21 37 23 35 25 19 45 17 47 28 49 25 51 33 53
REMARK Flexibility Score: inf
ROOT
ATOM      1  C   UNL     1      -9.008 -31.191  49.646  1.00  0.00     0.180 C 
ATOM      2  C   UNL     1      -7.712 -31.319  50.457  1.00  0.00     0.177 C 
ATOM      3  C   UNL     1      -6.715 -31.849  49.336  1.00  0.00     0.180 C 
ATOM      4  C   UNL     1      -7.392 -33.244  48.820  1.00  0.00     0.214 C 
ATOM      5  C   UNL     1      -8.954 -33.233  48.736  1.00  0.00     0.339 C 
ATOM      6  O   UNL     1      -9.476 -32.487  49.795  1.00  0.00    -0.332 OA
ENDROOT
BRANCH   1   7
ATOM      7  C   UNL     1      -9.293 -30.250  48.268  1.00  0.00     0.198 C 
BRANCH   7   8
ATOM      8  O   UNL     1      -8.537 -28.955  47.947  1.00  0.00    -0.347 OA
BRANCH   8   9
ATOM      9  C   UNL     1      -7.170 -28.968  47.276  1.00  0.00     0.281 C 
ATOM     10  C   UNL     1      -5.483 -26.875  48.281  1.00  0.00     0.041 C 
ATOM     11  C   UNL     1      -4.929 -28.316  48.116  1.00  0.00     0.150 C 
ATOM     12  C   UNL     1      -4.199 -28.353  46.706  1.00  0.00     0.174 C 
ATOM     13  O   UNL     1      -6.020 -29.298  48.182  1.00  0.00    -0.344 OA
ATOM     14  C   UNL     1      -5.188 -28.367  45.476  1.00  0.00     0.179 C 
ATOM     15  C   UNL     1      -6.693 -29.024  45.768  1.00  0.00     0.202 C 
BRANCH  12  16
ATOM     16  O   UNL     1      -3.344 -29.506  46.713  1.00  0.00    -0.388 OA
ATOM     17  H   UNL     1      -3.824 -30.396  46.567  1.00  0.00     0.211 HD
ENDBRANCH  12  16
BRANCH  14  18
ATOM     18  O   UNL     1      -5.045 -27.255  44.601  1.00  0.00    -0.387 OA
ATOM     19  H   UNL     1      -5.888 -26.677  44.387  1.00  0.00     0.211 HD
ENDBRANCH  14  18
BRANCH  15  20
ATOM     20  O   UNL     1      -7.678 -28.645  44.841  1.00  0.00    -0.385 OA
ATOM     21  H   UNL     1      -8.393 -28.181  45.442  1.00  0.00     0.211 HD
ENDBRANCH  15  20
ENDBRANCH   8   9
ENDBRANCH   7   8
ENDBRANCH   1   7
BRANCH   2  22
ATOM     22  O   UNL     1      -7.971 -30.410  51.530  1.00  0.00    -0.387 OA
ATOM     23  H   UNL     1      -8.349 -30.984  52.294  1.00  0.00     0.211 HD
ENDBRANCH   2  22
BRANCH   3  24
ATOM     24  O   UNL     1      -5.385 -32.056  49.824  1.00  0.00    -0.387 OA
ATOM     25  H   UNL     1      -5.560 -32.203  50.820  1.00  0.00     0.211 HD
ENDBRANCH   3  24
BRANCH   5  26
ATOM     26  O   UNL     1      -9.786 -32.911  47.624  1.00  0.00    -0.454 OA
BRANCH  26  27
ATOM     27  C   UNL     1      -9.421 -33.440  46.272  1.00  0.00     0.214 A 
ATOM     28  C   UNL     1      -9.858 -34.734  45.882  1.00  0.00     0.180 A 
ATOM     29  C   UNL     1      -8.671 -32.624  45.314  1.00  0.00     0.239 A 
ATOM     30  O   UNL     1      -9.690 -34.917  44.577  1.00  0.00    -0.452 OA
ATOM     31  C   UNL     1      -8.620 -32.945  43.930  1.00  0.00     0.111 A 
ATOM     32  O   UNL     1      -8.033 -31.609  45.690  1.00  0.00    -0.285 OA
ATOM     33  C   UNL     1      -9.345 -34.056  43.580  1.00  0.00     0.146 A 
ATOM     34  C   UNL     1      -8.027 -32.206  42.845  1.00  0.00     0.134 A 
ATOM     35  C   UNL     1      -9.931 -34.194  42.398  1.00  0.00     0.094 A 
ATOM     36  C   UNL     1      -8.491 -32.381  41.516  1.00  0.00     0.093 A 
ATOM     37  C   UNL     1      -9.432 -33.446  41.308  1.00  0.00     0.123 A 
BRANCH  28  38
ATOM     38  C   UNL     1     -10.762 -35.713  46.538  1.00  0.00     0.025 A 
ATOM     39  C   UNL     1     -11.088 -36.871  45.776  1.00  0.00     0.062 A 
ATOM     40  C   UNL     1     -10.055 -36.188  47.724  1.00  0.00     0.016 A 
ATOM     41  C   UNL     1     -10.276 -37.968  45.607  1.00  0.00     0.158 A 
ATOM     42  C   UNL     1      -8.985 -37.038  47.510  1.00  0.00     0.051 A 
ATOM     43  C   UNL     1      -9.022 -37.897  46.359  1.00  0.00     0.157 A 
BRANCH  41  44
ATOM     44  O   UNL     1     -10.611 -39.072  44.874  1.00  0.00    -0.504 OA
ATOM     45  H   UNL     1     -10.473 -39.136  43.784  1.00  0.00     0.293 HD
ENDBRANCH  41  44
BRANCH  43  46
ATOM     46  O   UNL     1      -8.011 -38.829  46.000  1.00  0.00    -0.504 OA
ATOM     47  H   UNL     1      -7.113 -38.795  46.474  1.00  0.00     0.293 HD
ENDBRANCH  43  46
ENDBRANCH  28  38
BRANCH  34  48
ATOM     48  O   UNL     1      -6.923 -31.368  43.096  1.00  0.00    -0.507 OA
ATOM     49  H   UNL     1      -6.547 -30.674  42.414  1.00  0.00     0.293 HD
ENDBRANCH  34  48
BRANCH  37  50
ATOM     50  O   UNL     1      -9.937 -33.658  39.996  1.00  0.00    -0.508 OA
ATOM     51  H   UNL     1      -9.890 -32.926  39.309  1.00  0.00     0.293 HD
ENDBRANCH  37  50
ENDBRANCH  26  27
ENDBRANCH   5  26
BRANCH   4  52
ATOM     52  O   UNL     1      -6.837 -33.624  47.561  1.00  0.00    -0.384 OA
ATOM     53  H   UNL     1      -6.658 -32.737  47.085  1.00  0.00     0.211 HD
ENDBRANCH   4  52
TORSDOF 16
ENDMDL
MODEL 3
REMARK VINA RESULT:    -7.218      4.141      8.343
REMARK INTER + INTRA:         -14.894
REMARK INTER:                 -12.223
REMARK INTRA:                  -2.671
REMARK UNBOUND:                -3.034
REMARK SMILES C[C@H]1O[C@H](OC[C@H]2O[C@@H](Oc3c(-c4ccc(O)c(O)c4)oc4cc(O)cc(O)c4c3=O)[C@@H](O)[C@H](O)[C@H]2O)[C@@H](O)[C@@H](O)[C@@H]1O
REMARK SMILES IDX 7 1 36 2 34 3 32 4 9 5 8 6 6 7 5 8 4 9 1 10 2 11 42 12 3 13
REMARK SMILES IDX 40 14 38 15 43 16 41 18 39 20 37 22 35 24 10 26 11 27 12 28
REMARK SMILES IDX 30 29 21 30 29 31 31 32 22 33 27 34 23 35 26 36 24 37 13 38
REMARK SMILES IDX 20 39 14 40 18 41 15 42 16 43 19 44 17 46 28 48 25 50 33 52
REMARK H PARENT 43 17 41 19 39 21 37 23 35 25 19 45 17 47 28 49 25 51 33 53
REMARK Flexibility Score: inf
ROOT
ATOM      1  C   UNL     1      -9.397 -31.110  50.022  1.00  0.00     0.180 C 
ATOM      2  C   UNL     1     -10.589 -30.224  50.411  1.00  0.00     0.177 C 
ATOM      3  C   UNL     1     -10.044 -28.793  49.981  1.00  0.00     0.180 C 
ATOM      4  C   UNL     1      -8.677 -28.601  50.856  1.00  0.00     0.214 C 
ATOM      5  C   UNL     1      -7.821 -29.897  51.044  1.00  0.00     0.339 C 
ATOM      6  O   UNL     1      -8.665 -31.000  51.193  1.00  0.00    -0.332 OA
ENDROOT
BRANCH   1   7
ATOM      7  C   UNL     1      -8.691 -31.305  48.496  1.00  0.00     0.198 C 
BRANCH   7   8
ATOM      8  O   UNL     1      -8.890 -30.327  47.332  1.00  0.00    -0.347 OA
BRANCH   8   9
ATOM      9  C   UNL     1      -7.711 -29.689  46.608  1.00  0.00     0.281 C 
ATOM     10  C   UNL     1      -5.225 -30.908  47.363  1.00  0.00     0.041 C 
ATOM     11  C   UNL     1      -5.540 -30.633  45.867  1.00  0.00     0.150 C 
ATOM     12  C   UNL     1      -4.858 -29.242  45.519  1.00  0.00     0.174 C 
ATOM     13  O   UNL     1      -6.991 -30.589  45.647  1.00  0.00    -0.344 OA
ATOM     14  C   UNL     1      -5.610 -27.993  46.125  1.00  0.00     0.179 C 
ATOM     15  C   UNL     1      -7.243 -28.193  46.389  1.00  0.00     0.202 C 
BRANCH  12  16
ATOM     16  O   UNL     1      -4.775 -29.169  44.088  1.00  0.00    -0.388 OA
ATOM     17  H   UNL     1      -3.858 -28.902  43.725  1.00  0.00     0.211 HD
ENDBRANCH  12  16
BRANCH  14  18
ATOM     18  O   UNL     1      -4.823 -27.220  47.023  1.00  0.00    -0.387 OA
ATOM     19  H   UNL     1      -4.423 -27.690  47.866  1.00  0.00     0.211 HD
ENDBRANCH  14  18
BRANCH  15  20
ATOM     20  O   UNL     1      -7.797 -27.280  47.301  1.00  0.00    -0.385 OA
ATOM     21  H   UNL     1      -8.780 -27.185  46.963  1.00  0.00     0.211 HD
ENDBRANCH  15  20
ENDBRANCH   8   9
ENDBRANCH   7   8
ENDBRANCH   1   7
BRANCH   2  22
ATOM     22  O   UNL     1     -11.653 -31.179  50.400  1.00  0.00    -0.387 OA
ATOM     23  H   UNL     1     -12.347 -30.827  51.071  1.00  0.00     0.211 HD
ENDBRANCH   2  22
BRANCH   3  24
ATOM     24  O   UNL     1     -10.982 -27.740  50.228  1.00  0.00    -0.387 OA
ATOM     25  H   UNL     1     -11.262 -27.946  51.189  1.00  0.00     0.211 HD
ENDBRANCH   3  24
BRANCH   5  26
ATOM     26  O   UNL     1      -6.739 -30.375  50.248  1.00  0.00    -0.454 OA
BRANCH  26  27
ATOM     27  C   UNL     1      -5.675 -31.204  50.897  1.00  0.00     0.214 A 
ATOM     28  C   UNL     1      -4.618 -30.566  51.598  1.00  0.00     0.180 A 
ATOM     29  C   UNL     1      -5.734 -32.667  50.877  1.00  0.00     0.239 A 
ATOM     30  O   UNL     1      -3.943 -31.441  52.335  1.00  0.00    -0.452 OA
ATOM     31  C   UNL     1      -4.961 -33.463  51.765  1.00  0.00     0.111 A 
ATOM     32  O   UNL     1      -6.470 -33.273  50.058  1.00  0.00    -0.285 OA
ATOM     33  C   UNL     1      -4.189 -32.744  52.642  1.00  0.00     0.146 A 
ATOM     34  C   UNL     1      -4.973 -34.891  51.953  1.00  0.00     0.134 A 
ATOM     35  C   UNL     1      -3.895 -33.169  53.864  1.00  0.00     0.094 A 
ATOM     36  C   UNL     1      -4.549 -35.459  53.181  1.00  0.00     0.093 A 
ATOM     37  C   UNL     1      -3.951 -34.557  54.125  1.00  0.00     0.123 A 
BRANCH  28  38
ATOM     38  C   UNL     1      -4.378 -29.141  51.946  1.00  0.00     0.025 A 
ATOM     39  C   UNL     1      -3.098 -28.838  52.490  1.00  0.00     0.062 A 
ATOM     40  C   UNL     1      -4.479 -28.395  50.694  1.00  0.00     0.016 A 
ATOM     41  C   UNL     1      -1.938 -28.696  51.767  1.00  0.00     0.158 A 
ATOM     42  C   UNL     1      -3.438 -28.545  49.797  1.00  0.00     0.051 A 
ATOM     43  C   UNL     1      -2.126 -28.810  50.319  1.00  0.00     0.157 A 
BRANCH  41  44
ATOM     44  O   UNL     1      -0.719 -28.400  52.310  1.00  0.00    -0.504 OA
ATOM     45  H   UNL     1       0.035 -29.165  52.552  1.00  0.00     0.293 HD
ENDBRANCH  41  44
BRANCH  43  46
ATOM     46  O   UNL     1      -0.952 -28.983  49.536  1.00  0.00    -0.504 OA
ATOM     47  H   UNL     1      -0.124 -28.437  49.755  1.00  0.00     0.293 HD
ENDBRANCH  43  46
ENDBRANCH  28  38
BRANCH  34  48
ATOM     48  O   UNL     1      -5.328 -35.731  50.880  1.00  0.00    -0.507 OA
ATOM     49  H   UNL     1      -6.176 -36.340  50.868  1.00  0.00     0.293 HD
ENDBRANCH  34  48
BRANCH  37  50
ATOM     50  O   UNL     1      -3.518 -35.073  55.377  1.00  0.00    -0.508 OA
ATOM     51  H   UNL     1      -3.613 -36.052  55.583  1.00  0.00     0.293 HD
ENDBRANCH  37  50
ENDBRANCH  26  27
ENDBRANCH   5  26
BRANCH   4  52
ATOM     52  O   UNL     1      -7.875 -27.561  50.295  1.00  0.00    -0.384 OA
ATOM     53  H   UNL     1      -8.548 -26.841  50.026  1.00  0.00     0.211 HD
ENDBRANCH   4  52
TORSDOF 16
ENDMDL
MODEL 4
REMARK VINA RESULT:    -6.998      2.758      6.120
REMARK INTER + INTRA:         -14.533
REMARK INTER:                 -12.320
REMARK INTRA:                  -2.213
REMARK UNBOUND:                -3.034
REMARK SMILES C[C@H]1O[C@H](OC[C@H]2O[C@@H](Oc3c(-c4ccc(O)c(O)c4)oc4cc(O)cc(O)c4c3=O)[C@@H](O)[C@H](O)[C@H]2O)[C@@H](O)[C@@H](O)[C@@H]1O
REMARK SMILES IDX 7 1 36 2 34 3 32 4 9 5 8 6 6 7 5 8 4 9 1 10 2 11 42 12 3 13
REMARK SMILES IDX 40 14 38 15 43 16 41 18 39 20 37 22 35 24 10 26 11 27 12 28
REMARK SMILES IDX 30 29 21 30 29 31 31 32 22 33 27 34 23 35 26 36 24 37 13 38
REMARK SMILES IDX 20 39 14 40 18 41 15 42 16 43 19 44 17 46 28 48 25 50 33 52
REMARK H PARENT 43 17 41 19 39 21 37 23 35 25 19 45 17 47 28 49 25 51 33 53
REMARK Flexibility Score: inf
ROOT
ATOM      1  C   UNL     1      -5.546 -27.827  50.871  1.00  0.00     0.180 C 
ATOM      2  C   UNL     1      -4.629 -28.239  52.032  1.00  0.00     0.177 C 
ATOM      3  C   UNL     1      -4.181 -29.688  51.552  1.00  0.00     0.180 C 
ATOM      4  C   UNL     1      -5.582 -30.515  51.402  1.00  0.00     0.214 C 
ATOM      5  C   UNL     1      -6.786 -29.687  50.840  1.00  0.00     0.339 C 
ATOM      6  O   UNL     1      -6.728 -28.382  51.333  1.00  0.00    -0.332 OA
ENDROOT
BRANCH   1   7
ATOM      7  C   UNL     1      -5.159 -27.690  49.229  1.00  0.00     0.198 C 
BRANCH   7   8
ATOM      8  O   UNL     1      -3.951 -26.910  48.698  1.00  0.00    -0.347 OA
BRANCH   8   9
ATOM      9  C   UNL     1      -2.882 -27.571  47.838  1.00  0.00     0.281 C 
ATOM     10  C   UNL     1      -4.044 -29.210  45.789  1.00  0.00     0.041 C 
ATOM     11  C   UNL     1      -2.884 -28.235  45.448  1.00  0.00     0.150 C 
ATOM     12  C   UNL     1      -1.550 -29.093  45.507  1.00  0.00     0.174 C 
ATOM     13  O   UNL     1      -2.850 -27.123  46.407  1.00  0.00    -0.344 OA
ATOM     14  C   UNL     1      -1.091 -29.460  46.971  1.00  0.00     0.179 C 
ATOM     15  C   UNL     1      -1.575 -28.402  48.165  1.00  0.00     0.202 C 
BRANCH  12  16
ATOM     16  O   UNL     1      -0.545 -28.343  44.807  1.00  0.00    -0.388 OA
ATOM     17  H   UNL     1       0.349 -28.266  45.295  1.00  0.00     0.211 HD
ENDBRANCH  12  16
BRANCH  14  18
ATOM     18  O   UNL     1      -1.028 -30.858  47.229  1.00  0.00    -0.387 OA
ATOM     19  H   UNL     1      -1.518 -31.507  46.575  1.00  0.00     0.211 HD
ENDBRANCH  14  18
BRANCH  15  20
ATOM     20  O   UNL     1      -1.549 -28.942  49.462  1.00  0.00    -0.385 OA
ATOM     21  H   UNL     1      -0.536 -29.145  49.606  1.00  0.00     0.211 HD
ENDBRANCH  15  20
ENDBRANCH   8   9
ENDBRANCH   7   8
ENDBRANCH   1   7
BRANCH   2  22
ATOM     22  O   UNL     1      -4.265 -26.960  52.558  1.00  0.00    -0.387 OA
ATOM     23  H   UNL     1      -3.660 -26.531  51.846  1.00  0.00     0.211 HD
ENDBRANCH   2  22
BRANCH   3  24
ATOM     24  O   UNL     1      -3.285 -30.327  52.468  1.00  0.00    -0.387 OA
ATOM     25  H   UNL     1      -3.942 -30.820  53.076  1.00  0.00     0.211 HD
ENDBRANCH   3  24
BRANCH   5  26
ATOM     26  O   UNL     1      -7.217 -29.545  49.489  1.00  0.00    -0.454 OA
BRANCH  26  27
ATOM     27  C   UNL     1      -8.629 -29.898  49.140  1.00  0.00     0.214 A 
ATOM     28  C   UNL     1      -8.923 -31.186  48.620  1.00  0.00     0.180 A 
ATOM     29  C   UNL     1      -9.729 -28.961  49.382  1.00  0.00     0.239 A 
ATOM     30  O   UNL     1     -10.231 -31.417  48.639  1.00  0.00    -0.452 OA
ATOM     31  C   UNL     1     -11.086 -29.382  49.402  1.00  0.00     0.111 A 
ATOM     32  O   UNL     1      -9.506 -27.739  49.573  1.00  0.00    -0.285 OA
ATOM     33  C   UNL     1     -11.263 -30.728  49.200  1.00  0.00     0.146 A 
ATOM     34  C   UNL     1     -12.269 -28.628  49.723  1.00  0.00     0.134 A 
ATOM     35  C   UNL     1     -12.257 -31.417  49.744  1.00  0.00     0.094 A 
ATOM     36  C   UNL     1     -13.438 -29.284  50.188  1.00  0.00     0.093 A 
ATOM     37  C   UNL     1     -13.421 -30.719  50.139  1.00  0.00     0.123 A 
BRANCH  28  38
ATOM     38  C   UNL     1      -8.079 -32.394  48.431  1.00  0.00     0.025 A 
ATOM     39  C   UNL     1      -8.726 -33.525  47.856  1.00  0.00     0.062 A 
ATOM     40  C   UNL     1      -7.021 -32.010  47.501  1.00  0.00     0.016 A 
ATOM     41  C   UNL     1      -8.996 -33.694  46.519  1.00  0.00     0.158 A 
ATOM     42  C   UNL     1      -7.391 -31.833  46.180  1.00  0.00     0.051 A 
ATOM     43  C   UNL     1      -8.483 -32.616  45.672  1.00  0.00     0.157 A 
BRANCH  41  44
ATOM     44  O   UNL     1      -9.614 -34.791  45.988  1.00  0.00    -0.504 OA
ATOM     45  H   UNL     1     -10.535 -35.225  46.407  1.00  0.00     0.293 HD
ENDBRANCH  41  44
BRANCH  43  46
ATOM     46  O   UNL     1      -8.982 -32.560  44.342  1.00  0.00    -0.504 OA
ATOM     47  H   UNL     1      -8.354 -32.756  43.567  1.00  0.00     0.293 HD
ENDBRANCH  43  46
ENDBRANCH  28  38
BRANCH  34  48
ATOM     48  O   UNL     1     -12.292 -27.238  49.495  1.00  0.00    -0.507 OA
ATOM     49  H   UNL     1     -13.164 -26.681  49.356  1.00  0.00     0.293 HD
ENDBRANCH  34  48
BRANCH  37  50
ATOM     50  O   UNL     1     -14.564 -31.428  50.603  1.00  0.00    -0.508 OA
ATOM     51  H   UNL     1     -15.209 -30.991  51.238  1.00  0.00     0.293 HD
ENDBRANCH  37  50
ENDBRANCH  26  27
ENDBRANCH   5  26
BRANCH   4  52
ATOM     52  O   UNL     1      -5.381 -31.685  50.609  1.00  0.00    -0.384 OA
ATOM     53  H   UNL     1      -5.406 -31.346  49.646  1.00  0.00     0.211 HD
ENDBRANCH   4  52
TORSDOF 16
ENDMDL
MODEL 5
REMARK VINA RESULT:    -6.970      4.066      9.128
REMARK INTER + INTRA:         -14.487
REMARK INTER:                 -12.728
REMARK INTRA:                  -1.759
REMARK UNBOUND:                -3.034
REMARK SMILES C[C@H]1O[C@H](OC[C@H]2O[C@@H](Oc3c(-c4ccc(O)c(O)c4)oc4cc(O)cc(O)c4c3=O)[C@@H](O)[C@H](O)[C@H]2O)[C@@H](O)[C@@H](O)[C@@H]1O
REMARK SMILES IDX 7 1 36 2 34 3 32 4 9 5 8 6 6 7 5 8 4 9 1 10 2 11 42 12 3 13
REMARK SMILES IDX 40 14 38 15 43 16 41 18 39 20 37 22 35 24 10 26 11 27 12 28
REMARK SMILES IDX 30 29 21 30 29 31 31 32 22 33 27 34 23 35 26 36 24 37 13 38
REMARK SMILES IDX 20 39 14 40 18 41 15 42 16 43 19 44 17 46 28 48 25 50 33 52
REMARK H PARENT 43 17 41 19 39 21 37 23 35 25 19 45 17 47 28 49 25 51 33 53
REMARK Flexibility Score: inf
ROOT
ATOM      1  C   UNL     1      -6.064 -27.947  45.861  1.00  0.00     0.180 C 
ATOM      2  C   UNL     1      -6.574 -28.451  44.504  1.00  0.00     0.177 C 
ATOM      3  C   UNL     1      -6.761 -30.000  44.818  1.00  0.00     0.180 C 
ATOM      4  C   UNL     1      -5.273 -30.502  45.270  1.00  0.00     0.214 C 
ATOM      5  C   UNL     1      -4.458 -29.478  46.127  1.00  0.00     0.339 C 
ATOM      6  O   UNL     1      -4.712 -28.182  45.676  1.00  0.00    -0.332 OA
ENDROOT
BRANCH   1   7
ATOM      7  C   UNL     1      -6.830 -28.041  47.368  1.00  0.00     0.198 C 
BRANCH   7   8
ATOM      8  O   UNL     1      -8.351 -28.018  47.556  1.00  0.00    -0.347 OA
BRANCH   8   9
ATOM      9  C   UNL     1      -9.081 -29.100  48.343  1.00  0.00     0.281 C 
ATOM     10  C   UNL     1      -9.093 -28.530  51.156  1.00  0.00     0.041 C 
ATOM     11  C   UNL     1     -10.394 -28.990  50.445  1.00  0.00     0.150 C 
ATOM     12  C   UNL     1     -10.492 -30.558  50.668  1.00  0.00     0.174 C 
ATOM     13  O   UNL     1     -10.346 -28.653  49.015  1.00  0.00    -0.344 OA
ATOM     14  C   UNL     1      -9.472 -31.392  49.798  1.00  0.00     0.179 C 
ATOM     15  C   UNL     1      -8.993 -30.679  48.369  1.00  0.00     0.202 C 
BRANCH  12  16
ATOM     16  O   UNL     1     -11.851 -30.931  50.396  1.00  0.00    -0.388 OA
ATOM     17  H   UNL     1     -12.255 -30.498  49.563  1.00  0.00     0.211 HD
ENDBRANCH  12  16
BRANCH  14  18
ATOM     18  O   UNL     1      -8.555 -32.168  50.560  1.00  0.00    -0.387 OA
ATOM     19  H   UNL     1      -7.738 -31.687  50.996  1.00  0.00     0.211 HD
ENDBRANCH  14  18
BRANCH  15  20
ATOM     20  O   UNL     1      -7.799 -31.196  47.838  1.00  0.00    -0.385 OA
ATOM     21  H   UNL     1      -7.075 -30.817  48.488  1.00  0.00     0.211 HD
ENDBRANCH  15  20
ENDBRANCH   8   9
ENDBRANCH   7   8
ENDBRANCH   1   7
BRANCH   2  22
ATOM     22  O   UNL     1      -7.104 -27.246  43.947  1.00  0.00    -0.387 OA
ATOM     23  H   UNL     1      -6.325 -26.811  43.438  1.00  0.00     0.211 HD
ENDBRANCH   2  22
BRANCH   3  24
ATOM     24  O   UNL     1      -7.251 -30.742  43.695  1.00  0.00    -0.387 OA
ATOM     25  H   UNL     1      -7.312 -30.009  42.985  1.00  0.00     0.211 HD
ENDBRANCH   3  24
BRANCH   5  26
ATOM     26  O   UNL     1      -4.386 -29.360  47.546  1.00  0.00    -0.454 OA
BRANCH  26  27
ATOM     27  C   UNL     1      -3.167 -28.744  48.160  1.00  0.00     0.214 A 
ATOM     28  C   UNL     1      -3.296 -27.946  49.328  1.00  0.00     0.180 A 
ATOM     29  C   UNL     1      -1.832 -28.997  47.614  1.00  0.00     0.239 A 
ATOM     30  O   UNL     1      -2.109 -27.726  49.883  1.00  0.00    -0.452 OA
ATOM     31  C   UNL     1      -0.652 -28.733  48.361  1.00  0.00     0.111 A 
ATOM     32  O   UNL     1      -1.684 -29.451  46.452  1.00  0.00    -0.285 OA
ATOM     33  C   UNL     1      -0.879 -28.250  49.625  1.00  0.00     0.146 A 
ATOM     34  C   UNL     1       0.720 -29.016  48.027  1.00  0.00     0.134 A 
ATOM     35  C   UNL     1      -0.074 -28.498  50.650  1.00  0.00     0.094 A 
ATOM     36  C   UNL     1       1.694 -29.166  49.047  1.00  0.00     0.093 A 
ATOM     37  C   UNL     1       1.270 -28.843  50.381  1.00  0.00     0.123 A 
BRANCH  28  38
ATOM     38  C   UNL     1      -4.459 -27.655  50.205  1.00  0.00     0.025 A 
ATOM     39  C   UNL     1      -5.439 -28.683  50.305  1.00  0.00     0.062 A 
ATOM     40  C   UNL     1      -3.918 -27.471  51.549  1.00  0.00     0.016 A 
ATOM     41  C   UNL     1      -5.333 -29.812  51.082  1.00  0.00     0.158 A 
ATOM     42  C   UNL     1      -3.475 -28.608  52.200  1.00  0.00     0.051 A 
ATOM     43  C   UNL     1      -4.118 -29.856  51.898  1.00  0.00     0.157 A 
BRANCH  41  44
ATOM     44  O   UNL     1      -6.289 -30.785  51.166  1.00  0.00    -0.504 OA
ATOM     45  H   UNL     1      -7.121 -30.876  50.451  1.00  0.00     0.293 HD
ENDBRANCH  41  44
BRANCH  43  46
ATOM     46  O   UNL     1      -3.788 -31.110  52.481  1.00  0.00    -0.504 OA
ATOM     47  H   UNL     1      -3.836 -31.950  51.912  1.00  0.00     0.293 HD
ENDBRANCH  43  46
ENDBRANCH  28  38
BRANCH  34  48
ATOM     48  O   UNL     1       1.112 -29.059  46.675  1.00  0.00    -0.507 OA
ATOM     49  H   UNL     1       1.240 -28.215  46.075  1.00  0.00     0.293 HD
ENDBRANCH  34  48
BRANCH  37  50
ATOM     50  O   UNL     1       2.204 -28.986  51.444  1.00  0.00    -0.508 OA
ATOM     51  H   UNL     1       3.192 -28.972  51.257  1.00  0.00     0.293 HD
ENDBRANCH  37  50
ENDBRANCH  26  27
ENDBRANCH   5  26
BRANCH   4  52
ATOM     52  O   UNL     1      -5.363 -31.752  45.955  1.00  0.00    -0.384 OA
ATOM     53  H   UNL     1      -4.818 -32.396  45.379  1.00  0.00     0.211 HD
ENDBRANCH   4  52
TORSDOF 16
ENDMDL
MODEL 6
REMARK VINA RESULT:    -6.970      3.603      9.026
REMARK INTER + INTRA:         -14.486
REMARK INTER:                 -12.320
REMARK INTRA:                  -2.166
REMARK UNBOUND:                -3.034
REMARK SMILES C[C@H]1O[C@H](OC[C@H]2O[C@@H](Oc3c(-c4ccc(O)c(O)c4)oc4cc(O)cc(O)c4c3=O)[C@@H](O)[C@H](O)[C@H]2O)[C@@H](O)[C@@H](O)[C@@H]1O
REMARK SMILES IDX 7 1 36 2 34 3 32 4 9 5 8 6 6 7 5 8 4 9 1 10 2 11 42 12 3 13
REMARK SMILES IDX 40 14 38 15 43 16 41 18 39 20 37 22 35 24 10 26 11 27 12 28
REMARK SMILES IDX 30 29 21 30 29 31 31 32 22 33 27 34 23 35 26 36 24 37 13 38
REMARK SMILES IDX 20 39 14 40 18 41 15 42 16 43 19 44 17 46 28 48 25 50 33 52
REMARK H PARENT 43 17 41 19 39 21 37 23 35 25 19 45 17 47 28 49 25 51 33 53
REMARK Flexibility Score: inf
ROOT
ATOM      1  C   UNL     1      -6.281 -29.929  45.640  1.00  0.00     0.180 C 
ATOM      2  C   UNL     1      -6.744 -31.369  45.381  1.00  0.00     0.177 C 
ATOM      3  C   UNL     1      -6.929 -31.890  46.873  1.00  0.00     0.180 C 
ATOM      4  C   UNL     1      -5.453 -31.711  47.549  1.00  0.00     0.214 C 
ATOM      5  C   UNL     1      -4.672 -30.429  47.109  1.00  0.00     0.339 C 
ATOM      6  O   UNL     1      -4.921 -30.167  45.760  1.00  0.00    -0.332 OA
ENDROOT
BRANCH   1   7
ATOM      7  C   UNL     1      -7.091 -28.702  46.479  1.00  0.00     0.198 C 
BRANCH   7   8
ATOM      8  O   UNL     1      -8.575 -28.763  46.858  1.00  0.00    -0.347 OA
BRANCH   8   9
ATOM      9  C   UNL     1      -9.029 -28.938  48.302  1.00  0.00     0.281 C 
ATOM     10  C   UNL     1     -10.069 -31.571  48.767  1.00  0.00     0.041 C 
ATOM     11  C   UNL     1      -9.072 -30.935  49.773  1.00  0.00     0.150 C 
ATOM     12  C   UNL     1      -9.955 -30.283  50.921  1.00  0.00     0.174 C 
ATOM     13  O   UNL     1      -8.237 -29.930  49.102  1.00  0.00    -0.344 OA
ATOM     14  C   UNL     1     -10.689 -28.955  50.486  1.00  0.00     0.179 C 
ATOM     15  C   UNL     1      -9.951 -28.089  49.268  1.00  0.00     0.202 C 
BRANCH  12  16
ATOM     16  O   UNL     1      -9.081 -30.064  52.039  1.00  0.00    -0.388 OA
ATOM     17  H   UNL     1      -8.729 -30.916  52.480  1.00  0.00     0.211 HD
ENDBRANCH  12  16
BRANCH  14  18
ATOM     18  O   UNL     1     -12.108 -29.022  50.564  1.00  0.00    -0.387 OA
ATOM     19  H   UNL     1     -12.580 -28.603  51.396  1.00  0.00     0.211 HD
ENDBRANCH  14  18
BRANCH  15  20
ATOM     20  O   UNL     1     -10.799 -27.187  48.604  1.00  0.00    -0.385 OA
ATOM     21  H   UNL     1     -10.330 -27.068  47.679  1.00  0.00     0.211 HD
ENDBRANCH  15  20
ENDBRANCH   8   9
ENDBRANCH   7   8
ENDBRANCH   1   7
BRANCH   2  22
ATOM     22  O   UNL     1      -7.266 -31.253  44.055  1.00  0.00    -0.387 OA
ATOM     23  H   UNL     1      -6.643 -30.597  43.569  1.00  0.00     0.211 HD
ENDBRANCH   2  22
BRANCH   3  24
ATOM     24  O   UNL     1      -7.380 -33.248  46.938  1.00  0.00    -0.387 OA
ATOM     25  H   UNL     1      -7.521 -33.361  47.944  1.00  0.00     0.211 HD
ENDBRANCH   3  24
BRANCH   5  26
ATOM     26  O   UNL     1      -4.644 -29.144  47.728  1.00  0.00    -0.454 OA
BRANCH  26  27
ATOM     27  C   UNL     1      -3.334 -28.601  48.206  1.00  0.00     0.214 A 
ATOM     28  C   UNL     1      -3.293 -27.795  49.375  1.00  0.00     0.180 A 
ATOM     29  C   UNL     1      -2.079 -28.934  47.528  1.00  0.00     0.239 A 
ATOM     30  O   UNL     1      -2.044 -27.644  49.802  1.00  0.00    -0.452 OA
ATOM     31  C   UNL     1      -0.815 -28.739  48.147  1.00  0.00     0.111 A 
ATOM     32  O   UNL     1      -2.080 -29.399  46.360  1.00  0.00    -0.285 OA
ATOM     33  C   UNL     1      -0.881 -28.241  49.424  1.00  0.00     0.146 A 
ATOM     34  C   UNL     1       0.496 -29.104  47.675  1.00  0.00     0.134 A 
ATOM     35  C   UNL     1       0.011 -28.534  50.361  1.00  0.00     0.094 A 
ATOM     36  C   UNL     1       1.560 -29.310  48.590  1.00  0.00     0.093 A 
ATOM     37  C   UNL     1       1.296 -28.959  49.957  1.00  0.00     0.123 A 
BRANCH  28  38
ATOM     38  C   UNL     1      -4.340 -27.432  50.365  1.00  0.00     0.025 A 
ATOM     39  C   UNL     1      -5.379 -28.387  50.553  1.00  0.00     0.062 A 
ATOM     40  C   UNL     1      -3.658 -27.310  51.651  1.00  0.00     0.016 A 
ATOM     41  C   UNL     1      -5.282 -29.533  51.305  1.00  0.00     0.158 A 
ATOM     42  C   UNL     1      -3.239 -28.487  52.245  1.00  0.00     0.051 A 
ATOM     43  C   UNL     1      -4.000 -29.679  51.997  1.00  0.00     0.157 A 
BRANCH  41  44
ATOM     44  O   UNL     1      -6.296 -30.434  51.476  1.00  0.00    -0.504 OA
ATOM     45  H   UNL     1      -7.229 -30.408  50.893  1.00  0.00     0.293 HD
ENDBRANCH  41  44
BRANCH  43  46
ATOM     46  O   UNL     1      -3.709 -30.963  52.534  1.00  0.00    -0.504 OA
ATOM     47  H   UNL     1      -2.754 -31.306  52.510  1.00  0.00     0.293 HD
ENDBRANCH  43  46
ENDBRANCH  28  38
BRANCH  34  48
ATOM     48  O   UNL     1       0.742 -29.174  46.290  1.00  0.00    -0.507 OA
ATOM     49  H   UNL     1       1.469 -28.612  45.795  1.00  0.00     0.293 HD
ENDBRANCH  34  48
BRANCH  37  50
ATOM     50  O   UNL     1       2.325 -29.156  50.919  1.00  0.00    -0.508 OA
ATOM     51  H   UNL     1       2.603 -28.404  51.526  1.00  0.00     0.293 HD
ENDBRANCH  37  50
ENDBRANCH  26  27
ENDBRANCH   5  26
BRANCH   4  52
ATOM     52  O   UNL     1      -5.555 -31.758  48.973  1.00  0.00    -0.384 OA
ATOM     53  H   UNL     1      -4.645 -32.108  49.280  1.00  0.00     0.211 HD
ENDBRANCH   4  52
TORSDOF 16
ENDMDL
MODEL 7
REMARK VINA RESULT:    -6.845      2.285      8.513
REMARK INTER + INTRA:         -14.282
REMARK INTER:                 -13.003
REMARK INTRA:                  -1.278
REMARK UNBOUND:                -3.034
REMARK SMILES C[C@H]1O[C@H](OC[C@H]2O[C@@H](Oc3c(-c4ccc(O)c(O)c4)oc4cc(O)cc(O)c4c3=O)[C@@H](O)[C@H](O)[C@H]2O)[C@@H](O)[C@@H](O)[C@@H]1O
REMARK SMILES IDX 7 1 36 2 34 3 32 4 9 5 8 6 6 7 5 8 4 9 1 10 2 11 42 12 3 13
REMARK SMILES IDX 40 14 38 15 43 16 41 18 39 20 37 22 35 24 10 26 11 27 12 28
REMARK SMILES IDX 30 29 21 30 29 31 31 32 22 33 27 34 23 35 26 36 24 37 13 38
REMARK SMILES IDX 20 39 14 40 18 41 15 42 16 43 19 44 17 46 28 48 25 50 33 52
REMARK H PARENT 43 17 41 19 39 21 37 23 35 25 19 45 17 47 28 49 25 51 33 53
REMARK Flexibility Score: inf
ROOT
ATOM      1  C   UNL     1      -9.819 -34.954  47.146  1.00  0.00     0.180 C 
ATOM      2  C   UNL     1     -10.869 -35.170  46.048  1.00  0.00     0.177 C 
ATOM      3  C   UNL     1      -9.955 -35.085  44.748  1.00  0.00     0.180 C 
ATOM      4  C   UNL     1      -9.279 -33.599  44.827  1.00  0.00     0.214 C 
ATOM      5  C   UNL     1      -8.886 -33.123  46.264  1.00  0.00     0.339 C 
ATOM      6  O   UNL     1      -9.839 -33.569  47.183  1.00  0.00    -0.332 OA
ENDROOT
BRANCH   1   7
ATOM      7  C   UNL     1      -8.436 -35.876  47.471  1.00  0.00     0.198 C 
BRANCH   7   8
ATOM      8  O   UNL     1      -8.403 -37.408  47.430  1.00  0.00    -0.347 OA
BRANCH   8   9
ATOM      9  C   UNL     1      -9.600 -38.226  46.963  1.00  0.00     0.281 C 
ATOM     10  C   UNL     1     -10.152 -40.400  48.753  1.00  0.00     0.041 C 
ATOM     11  C   UNL     1     -11.307 -39.500  48.235  1.00  0.00     0.150 C 
ATOM     12  C   UNL     1     -11.928 -40.252  46.982  1.00  0.00     0.174 C 
ATOM     13  O   UNL     1     -10.798 -38.173  47.866  1.00  0.00    -0.344 OA
ATOM     14  C   UNL     1     -11.023 -40.196  45.690  1.00  0.00     0.179 C 
ATOM     15  C   UNL     1     -10.004 -38.881  45.581  1.00  0.00     0.202 C 
BRANCH  12  16
ATOM     16  O   UNL     1     -13.221 -39.671  46.751  1.00  0.00    -0.388 OA
ATOM     17  H   UNL     1     -13.994 -40.339  46.739  1.00  0.00     0.211 HD
ENDBRANCH  12  16
BRANCH  14  18
ATOM     18  O   UNL     1     -10.609 -41.470  45.213  1.00  0.00    -0.387 OA
ATOM     19  H   UNL     1      -9.814 -41.948  45.694  1.00  0.00     0.211 HD
ENDBRANCH  14  18
BRANCH  15  20
ATOM     20  O   UNL     1      -8.929 -39.055  44.693  1.00  0.00    -0.385 OA
ATOM     21  H   UNL     1      -9.124 -38.345  43.954  1.00  0.00     0.211 HD
ENDBRANCH  15  20
ENDBRANCH   8   9
ENDBRANCH   7   8
ENDBRANCH   1   7
BRANCH   2  22
ATOM     22  O   UNL     1     -11.891 -35.852  46.778  1.00  0.00    -0.387 OA
ATOM     23  H   UNL     1     -12.702 -35.220  46.774  1.00  0.00     0.211 HD
ENDBRANCH   2  22
BRANCH   3  24
ATOM     24  O   UNL     1     -10.693 -35.266  43.534  1.00  0.00    -0.387 OA
ATOM     25  H   UNL     1     -11.593 -35.588  43.896  1.00  0.00     0.211 HD
ENDBRANCH   3  24
BRANCH   5  26
ATOM     26  O   UNL     1      -7.639 -33.263  46.941  1.00  0.00    -0.454 OA
BRANCH  26  27
ATOM     27  C   UNL     1      -6.816 -32.040  47.199  1.00  0.00     0.214 A 
ATOM     28  C   UNL     1      -6.543 -31.646  48.536  1.00  0.00     0.180 A 
ATOM     29  C   UNL     1      -6.232 -31.270  46.098  1.00  0.00     0.239 A 
ATOM     30  O   UNL     1      -5.583 -30.729  48.573  1.00  0.00    -0.452 OA
ATOM     31  C   UNL     1      -5.176 -30.342  46.306  1.00  0.00     0.111 A 
ATOM     32  O   UNL     1      -6.656 -31.400  44.922  1.00  0.00    -0.285 OA
ATOM     33  C   UNL     1      -4.749 -30.254  47.607  1.00  0.00     0.146 A 
ATOM     34  C   UNL     1      -4.423 -29.587  45.338  1.00  0.00     0.134 A 
ATOM     35  C   UNL     1      -3.495 -29.976  47.940  1.00  0.00     0.094 A 
ATOM     36  C   UNL     1      -3.117 -29.124  45.644  1.00  0.00     0.093 A 
ATOM     37  C   UNL     1      -2.687 -29.292  47.004  1.00  0.00     0.123 A 
BRANCH  28  38
ATOM     38  C   UNL     1      -6.831 -32.300  49.839  1.00  0.00     0.025 A 
ATOM     39  C   UNL     1      -5.735 -32.407  50.741  1.00  0.00     0.062 A 
ATOM     40  C   UNL     1      -7.827 -31.462  50.502  1.00  0.00     0.016 A 
ATOM     41  C   UNL     1      -5.251 -31.393  51.532  1.00  0.00     0.158 A 
ATOM     42  C   UNL     1      -7.386 -30.248  50.997  1.00  0.00     0.051 A 
ATOM     43  C   UNL     1      -6.022 -30.152  51.439  1.00  0.00     0.157 A 
BRANCH  41  44
ATOM     44  O   UNL     1      -4.199 -31.520  52.395  1.00  0.00    -0.504 OA
ATOM     45  H   UNL     1      -3.148 -31.491  52.071  1.00  0.00     0.293 HD
ENDBRANCH  41  44
BRANCH  43  46
ATOM     46  O   UNL     1      -5.416 -28.984  51.976  1.00  0.00    -0.504 OA
ATOM     47  H   UNL     1      -5.659 -28.076  51.591  1.00  0.00     0.293 HD
ENDBRANCH  43  46
ENDBRANCH  28  38
BRANCH  34  48
ATOM     48  O   UNL     1      -5.020 -29.236  44.112  1.00  0.00    -0.507 OA
ATOM     49  H   UNL     1      -4.979 -28.281  43.693  1.00  0.00     0.293 HD
ENDBRANCH  34  48
BRANCH  37  50
ATOM     50  O   UNL     1      -1.382 -28.855  47.362  1.00  0.00    -0.508 OA
ATOM     51  H   UNL     1      -1.182 -28.572  48.306  1.00  0.00     0.293 HD
ENDBRANCH  37  50
ENDBRANCH  26  27
ENDBRANCH   5  26
BRANCH   4  52
ATOM     52  O   UNL     1      -8.146 -33.528  43.960  1.00  0.00    -0.384 OA
ATOM     53  H   UNL     1      -7.753 -34.471  43.980  1.00  0.00     0.211 HD
ENDBRANCH   4  52
TORSDOF 16
ENDMDL
MODEL 8
REMARK VINA RESULT:    -6.710      2.668      6.086
REMARK INTER + INTRA:         -14.059
REMARK INTER:                 -11.887
REMARK INTRA:                  -2.172
REMARK UNBOUND:                -3.034
REMARK SMILES C[C@H]1O[C@H](OC[C@H]2O[C@@H](Oc3c(-c4ccc(O)c(O)c4)oc4cc(O)cc(O)c4c3=O)[C@@H](O)[C@H](O)[C@H]2O)[C@@H](O)[C@@H](O)[C@@H]1O
REMARK SMILES IDX 7 1 36 2 34 3 32 4 9 5 8 6 6 7 5 8 4 9 1 10 2 11 42 12 3 13
REMARK SMILES IDX 40 14 38 15 43 16 41 18 39 20 37 22 35 24 10 26 11 27 12 28
REMARK SMILES IDX 30 29 21 30 29 31 31 32 22 33 27 34 23 35 26 36 24 37 13 38
REMARK SMILES IDX 20 39 14 40 18 41 15 42 16 43 19 44 17 46 28 48 25 50 33 52
REMARK H PARENT 43 17 41 19 39 21 37 23 35 25 19 45 17 47 28 49 25 51 33 53
REMARK Flexibility Score: inf
ROOT
ATOM      1  C   UNL     1      -5.881 -27.860  51.014  1.00  0.00     0.180 C 
ATOM      2  C   UNL     1      -4.896 -28.299  52.105  1.00  0.00     0.177 C 
ATOM      3  C   UNL     1      -4.335 -29.645  51.470  1.00  0.00     0.180 C 
ATOM      4  C   UNL     1      -5.660 -30.579  51.266  1.00  0.00     0.214 C 
ATOM      5  C   UNL     1      -6.950 -29.814  50.819  1.00  0.00     0.339 C 
ATOM      6  O   UNL     1      -6.994 -28.565  51.442  1.00  0.00    -0.332 OA
ENDROOT
BRANCH   1   7
ATOM      7  C   UNL     1      -5.560 -27.523  49.386  1.00  0.00     0.198 C 
BRANCH   7   8
ATOM      8  O   UNL     1      -4.948 -28.534  48.410  1.00  0.00    -0.347 OA
BRANCH   8   9
ATOM      9  C   UNL     1      -5.610 -28.869  47.079  1.00  0.00     0.281 C 
ATOM     10  C   UNL     1      -3.772 -28.599  44.891  1.00  0.00     0.041 C 
ATOM     11  C   UNL     1      -4.688 -29.849  44.995  1.00  0.00     0.150 C 
ATOM     12  C   UNL     1      -5.956 -29.547  44.088  1.00  0.00     0.174 C 
ATOM     13  O   UNL     1      -5.072 -30.090  46.392  1.00  0.00    -0.344 OA
ATOM     14  C   UNL     1      -6.957 -28.502  44.718  1.00  0.00     0.179 C 
ATOM     15  C   UNL     1      -6.956 -28.415  46.383  1.00  0.00     0.202 C 
BRANCH  12  16
ATOM     16  O   UNL     1      -6.594 -30.808  43.836  1.00  0.00    -0.388 OA
ATOM     17  H   UNL     1      -6.861 -31.327  44.674  1.00  0.00     0.211 HD
ENDBRANCH  12  16
BRANCH  14  18
ATOM     18  O   UNL     1      -7.142 -27.328  43.936  1.00  0.00    -0.387 OA
ATOM     19  H   UNL     1      -8.086 -26.882  43.923  1.00  0.00     0.211 HD
ENDBRANCH  14  18
BRANCH  15  20
ATOM     20  O   UNL     1      -7.496 -27.226  46.900  1.00  0.00    -0.385 OA
ATOM     21  H   UNL     1      -8.341 -27.561  47.413  1.00  0.00     0.211 HD
ENDBRANCH  15  20
ENDBRANCH   8   9
ENDBRANCH   7   8
ENDBRANCH   1   7
BRANCH   2  22
ATOM     22  O   UNL     1      -4.632 -27.051  52.752  1.00  0.00    -0.387 OA
ATOM     23  H   UNL     1      -5.475 -26.840  53.300  1.00  0.00     0.211 HD
ENDBRANCH   2  22
BRANCH   3  24
ATOM     24  O   UNL     1      -3.357 -30.287  52.295  1.00  0.00    -0.387 OA
ATOM     25  H   UNL     1      -3.799 -31.194  52.457  1.00  0.00     0.211 HD
ENDBRANCH   3  24
BRANCH   5  26
ATOM     26  O   UNL     1      -7.434 -29.577  49.499  1.00  0.00    -0.454 OA
BRANCH  26  27
ATOM     27  C   UNL     1      -8.875 -29.850  49.198  1.00  0.00     0.214 A 
ATOM     28  C   UNL     1      -9.279 -31.160  48.827  1.00  0.00     0.180 A 
ATOM     29  C   UNL     1      -9.891 -28.804  49.338  1.00  0.00     0.239 A 
ATOM     30  O   UNL     1     -10.602 -31.278  48.878  1.00  0.00    -0.452 OA
ATOM     31  C   UNL     1     -11.277 -29.108  49.411  1.00  0.00     0.111 A 
ATOM     32  O   UNL     1      -9.567 -27.591  49.390  1.00  0.00    -0.285 OA
ATOM     33  C   UNL     1     -11.566 -30.449  49.362  1.00  0.00     0.146 A 
ATOM     34  C   UNL     1     -12.392 -28.227  49.651  1.00  0.00     0.134 A 
ATOM     35  C   UNL     1     -12.606 -30.988  49.985  1.00  0.00     0.094 A 
ATOM     36  C   UNL     1     -13.603 -28.730  50.192  1.00  0.00     0.093 A 
ATOM     37  C   UNL     1     -13.704 -30.158  50.304  1.00  0.00     0.123 A 
BRANCH  28  38
ATOM     38  C   UNL     1      -8.539 -32.446  48.772  1.00  0.00     0.025 A 
ATOM     39  C   UNL     1      -9.263 -33.563  48.269  1.00  0.00     0.062 A 
ATOM     40  C   UNL     1      -7.423 -32.234  47.854  1.00  0.00     0.016 A 
ATOM     41  C   UNL     1      -9.506 -33.823  46.941  1.00  0.00     0.158 A 
ATOM     42  C   UNL     1      -7.734 -32.141  46.510  1.00  0.00     0.051 A 
ATOM     43  C   UNL     1      -8.875 -32.869  46.027  1.00  0.00     0.157 A 
BRANCH  41  44
ATOM     44  O   UNL     1     -10.201 -34.906  46.479  1.00  0.00    -0.504 OA
ATOM     45  H   UNL     1     -10.128 -35.906  46.932  1.00  0.00     0.293 HD
ENDBRANCH  41  44
BRANCH  43  46
ATOM     46  O   UNL     1      -9.324 -32.886  44.679  1.00  0.00    -0.504 OA
ATOM     47  H   UNL     1      -8.646 -32.989  43.930  1.00  0.00     0.293 HD
ENDBRANCH  43  46
ENDBRANCH  28  38
BRANCH  34  48
ATOM     48  O   UNL     1     -12.304 -26.875  49.267  1.00  0.00    -0.507 OA
ATOM     49  H   UNL     1     -13.129 -26.274  49.049  1.00  0.00     0.293 HD
ENDBRANCH  34  48
BRANCH  37  50
ATOM     50  O   UNL     1     -14.893 -30.714  50.849  1.00  0.00    -0.508 OA
ATOM     51  H   UNL     1     -15.517 -30.143  51.393  1.00  0.00     0.293 HD
ENDBRANCH  37  50
ENDBRANCH  26  27
ENDBRANCH   5  26
BRANCH   4  52
ATOM     52  O   UNL     1      -5.379 -31.640  50.353  1.00  0.00    -0.384 OA
ATOM     53  H   UNL     1      -5.246 -32.459  50.950  1.00  0.00     0.211 HD
ENDBRANCH   4  52
TORSDOF 16
ENDMDL
MODEL 9
REMARK VINA RESULT:    -6.703      3.186      6.584
REMARK INTER + INTRA:         -14.047
REMARK INTER:                 -12.222
REMARK INTRA:                  -1.825
REMARK UNBOUND:                -3.034
REMARK SMILES C[C@H]1O[C@H](OC[C@H]2O[C@@H](Oc3c(-c4ccc(O)c(O)c4)oc4cc(O)cc(O)c4c3=O)[C@@H](O)[C@H](O)[C@H]2O)[C@@H](O)[C@@H](O)[C@@H]1O
REMARK SMILES IDX 7 1 36 2 34 3 32 4 9 5 8 6 6 7 5 8 4 9 1 10 2 11 42 12 3 13
REMARK SMILES IDX 40 14 38 15 43 16 41 18 39 20 37 22 35 24 10 26 11 27 12 28
REMARK SMILES IDX 30 29 21 30 29 31 31 32 22 33 27 34 23 35 26 36 24 37 13 38
REMARK SMILES IDX 20 39 14 40 18 41 15 42 16 43 19 44 17 46 28 48 25 50 33 52
REMARK H PARENT 43 17 41 19 39 21 37 23 35 25 19 45 17 47 28 49 25 51 33 53
REMARK Flexibility Score: inf
ROOT
ATOM      1  C   UNL     1      -5.324 -27.550  51.033  1.00  0.00     0.180 C 
ATOM      2  C   UNL     1      -4.343 -28.091  52.082  1.00  0.00     0.177 C 
ATOM      3  C   UNL     1      -4.018 -29.523  51.468  1.00  0.00     0.180 C 
ATOM      4  C   UNL     1      -5.472 -30.264  51.380  1.00  0.00     0.214 C 
ATOM      5  C   UNL     1      -6.667 -29.337  50.979  1.00  0.00     0.339 C 
ATOM      6  O   UNL     1      -6.496 -28.076  51.553  1.00  0.00    -0.332 OA
ENDROOT
BRANCH   1   7
ATOM      7  C   UNL     1      -5.063 -27.313  49.377  1.00  0.00     0.198 C 
BRANCH   7   8
ATOM      8  O   UNL     1      -3.708 -26.927  48.773  1.00  0.00    -0.347 OA
BRANCH   8   9
ATOM      9  C   UNL     1      -2.868 -27.920  47.980  1.00  0.00     0.281 C 
ATOM     10  C   UNL     1      -0.075 -27.658  48.586  1.00  0.00     0.041 C 
ATOM     11  C   UNL     1      -0.735 -29.062  48.527  1.00  0.00     0.150 C 
ATOM     12  C   UNL     1      -0.461 -29.621  47.066  1.00  0.00     0.174 C 
ATOM     13  O   UNL     1      -2.175 -28.966  48.803  1.00  0.00    -0.344 OA
ATOM     14  C   UNL     1      -1.333 -28.934  45.945  1.00  0.00     0.179 C 
ATOM     15  C   UNL     1      -2.796 -28.313  46.449  1.00  0.00     0.202 C 
BRANCH  12  16
ATOM     16  O   UNL     1      -0.683 -31.039  47.118  1.00  0.00    -0.388 OA
ATOM     17  H   UNL     1       0.033 -31.567  47.619  1.00  0.00     0.211 HD
ENDBRANCH  12  16
BRANCH  14  18
ATOM     18  O   UNL     1      -0.574 -28.267  44.944  1.00  0.00    -0.387 OA
ATOM     19  H   UNL     1       0.358 -27.875  45.204  1.00  0.00     0.211 HD
ENDBRANCH  14  18
BRANCH  15  20
ATOM     20  O   UNL     1      -3.344 -27.351  45.585  1.00  0.00    -0.385 OA
ATOM     21  H   UNL     1      -2.580 -27.204  44.889  1.00  0.00     0.211 HD
ENDBRANCH  15  20
ENDBRANCH   8   9
ENDBRANCH   7   8
ENDBRANCH   1   7
BRANCH   2  22
ATOM     22  O   UNL     1      -3.866 -26.875  52.662  1.00  0.00    -0.387 OA
ATOM     23  H   UNL     1      -2.849 -26.876  52.509  1.00  0.00     0.211 HD
ENDBRANCH   2  22
BRANCH   3  24
ATOM     24  O   UNL     1      -3.090 -30.272  52.260  1.00  0.00    -0.387 OA
ATOM     25  H   UNL     1      -2.676 -29.533  52.832  1.00  0.00     0.211 HD
ENDBRANCH   3  24
BRANCH   5  26
ATOM     26  O   UNL     1      -7.196 -29.074  49.681  1.00  0.00    -0.454 OA
BRANCH  26  27
ATOM     27  C   UNL     1      -8.266 -29.972  49.142  1.00  0.00     0.214 A 
ATOM     28  C   UNL     1      -7.970 -30.849  48.065  1.00  0.00     0.180 A 
ATOM     29  C   UNL     1      -9.601 -30.009  49.744  1.00  0.00     0.239 A 
ATOM     30  O   UNL     1      -8.932 -31.752  47.912  1.00  0.00    -0.452 OA
ATOM     31  C   UNL     1     -10.506 -31.077  49.499  1.00  0.00     0.111 A 
ATOM     32  O   UNL     1      -9.997 -29.084  50.496  1.00  0.00    -0.285 OA
ATOM     33  C   UNL     1     -10.011 -32.062  48.681  1.00  0.00     0.146 A 
ATOM     34  C   UNL     1     -11.799 -31.326  50.082  1.00  0.00     0.134 A 
ATOM     35  C   UNL     1     -10.360 -33.337  48.792  1.00  0.00     0.094 A 
ATOM     36  C   UNL     1     -12.327 -32.642  50.129  1.00  0.00     0.093 A 
ATOM     37  C   UNL     1     -11.591 -33.646  49.412  1.00  0.00     0.123 A 
BRANCH  28  38
ATOM     38  C   UNL     1      -6.696 -31.170  47.371  1.00  0.00     0.025 A 
ATOM     39  C   UNL     1      -6.817 -31.681  46.048  1.00  0.00     0.062 A 
ATOM     40  C   UNL     1      -5.965 -29.911  47.259  1.00  0.00     0.016 A 
ATOM     41  C   UNL     1      -7.060 -30.930  44.923  1.00  0.00     0.158 A 
ATOM     42  C   UNL     1      -6.447 -28.993  46.345  1.00  0.00     0.051 A 
ATOM     43  C   UNL     1      -7.116 -29.489  45.175  1.00  0.00     0.157 A 
BRANCH  41  44
ATOM     44  O   UNL     1      -7.168 -31.442  43.659  1.00  0.00    -0.504 OA
ATOM     45  H   UNL     1      -7.293 -32.516  43.453  1.00  0.00     0.293 HD
ENDBRANCH  41  44
BRANCH  43  46
ATOM     46  O   UNL     1      -7.662 -28.682  44.140  1.00  0.00    -0.504 OA
ATOM     47  H   UNL     1      -8.410 -29.055  43.561  1.00  0.00     0.293 HD
ENDBRANCH  43  46
ENDBRANCH  28  38
BRANCH  34  48
ATOM     48  O   UNL     1     -12.580 -30.243  50.531  1.00  0.00    -0.507 OA
ATOM     49  H   UNL     1     -13.568 -30.328  50.855  1.00  0.00     0.293 HD
ENDBRANCH  34  48
BRANCH  37  50
ATOM     50  O   UNL     1     -12.071 -34.985  49.435  1.00  0.00    -0.508 OA
ATOM     51  H   UNL     1     -12.747 -35.294  48.759  1.00  0.00     0.293 HD
ENDBRANCH  37  50
ENDBRANCH  26  27
ENDBRANCH   5  26
BRANCH   4  52
ATOM     52  O   UNL     1      -5.401 -31.382  50.495  1.00  0.00    -0.384 OA
ATOM     53  H   UNL     1      -5.513 -32.195  51.104  1.00  0.00     0.211 HD
ENDBRANCH   4  52
TORSDOF 16
ENDMDL
