MODEL 1
REMARK VINA RESULT:    -5.083      0.000      0.000
REMARK INTER + INTRA:         -14.598
REMARK INTER:                 -11.025
REMARK INTRA:                  -3.573
REMARK UNBOUND:                -3.573
REMARK SMILES CCCCCCCCCCCCCCCCCCCCCC(=O)[O-]
REMARK SMILES IDX 12 1 11 2 10 3 9 4 8 5 7 6 6 7 5 8 4 9 3 10 2 11 1 12 13 13
REMARK SMILES IDX 14 14 15 15 16 16 17 17 18 18 19 19 20 20 21 21 22 22 23 23
REMARK SMILES IDX 24 24
REMARK H PARENT
REMARK Flexibility Score: inf
ROOT
ATOM      1  C   UNL     1      19.782  -1.975 -37.851  1.00  0.00     0.000 C 
ENDROOT
BRANCH   1   2
ATOM      2  C   UNL     1      19.462  -3.137 -38.808  1.00  0.00     0.000 C 
BRANCH   2   3
ATOM      3  C   UNL     1      20.022  -2.912 -40.225  1.00  0.00     0.000 C 
BRANCH   3   4
ATOM      4  C   UNL     1      20.910  -4.053 -40.763  1.00  0.00    -0.000 C 
BRANCH   4   5
ATOM      5  C   UNL     1      21.660  -4.861 -39.687  1.00  0.00    -0.000 C 
BRANCH   5   6
ATOM      6  C   UNL     1      23.197  -4.794 -39.782  1.00  0.00    -0.000 C 
BRANCH   6   7
ATOM      7  C   UNL     1      23.772  -3.385 -39.522  1.00  0.00    -0.000 C 
BRANCH   7   8
ATOM      8  C   UNL     1      25.165  -3.429 -38.877  1.00  0.00    -0.000 C 
BRANCH   8   9
ATOM      9  C   UNL     1      25.684  -4.868 -38.779  1.00  0.00    -0.000 C 
BRANCH   9  10
ATOM     10  C   UNL     1      26.908  -4.949 -37.855  1.00  0.00    -0.000 C 
BRANCH  10  11
ATOM     11  C   UNL     1      27.832  -3.729 -37.989  1.00  0.00    -0.003 C 
ATOM     12  C   UNL     1      29.117  -4.041 -38.758  1.00  0.00     0.004 C 
ENDBRANCH  10  11
ENDBRANCH   9  10
ENDBRANCH   8   9
ENDBRANCH   7   8
ENDBRANCH   6   7
ENDBRANCH   5   6
ENDBRANCH   4   5
ENDBRANCH   3   4
ENDBRANCH   2   3
ENDBRANCH   1   2
BRANCH   1  13
ATOM     13  C   UNL     1      21.196  -2.070 -37.256  1.00  0.00     0.000 C 
BRANCH  13  14
ATOM     14  C   UNL     1      21.193  -2.021 -35.717  1.00  0.00     0.000 C 
BRANCH  14  15
ATOM     15  C   UNL     1      21.611  -3.359 -35.085  1.00  0.00     0.000 C 
BRANCH  15  16
ATOM     16  C   UNL     1      22.021  -4.406 -36.136  1.00  0.00     0.000 C 
BRANCH  16  17
ATOM     17  C   UNL     1      23.478  -4.866 -35.972  1.00  0.00     0.000 C 
BRANCH  17  18
ATOM     18  C   UNL     1      23.668  -6.358 -36.282  1.00  0.00     0.000 C 
BRANCH  18  19
ATOM     19  C   UNL     1      22.375  -6.970 -36.839  1.00  0.00     0.000 C 
BRANCH  19  20
ATOM     20  C   UNL     1      22.635  -8.058 -37.899  1.00  0.00     0.006 C 
BRANCH  20  21
ATOM     21  C   UNL     1      24.114  -8.441 -38.062  1.00  0.00     0.053 C 
BRANCH  21  22
ATOM     22  C   UNL     1      24.476  -8.689 -39.494  1.00  0.00     0.041 C 
ATOM     23  O   UNL     1      23.733  -9.399 -40.222  1.00  0.00    -0.550 OA
ATOM     24  O   UNL     1      25.652  -8.164 -40.017  1.00  0.00    -0.550 OA
ENDBRANCH  21  22
ENDBRANCH  20  21
ENDBRANCH  19  20
ENDBRANCH  18  19
ENDBRANCH  17  18
ENDBRANCH  16  17
ENDBRANCH  15  16
ENDBRANCH  14  15
ENDBRANCH  13  14
ENDBRANCH   1  13
TORSDOF 20
ENDMDL
MODEL 2
REMARK VINA RESULT:    -4.957      1.364      4.308
REMARK INTER + INTRA:         -14.325
REMARK INTER:                 -10.768
REMARK INTRA:                  -3.558
REMARK UNBOUND:                -3.573
REMARK SMILES CCCCCCCCCCCCCCCCCCCCCC(=O)[O-]
REMARK SMILES IDX 12 1 11 2 10 3 9 4 8 5 7 6 6 7 5 8 4 9 3 10 2 11 1 12 13 13
REMARK SMILES IDX 14 14 15 15 16 16 17 17 18 18 19 19 20 20 21 21 22 22 23 23
REMARK SMILES IDX 24 24
REMARK H PARENT
REMARK Flexibility Score: inf
ROOT
ATOM      1  C   UNL     1      23.382  -4.778 -40.174  1.00  0.00     0.000 C 
ENDROOT
BRANCH   1   2
ATOM      2  C   UNL     1      23.995  -3.445 -39.709  1.00  0.00     0.000 C 
BRANCH   2   3
ATOM      3  C   UNL     1      25.145  -3.636 -38.704  1.00  0.00     0.000 C 
BRANCH   3   4
ATOM      4  C   UNL     1      26.286  -2.603 -38.815  1.00  0.00    -0.000 C 
BRANCH   4   5
ATOM      5  C   UNL     1      27.701  -3.164 -38.581  1.00  0.00    -0.000 C 
BRANCH   5   6
ATOM      6  C   UNL     1      27.782  -4.305 -37.548  1.00  0.00    -0.000 C 
BRANCH   6   7
ATOM      7  C   UNL     1      27.877  -5.708 -38.182  1.00  0.00    -0.000 C 
BRANCH   7   8
ATOM      8  C   UNL     1      27.392  -6.816 -37.235  1.00  0.00    -0.000 C 
BRANCH   8   9
ATOM      9  C   UNL     1      26.113  -7.474 -37.765  1.00  0.00    -0.000 C 
BRANCH   9  10
ATOM     10  C   UNL     1      25.946  -7.219 -39.271  1.00  0.00    -0.000 C 
BRANCH  10  11
ATOM     11  C   UNL     1      25.146  -8.327 -39.972  1.00  0.00    -0.003 C 
ATOM     12  C   UNL     1      25.228  -9.669 -39.242  1.00  0.00     0.004 C 
ENDBRANCH  10  11
ENDBRANCH   9  10
ENDBRANCH   8   9
ENDBRANCH   7   8
ENDBRANCH   6   7
ENDBRANCH   5   6
ENDBRANCH   4   5
ENDBRANCH   3   4
ENDBRANCH   2   3
ENDBRANCH   1   2
BRANCH   1  13
ATOM     13  C   UNL     1      21.848  -4.729 -40.255  1.00  0.00     0.000 C 
BRANCH  13  14
ATOM     14  C   UNL     1      21.278  -3.364 -39.829  1.00  0.00     0.000 C 
BRANCH  14  15
ATOM     15  C   UNL     1      20.317  -3.475 -38.634  1.00  0.00     0.000 C 
BRANCH  15  16
ATOM     16  C   UNL     1      20.615  -2.434 -37.539  1.00  0.00     0.000 C 
BRANCH  16  17
ATOM     17  C   UNL     1      21.905  -2.747 -36.764  1.00  0.00     0.000 C 
BRANCH  17  18
ATOM     18  C   UNL     1      21.823  -4.065 -35.980  1.00  0.00     0.000 C 
BRANCH  18  19
ATOM     19  C   UNL     1      23.204  -4.729 -35.881  1.00  0.00     0.000 C 
BRANCH  19  20
ATOM     20  C   UNL     1      23.306  -6.024 -36.710  1.00  0.00     0.006 C 
BRANCH  20  21
ATOM     21  C   UNL     1      21.977  -6.488 -37.325  1.00  0.00     0.053 C 
BRANCH  21  22
ATOM     22  C   UNL     1      22.114  -7.797 -38.039  1.00  0.00     0.041 C 
ATOM     23  O   UNL     1      22.506  -8.820 -37.417  1.00  0.00    -0.550 OA
ATOM     24  O   UNL     1      21.842  -7.882 -39.399  1.00  0.00    -0.550 OA
ENDBRANCH  21  22
ENDBRANCH  20  21
ENDBRANCH  19  20
ENDBRANCH  18  19
ENDBRANCH  17  18
ENDBRANCH  16  17
ENDBRANCH  15  16
ENDBRANCH  14  15
ENDBRANCH  13  14
ENDBRANCH   1  13
TORSDOF 20
ENDMDL
MODEL 3
REMARK VINA RESULT:    -4.941      1.008      4.268
REMARK INTER + INTRA:         -14.292
REMARK INTER:                 -11.187
REMARK INTRA:                  -3.104
REMARK UNBOUND:                -3.573
REMARK SMILES CCCCCCCCCCCCCCCCCCCCCC(=O)[O-]
REMARK SMILES IDX 12 1 11 2 10 3 9 4 8 5 7 6 6 7 5 8 4 9 3 10 2 11 1 12 13 13
REMARK SMILES IDX 14 14 15 15 16 16 17 17 18 18 19 19 20 20 21 21 22 22 23 23
REMARK SMILES IDX 24 24
REMARK H PARENT
REMARK Flexibility Score: inf
ROOT
ATOM      1  C   UNL     1      22.210  -4.727 -39.632  1.00  0.00     0.000 C 
ENDROOT
BRANCH   1   2
ATOM      2  C   UNL     1      21.444  -3.412 -39.864  1.00  0.00     0.000 C 
BRANCH   2   3
ATOM      3  C   UNL     1      20.077  -3.386 -39.157  1.00  0.00     0.000 C 
BRANCH   3   4
ATOM      4  C   UNL     1      19.887  -2.235 -38.148  1.00  0.00    -0.000 C 
BRANCH   4   5
ATOM      5  C   UNL     1      21.135  -1.884 -37.315  1.00  0.00    -0.000 C 
BRANCH   5   6
ATOM      6  C   UNL     1      20.950  -2.005 -35.790  1.00  0.00    -0.000 C 
BRANCH   6   7
ATOM      7  C   UNL     1      21.633  -3.247 -35.180  1.00  0.00    -0.000 C 
BRANCH   7   8
ATOM      8  C   UNL     1      22.189  -4.197 -36.250  1.00  0.00    -0.000 C 
BRANCH   8   9
ATOM      9  C   UNL     1      23.410  -4.963 -35.727  1.00  0.00    -0.000 C 
BRANCH   9  10
ATOM     10  C   UNL     1      23.501  -6.356 -36.369  1.00  0.00    -0.000 C 
BRANCH  10  11
ATOM     11  C   UNL     1      22.145  -6.855 -36.891  1.00  0.00    -0.003 C 
ATOM     12  C   UNL     1      22.242  -8.212 -37.590  1.00  0.00     0.004 C 
ENDBRANCH  10  11
ENDBRANCH   9  10
ENDBRANCH   8   9
ENDBRANCH   7   8
ENDBRANCH   6   7
ENDBRANCH   5   6
ENDBRANCH   4   5
ENDBRANCH   3   4
ENDBRANCH   2   3
ENDBRANCH   1   2
BRANCH   1  13
ATOM     13  C   UNL     1      23.731  -4.559 -39.774  1.00  0.00     0.000 C 
BRANCH  13  14
ATOM     14  C   UNL     1      24.176  -3.089 -39.666  1.00  0.00     0.000 C 
BRANCH  14  15
ATOM     15  C   UNL     1      25.397  -2.909 -38.749  1.00  0.00     0.000 C 
BRANCH  15  16
ATOM     16  C   UNL     1      25.834  -4.227 -38.083  1.00  0.00     0.000 C 
BRANCH  16  17
ATOM     17  C   UNL     1      27.362  -4.389 -38.044  1.00  0.00     0.000 C 
BRANCH  17  18
ATOM     18  C   UNL     1      27.799  -5.838 -37.785  1.00  0.00     0.000 C 
BRANCH  18  19
ATOM     19  C   UNL     1      26.598  -6.792 -37.852  1.00  0.00     0.000 C 
BRANCH  19  20
ATOM     20  C   UNL     1      26.411  -7.423 -39.245  1.00  0.00     0.006 C 
BRANCH  20  21
ATOM     21  C   UNL     1      24.980  -7.899 -39.538  1.00  0.00     0.053 C 
BRANCH  21  22
ATOM     22  C   UNL     1      24.868  -9.392 -39.512  1.00  0.00     0.041 C 
ATOM     23  O   UNL     1      25.059 -10.024 -38.439  1.00  0.00    -0.550 OA
ATOM     24  O   UNL     1      24.585 -10.091 -40.679  1.00  0.00    -0.550 OA
ENDBRANCH  21  22
ENDBRANCH  20  21
ENDBRANCH  19  20
ENDBRANCH  18  19
ENDBRANCH  17  18
ENDBRANCH  16  17
ENDBRANCH  15  16
ENDBRANCH  14  15
ENDBRANCH  13  14
ENDBRANCH   1  13
TORSDOF 20
ENDMDL
MODEL 4
REMARK VINA RESULT:    -4.854      2.522      6.221
REMARK INTER + INTRA:         -14.101
REMARK INTER:                 -11.233
REMARK INTRA:                  -2.868
REMARK UNBOUND:                -3.573
REMARK SMILES CCCCCCCCCCCCCCCCCCCCCC(=O)[O-]
REMARK SMILES IDX 12 1 11 2 10 3 9 4 8 5 7 6 6 7 5 8 4 9 3 10 2 11 1 12 13 13
REMARK SMILES IDX 14 14 15 15 16 16 17 17 18 18 19 19 20 20 21 21 22 22 23 23
REMARK SMILES IDX 24 24
REMARK H PARENT
REMARK Flexibility Score: inf
ROOT
ATOM      1  C   UNL     1      25.935  -7.027 -39.314  1.00  0.00     0.000 C 
ENDROOT
BRANCH   1   2
ATOM      2  C   UNL     1      24.599  -7.634 -39.778  1.00  0.00     0.000 C 
BRANCH   2   3
ATOM      3  C   UNL     1      24.192  -8.875 -38.963  1.00  0.00     0.000 C 
BRANCH   3   4
ATOM      4  C   UNL     1      23.039  -8.649 -37.963  1.00  0.00    -0.000 C 
BRANCH   4   5
ATOM      5  C   UNL     1      22.085  -7.492 -38.317  1.00  0.00    -0.000 C 
BRANCH   5   6
ATOM      6  C   UNL     1      21.939  -6.416 -37.223  1.00  0.00    -0.000 C 
BRANCH   6   7
ATOM      7  C   UNL     1      23.246  -6.133 -36.454  1.00  0.00    -0.000 C 
BRANCH   7   8
ATOM      8  C   UNL     1      23.276  -4.725 -35.842  1.00  0.00    -0.000 C 
BRANCH   8   9
ATOM      9  C   UNL     1      21.861  -4.144 -35.725  1.00  0.00    -0.000 C 
BRANCH   9  10
ATOM     10  C   UNL     1      21.879  -2.617 -35.890  1.00  0.00    -0.000 C 
BRANCH  10  11
ATOM     11  C   UNL     1      21.033  -1.898 -34.829  1.00  0.00    -0.003 C 
ATOM     12  C   UNL     1      21.156  -2.534 -33.443  1.00  0.00     0.004 C 
ENDBRANCH  10  11
ENDBRANCH   9  10
ENDBRANCH   8   9
ENDBRANCH   7   8
ENDBRANCH   6   7
ENDBRANCH   5   6
ENDBRANCH   4   5
ENDBRANCH   3   4
ENDBRANCH   2   3
ENDBRANCH   1   2
BRANCH   1  13
ATOM     13  C   UNL     1      26.275  -7.387 -37.859  1.00  0.00     0.000 C 
BRANCH  13  14
ATOM     14  C   UNL     1      27.272  -6.400 -37.225  1.00  0.00     0.000 C 
BRANCH  14  15
ATOM     15  C   UNL     1      27.369  -5.078 -38.006  1.00  0.00     0.000 C 
BRANCH  15  16
ATOM     16  C   UNL     1      26.118  -4.198 -37.832  1.00  0.00     0.000 C 
BRANCH  16  17
ATOM     17  C   UNL     1      26.128  -2.972 -38.759  1.00  0.00     0.000 C 
BRANCH  17  18
ATOM     18  C   UNL     1      24.716  -2.508 -39.146  1.00  0.00     0.000 C 
BRANCH  18  19
ATOM     19  C   UNL     1      23.940  -3.638 -39.840  1.00  0.00     0.000 C 
BRANCH  19  20
ATOM     20  C   UNL     1      22.529  -3.841 -39.255  1.00  0.00     0.006 C 
BRANCH  20  21
ATOM     21  C   UNL     1      21.438  -4.090 -40.308  1.00  0.00     0.053 C 
BRANCH  21  22
ATOM     22  C   UNL     1      20.208  -3.277 -40.045  1.00  0.00     0.041 C 
ATOM     23  O   UNL     1      19.412  -3.009 -40.984  1.00  0.00    -0.550 OA
ATOM     24  O   UNL     1      19.955  -2.787 -38.769  1.00  0.00    -0.550 OA
ENDBRANCH  21  22
ENDBRANCH  20  21
ENDBRANCH  19  20
ENDBRANCH  18  19
ENDBRANCH  17  18
ENDBRANCH  16  17
ENDBRANCH  15  16
ENDBRANCH  14  15
ENDBRANCH  13  14
ENDBRANCH   1  13
TORSDOF 20
ENDMDL
MODEL 5
REMARK VINA RESULT:    -4.816      2.639      5.837
REMARK INTER + INTRA:         -14.020
REMARK INTER:                 -10.548
REMARK INTRA:                  -3.472
REMARK UNBOUND:                -3.573
REMARK SMILES CCCCCCCCCCCCCCCCCCCCCC(=O)[O-]
REMARK SMILES IDX 12 1 11 2 10 3 9 4 8 5 7 6 6 7 5 8 4 9 3 10 2 11 1 12 13 13
REMARK SMILES IDX 14 14 15 15 16 16 17 17 18 18 19 19 20 20 21 21 22 22 23 23
REMARK SMILES IDX 24 24
REMARK H PARENT
REMARK Flexibility Score: inf
ROOT
ATOM      1  C   UNL     1      24.147  -9.482 -38.167  1.00  0.00     0.000 C 
ENDROOT
BRANCH   1   2
ATOM      2  C   UNL     1      25.324  -9.328 -39.146  1.00  0.00     0.000 C 
BRANCH   2   3
ATOM      3  C   UNL     1      25.289  -7.995 -39.915  1.00  0.00     0.000 C 
BRANCH   3   4
ATOM      4  C   UNL     1      26.356  -6.966 -39.486  1.00  0.00    -0.000 C 
BRANCH   4   5
ATOM      5  C   UNL     1      26.846  -7.102 -38.032  1.00  0.00    -0.000 C 
BRANCH   5   6
ATOM      6  C   UNL     1      27.117  -5.766 -37.313  1.00  0.00    -0.000 C 
BRANCH   6   7
ATOM      7  C   UNL     1      28.069  -4.829 -38.086  1.00  0.00    -0.000 C 
BRANCH   7   8
ATOM      8  C   UNL     1      27.430  -3.469 -38.400  1.00  0.00    -0.000 C 
BRANCH   8   9
ATOM      9  C   UNL     1      25.913  -3.507 -38.175  1.00  0.00    -0.000 C 
BRANCH   9  10
ATOM     10  C   UNL     1      25.177  -2.704 -39.259  1.00  0.00    -0.000 C 
BRANCH  10  11
ATOM     11  C   UNL     1      23.747  -3.209 -39.499  1.00  0.00    -0.003 C 
ATOM     12  C   UNL     1      23.704  -4.660 -39.979  1.00  0.00     0.004 C 
ENDBRANCH  10  11
ENDBRANCH   9  10
ENDBRANCH   8   9
ENDBRANCH   7   8
ENDBRANCH   6   7
ENDBRANCH   5   6
ENDBRANCH   4   5
ENDBRANCH   3   4
ENDBRANCH   2   3
ENDBRANCH   1   2
BRANCH   1  13
ATOM     13  C   UNL     1      22.986  -8.524 -38.480  1.00  0.00     0.000 C 
BRANCH  13  14
ATOM     14  C   UNL     1      22.361  -7.919 -37.210  1.00  0.00     0.000 C 
BRANCH  14  15
ATOM     15  C   UNL     1      22.312  -6.382 -37.252  1.00  0.00     0.000 C 
BRANCH  15  16
ATOM     16  C   UNL     1      23.448  -5.734 -36.440  1.00  0.00     0.000 C 
BRANCH  16  17
ATOM     17  C   UNL     1      23.102  -4.310 -35.976  1.00  0.00     0.000 C 
BRANCH  17  18
ATOM     18  C   UNL     1      21.601  -3.999 -36.079  1.00  0.00     0.000 C 
BRANCH  18  19
ATOM     19  C   UNL     1      21.361  -2.485 -36.162  1.00  0.00     0.000 C 
BRANCH  19  20
ATOM     20  C   UNL     1      20.867  -2.032 -37.550  1.00  0.00     0.006 C 
BRANCH  20  21
ATOM     21  C   UNL     1      20.326  -3.169 -38.431  1.00  0.00     0.053 C 
BRANCH  21  22
ATOM     22  C   UNL     1      19.384  -2.667 -39.481  1.00  0.00     0.041 C 
ATOM     23  O   UNL     1      18.424  -1.915 -39.164  1.00  0.00    -0.550 OA
ATOM     24  O   UNL     1      19.545  -3.055 -40.805  1.00  0.00    -0.550 OA
ENDBRANCH  21  22
ENDBRANCH  20  21
ENDBRANCH  19  20
ENDBRANCH  18  19
ENDBRANCH  17  18
ENDBRANCH  16  17
ENDBRANCH  15  16
ENDBRANCH  14  15
ENDBRANCH  13  14
ENDBRANCH   1  13
TORSDOF 20
ENDMDL
MODEL 6
REMARK VINA RESULT:    -4.806      2.828      6.366
REMARK INTER + INTRA:         -13.998
REMARK INTER:                 -10.791
REMARK INTRA:                  -3.207
REMARK UNBOUND:                -3.573
REMARK SMILES CCCCCCCCCCCCCCCCCCCCCC(=O)[O-]
REMARK SMILES IDX 12 1 11 2 10 3 9 4 8 5 7 6 6 7 5 8 4 9 3 10 2 11 1 12 13 13
REMARK SMILES IDX 14 14 15 15 16 16 17 17 18 18 19 19 20 20 21 21 22 22 23 23
REMARK SMILES IDX 24 24
REMARK H PARENT
REMARK Flexibility Score: inf
ROOT
ATOM      1  C   UNL     1      25.842  -7.306 -39.055  1.00  0.00     0.000 C 
ENDROOT
BRANCH   1   2
ATOM      2  C   UNL     1      26.147  -7.217 -37.549  1.00  0.00     0.000 C 
BRANCH   2   3
ATOM      3  C   UNL     1      27.448  -6.450 -37.249  1.00  0.00     0.000 C 
BRANCH   3   4
ATOM      4  C   UNL     1      28.015  -5.639 -38.432  1.00  0.00    -0.000 C 
BRANCH   4   5
ATOM      5  C   UNL     1      28.387  -4.180 -38.106  1.00  0.00    -0.000 C 
BRANCH   5   6
ATOM      6  C   UNL     1      27.281  -3.148 -38.399  1.00  0.00    -0.000 C 
BRANCH   6   7
ATOM      7  C   UNL     1      25.860  -3.750 -38.411  1.00  0.00    -0.000 C 
BRANCH   7   8
ATOM      8  C   UNL     1      24.878  -2.923 -39.254  1.00  0.00    -0.000 C 
BRANCH   8   9
ATOM      9  C   UNL     1      23.895  -2.155 -38.363  1.00  0.00    -0.000 C 
BRANCH   9  10
ATOM     10  C   UNL     1      23.692  -2.876 -37.021  1.00  0.00    -0.000 C 
BRANCH  10  11
ATOM     11  C   UNL     1      22.580  -2.241 -36.173  1.00  0.00    -0.003 C 
ATOM     12  C   UNL     1      21.680  -3.280 -35.503  1.00  0.00     0.004 C 
ENDBRANCH  10  11
ENDBRANCH   9  10
ENDBRANCH   8   9
ENDBRANCH   7   8
ENDBRANCH   6   7
ENDBRANCH   5   6
ENDBRANCH   4   5
ENDBRANCH   3   4
ENDBRANCH   2   3
ENDBRANCH   1   2
BRANCH   1  13
ATOM     13  C   UNL     1      25.282  -8.677 -39.466  1.00  0.00     0.000 C 
BRANCH  13  14
ATOM     14  C   UNL     1      24.275  -9.234 -38.443  1.00  0.00     0.000 C 
BRANCH  14  15
ATOM     15  C   UNL     1      22.888  -8.582 -38.567  1.00  0.00     0.000 C 
BRANCH  15  16
ATOM     16  C   UNL     1      22.499  -7.779 -37.313  1.00  0.00     0.000 C 
BRANCH  16  17
ATOM     17  C   UNL     1      22.278  -6.287 -37.614  1.00  0.00     0.000 C 
BRANCH  17  18
ATOM     18  C   UNL     1      22.749  -5.888 -39.020  1.00  0.00     0.000 C 
BRANCH  18  19
ATOM     19  C   UNL     1      21.655  -5.106 -39.761  1.00  0.00     0.000 C 
BRANCH  19  20
ATOM     20  C   UNL     1      20.731  -4.321 -38.809  1.00  0.00     0.006 C 
BRANCH  20  21
ATOM     21  C   UNL     1      20.576  -2.834 -39.162  1.00  0.00     0.053 C 
BRANCH  21  22
ATOM     22  C   UNL     1      19.226  -2.530 -39.737  1.00  0.00     0.041 C 
ATOM     23  O   UNL     1      19.037  -2.598 -40.981  1.00  0.00    -0.550 OA
ATOM     24  O   UNL     1      18.185  -2.140 -38.904  1.00  0.00    -0.550 OA
ENDBRANCH  21  22
ENDBRANCH  20  21
ENDBRANCH  19  20
ENDBRANCH  18  19
ENDBRANCH  17  18
ENDBRANCH  16  17
ENDBRANCH  15  16
ENDBRANCH  14  15
ENDBRANCH  13  14
ENDBRANCH   1  13
TORSDOF 20
ENDMDL
MODEL 7
REMARK VINA RESULT:    -4.620      1.129      5.410
REMARK INTER + INTRA:         -13.595
REMARK INTER:                 -10.780
REMARK INTRA:                  -2.815
REMARK UNBOUND:                -3.573
REMARK SMILES CCCCCCCCCCCCCCCCCCCCCC(=O)[O-]
REMARK SMILES IDX 12 1 11 2 10 3 9 4 8 5 7 6 6 7 5 8 4 9 3 10 2 11 1 12 13 13
REMARK SMILES IDX 14 14 15 15 16 16 17 17 18 18 19 19 20 20 21 21 22 22 23 23
REMARK SMILES IDX 24 24
REMARK H PARENT
REMARK Flexibility Score: inf
ROOT
ATOM      1  C   UNL     1      27.023  -5.416 -37.646  1.00  0.00     0.000 C 
ENDROOT
BRANCH   1   2
ATOM      2  C   UNL     1      25.714  -6.215 -37.766  1.00  0.00     0.000 C 
BRANCH   2   3
ATOM      3  C   UNL     1      25.202  -6.728 -36.408  1.00  0.00     0.000 C 
BRANCH   3   4
ATOM      4  C   UNL     1      23.729  -6.389 -36.096  1.00  0.00    -0.000 C 
BRANCH   4   5
ATOM      5  C   UNL     1      23.421  -4.886 -35.955  1.00  0.00    -0.000 C 
BRANCH   5   6
ATOM      6  C   UNL     1      22.036  -4.457 -36.479  1.00  0.00    -0.000 C 
BRANCH   6   7
ATOM      7  C   UNL     1      21.632  -3.027 -36.063  1.00  0.00    -0.000 C 
BRANCH   7   8
ATOM      8  C   UNL     1      20.952  -2.254 -37.202  1.00  0.00    -0.000 C 
BRANCH   8   9
ATOM      9  C   UNL     1      20.468  -3.204 -38.303  1.00  0.00    -0.000 C 
BRANCH   9  10
ATOM     10  C   UNL     1      19.076  -2.795 -38.810  1.00  0.00    -0.000 C 
BRANCH  10  11
ATOM     11  C   UNL     1      19.068  -2.468 -40.311  1.00  0.00    -0.003 C 
ATOM     12  C   UNL     1      19.923  -3.434 -41.133  1.00  0.00     0.004 C 
ENDBRANCH  10  11
ENDBRANCH   9  10
ENDBRANCH   8   9
ENDBRANCH   7   8
ENDBRANCH   6   7
ENDBRANCH   5   6
ENDBRANCH   4   5
ENDBRANCH   3   4
ENDBRANCH   2   3
ENDBRANCH   1   2
BRANCH   1  13
ATOM     13  C   UNL     1      26.908  -3.998 -38.229  1.00  0.00     0.000 C 
BRANCH  13  14
ATOM     14  C   UNL     1      25.480  -3.432 -38.124  1.00  0.00     0.000 C 
BRANCH  14  15
ATOM     15  C   UNL     1      24.930  -2.969 -39.483  1.00  0.00     0.000 C 
BRANCH  15  16
ATOM     16  C   UNL     1      23.607  -3.665 -39.852  1.00  0.00     0.000 C 
BRANCH  16  17
ATOM     17  C   UNL     1      23.629  -5.171 -39.544  1.00  0.00     0.000 C 
BRANCH  17  18
ATOM     18  C   UNL     1      22.550  -5.950 -40.310  1.00  0.00     0.000 C 
BRANCH  18  19
ATOM     19  C   UNL     1      21.802  -6.911 -39.374  1.00  0.00     0.000 C 
BRANCH  19  20
ATOM     20  C   UNL     1      22.667  -8.104 -38.925  1.00  0.00     0.006 C 
BRANCH  20  21
ATOM     21  C   UNL     1      23.317  -8.884 -40.078  1.00  0.00     0.053 C 
BRANCH  21  22
ATOM     22  C   UNL     1      24.793  -9.048 -39.885  1.00  0.00     0.041 C 
ATOM     23  O   UNL     1      25.257 -10.125 -39.426  1.00  0.00    -0.550 OA
ATOM     24  O   UNL     1      25.655  -7.999 -40.182  1.00  0.00    -0.550 OA
ENDBRANCH  21  22
ENDBRANCH  20  21
ENDBRANCH  19  20
ENDBRANCH  18  19
ENDBRANCH  17  18
ENDBRANCH  16  17
ENDBRANCH  15  16
ENDBRANCH  14  15
ENDBRANCH  13  14
ENDBRANCH   1  13
TORSDOF 20
ENDMDL
MODEL 8
REMARK VINA RESULT:    -4.612      1.395      4.765
REMARK INTER + INTRA:         -13.576
REMARK INTER:                 -10.416
REMARK INTRA:                  -3.160
REMARK UNBOUND:                -3.573
REMARK SMILES CCCCCCCCCCCCCCCCCCCCCC(=O)[O-]
REMARK SMILES IDX 12 1 11 2 10 3 9 4 8 5 7 6 6 7 5 8 4 9 3 10 2 11 1 12 13 13
REMARK SMILES IDX 14 14 15 15 16 16 17 17 18 18 19 19 20 20 21 21 22 22 23 23
REMARK SMILES IDX 24 24
REMARK H PARENT
REMARK Flexibility Score: inf
ROOT
ATOM      1  C   UNL     1      20.971  -1.876 -37.589  1.00  0.00     0.000 C 
ENDROOT
BRANCH   1   2
ATOM      2  C   UNL     1      20.836  -2.146 -36.080  1.00  0.00     0.000 C 
BRANCH   2   3
ATOM      3  C   UNL     1      22.007  -2.971 -35.515  1.00  0.00     0.000 C 
BRANCH   3   4
ATOM      4  C   UNL     1      22.093  -4.421 -36.035  1.00  0.00    -0.000 C 
BRANCH   4   5
ATOM      5  C   UNL     1      23.473  -5.089 -35.883  1.00  0.00    -0.000 C 
BRANCH   5   6
ATOM      6  C   UNL     1      23.577  -6.504 -36.485  1.00  0.00    -0.000 C 
BRANCH   6   7
ATOM      7  C   UNL     1      22.241  -7.040 -37.040  1.00  0.00    -0.000 C 
BRANCH   7   8
ATOM      8  C   UNL     1      22.424  -8.297 -37.903  1.00  0.00    -0.000 C 
BRANCH   8   9
ATOM      9  C   UNL     1      22.750  -7.928 -39.355  1.00  0.00    -0.000 C 
BRANCH   9  10
ATOM     10  C   UNL     1      23.521  -9.061 -40.050  1.00  0.00    -0.000 C 
BRANCH  10  11
ATOM     11  C   UNL     1      24.837  -9.403 -39.337  1.00  0.00    -0.003 C 
ATOM     12  C   UNL     1      25.428 -10.738 -39.793  1.00  0.00     0.004 C 
ENDBRANCH  10  11
ENDBRANCH   9  10
ENDBRANCH   8   9
ENDBRANCH   7   8
ENDBRANCH   6   7
ENDBRANCH   5   6
ENDBRANCH   4   5
ENDBRANCH   3   4
ENDBRANCH   2   3
ENDBRANCH   1   2
BRANCH   1  13
ATOM     13  C   UNL     1      19.703  -2.249 -38.373  1.00  0.00     0.000 C 
BRANCH  13  14
ATOM     14  C   UNL     1      20.000  -3.170 -39.571  1.00  0.00     0.000 C 
BRANCH  14  15
ATOM     15  C   UNL     1      20.974  -4.305 -39.213  1.00  0.00     0.000 C 
BRANCH  15  16
ATOM     16  C   UNL     1      22.078  -4.490 -40.270  1.00  0.00     0.000 C 
BRANCH  16  17
ATOM     17  C   UNL     1      23.490  -4.399 -39.669  1.00  0.00     0.000 C 
BRANCH  17  18
ATOM     18  C   UNL     1      23.846  -2.980 -39.202  1.00  0.00     0.000 C 
BRANCH  18  19
ATOM     19  C   UNL     1      25.202  -2.966 -38.480  1.00  0.00     0.000 C 
BRANCH  19  20
ATOM     20  C   UNL     1      25.770  -4.380 -38.249  1.00  0.00     0.006 C 
BRANCH  20  21
ATOM     21  C   UNL     1      27.305  -4.447 -38.216  1.00  0.00     0.053 C 
BRANCH  21  22
ATOM     22  C   UNL     1      27.800  -5.810 -37.841  1.00  0.00     0.041 C 
ATOM     23  O   UNL     1      28.938  -5.950 -37.318  1.00  0.00    -0.550 OA
ATOM     24  O   UNL     1      27.020  -6.931 -38.099  1.00  0.00    -0.550 OA
ENDBRANCH  21  22
ENDBRANCH  20  21
ENDBRANCH  19  20
ENDBRANCH  18  19
ENDBRANCH  17  18
ENDBRANCH  16  17
ENDBRANCH  15  16
ENDBRANCH  14  15
ENDBRANCH  13  14
ENDBRANCH   1  13
TORSDOF 20
ENDMDL
