MODEL 1
REMARK VINA RESULT:    -7.551      0.000      0.000
REMARK INTER + INTRA:         -11.582
REMARK INTER:                  -9.980
REMARK INTRA:                  -1.603
REMARK UNBOUND:                -1.603
REMARK SMILES CC[C@H](C=C[C@H](C)[C@H]1CC[C@@H]2[C@H]3CC=C4C[C@@H](O)CC[C@@]4(C)[C@H]3CC[C@@]21C)C(C)C
REMARK SMILES IDX 6 1 7 2 5 3 4 4 3 5 2 6 1 7 28 8 29 9 30 10 8 11 9 12 26 13
REMARK SMILES IDX 10 14 11 15 25 16 27 17 12 18 24 19 23 20 13 21 21 22 14 23
REMARK SMILES IDX 15 24 20 25 22 26 16 27 19 28 17 29 18 30
REMARK H PARENT 18 31
REMARK Flexibility Score: inf
ROOT
ATOM      1  C   UNL     1       0.666  24.971  49.624  1.00  0.00     0.012 C 
ATOM      2  C   UNL     1       0.887  25.701  48.282  1.00  0.00     0.012 C 
ENDROOT
BRANCH   1   3
ATOM      3  C   UNL     1       0.348  25.994  50.703  1.00  0.00    -0.028 C 
ATOM      4  C   UNL     1      -0.123  25.710  51.935  1.00  0.00    -0.027 C 
BRANCH   4   5
ATOM      5  C   UNL     1      -0.498  24.320  52.430  1.00  0.00     0.014 C 
BRANCH   5   6
ATOM      6  C   UNL     1       0.558  23.709  53.402  1.00  0.00     0.004 C 
ATOM      7  C   UNL     1       1.493  22.640  52.821  1.00  0.00     0.004 C 
ENDBRANCH   5   6
BRANCH   5   8
ATOM      8  C   UNL     1      -1.970  24.300  52.950  1.00  0.00    -0.011 C 
ATOM      9  C   UNL     1      -2.389  25.649  53.556  1.00  0.00     0.008 C 
ATOM     10  C   UNL     1      -2.993  23.844  51.901  1.00  0.00     0.008 C 
ENDBRANCH   5   8
ENDBRANCH   4   5
ENDBRANCH   1   3
BRANCH   1  11
ATOM     11  C   UNL     1      -0.447  23.858  49.583  1.00  0.00     0.002 C 
ATOM     12  C   UNL     1      -1.617  24.250  48.672  1.00  0.00     0.005 C 
ATOM     13  C   UNL     1      -0.018  22.404  49.138  1.00  0.00    -0.026 C 
ATOM     14  C   UNL     1      -1.497  23.423  47.400  1.00  0.00     0.005 C 
ATOM     15  C   UNL     1      -0.470  22.299  47.647  1.00  0.00    -0.001 C 
ATOM     16  C   UNL     1      -0.725  21.323  50.028  1.00  0.00     0.007 C 
ATOM     17  C   UNL     1       1.512  22.158  49.272  1.00  0.00     0.012 C 
ATOM     18  C   UNL     1      -1.031  20.910  47.200  1.00  0.00     0.000 C 
ATOM     19  C   UNL     1      -2.135  20.959  49.553  1.00  0.00     0.005 C 
ATOM     20  C   UNL     1      -2.134  20.315  48.141  1.00  0.00     0.003 C 
ATOM     21  C   UNL     1       0.080  19.900  46.928  1.00  0.00     0.031 C 
ATOM     22  C   UNL     1      -2.283  18.715  48.116  1.00  0.00    -0.008 C 
ATOM     23  C   UNL     1      -0.512  18.660  46.342  1.00  0.00    -0.027 C 
ATOM     24  C   UNL     1      -1.607  18.092  46.887  1.00  0.00    -0.065 C 
ATOM     25  C   UNL     1      -1.635  17.978  49.336  1.00  0.00     0.014 C 
ATOM     26  C   UNL     1      -3.809  18.414  48.093  1.00  0.00     0.016 C 
ATOM     27  C   UNL     1      -1.777  16.604  46.684  1.00  0.00     0.063 C 
ATOM     28  C   UNL     1      -1.686  16.431  49.231  1.00  0.00     0.033 C 
ATOM     29  C   UNL     1      -1.150  15.878  47.888  1.00  0.00     0.118 C 
BRANCH  29  30
ATOM     30  O   UNL     1       0.248  16.010  47.834  1.00  0.00    -0.393 OA
ATOM     31  H   UNL     1       0.594  15.780  48.736  1.00  0.00     0.210 HD
ENDBRANCH  29  30
ENDBRANCH   1  11
TORSDOF 6
ENDMDL
MODEL 2
REMARK VINA RESULT:    -6.919      2.511      7.633
REMARK INTER + INTRA:         -10.746
REMARK INTER:                  -9.088
REMARK INTRA:                  -1.659
REMARK UNBOUND:                -1.603
REMARK SMILES CC[C@H](C=C[C@H](C)[C@H]1CC[C@@H]2[C@H]3CC=C4C[C@@H](O)CC[C@@]4(C)[C@H]3CC[C@@]21C)C(C)C
REMARK SMILES IDX 6 1 7 2 5 3 4 4 3 5 2 6 1 7 28 8 29 9 30 10 8 11 9 12 26 13
REMARK SMILES IDX 10 14 11 15 25 16 27 17 12 18 24 19 23 20 13 21 21 22 14 23
REMARK SMILES IDX 15 24 20 25 22 26 16 27 19 28 17 29 18 30
REMARK H PARENT 18 31
REMARK Flexibility Score: inf
ROOT
ATOM      1  C   UNL     1       1.199  20.221  47.342  1.00  0.00     0.012 C 
ATOM      2  C   UNL     1       2.181  20.917  46.378  1.00  0.00     0.012 C 
ENDROOT
BRANCH   1   3
ATOM      3  C   UNL     1       1.494  18.729  47.365  1.00  0.00    -0.028 C 
ATOM      4  C   UNL     1       0.567  17.749  47.349  1.00  0.00    -0.027 C 
BRANCH   4   5
ATOM      5  C   UNL     1      -0.939  17.967  47.391  1.00  0.00     0.014 C 
BRANCH   5   6
ATOM      6  C   UNL     1      -1.741  16.861  46.638  1.00  0.00     0.004 C 
ATOM      7  C   UNL     1      -1.187  16.413  45.279  1.00  0.00     0.004 C 
ENDBRANCH   5   6
BRANCH   5   8
ATOM      8  C   UNL     1      -1.413  18.253  48.851  1.00  0.00    -0.011 C 
ATOM      9  C   UNL     1      -2.742  19.026  48.888  1.00  0.00     0.008 C 
ATOM     10  C   UNL     1      -1.498  17.001  49.732  1.00  0.00     0.008 C 
ENDBRANCH   5   8
ENDBRANCH   4   5
ENDBRANCH   1   3
BRANCH   1  11
ATOM     11  C   UNL     1       1.203  20.799  48.806  1.00  0.00     0.002 C 
ATOM     12  C   UNL     1       2.608  21.229  49.249  1.00  0.00     0.005 C 
ATOM     13  C   UNL     1       0.256  22.026  49.115  1.00  0.00    -0.026 C 
ATOM     14  C   UNL     1       2.646  22.750  49.219  1.00  0.00     0.005 C 
ATOM     15  C   UNL     1       1.199  23.269  49.086  1.00  0.00    -0.001 C 
ATOM     16  C   UNL     1      -0.424  21.857  50.520  1.00  0.00     0.007 C 
ATOM     17  C   UNL     1      -0.895  22.177  48.081  1.00  0.00     0.012 C 
ATOM     18  C   UNL     1       0.896  24.382  50.142  1.00  0.00     0.000 C 
ATOM     19  C   UNL     1       0.441  22.341  51.686  1.00  0.00     0.005 C 
ATOM     20  C   UNL     1       0.734  23.864  51.612  1.00  0.00     0.003 C 
ATOM     21  C   UNL     1      -0.275  25.267  49.727  1.00  0.00     0.031 C 
ATOM     22  C   UNL     1      -0.158  24.783  52.581  1.00  0.00    -0.008 C 
ATOM     23  C   UNL     1      -0.398  26.406  50.686  1.00  0.00    -0.027 C 
ATOM     24  C   UNL     1      -0.353  26.197  52.017  1.00  0.00    -0.065 C 
ATOM     25  C   UNL     1      -1.612  24.255  52.829  1.00  0.00     0.014 C 
ATOM     26  C   UNL     1       0.594  24.852  53.941  1.00  0.00     0.016 C 
ATOM     27  C   UNL     1      -1.076  27.196  52.890  1.00  0.00     0.063 C 
ATOM     28  C   UNL     1      -2.493  25.218  53.669  1.00  0.00     0.033 C 
ATOM     29  C   UNL     1      -2.502  26.674  53.143  1.00  0.00     0.118 C 
BRANCH  29  30
ATOM     30  O   UNL     1      -3.245  26.754  51.952  1.00  0.00    -0.393 OA
ATOM     31  H   UNL     1      -2.837  27.475  51.406  1.00  0.00     0.210 HD
ENDBRANCH  29  30
ENDBRANCH   1  11
TORSDOF 6
ENDMDL
MODEL 3
REMARK VINA RESULT:    -6.919      5.549      8.502
REMARK INTER + INTRA:         -10.746
REMARK INTER:                  -9.405
REMARK INTRA:                  -1.341
REMARK UNBOUND:                -1.603
REMARK SMILES CC[C@H](C=C[C@H](C)[C@H]1CC[C@@H]2[C@H]3CC=C4C[C@@H](O)CC[C@@]4(C)[C@H]3CC[C@@]21C)C(C)C
REMARK SMILES IDX 6 1 7 2 5 3 4 4 3 5 2 6 1 7 28 8 29 9 30 10 8 11 9 12 26 13
REMARK SMILES IDX 10 14 11 15 25 16 27 17 12 18 24 19 23 20 13 21 21 22 14 23
REMARK SMILES IDX 15 24 20 25 22 26 16 27 19 28 17 29 18 30
REMARK H PARENT 18 31
REMARK Flexibility Score: inf
ROOT
ATOM      1  C   UNL     1       0.651  17.694  47.287  1.00  0.00     0.012 C 
ATOM      2  C   UNL     1      -0.023  17.049  46.059  1.00  0.00     0.012 C 
ENDROOT
BRANCH   1   3
ATOM      3  C   UNL     1      -0.084  17.260  48.546  1.00  0.00    -0.028 C 
ATOM      4  C   UNL     1      -1.097  17.932  49.130  1.00  0.00    -0.027 C 
BRANCH   4   5
ATOM      5  C   UNL     1      -1.625  19.287  48.678  1.00  0.00     0.014 C 
BRANCH   5   6
ATOM      6  C   UNL     1      -3.137  19.260  48.296  1.00  0.00     0.004 C 
ATOM      7  C   UNL     1      -3.730  17.894  47.925  1.00  0.00     0.004 C 
ENDBRANCH   5   6
BRANCH   5   8
ATOM      8  C   UNL     1      -1.216  20.403  49.691  1.00  0.00    -0.011 C 
ATOM      9  C   UNL     1       0.156  21.011  49.361  1.00  0.00     0.008 C 
ATOM     10  C   UNL     1      -2.266  21.509  49.852  1.00  0.00     0.008 C 
ENDBRANCH   5   8
ENDBRANCH   4   5
ENDBRANCH   1   3
BRANCH   1  11
ATOM     11  C   UNL     1       2.189  17.388  47.421  1.00  0.00     0.002 C 
ATOM     12  C   UNL     1       2.553  16.013  46.846  1.00  0.00     0.005 C 
ATOM     13  C   UNL     1       3.203  18.412  46.773  1.00  0.00    -0.026 C 
ATOM     14  C   UNL     1       3.261  16.251  45.519  1.00  0.00     0.005 C 
ATOM     15  C   UNL     1       3.630  17.746  45.428  1.00  0.00    -0.001 C 
ATOM     16  C   UNL     1       4.436  18.639  47.716  1.00  0.00     0.007 C 
ATOM     17  C   UNL     1       2.571  19.812  46.524  1.00  0.00     0.012 C 
ATOM     18  C   UNL     1       5.127  17.937  45.016  1.00  0.00     0.000 C 
ATOM     19  C   UNL     1       5.535  17.585  47.559  1.00  0.00     0.005 C 
ATOM     20  C   UNL     1       6.164  17.595  46.140  1.00  0.00     0.003 C 
ATOM     21  C   UNL     1       5.387  19.313  44.411  1.00  0.00     0.031 C 
ATOM     22  C   UNL     1       7.586  18.333  46.023  1.00  0.00    -0.008 C 
ATOM     23  C   UNL     1       6.784  19.364  43.884  1.00  0.00    -0.027 C 
ATOM     24  C   UNL     1       7.820  18.919  44.624  1.00  0.00    -0.065 C 
ATOM     25  C   UNL     1       7.775  19.546  46.995  1.00  0.00     0.014 C 
ATOM     26  C   UNL     1       8.668  17.259  46.337  1.00  0.00     0.016 C 
ATOM     27  C   UNL     1       9.171  19.537  44.350  1.00  0.00     0.063 C 
ATOM     28  C   UNL     1       9.106  20.316  46.781  1.00  0.00     0.033 C 
ATOM     29  C   UNL     1       9.363  20.724  45.310  1.00  0.00     0.118 C 
BRANCH  29  30
ATOM     30  O   UNL     1       8.498  21.768  44.939  1.00  0.00    -0.393 OA
ATOM     31  H   UNL     1       8.451  21.765  43.948  1.00  0.00     0.210 HD
ENDBRANCH  29  30
ENDBRANCH   1  11
TORSDOF 6
ENDMDL
MODEL 4
REMARK VINA RESULT:    -6.725      2.673      7.408
REMARK INTER + INTRA:         -10.490
REMARK INTER:                  -8.670
REMARK INTRA:                  -1.820
REMARK UNBOUND:                -1.603
REMARK SMILES CC[C@H](C=C[C@H](C)[C@H]1CC[C@@H]2[C@H]3CC=C4C[C@@H](O)CC[C@@]4(C)[C@H]3CC[C@@]21C)C(C)C
REMARK SMILES IDX 6 1 7 2 5 3 4 4 3 5 2 6 1 7 28 8 29 9 30 10 8 11 9 12 26 13
REMARK SMILES IDX 10 14 11 15 25 16 27 17 12 18 24 19 23 20 13 21 21 22 14 23
REMARK SMILES IDX 15 24 20 25 22 26 16 27 19 28 17 29 18 30
REMARK H PARENT 18 31
REMARK Flexibility Score: inf
ROOT
ATOM      1  C   UNL     1       1.056  19.525  47.285  1.00  0.00     0.012 C 
ATOM      2  C   UNL     1       2.377  19.977  46.629  1.00  0.00     0.012 C 
ENDROOT
BRANCH   1   3
ATOM      3  C   UNL     1       1.163  18.056  47.663  1.00  0.00    -0.028 C 
ATOM      4  C   UNL     1       0.181  17.140  47.525  1.00  0.00    -0.027 C 
BRANCH   4   5
ATOM      5  C   UNL     1      -1.232  17.437  47.043  1.00  0.00     0.014 C 
BRANCH   5   6
ATOM      6  C   UNL     1      -1.658  16.570  45.818  1.00  0.00     0.004 C 
ATOM      7  C   UNL     1      -0.566  16.247  44.790  1.00  0.00     0.004 C 
ENDBRANCH   5   6
BRANCH   5   8
ATOM      8  C   UNL     1      -2.234  17.432  48.241  1.00  0.00    -0.011 C 
ATOM      9  C   UNL     1      -1.514  17.420  49.599  1.00  0.00     0.008 C 
ATOM     10  C   UNL     1      -3.265  18.567  48.192  1.00  0.00     0.008 C 
ENDBRANCH   5   8
ENDBRANCH   4   5
ENDBRANCH   1   3
BRANCH   1  11
ATOM     11  C   UNL     1       0.624  20.380  48.534  1.00  0.00     0.002 C 
ATOM     12  C   UNL     1       1.828  21.022  49.234  1.00  0.00     0.005 C 
ATOM     13  C   UNL     1      -0.417  21.546  48.303  1.00  0.00    -0.026 C 
ATOM     14  C   UNL     1       1.817  22.503  48.887  1.00  0.00     0.005 C 
ATOM     15  C   UNL     1       0.449  22.844  48.260  1.00  0.00    -0.001 C 
ATOM     16  C   UNL     1      -1.461  21.594  49.474  1.00  0.00     0.007 C 
ATOM     17  C   UNL     1      -1.232  21.378  46.989  1.00  0.00     0.012 C 
ATOM     18  C   UNL     1      -0.182  24.110  48.927  1.00  0.00     0.000 C 
ATOM     19  C   UNL     1      -0.981  22.381  50.696  1.00  0.00     0.005 C 
ATOM     20  C   UNL     1      -0.735  23.879  50.375  1.00  0.00     0.003 C 
ATOM     21  C   UNL     1      -1.219  24.778  48.030  1.00  0.00     0.031 C 
ATOM     22  C   UNL     1      -1.899  24.882  50.844  1.00  0.00    -0.008 C 
ATOM     23  C   UNL     1      -1.651  26.067  48.649  1.00  0.00    -0.027 C 
ATOM     24  C   UNL     1      -1.978  26.131  49.956  1.00  0.00    -0.065 C 
ATOM     25  C   UNL     1      -3.343  24.276  50.799  1.00  0.00     0.014 C 
ATOM     26  C   UNL     1      -1.566  25.291  52.308  1.00  0.00     0.016 C 
ATOM     27  C   UNL     1      -2.955  27.209  50.363  1.00  0.00     0.063 C 
ATOM     28  C   UNL     1      -4.460  25.298  51.141  1.00  0.00     0.033 C 
ATOM     29  C   UNL     1      -4.374  26.613  50.329  1.00  0.00     0.118 C 
BRANCH  29  30
ATOM     30  O   UNL     1      -4.751  26.383  48.995  1.00  0.00    -0.393 OA
ATOM     31  H   UNL     1      -3.915  26.234  48.481  1.00  0.00     0.210 HD
ENDBRANCH  29  30
ENDBRANCH   1  11
TORSDOF 6
ENDMDL
MODEL 5
REMARK VINA RESULT:    -6.713      3.299      7.800
REMARK INTER + INTRA:         -10.475
REMARK INTER:                  -8.989
REMARK INTRA:                  -1.486
REMARK UNBOUND:                -1.603
REMARK SMILES CC[C@H](C=C[C@H](C)[C@H]1CC[C@@H]2[C@H]3CC=C4C[C@@H](O)CC[C@@]4(C)[C@H]3CC[C@@]21C)C(C)C
REMARK SMILES IDX 6 1 7 2 5 3 4 4 3 5 2 6 1 7 28 8 29 9 30 10 8 11 9 12 26 13
REMARK SMILES IDX 10 14 11 15 25 16 27 17 12 18 24 19 23 20 13 21 21 22 14 23
REMARK SMILES IDX 15 24 20 25 22 26 16 27 19 28 17 29 18 30
REMARK H PARENT 18 31
REMARK Flexibility Score: inf
ROOT
ATOM      1  C   UNL     1       0.641  19.532  48.042  1.00  0.00     0.012 C 
ATOM      2  C   UNL     1      -0.155  18.214  47.940  1.00  0.00     0.012 C 
ENDROOT
BRANCH   1   3
ATOM      3  C   UNL     1       1.608  19.623  46.871  1.00  0.00    -0.028 C 
ATOM      4  C   UNL     1       2.878  19.168  46.870  1.00  0.00    -0.027 C 
BRANCH   4   5
ATOM      5  C   UNL     1       3.591  18.558  48.069  1.00  0.00     0.014 C 
BRANCH   5   6
ATOM      6  C   UNL     1       3.652  17.001  48.020  1.00  0.00     0.004 C 
ATOM      7  C   UNL     1       3.260  16.337  46.693  1.00  0.00     0.004 C 
ENDBRANCH   5   6
BRANCH   5   8
ATOM      8  C   UNL     1       4.961  19.269  48.314  1.00  0.00    -0.011 C 
ATOM      9  C   UNL     1       4.784  20.695  48.860  1.00  0.00     0.008 C 
ATOM     10  C   UNL     1       5.923  18.471  49.203  1.00  0.00     0.008 C 
ENDBRANCH   5   8
ENDBRANCH   4   5
ENDBRANCH   1   3
BRANCH   1  11
ATOM     11  C   UNL     1      -0.251  20.827  48.114  1.00  0.00     0.002 C 
ATOM     12  C   UNL     1      -1.748  20.493  48.107  1.00  0.00     0.005 C 
ATOM     13  C   UNL     1      -0.029  21.805  49.335  1.00  0.00    -0.026 C 
ATOM     14  C   UNL     1      -2.266  20.704  49.523  1.00  0.00     0.005 C 
ATOM     15  C   UNL     1      -1.193  21.474  50.322  1.00  0.00    -0.001 C 
ATOM     16  C   UNL     1      -0.089  23.300  48.861  1.00  0.00     0.007 C 
ATOM     17  C   UNL     1       1.352  21.612  50.021  1.00  0.00     0.012 C 
ATOM     18  C   UNL     1      -1.815  22.693  51.078  1.00  0.00     0.000 C 
ATOM     19  C   UNL     1      -1.510  23.864  48.778  1.00  0.00     0.005 C 
ATOM     20  C   UNL     1      -2.214  23.899  50.161  1.00  0.00     0.003 C 
ATOM     21  C   UNL     1      -0.954  23.142  52.254  1.00  0.00     0.031 C 
ATOM     22  C   UNL     1      -2.250  25.337  50.877  1.00  0.00    -0.008 C 
ATOM     23  C   UNL     1      -1.685  24.187  53.031  1.00  0.00    -0.027 C 
ATOM     24  C   UNL     1      -2.288  25.219  52.406  1.00  0.00    -0.065 C 
ATOM     25  C   UNL     1      -1.010  26.247  50.583  1.00  0.00     0.014 C 
ATOM     26  C   UNL     1      -3.535  26.051  50.367  1.00  0.00     0.016 C 
ATOM     27  C   UNL     1      -2.443  26.498  53.195  1.00  0.00     0.063 C 
ATOM     28  C   UNL     1      -1.009  27.579  51.379  1.00  0.00     0.033 C 
ATOM     29  C   UNL     1      -1.230  27.398  52.900  1.00  0.00     0.118 C 
BRANCH  29  30
ATOM     30  O   UNL     1      -0.083  26.842  53.492  1.00  0.00    -0.393 OA
ATOM     31  H   UNL     1       0.700  27.292  53.081  1.00  0.00     0.210 HD
ENDBRANCH  29  30
ENDBRANCH   1  11
TORSDOF 6
ENDMDL
MODEL 6
REMARK VINA RESULT:    -6.696      2.534      7.572
REMARK INTER + INTRA:         -10.451
REMARK INTER:                  -9.723
REMARK INTRA:                  -0.728
REMARK UNBOUND:                -1.603
REMARK SMILES CC[C@H](C=C[C@H](C)[C@H]1CC[C@@H]2[C@H]3CC=C4C[C@@H](O)CC[C@@]4(C)[C@H]3CC[C@@]21C)C(C)C
REMARK SMILES IDX 6 1 7 2 5 3 4 4 3 5 2 6 1 7 28 8 29 9 30 10 8 11 9 12 26 13
REMARK SMILES IDX 10 14 11 15 25 16 27 17 12 18 24 19 23 20 13 21 21 22 14 23
REMARK SMILES IDX 15 24 20 25 22 26 16 27 19 28 17 29 18 30
REMARK H PARENT 18 31
REMARK Flexibility Score: inf
ROOT
ATOM      1  C   UNL     1       0.508  20.502  46.895  1.00  0.00     0.012 C 
ATOM      2  C   UNL     1       1.830  21.032  46.301  1.00  0.00     0.012 C 
ENDROOT
BRANCH   1   3
ATOM      3  C   UNL     1       0.820  19.482  47.979  1.00  0.00    -0.028 C 
ATOM      4  C   UNL     1       0.260  18.260  48.085  1.00  0.00    -0.027 C 
BRANCH   4   5
ATOM      5  C   UNL     1      -0.844  17.720  47.186  1.00  0.00     0.014 C 
BRANCH   5   6
ATOM      6  C   UNL     1      -0.304  16.887  45.983  1.00  0.00     0.004 C 
ATOM      7  C   UNL     1      -1.351  16.263  45.052  1.00  0.00     0.004 C 
ENDBRANCH   5   6
BRANCH   5   8
ATOM      8  C   UNL     1      -1.952  17.020  48.035  1.00  0.00    -0.011 C 
ATOM      9  C   UNL     1      -1.537  16.855  49.507  1.00  0.00     0.008 C 
ATOM     10  C   UNL     1      -3.326  17.695  47.939  1.00  0.00     0.008 C 
ENDBRANCH   5   8
ENDBRANCH   4   5
ENDBRANCH   1   3
BRANCH   1  11
ATOM     11  C   UNL     1      -0.446  21.621  47.457  1.00  0.00     0.002 C 
ATOM     12  C   UNL     1      -1.871  21.098  47.683  1.00  0.00     0.005 C 
ATOM     13  C   UNL     1      -0.028  22.337  48.802  1.00  0.00    -0.026 C 
ATOM     14  C   UNL     1      -2.059  20.932  49.184  1.00  0.00     0.005 C 
ATOM     15  C   UNL     1      -0.898  21.651  49.901  1.00  0.00    -0.001 C 
ATOM     16  C   UNL     1      -0.320  23.877  48.720  1.00  0.00     0.007 C 
ATOM     17  C   UNL     1       1.487  22.190  49.119  1.00  0.00     0.012 C 
ATOM     18  C   UNL     1      -1.425  22.586  51.038  1.00  0.00     0.000 C 
ATOM     19  C   UNL     1      -1.763  24.250  49.070  1.00  0.00     0.005 C 
ATOM     20  C   UNL     1      -2.125  23.896  50.537  1.00  0.00     0.003 C 
ATOM     21  C   UNL     1      -0.353  22.886  52.081  1.00  0.00     0.031 C 
ATOM     22  C   UNL     1      -2.113  25.130  51.566  1.00  0.00    -0.008 C 
ATOM     23  C   UNL     1      -0.967  23.634  53.219  1.00  0.00    -0.027 C 
ATOM     24  C   UNL     1      -1.782  24.685  52.997  1.00  0.00    -0.065 C 
ATOM     25  C   UNL     1      -1.055  26.239  51.245  1.00  0.00     0.014 C 
ATOM     26  C   UNL     1      -3.536  25.757  51.520  1.00  0.00     0.016 C 
ATOM     27  C   UNL     1      -1.855  25.735  54.082  1.00  0.00     0.063 C 
ATOM     28  C   UNL     1      -0.979  27.360  52.316  1.00  0.00     0.033 C 
ATOM     29  C   UNL     1      -0.823  26.831  53.763  1.00  0.00     0.118 C 
BRANCH  29  30
ATOM     30  O   UNL     1       0.473  26.321  53.954  1.00  0.00    -0.393 OA
ATOM     31  H   UNL     1       0.873  26.826  54.708  1.00  0.00     0.210 HD
ENDBRANCH  29  30
ENDBRANCH   1  11
TORSDOF 6
ENDMDL
MODEL 7
REMARK VINA RESULT:    -6.656      6.999     10.169
REMARK INTER + INTRA:         -10.399
REMARK INTER:                  -9.257
REMARK INTRA:                  -1.142
REMARK UNBOUND:                -1.603
REMARK SMILES CC[C@H](C=C[C@H](C)[C@H]1CC[C@@H]2[C@H]3CC=C4C[C@@H](O)CC[C@@]4(C)[C@H]3CC[C@@]21C)C(C)C
REMARK SMILES IDX 6 1 7 2 5 3 4 4 3 5 2 6 1 7 28 8 29 9 30 10 8 11 9 12 26 13
REMARK SMILES IDX 10 14 11 15 25 16 27 17 12 18 24 19 23 20 13 21 21 22 14 23
REMARK SMILES IDX 15 24 20 25 22 26 16 27 19 28 17 29 18 30
REMARK H PARENT 18 31
REMARK Flexibility Score: inf
ROOT
ATOM      1  C   UNL     1       2.721  17.987  47.098  1.00  0.00     0.012 C 
ATOM      2  C   UNL     1       3.234  17.310  48.385  1.00  0.00     0.012 C 
ENDROOT
BRANCH   1   3
ATOM      3  C   UNL     1       1.451  18.763  47.414  1.00  0.00    -0.028 C 
ATOM      4  C   UNL     1       0.204  18.249  47.424  1.00  0.00    -0.027 C 
BRANCH   4   5
ATOM      5  C   UNL     1      -0.159  16.821  47.038  1.00  0.00     0.014 C 
BRANCH   5   6
ATOM      6  C   UNL     1      -1.245  16.193  47.963  1.00  0.00     0.004 C 
ATOM      7  C   UNL     1      -2.227  17.165  48.632  1.00  0.00     0.004 C 
ENDBRANCH   5   6
BRANCH   5   8
ATOM      8  C   UNL     1      -0.451  16.722  45.507  1.00  0.00    -0.011 C 
ATOM      9  C   UNL     1       0.599  15.876  44.770  1.00  0.00     0.008 C 
ATOM     10  C   UNL     1      -1.865  16.227  45.177  1.00  0.00     0.008 C 
ENDBRANCH   5   8
ENDBRANCH   4   5
ENDBRANCH   1   3
BRANCH   1  11
ATOM     11  C   UNL     1       3.770  18.924  46.392  1.00  0.00     0.002 C 
ATOM     12  C   UNL     1       4.534  19.793  47.400  1.00  0.00     0.005 C 
ATOM     13  C   UNL     1       4.870  18.243  45.484  1.00  0.00    -0.026 C 
ATOM     14  C   UNL     1       5.935  19.213  47.527  1.00  0.00     0.005 C 
ATOM     15  C   UNL     1       6.151  18.208  46.376  1.00  0.00    -0.001 C 
ATOM     16  C   UNL     1       5.105  19.083  44.179  1.00  0.00     0.007 C 
ATOM     17  C   UNL     1       4.474  16.812  45.025  1.00  0.00     0.012 C 
ATOM     18  C   UNL     1       7.505  18.472  45.640  1.00  0.00     0.000 C 
ATOM     19  C   UNL     1       6.093  20.239  44.359  1.00  0.00     0.005 C 
ATOM     20  C   UNL     1       7.518  19.747  44.729  1.00  0.00     0.003 C 
ATOM     21  C   UNL     1       8.001  17.240  44.888  1.00  0.00     0.031 C 
ATOM     22  C   UNL     1       8.574  19.729  43.519  1.00  0.00    -0.008 C 
ATOM     23  C   UNL     1       9.372  17.505  44.357  1.00  0.00    -0.027 C 
ATOM     24  C   UNL     1       9.653  18.655  43.711  1.00  0.00    -0.065 C 
ATOM     25  C   UNL     1       7.955  19.417  42.114  1.00  0.00     0.014 C 
ATOM     26  C   UNL     1       9.228  21.140  43.483  1.00  0.00     0.016 C 
ATOM     27  C   UNL     1      10.775  18.613  42.700  1.00  0.00     0.063 C 
ATOM     28  C   UNL     1       9.008  19.286  40.982  1.00  0.00     0.033 C 
ATOM     29  C   UNL     1      10.168  18.316  41.317  1.00  0.00     0.118 C 
BRANCH  29  30
ATOM     30  O   UNL     1       9.712  16.988  41.284  1.00  0.00    -0.393 OA
ATOM     31  H   UNL     1      10.245  16.483  41.952  1.00  0.00     0.210 HD
ENDBRANCH  29  30
ENDBRANCH   1  11
TORSDOF 6
ENDMDL
MODEL 8
REMARK VINA RESULT:    -6.583      1.937      3.961
REMARK INTER + INTRA:         -10.302
REMARK INTER:                  -8.519
REMARK INTRA:                  -1.784
REMARK UNBOUND:                -1.603
REMARK SMILES CC[C@H](C=C[C@H](C)[C@H]1CC[C@@H]2[C@H]3CC=C4C[C@@H](O)CC[C@@]4(C)[C@H]3CC[C@@]21C)C(C)C
REMARK SMILES IDX 6 1 7 2 5 3 4 4 3 5 2 6 1 7 28 8 29 9 30 10 8 11 9 12 26 13
REMARK SMILES IDX 10 14 11 15 25 16 27 17 12 18 24 19 23 20 13 21 21 22 14 23
REMARK SMILES IDX 15 24 20 25 22 26 16 27 19 28 17 29 18 30
REMARK H PARENT 18 31
REMARK Flexibility Score: inf
ROOT
ATOM      1  C   UNL     1      -0.378  24.999  50.448  1.00  0.00     0.012 C 
ATOM      2  C   UNL     1       0.085  25.203  51.906  1.00  0.00     0.012 C 
ENDROOT
BRANCH   1   3
ATOM      3  C   UNL     1      -0.165  26.289  49.671  1.00  0.00    -0.028 C 
ATOM      4  C   UNL     1      -1.100  26.915  48.926  1.00  0.00    -0.027 C 
BRANCH   4   5
ATOM      5  C   UNL     1      -2.507  26.394  48.666  1.00  0.00     0.014 C 
BRANCH   5   6
ATOM      6  C   UNL     1      -3.577  27.016  49.613  1.00  0.00     0.004 C 
ATOM      7  C   UNL     1      -4.315  26.050  50.549  1.00  0.00     0.004 C 
ENDBRANCH   5   6
BRANCH   5   8
ATOM      8  C   UNL     1      -2.846  26.464  47.143  1.00  0.00    -0.011 C 
ATOM      9  C   UNL     1      -2.372  25.213  46.385  1.00  0.00     0.008 C 
ATOM     10  C   UNL     1      -4.327  26.737  46.850  1.00  0.00     0.008 C 
ENDBRANCH   5   8
ENDBRANCH   4   5
ENDBRANCH   1   3
BRANCH   1  11
ATOM     11  C   UNL     1       0.316  23.796  49.708  1.00  0.00     0.002 C 
ATOM     12  C   UNL     1       1.466  23.202  50.531  1.00  0.00     0.005 C 
ATOM     13  C   UNL     1      -0.590  22.573  49.282  1.00  0.00    -0.026 C 
ATOM     14  C   UNL     1       0.980  21.876  51.098  1.00  0.00     0.005 C 
ATOM     15  C   UNL     1      -0.326  21.488  50.373  1.00  0.00    -0.001 C 
ATOM     16  C   UNL     1      -0.187  22.059  47.855  1.00  0.00     0.007 C 
ATOM     17  C   UNL     1      -2.101  22.935  49.213  1.00  0.00     0.012 C 
ATOM     18  C   UNL     1      -0.276  20.009  49.867  1.00  0.00     0.000 C 
ATOM     19  C   UNL     1       0.986  21.076  47.861  1.00  0.00     0.005 C 
ATOM     20  C   UNL     1       0.658  19.770  48.632  1.00  0.00     0.003 C 
ATOM     21  C   UNL     1      -1.669  19.431  49.638  1.00  0.00     0.031 C 
ATOM     22  C   UNL     1       0.289  18.505  47.714  1.00  0.00    -0.008 C 
ATOM     23  C   UNL     1      -1.555  17.975  49.327  1.00  0.00    -0.027 C 
ATOM     24  C   UNL     1      -0.654  17.527  48.429  1.00  0.00    -0.065 C 
ATOM     25  C   UNL     1      -0.451  18.858  46.379  1.00  0.00     0.014 C 
ATOM     26  C   UNL     1       1.632  17.796  47.376  1.00  0.00     0.016 C 
ATOM     27  C   UNL     1      -0.983  16.237  47.716  1.00  0.00     0.063 C 
ATOM     28  C   UNL     1      -0.903  17.615  45.567  1.00  0.00     0.033 C 
ATOM     29  C   UNL     1      -1.702  16.582  46.399  1.00  0.00     0.118 C 
BRANCH  29  30
ATOM     30  O   UNL     1      -2.985  17.079  46.685  1.00  0.00    -0.393 OA
ATOM     31  H   UNL     1      -3.215  17.717  45.960  1.00  0.00     0.210 HD
ENDBRANCH  29  30
ENDBRANCH   1  11
TORSDOF 6
ENDMDL
MODEL 9
REMARK VINA RESULT:    -6.365      6.725     10.055
REMARK INTER + INTRA:         -10.014
REMARK INTER:                  -8.573
REMARK INTRA:                  -1.442
REMARK UNBOUND:                -1.603
REMARK SMILES CC[C@H](C=C[C@H](C)[C@H]1CC[C@@H]2[C@H]3CC=C4C[C@@H](O)CC[C@@]4(C)[C@H]3CC[C@@]21C)C(C)C
REMARK SMILES IDX 6 1 7 2 5 3 4 4 3 5 2 6 1 7 28 8 29 9 30 10 8 11 9 12 26 13
REMARK SMILES IDX 10 14 11 15 25 16 27 17 12 18 24 19 23 20 13 21 21 22 14 23
REMARK SMILES IDX 15 24 20 25 22 26 16 27 19 28 17 29 18 30
REMARK H PARENT 18 31
REMARK Flexibility Score: inf
ROOT
ATOM      1  C   UNL     1       7.460  16.670  45.316  1.00  0.00     0.012 C 
ATOM      2  C   UNL     1       8.634  16.248  46.224  1.00  0.00     0.012 C 
ENDROOT
BRANCH   1   3
ATOM      3  C   UNL     1       7.607  15.994  43.962  1.00  0.00    -0.028 C 
ATOM      4  C   UNL     1       8.408  16.416  42.962  1.00  0.00    -0.027 C 
BRANCH   4   5
ATOM      5  C   UNL     1       9.241  17.690  42.984  1.00  0.00     0.014 C 
BRANCH   5   6
ATOM      6  C   UNL     1      10.578  17.563  42.192  1.00  0.00     0.004 C 
ATOM      7  C   UNL     1      10.994  16.150  41.764  1.00  0.00     0.004 C 
ENDBRANCH   5   6
BRANCH   5   8
ATOM      8  C   UNL     1       8.363  18.927  42.612  1.00  0.00    -0.011 C 
ATOM      9  C   UNL     1       8.470  20.050  43.656  1.00  0.00     0.008 C 
ATOM     10  C   UNL     1       8.633  19.478  41.205  1.00  0.00     0.008 C 
ENDBRANCH   5   8
ENDBRANCH   4   5
ENDBRANCH   1   3
BRANCH   1  11
ATOM     11  C   UNL     1       6.034  16.379  45.918  1.00  0.00     0.002 C 
ATOM     12  C   UNL     1       6.107  15.977  47.397  1.00  0.00     0.005 C 
ATOM     13  C   UNL     1       4.952  17.527  45.834  1.00  0.00    -0.026 C 
ATOM     14  C   UNL     1       5.622  17.165  48.214  1.00  0.00     0.005 C 
ATOM     15  C   UNL     1       4.944  18.168  47.257  1.00  0.00    -0.001 C 
ATOM     16  C   UNL     1       3.546  16.934  45.466  1.00  0.00     0.007 C 
ATOM     17  C   UNL     1       5.282  18.591  44.748  1.00  0.00     0.012 C 
ATOM     18  C   UNL     1       3.547  18.613  47.799  1.00  0.00     0.000 C 
ATOM     19  C   UNL     1       2.766  16.405  46.673  1.00  0.00     0.005 C 
ATOM     20  C   UNL     1       2.426  17.524  47.693  1.00  0.00     0.003 C 
ATOM     21  C   UNL     1       3.096  19.944  47.205  1.00  0.00     0.031 C 
ATOM     22  C   UNL     1       0.919  18.078  47.628  1.00  0.00    -0.008 C 
ATOM     23  C   UNL     1       1.846  20.392  47.890  1.00  0.00    -0.027 C 
ATOM     24  C   UNL     1       0.821  19.539  48.088  1.00  0.00    -0.065 C 
ATOM     25  C   UNL     1       0.281  18.073  46.198  1.00  0.00     0.014 C 
ATOM     26  C   UNL     1       0.073  17.168  48.564  1.00  0.00     0.016 C 
ATOM     27  C   UNL     1      -0.561  20.142  48.186  1.00  0.00     0.063 C 
ATOM     28  C   UNL     1      -1.127  18.723  46.139  1.00  0.00     0.033 C 
ATOM     29  C   UNL     1      -1.194  20.129  46.783  1.00  0.00     0.118 C 
BRANCH  29  30
ATOM     30  O   UNL     1      -0.536  21.066  45.967  1.00  0.00    -0.393 OA
ATOM     31  H   UNL     1       0.422  20.807  45.945  1.00  0.00     0.210 HD
ENDBRANCH  29  30
ENDBRANCH   1  11
TORSDOF 6
ENDMDL
