MODEL 1
REMARK VINA RESULT:    -5.069      0.000      0.000
REMARK INTER + INTRA:         -15.182
REMARK INTER:                 -12.775
REMARK INTRA:                  -2.408
REMARK UNBOUND:                -2.408
REMARK SMILES CCCCCCCCCCCCCCCCCCCCCCCCCCCC(=O)[O-]
REMARK SMILES IDX 15 1 16 2 17 3 18 4 19 5 20 6 21 7 22 8 23 9 24 10 25 11
REMARK SMILES IDX 26 12 27 13 28 14 29 15 30 16 14 17 13 18 12 19 11 20 10 21
REMARK SMILES IDX 9 22 8 23 7 24 6 25 5 26 4 27 3 28 2 29 1 30
REMARK H PARENT
REMARK Flexibility Score: inf
ROOT
ATOM      1  C   UNL     1      27.553  -1.954  30.763  1.00  0.00     0.000 C 
ENDROOT
BRANCH   1   2
ATOM      2  C   UNL     1      26.482  -0.917  30.384  1.00  0.00     0.000 C 
BRANCH   2   3
ATOM      3  C   UNL     1      26.857  -0.126  29.119  1.00  0.00     0.000 C 
BRANCH   3   4
ATOM      4  C   UNL     1      28.359  -0.245  28.822  1.00  0.00     0.000 C 
BRANCH   4   5
ATOM      5  C   UNL     1      29.135   1.044  29.132  1.00  0.00     0.000 C 
BRANCH   5   6
ATOM      6  C   UNL     1      29.857   0.997  30.490  1.00  0.00     0.000 C 
BRANCH   6   7
ATOM      7  C   UNL     1      29.097   1.763  31.589  1.00  0.00     0.000 C 
BRANCH   7   8
ATOM      8  C   UNL     1      28.016   2.736  31.075  1.00  0.00     0.000 C 
BRANCH   8   9
ATOM      9  C   UNL     1      28.053   4.147  31.697  1.00  0.00     0.000 C 
BRANCH   9  10
ATOM     10  C   UNL     1      28.387   5.287  30.718  1.00  0.00     0.000 C 
BRANCH  10  11
ATOM     11  C   UNL     1      27.132   6.002  30.186  1.00  0.00     0.000 C 
BRANCH  11  12
ATOM     12  C   UNL     1      27.330   7.519  30.039  1.00  0.00     0.006 C 
BRANCH  12  13
ATOM     13  C   UNL     1      26.850   8.306  31.265  1.00  0.00     0.053 C 
BRANCH  13  14
ATOM     14  C   UNL     1      26.558   9.725  30.892  1.00  0.00     0.041 C 
ATOM     15  O   UNL     1      26.689  10.106  29.697  1.00  0.00    -0.550 OA
ATOM     16  O   UNL     1      26.187  10.640  31.869  1.00  0.00    -0.550 OA
ENDBRANCH  13  14
ENDBRANCH  12  13
ENDBRANCH  11  12
ENDBRANCH  10  11
ENDBRANCH   9  10
ENDBRANCH   8   9
ENDBRANCH   7   8
ENDBRANCH   6   7
ENDBRANCH   5   6
ENDBRANCH   4   5
ENDBRANCH   3   4
ENDBRANCH   2   3
ENDBRANCH   1   2
BRANCH   1  17
ATOM     17  C   UNL     1      26.937  -3.325  31.097  1.00  0.00     0.000 C 
BRANCH  17  18
ATOM     18  C   UNL     1      27.401  -4.434  30.130  1.00  0.00     0.000 C 
BRANCH  18  19
ATOM     19  C   UNL     1      28.488  -5.359  30.712  1.00  0.00     0.000 C 
BRANCH  19  20
ATOM     20  C   UNL     1      29.920  -4.800  30.667  1.00  0.00     0.000 C 
BRANCH  20  21
ATOM     21  C   UNL     1      30.156  -3.866  29.468  1.00  0.00     0.000 C 
BRANCH  21  22
ATOM     22  C   UNL     1      31.013  -2.638  29.824  1.00  0.00    -0.000 C 
BRANCH  22  23
ATOM     23  C   UNL     1      32.438  -2.949  30.330  1.00  0.00    -0.000 C 
BRANCH  23  24
ATOM     24  C   UNL     1      33.570  -2.198  29.609  1.00  0.00    -0.000 C 
BRANCH  24  25
ATOM     25  C   UNL     1      33.943  -0.833  30.221  1.00  0.00    -0.000 C 
BRANCH  25  26
ATOM     26  C   UNL     1      35.146  -0.886  31.187  1.00  0.00    -0.000 C 
BRANCH  26  27
ATOM     27  C   UNL     1      35.454   0.481  31.820  1.00  0.00    -0.000 C 
BRANCH  27  28
ATOM     28  C   UNL     1      35.405   0.444  33.357  1.00  0.00    -0.000 C 
BRANCH  28  29
ATOM     29  C   UNL     1      34.919   1.769  33.964  1.00  0.00    -0.003 C 
ATOM     30  C   UNL     1      33.852   1.526  35.029  1.00  0.00     0.004 C 
ENDBRANCH  28  29
ENDBRANCH  27  28
ENDBRANCH  26  27
ENDBRANCH  25  26
ENDBRANCH  24  25
ENDBRANCH  23  24
ENDBRANCH  22  23
ENDBRANCH  21  22
ENDBRANCH  20  21
ENDBRANCH  19  20
ENDBRANCH  18  19
ENDBRANCH  17  18
ENDBRANCH   1  17
TORSDOF 26
ENDMDL
MODEL 2
REMARK VINA RESULT:    -5.042      5.294     10.456
REMARK INTER + INTRA:         -15.114
REMARK INTER:                 -12.277
REMARK INTRA:                  -2.837
REMARK UNBOUND:                -2.408
REMARK SMILES CCCCCCCCCCCCCCCCCCCCCCCCCCCC(=O)[O-]
REMARK SMILES IDX 15 1 16 2 17 3 18 4 19 5 20 6 21 7 22 8 23 9 24 10 25 11
REMARK SMILES IDX 26 12 27 13 28 14 29 15 30 16 14 17 13 18 12 19 11 20 10 21
REMARK SMILES IDX 9 22 8 23 7 24 6 25 5 26 4 27 3 28 2 29 1 30
REMARK H PARENT
REMARK Flexibility Score: inf
ROOT
ATOM      1  C   UNL     1      27.860   4.592  29.449  1.00  0.00     0.000 C 
ENDROOT
BRANCH   1   2
ATOM      2  C   UNL     1      27.907   5.238  30.845  1.00  0.00     0.000 C 
BRANCH   2   3
ATOM      3  C   UNL     1      28.392   4.257  31.926  1.00  0.00     0.000 C 
BRANCH   3   4
ATOM      4  C   UNL     1      28.215   2.802  31.468  1.00  0.00     0.000 C 
BRANCH   4   5
ATOM      5  C   UNL     1      29.391   1.899  31.871  1.00  0.00     0.000 C 
BRANCH   5   6
ATOM      6  C   UNL     1      29.632   0.749  30.878  1.00  0.00     0.000 C 
BRANCH   6   7
ATOM      7  C   UNL     1      29.181   1.099  29.448  1.00  0.00     0.000 C 
BRANCH   7   8
ATOM      8  C   UNL     1      28.144   0.134  28.838  1.00  0.00     0.000 C 
BRANCH   8   9
ATOM      9  C   UNL     1      26.756   0.149  29.512  1.00  0.00     0.000 C 
BRANCH   9  10
ATOM     10  C   UNL     1      26.406  -1.112  30.323  1.00  0.00     0.000 C 
BRANCH  10  11
ATOM     11  C   UNL     1      27.629  -2.005  30.592  1.00  0.00     0.000 C 
BRANCH  11  12
ATOM     12  C   UNL     1      27.264  -3.309  31.319  1.00  0.00     0.006 C 
BRANCH  12  13
ATOM     13  C   UNL     1      27.354  -4.543  30.412  1.00  0.00     0.053 C 
BRANCH  13  14
ATOM     14  C   UNL     1      28.598  -5.320  30.710  1.00  0.00     0.041 C 
ATOM     15  O   UNL     1      28.519  -6.475  31.210  1.00  0.00    -0.550 OA
ATOM     16  O   UNL     1      29.845  -4.752  30.481  1.00  0.00    -0.550 OA
ENDBRANCH  13  14
ENDBRANCH  12  13
ENDBRANCH  11  12
ENDBRANCH  10  11
ENDBRANCH   9  10
ENDBRANCH   8   9
ENDBRANCH   7   8
ENDBRANCH   6   7
ENDBRANCH   5   6
ENDBRANCH   4   5
ENDBRANCH   3   4
ENDBRANCH   2   3
ENDBRANCH   1   2
BRANCH   1  17
ATOM     17  C   UNL     1      26.503   4.812  28.757  1.00  0.00     0.000 C 
BRANCH  17  18
ATOM     18  C   UNL     1      26.129   3.657  27.805  1.00  0.00     0.000 C 
BRANCH  18  19
ATOM     19  C   UNL     1      24.860   3.918  26.969  1.00  0.00     0.000 C 
BRANCH  19  20
ATOM     20  C   UNL     1      24.640   2.957  25.789  1.00  0.00     0.000 C 
BRANCH  20  21
ATOM     21  C   UNL     1      24.655   1.480  26.216  1.00  0.00     0.000 C 
BRANCH  21  22
ATOM     22  C   UNL     1      23.592   0.635  25.490  1.00  0.00    -0.000 C 
BRANCH  22  23
ATOM     23  C   UNL     1      22.127   1.021  25.782  1.00  0.00    -0.000 C 
BRANCH  23  24
ATOM     24  C   UNL     1      21.245  -0.113  26.333  1.00  0.00    -0.000 C 
BRANCH  24  25
ATOM     25  C   UNL     1      20.665   0.135  27.739  1.00  0.00    -0.000 C 
BRANCH  25  26
ATOM     26  C   UNL     1      20.696  -1.105  28.659  1.00  0.00    -0.000 C 
BRANCH  26  27
ATOM     27  C   UNL     1      21.187  -0.774  30.078  1.00  0.00    -0.000 C 
BRANCH  27  28
ATOM     28  C   UNL     1      22.606  -1.302  30.348  1.00  0.00    -0.000 C 
BRANCH  28  29
ATOM     29  C   UNL     1      22.604  -2.718  30.949  1.00  0.00    -0.003 C 
ATOM     30  C   UNL     1      23.821  -3.513  30.484  1.00  0.00     0.004 C 
ENDBRANCH  28  29
ENDBRANCH  27  28
ENDBRANCH  26  27
ENDBRANCH  25  26
ENDBRANCH  24  25
ENDBRANCH  23  24
ENDBRANCH  22  23
ENDBRANCH  21  22
ENDBRANCH  20  21
ENDBRANCH  19  20
ENDBRANCH  18  19
ENDBRANCH  17  18
ENDBRANCH   1  17
TORSDOF 26
ENDMDL
MODEL 3
REMARK VINA RESULT:    -4.929      4.361      7.955
REMARK INTER + INTRA:         -14.829
REMARK INTER:                 -12.269
REMARK INTRA:                  -2.560
REMARK UNBOUND:                -2.408
REMARK SMILES CCCCCCCCCCCCCCCCCCCCCCCCCCCC(=O)[O-]
REMARK SMILES IDX 15 1 16 2 17 3 18 4 19 5 20 6 21 7 22 8 23 9 24 10 25 11
REMARK SMILES IDX 26 12 27 13 28 14 29 15 30 16 14 17 13 18 12 19 11 20 10 21
REMARK SMILES IDX 9 22 8 23 7 24 6 25 5 26 4 27 3 28 2 29 1 30
REMARK H PARENT
REMARK Flexibility Score: inf
ROOT
ATOM      1  C   UNL     1      29.205   1.476  31.773  1.00  0.00     0.000 C 
ENDROOT
BRANCH   1   2
ATOM      2  C   UNL     1      28.234   2.622  31.437  1.00  0.00     0.000 C 
BRANCH   2   3
ATOM      3  C   UNL     1      28.737   3.982  31.949  1.00  0.00     0.000 C 
BRANCH   3   4
ATOM      4  C   UNL     1      27.783   5.112  31.536  1.00  0.00     0.000 C 
BRANCH   4   5
ATOM      5  C   UNL     1      28.293   5.916  30.330  1.00  0.00     0.000 C 
BRANCH   5   6
ATOM      6  C   UNL     1      27.967   5.249  28.983  1.00  0.00     0.000 C 
BRANCH   6   7
ATOM      7  C   UNL     1      26.485   4.847  28.866  1.00  0.00     0.000 C 
BRANCH   7   8
ATOM      8  C   UNL     1      26.186   3.766  27.808  1.00  0.00     0.000 C 
BRANCH   8   9
ATOM      9  C   UNL     1      24.882   3.970  27.009  1.00  0.00     0.000 C 
BRANCH   9  10
ATOM     10  C   UNL     1      24.642   2.958  25.874  1.00  0.00     0.000 C 
BRANCH  10  11
ATOM     11  C   UNL     1      24.316   1.547  26.393  1.00  0.00     0.000 C 
BRANCH  11  12
ATOM     12  C   UNL     1      23.472   0.730  25.402  1.00  0.00     0.006 C 
BRANCH  12  13
ATOM     13  C   UNL     1      21.979   1.079  25.460  1.00  0.00     0.053 C 
BRANCH  13  14
ATOM     14  C   UNL     1      21.280   0.214  26.462  1.00  0.00     0.041 C 
ATOM     15  O   UNL     1      20.868   0.708  27.547  1.00  0.00    -0.550 OA
ATOM     16  O   UNL     1      21.125  -1.145  26.222  1.00  0.00    -0.550 OA
ENDBRANCH  13  14
ENDBRANCH  12  13
ENDBRANCH  11  12
ENDBRANCH  10  11
ENDBRANCH   9  10
ENDBRANCH   8   9
ENDBRANCH   7   8
ENDBRANCH   6   7
ENDBRANCH   5   6
ENDBRANCH   4   5
ENDBRANCH   3   4
ENDBRANCH   2   3
ENDBRANCH   1   2
BRANCH   1  17
ATOM     17  C   UNL     1      29.548   0.628  30.535  1.00  0.00     0.000 C 
BRANCH  17  18
ATOM     18  C   UNL     1      28.871   1.153  29.251  1.00  0.00     0.000 C 
BRANCH  18  19
ATOM     19  C   UNL     1      27.687   0.291  28.770  1.00  0.00     0.000 C 
BRANCH  19  20
ATOM     20  C   UNL     1      26.329   0.620  29.415  1.00  0.00     0.000 C 
BRANCH  20  21
ATOM     21  C   UNL     1      26.021  -0.267  30.633  1.00  0.00     0.000 C 
BRANCH  21  22
ATOM     22  C   UNL     1      26.173  -1.769  30.335  1.00  0.00    -0.000 C 
BRANCH  22  23
ATOM     23  C   UNL     1      27.505  -2.403  30.789  1.00  0.00    -0.000 C 
BRANCH  23  24
ATOM     24  C   UNL     1      27.409  -3.858  31.279  1.00  0.00    -0.000 C 
BRANCH  24  25
ATOM     25  C   UNL     1      27.866  -4.922  30.261  1.00  0.00    -0.000 C 
BRANCH  25  26
ATOM     26  C   UNL     1      29.315  -5.411  30.472  1.00  0.00    -0.000 C 
BRANCH  26  27
ATOM     27  C   UNL     1      29.426  -6.945  30.464  1.00  0.00    -0.000 C 
BRANCH  27  28
ATOM     28  C   UNL     1      28.057  -7.634  30.329  1.00  0.00    -0.000 C 
BRANCH  28  29
ATOM     29  C   UNL     1      28.118  -8.903  29.465  1.00  0.00    -0.003 C 
ATOM     30  C   UNL     1      29.417  -8.962  28.665  1.00  0.00     0.004 C 
ENDBRANCH  28  29
ENDBRANCH  27  28
ENDBRANCH  26  27
ENDBRANCH  25  26
ENDBRANCH  24  25
ENDBRANCH  23  24
ENDBRANCH  22  23
ENDBRANCH  21  22
ENDBRANCH  20  21
ENDBRANCH  19  20
ENDBRANCH  18  19
ENDBRANCH  17  18
ENDBRANCH   1  17
TORSDOF 26
ENDMDL
MODEL 4
REMARK VINA RESULT:    -4.894      2.838      6.182
REMARK INTER + INTRA:         -14.741
REMARK INTER:                 -11.904
REMARK INTRA:                  -2.837
REMARK UNBOUND:                -2.408
REMARK SMILES CCCCCCCCCCCCCCCCCCCCCCCCCCCC(=O)[O-]
REMARK SMILES IDX 15 1 16 2 17 3 18 4 19 5 20 6 21 7 22 8 23 9 24 10 25 11
REMARK SMILES IDX 26 12 27 13 28 14 29 15 30 16 14 17 13 18 12 19 11 20 10 21
REMARK SMILES IDX 9 22 8 23 7 24 6 25 5 26 4 27 3 28 2 29 1 30
REMARK H PARENT
REMARK Flexibility Score: inf
ROOT
ATOM      1  C   UNL     1      29.296   0.945  32.135  1.00  0.00     0.000 C 
ENDROOT
BRANCH   1   2
ATOM      2  C   UNL     1      29.340   2.426  31.718  1.00  0.00     0.000 C 
BRANCH   2   3
ATOM      3  C   UNL     1      27.936   3.038  31.587  1.00  0.00     0.000 C 
BRANCH   3   4
ATOM      4  C   UNL     1      27.881   4.431  32.231  1.00  0.00     0.000 C 
BRANCH   4   5
ATOM      5  C   UNL     1      27.436   5.527  31.251  1.00  0.00     0.000 C 
BRANCH   5   6
ATOM      6  C   UNL     1      28.270   5.549  29.957  1.00  0.00     0.000 C 
BRANCH   6   7
ATOM      7  C   UNL     1      28.200   6.906  29.233  1.00  0.00     0.000 C 
BRANCH   7   8
ATOM      8  C   UNL     1      27.791   8.098  30.123  1.00  0.00     0.000 C 
BRANCH   8   9
ATOM      9  C   UNL     1      28.613   9.387  29.914  1.00  0.00     0.000 C 
BRANCH   9  10
ATOM     10  C   UNL     1      27.788  10.683  29.823  1.00  0.00     0.000 C 
BRANCH  10  11
ATOM     11  C   UNL     1      26.275  10.438  29.963  1.00  0.00     0.000 C 
BRANCH  11  12
ATOM     12  C   UNL     1      25.679  11.104  31.213  1.00  0.00     0.006 C 
BRANCH  12  13
ATOM     13  C   UNL     1      26.650  11.124  32.400  1.00  0.00     0.053 C 
BRANCH  13  14
ATOM     14  C   UNL     1      26.297  10.049  33.380  1.00  0.00     0.041 C 
ATOM     15  O   UNL     1      25.848   8.944  32.973  1.00  0.00    -0.550 OA
ATOM     16  O   UNL     1      26.419  10.283  34.744  1.00  0.00    -0.550 OA
ENDBRANCH  13  14
ENDBRANCH  12  13
ENDBRANCH  11  12
ENDBRANCH  10  11
ENDBRANCH   9  10
ENDBRANCH   8   9
ENDBRANCH   7   8
ENDBRANCH   6   7
ENDBRANCH   5   6
ENDBRANCH   4   5
ENDBRANCH   3   4
ENDBRANCH   2   3
ENDBRANCH   1   2
BRANCH   1  17
ATOM     17  C   UNL     1      30.064   0.045  31.151  1.00  0.00     0.000 C 
BRANCH  17  18
ATOM     18  C   UNL     1      30.186   0.671  29.746  1.00  0.00     0.000 C 
BRANCH  18  19
ATOM     19  C   UNL     1      29.109   0.196  28.752  1.00  0.00     0.000 C 
BRANCH  19  20
ATOM     20  C   UNL     1      27.854   1.081  28.668  1.00  0.00     0.000 C 
BRANCH  20  21
ATOM     21  C   UNL     1      26.554   0.263  28.593  1.00  0.00     0.000 C 
BRANCH  21  22
ATOM     22  C   UNL     1      25.887   0.070  29.967  1.00  0.00    -0.000 C 
BRANCH  22  23
ATOM     23  C   UNL     1      26.566  -0.959  30.894  1.00  0.00    -0.000 C 
BRANCH  23  24
ATOM     24  C   UNL     1      26.248  -2.433  30.587  1.00  0.00    -0.000 C 
BRANCH  24  25
ATOM     25  C   UNL     1      27.363  -3.432  30.952  1.00  0.00    -0.000 C 
BRANCH  25  26
ATOM     26  C   UNL     1      28.690  -3.195  30.199  1.00  0.00    -0.000 C 
BRANCH  26  27
ATOM     27  C   UNL     1      29.431  -4.506  29.885  1.00  0.00    -0.000 C 
BRANCH  27  28
ATOM     28  C   UNL     1      28.865  -5.704  30.664  1.00  0.00    -0.000 C 
BRANCH  28  29
ATOM     29  C   UNL     1      28.814  -6.987  29.819  1.00  0.00    -0.003 C 
ATOM     30  C   UNL     1      28.861  -8.230  30.703  1.00  0.00     0.004 C 
ENDBRANCH  28  29
ENDBRANCH  27  28
ENDBRANCH  26  27
ENDBRANCH  25  26
ENDBRANCH  24  25
ENDBRANCH  23  24
ENDBRANCH  22  23
ENDBRANCH  21  22
ENDBRANCH  20  21
ENDBRANCH  19  20
ENDBRANCH  18  19
ENDBRANCH  17  18
ENDBRANCH   1  17
TORSDOF 26
ENDMDL
MODEL 5
REMARK VINA RESULT:    -4.871      2.899      7.334
REMARK INTER + INTRA:         -14.683
REMARK INTER:                 -12.530
REMARK INTRA:                  -2.153
REMARK UNBOUND:                -2.408
REMARK SMILES CCCCCCCCCCCCCCCCCCCCCCCCCCCC(=O)[O-]
REMARK SMILES IDX 15 1 16 2 17 3 18 4 19 5 20 6 21 7 22 8 23 9 24 10 25 11
REMARK SMILES IDX 26 12 27 13 28 14 29 15 30 16 14 17 13 18 12 19 11 20 10 21
REMARK SMILES IDX 9 22 8 23 7 24 6 25 5 26 4 27 3 28 2 29 1 30
REMARK H PARENT
REMARK Flexibility Score: inf
ROOT
ATOM      1  C   UNL     1      30.410  -2.659  29.877  1.00  0.00     0.000 C 
ENDROOT
BRANCH   1   2
ATOM      2  C   UNL     1      29.444  -1.532  30.284  1.00  0.00     0.000 C 
BRANCH   2   3
ATOM      3  C   UNL     1      30.184  -0.252  30.705  1.00  0.00     0.000 C 
BRANCH   3   4
ATOM      4  C   UNL     1      29.200   0.809  31.219  1.00  0.00     0.000 C 
BRANCH   4   5
ATOM      5  C   UNL     1      27.739   0.335  31.191  1.00  0.00     0.000 C 
BRANCH   5   6
ATOM      6  C   UNL     1      26.804   1.316  30.464  1.00  0.00     0.000 C 
BRANCH   6   7
ATOM      7  C   UNL     1      27.498   2.037  29.294  1.00  0.00     0.000 C 
BRANCH   7   8
ATOM      8  C   UNL     1      27.419   3.577  29.340  1.00  0.00     0.000 C 
BRANCH   8   9
ATOM      9  C   UNL     1      28.007   4.227  30.610  1.00  0.00     0.000 C 
BRANCH   9  10
ATOM     10  C   UNL     1      27.229   5.443  31.145  1.00  0.00     0.000 C 
BRANCH  10  11
ATOM     11  C   UNL     1      27.047   6.546  30.087  1.00  0.00     0.000 C 
BRANCH  11  12
ATOM     12  C   UNL     1      28.240   7.512  30.026  1.00  0.00     0.006 C 
BRANCH  12  13
ATOM     13  C   UNL     1      27.903   8.912  30.557  1.00  0.00     0.053 C 
BRANCH  13  14
ATOM     14  C   UNL     1      27.642   9.851  29.422  1.00  0.00     0.041 C 
ATOM     15  O   UNL     1      26.521  10.417  29.313  1.00  0.00    -0.550 OA
ATOM     16  O   UNL     1      28.619  10.067  28.458  1.00  0.00    -0.550 OA
ENDBRANCH  13  14
ENDBRANCH  12  13
ENDBRANCH  11  12
ENDBRANCH  10  11
ENDBRANCH   9  10
ENDBRANCH   8   9
ENDBRANCH   7   8
ENDBRANCH   6   7
ENDBRANCH   5   6
ENDBRANCH   4   5
ENDBRANCH   3   4
ENDBRANCH   2   3
ENDBRANCH   1   2
BRANCH   1  17
ATOM     17  C   UNL     1      29.664  -3.893  29.338  1.00  0.00     0.000 C 
BRANCH  17  18
ATOM     18  C   UNL     1      29.528  -5.011  30.393  1.00  0.00     0.000 C 
BRANCH  18  19
ATOM     19  C   UNL     1      28.159  -5.718  30.385  1.00  0.00     0.000 C 
BRANCH  19  20
ATOM     20  C   UNL     1      26.959  -4.824  30.025  1.00  0.00     0.000 C 
BRANCH  20  21
ATOM     21  C   UNL     1      26.563  -3.874  31.167  1.00  0.00     0.000 C 
BRANCH  21  22
ATOM     22  C   UNL     1      25.462  -2.877  30.763  1.00  0.00    -0.000 C 
BRANCH  22  23
ATOM     23  C   UNL     1      24.094  -3.503  30.422  1.00  0.00    -0.000 C 
BRANCH  23  24
ATOM     24  C   UNL     1      22.869  -2.735  30.948  1.00  0.00    -0.000 C 
BRANCH  24  25
ATOM     25  C   UNL     1      22.742  -1.284  30.444  1.00  0.00    -0.000 C 
BRANCH  25  26
ATOM     26  C   UNL     1      21.299  -0.868  30.084  1.00  0.00    -0.000 C 
BRANCH  26  27
ATOM     27  C   UNL     1      20.901  -1.293  28.661  1.00  0.00    -0.000 C 
BRANCH  27  28
ATOM     28  C   UNL     1      20.723  -0.093  27.716  1.00  0.00    -0.000 C 
BRANCH  28  29
ATOM     29  C   UNL     1      21.216  -0.386  26.290  1.00  0.00    -0.003 C 
ATOM     30  C   UNL     1      22.357   0.551  25.900  1.00  0.00     0.004 C 
ENDBRANCH  28  29
ENDBRANCH  27  28
ENDBRANCH  26  27
ENDBRANCH  25  26
ENDBRANCH  24  25
ENDBRANCH  23  24
ENDBRANCH  22  23
ENDBRANCH  21  22
ENDBRANCH  20  21
ENDBRANCH  19  20
ENDBRANCH  18  19
ENDBRANCH  17  18
ENDBRANCH   1  17
TORSDOF 26
ENDMDL
MODEL 6
REMARK VINA RESULT:    -4.868      5.782     11.221
REMARK INTER + INTRA:         -14.675
REMARK INTER:                 -12.495
REMARK INTRA:                  -2.181
REMARK UNBOUND:                -2.408
REMARK SMILES CCCCCCCCCCCCCCCCCCCCCCCCCCCC(=O)[O-]
REMARK SMILES IDX 15 1 16 2 17 3 18 4 19 5 20 6 21 7 22 8 23 9 24 10 25 11
REMARK SMILES IDX 26 12 27 13 28 14 29 15 30 16 14 17 13 18 12 19 11 20 10 21
REMARK SMILES IDX 9 22 8 23 7 24 6 25 5 26 4 27 3 28 2 29 1 30
REMARK H PARENT
REMARK Flexibility Score: inf
ROOT
ATOM      1  C   UNL     1      28.078   4.440  31.919  1.00  0.00     0.000 C 
ENDROOT
BRANCH   1   2
ATOM      2  C   UNL     1      29.035   3.235  31.930  1.00  0.00     0.000 C 
BRANCH   2   3
ATOM      3  C   UNL     1      28.384   1.968  31.352  1.00  0.00     0.000 C 
BRANCH   3   4
ATOM      4  C   UNL     1      29.442   1.031  30.750  1.00  0.00     0.000 C 
BRANCH   4   5
ATOM      5  C   UNL     1      29.340   0.914  29.222  1.00  0.00     0.000 C 
BRANCH   5   6
ATOM      6  C   UNL     1      28.428  -0.241  28.769  1.00  0.00     0.000 C 
BRANCH   6   7
ATOM      7  C   UNL     1      26.999  -0.119  29.329  1.00  0.00     0.000 C 
BRANCH   7   8
ATOM      8  C   UNL     1      26.514  -1.337  30.142  1.00  0.00     0.000 C 
BRANCH   8   9
ATOM      9  C   UNL     1      27.569  -1.966  31.076  1.00  0.00     0.000 C 
BRANCH   9  10
ATOM     10  C   UNL     1      27.645  -3.503  31.039  1.00  0.00     0.000 C 
BRANCH  10  11
ATOM     11  C   UNL     1      28.710  -4.023  30.058  1.00  0.00     0.000 C 
BRANCH  11  12
ATOM     12  C   UNL     1      29.361  -5.334  30.528  1.00  0.00     0.006 C 
BRANCH  12  13
ATOM     13  C   UNL     1      28.337  -6.369  31.012  1.00  0.00     0.053 C 
BRANCH  13  14
ATOM     14  C   UNL     1      28.651  -7.718  30.446  1.00  0.00     0.041 C 
ATOM     15  O   UNL     1      27.777  -8.349  29.793  1.00  0.00    -0.550 OA
ATOM     16  O   UNL     1      29.892  -8.298  30.677  1.00  0.00    -0.550 OA
ENDBRANCH  13  14
ENDBRANCH  12  13
ENDBRANCH  11  12
ENDBRANCH  10  11
ENDBRANCH   9  10
ENDBRANCH   8   9
ENDBRANCH   7   8
ENDBRANCH   6   7
ENDBRANCH   5   6
ENDBRANCH   4   5
ENDBRANCH   3   4
ENDBRANCH   2   3
ENDBRANCH   1   2
BRANCH   1  17
ATOM     17  C   UNL     1      28.764   5.717  31.402  1.00  0.00     0.000 C 
BRANCH  17  18
ATOM     18  C   UNL     1      27.815   6.604  30.569  1.00  0.00     0.000 C 
BRANCH  18  19
ATOM     19  C   UNL     1      26.867   5.813  29.645  1.00  0.00     0.000 C 
BRANCH  19  20
ATOM     20  C   UNL     1      27.559   4.906  28.613  1.00  0.00     0.000 C 
BRANCH  20  21
ATOM     21  C   UNL     1      26.881   3.533  28.481  1.00  0.00     0.000 C 
BRANCH  21  22
ATOM     22  C   UNL     1      25.789   3.505  27.396  1.00  0.00    -0.000 C 
BRANCH  22  23
ATOM     23  C   UNL     1      25.390   2.101  26.895  1.00  0.00    -0.000 C 
BRANCH  23  24
ATOM     24  C   UNL     1      24.288   2.074  25.821  1.00  0.00    -0.000 C 
BRANCH  24  25
ATOM     25  C   UNL     1      23.516   0.745  25.710  1.00  0.00    -0.000 C 
BRANCH  25  26
ATOM     26  C   UNL     1      21.982   0.901  25.787  1.00  0.00    -0.000 C 
BRANCH  26  27
ATOM     27  C   UNL     1      21.298  -0.310  26.444  1.00  0.00    -0.000 C 
BRANCH  27  28
ATOM     28  C   UNL     1      20.571   0.061  27.747  1.00  0.00    -0.000 C 
BRANCH  28  29
ATOM     29  C   UNL     1      20.615  -1.068  28.790  1.00  0.00    -0.003 C 
ATOM     30  C   UNL     1      21.784  -0.880  29.753  1.00  0.00     0.004 C 
ENDBRANCH  28  29
ENDBRANCH  27  28
ENDBRANCH  26  27
ENDBRANCH  25  26
ENDBRANCH  24  25
ENDBRANCH  23  24
ENDBRANCH  22  23
ENDBRANCH  21  22
ENDBRANCH  20  21
ENDBRANCH  19  20
ENDBRANCH  18  19
ENDBRANCH  17  18
ENDBRANCH   1  17
TORSDOF 26
ENDMDL
MODEL 7
REMARK VINA RESULT:    -4.860      3.966      8.229
REMARK INTER + INTRA:         -14.654
REMARK INTER:                 -12.140
REMARK INTRA:                  -2.514
REMARK UNBOUND:                -2.408
REMARK SMILES CCCCCCCCCCCCCCCCCCCCCCCCCCCC(=O)[O-]
REMARK SMILES IDX 15 1 16 2 17 3 18 4 19 5 20 6 21 7 22 8 23 9 24 10 25 11
REMARK SMILES IDX 26 12 27 13 28 14 29 15 30 16 14 17 13 18 12 19 11 20 10 21
REMARK SMILES IDX 9 22 8 23 7 24 6 25 5 26 4 27 3 28 2 29 1 30
REMARK H PARENT
REMARK Flexibility Score: inf
ROOT
ATOM      1  C   UNL     1      26.952   3.330  28.873  1.00  0.00     0.000 C 
ENDROOT
BRANCH   1   2
ATOM      2  C   UNL     1      27.983   4.434  29.165  1.00  0.00     0.000 C 
BRANCH   2   3
ATOM      3  C   UNL     1      27.407   5.551  30.053  1.00  0.00     0.000 C 
BRANCH   3   4
ATOM      4  C   UNL     1      27.738   5.303  31.532  1.00  0.00     0.000 C 
BRANCH   4   5
ATOM      5  C   UNL     1      29.237   5.079  31.782  1.00  0.00     0.000 C 
BRANCH   5   6
ATOM      6  C   UNL     1      29.512   4.042  32.884  1.00  0.00     0.000 C 
BRANCH   6   7
ATOM      7  C   UNL     1      30.865   4.269  33.584  1.00  0.00     0.000 C 
BRANCH   7   8
ATOM      8  C   UNL     1      31.142   3.336  34.782  1.00  0.00     0.000 C 
BRANCH   8   9
ATOM      9  C   UNL     1      31.621   1.917  34.412  1.00  0.00     0.000 C 
BRANCH   9  10
ATOM     10  C   UNL     1      32.836   1.406  35.209  1.00  0.00     0.000 C 
BRANCH  10  11
ATOM     11  C   UNL     1      34.172   1.941  34.664  1.00  0.00     0.000 C 
BRANCH  11  12
ATOM     12  C   UNL     1      35.009   0.854  33.972  1.00  0.00     0.006 C 
BRANCH  12  13
ATOM     13  C   UNL     1      35.537   1.291  32.600  1.00  0.00     0.053 C 
BRANCH  13  14
ATOM     14  C   UNL     1      35.273   0.230  31.578  1.00  0.00     0.041 C 
ATOM     15  O   UNL     1      34.407   0.417  30.680  1.00  0.00    -0.550 OA
ATOM     16  O   UNL     1      35.947  -0.983  31.642  1.00  0.00    -0.550 OA
ENDBRANCH  13  14
ENDBRANCH  12  13
ENDBRANCH  11  12
ENDBRANCH  10  11
ENDBRANCH   9  10
ENDBRANCH   8   9
ENDBRANCH   7   8
ENDBRANCH   6   7
ENDBRANCH   5   6
ENDBRANCH   4   5
ENDBRANCH   3   4
ENDBRANCH   2   3
ENDBRANCH   1   2
BRANCH   1  17
ATOM     17  C   UNL     1      27.464   1.938  29.284  1.00  0.00     0.000 C 
BRANCH  17  18
ATOM     18  C   UNL     1      27.479   1.740  30.814  1.00  0.00     0.000 C 
BRANCH  18  19
ATOM     19  C   UNL     1      28.696   0.949  31.333  1.00  0.00     0.000 C 
BRANCH  19  20
ATOM     20  C   UNL     1      29.930   0.965  30.416  1.00  0.00     0.000 C 
BRANCH  20  21
ATOM     21  C   UNL     1      30.666  -0.385  30.388  1.00  0.00     0.000 C 
BRANCH  21  22
ATOM     22  C   UNL     1      29.709  -1.589  30.325  1.00  0.00    -0.000 C 
BRANCH  22  23
ATOM     23  C   UNL     1      30.273  -2.848  29.634  1.00  0.00    -0.000 C 
BRANCH  23  24
ATOM     24  C   UNL     1      29.282  -4.015  29.484  1.00  0.00    -0.000 C 
BRANCH  24  25
ATOM     25  C   UNL     1      29.567  -5.234  30.384  1.00  0.00    -0.000 C 
BRANCH  25  26
ATOM     26  C   UNL     1      28.341  -5.723  31.185  1.00  0.00    -0.000 C 
BRANCH  26  27
ATOM     27  C   UNL     1      28.427  -7.217  31.540  1.00  0.00    -0.000 C 
BRANCH  27  28
ATOM     28  C   UNL     1      29.518  -7.950  30.743  1.00  0.00    -0.000 C 
BRANCH  28  29
ATOM     29  C   UNL     1      28.948  -9.055  29.839  1.00  0.00    -0.003 C 
ATOM     30  C   UNL     1      29.134  -8.708  28.364  1.00  0.00     0.004 C 
ENDBRANCH  28  29
ENDBRANCH  27  28
ENDBRANCH  26  27
ENDBRANCH  25  26
ENDBRANCH  24  25
ENDBRANCH  23  24
ENDBRANCH  22  23
ENDBRANCH  21  22
ENDBRANCH  20  21
ENDBRANCH  19  20
ENDBRANCH  18  19
ENDBRANCH  17  18
ENDBRANCH   1  17
TORSDOF 26
ENDMDL
MODEL 8
REMARK VINA RESULT:    -4.832      3.333      5.902
REMARK INTER + INTRA:         -14.585
REMARK INTER:                 -12.027
REMARK INTRA:                  -2.558
REMARK UNBOUND:                -2.408
REMARK SMILES CCCCCCCCCCCCCCCCCCCCCCCCCCCC(=O)[O-]
REMARK SMILES IDX 15 1 16 2 17 3 18 4 19 5 20 6 21 7 22 8 23 9 24 10 25 11
REMARK SMILES IDX 26 12 27 13 28 14 29 15 30 16 14 17 13 18 12 19 11 20 10 21
REMARK SMILES IDX 9 22 8 23 7 24 6 25 5 26 4 27 3 28 2 29 1 30
REMARK H PARENT
REMARK Flexibility Score: inf
ROOT
ATOM      1  C   UNL     1      22.237   1.190  25.874  1.00  0.00     0.000 C 
ENDROOT
BRANCH   1   2
ATOM      2  C   UNL     1      23.708   0.957  25.487  1.00  0.00     0.000 C 
BRANCH   2   3
ATOM      3  C   UNL     1      24.684   1.604  26.484  1.00  0.00     0.000 C 
BRANCH   3   4
ATOM      4  C   UNL     1      24.936   3.077  26.130  1.00  0.00     0.000 C 
BRANCH   4   5
ATOM      5  C   UNL     1      25.357   3.921  27.342  1.00  0.00     0.000 C 
BRANCH   5   6
ATOM      6  C   UNL     1      26.510   3.290  28.142  1.00  0.00     0.000 C 
BRANCH   6   7
ATOM      7  C   UNL     1      27.499   4.339  28.682  1.00  0.00     0.000 C 
BRANCH   7   8
ATOM      8  C   UNL     1      26.863   5.443  29.552  1.00  0.00     0.000 C 
BRANCH   8   9
ATOM      9  C   UNL     1      27.679   5.849  30.797  1.00  0.00     0.000 C 
BRANCH   9  10
ATOM     10  C   UNL     1      28.364   7.225  30.713  1.00  0.00     0.000 C 
BRANCH  10  11
ATOM     11  C   UNL     1      27.513   8.269  29.968  1.00  0.00     0.000 C 
BRANCH  11  12
ATOM     12  C   UNL     1      28.207   9.637  29.865  1.00  0.00     0.006 C 
BRANCH  12  13
ATOM     13  C   UNL     1      27.969  10.521  31.096  1.00  0.00     0.053 C 
BRANCH  13  14
ATOM     14  C   UNL     1      26.541  10.432  31.534  1.00  0.00     0.041 C 
ATOM     15  O   UNL     1      26.251   9.914  32.646  1.00  0.00    -0.550 OA
ATOM     16  O   UNL     1      25.526  10.876  30.695  1.00  0.00    -0.550 OA
ENDBRANCH  13  14
ENDBRANCH  12  13
ENDBRANCH  11  12
ENDBRANCH  10  11
ENDBRANCH   9  10
ENDBRANCH   8   9
ENDBRANCH   7   8
ENDBRANCH   6   7
ENDBRANCH   5   6
ENDBRANCH   4   5
ENDBRANCH   3   4
ENDBRANCH   2   3
ENDBRANCH   1   2
BRANCH   1  17
ATOM     17  C   UNL     1      21.535  -0.116  26.287  1.00  0.00     0.000 C 
BRANCH  17  18
ATOM     18  C   UNL     1      20.738   0.030  27.600  1.00  0.00     0.000 C 
BRANCH  18  19
ATOM     19  C   UNL     1      20.874  -1.174  28.554  1.00  0.00     0.000 C 
BRANCH  19  20
ATOM     20  C   UNL     1      21.251  -0.825  30.004  1.00  0.00     0.000 C 
BRANCH  20  21
ATOM     21  C   UNL     1      22.623  -1.387  30.412  1.00  0.00     0.000 C 
BRANCH  21  22
ATOM     22  C   UNL     1      23.733  -0.320  30.410  1.00  0.00    -0.000 C 
BRANCH  22  23
ATOM     23  C   UNL     1      25.175  -0.865  30.487  1.00  0.00    -0.000 C 
BRANCH  23  24
ATOM     24  C   UNL     1      26.235  -0.027  29.753  1.00  0.00    -0.000 C 
BRANCH  24  25
ATOM     25  C   UNL     1      27.588  -0.732  29.531  1.00  0.00    -0.000 C 
BRANCH  25  26
ATOM     26  C   UNL     1      28.527   0.005  28.552  1.00  0.00    -0.000 C 
BRANCH  26  27
ATOM     27  C   UNL     1      29.359   1.098  29.245  1.00  0.00    -0.000 C 
BRANCH  27  28
ATOM     28  C   UNL     1      30.091   0.578  30.494  1.00  0.00    -0.000 C 
BRANCH  28  29
ATOM     29  C   UNL     1      29.476   1.106  31.800  1.00  0.00    -0.003 C 
ATOM     30  C   UNL     1      28.640   2.358  31.548  1.00  0.00     0.004 C 
ENDBRANCH  28  29
ENDBRANCH  27  28
ENDBRANCH  26  27
ENDBRANCH  25  26
ENDBRANCH  24  25
ENDBRANCH  23  24
ENDBRANCH  22  23
ENDBRANCH  21  22
ENDBRANCH  20  21
ENDBRANCH  19  20
ENDBRANCH  18  19
ENDBRANCH  17  18
ENDBRANCH   1  17
TORSDOF 26
ENDMDL
MODEL 9
REMARK VINA RESULT:    -4.801      3.565      8.620
REMARK INTER + INTRA:         -14.507
REMARK INTER:                 -12.268
REMARK INTRA:                  -2.239
REMARK UNBOUND:                -2.408
REMARK SMILES CCCCCCCCCCCCCCCCCCCCCCCCCCCC(=O)[O-]
REMARK SMILES IDX 15 1 16 2 17 3 18 4 19 5 20 6 21 7 22 8 23 9 24 10 25 11
REMARK SMILES IDX 26 12 27 13 28 14 29 15 30 16 14 17 13 18 12 19 11 20 10 21
REMARK SMILES IDX 9 22 8 23 7 24 6 25 5 26 4 27 3 28 2 29 1 30
REMARK H PARENT
REMARK Flexibility Score: inf
ROOT
ATOM      1  C   UNL     1      27.169  -1.690  30.767  1.00  0.00     0.000 C 
ENDROOT
BRANCH   1   2
ATOM      2  C   UNL     1      26.560  -3.102  30.828  1.00  0.00     0.000 C 
BRANCH   2   3
ATOM      3  C   UNL     1      27.606  -4.174  31.178  1.00  0.00     0.000 C 
BRANCH   3   4
ATOM      4  C   UNL     1      27.784  -5.167  30.020  1.00  0.00     0.000 C 
BRANCH   4   5
ATOM      5  C   UNL     1      29.176  -5.094  29.377  1.00  0.00     0.000 C 
BRANCH   5   6
ATOM      6  C   UNL     1      29.753  -3.668  29.355  1.00  0.00     0.000 C 
BRANCH   6   7
ATOM      7  C   UNL     1      31.059  -3.547  30.163  1.00  0.00     0.000 C 
BRANCH   7   8
ATOM      8  C   UNL     1      31.821  -2.219  29.971  1.00  0.00     0.000 C 
BRANCH   8   9
ATOM      9  C   UNL     1      33.358  -2.341  29.944  1.00  0.00     0.000 C 
BRANCH   9  10
ATOM     10  C   UNL     1      34.119  -1.013  29.780  1.00  0.00     0.000 C 
BRANCH  10  11
ATOM     11  C   UNL     1      34.126  -0.168  31.066  1.00  0.00     0.000 C 
BRANCH  11  12
ATOM     12  C   UNL     1      35.545   0.198  31.528  1.00  0.00     0.006 C 
BRANCH  12  13
ATOM     13  C   UNL     1      35.556   1.239  32.656  1.00  0.00     0.053 C 
BRANCH  13  14
ATOM     14  C   UNL     1      35.000   0.650  33.914  1.00  0.00     0.041 C 
ATOM     15  O   UNL     1      35.524  -0.382  34.415  1.00  0.00    -0.550 OA
ATOM     16  O   UNL     1      33.877   1.210  34.509  1.00  0.00    -0.550 OA
ENDBRANCH  13  14
ENDBRANCH  12  13
ENDBRANCH  11  12
ENDBRANCH  10  11
ENDBRANCH   9  10
ENDBRANCH   8   9
ENDBRANCH   7   8
ENDBRANCH   6   7
ENDBRANCH   5   6
ENDBRANCH   4   5
ENDBRANCH   3   4
ENDBRANCH   2   3
ENDBRANCH   1   2
BRANCH   1  17
ATOM     17  C   UNL     1      26.233  -0.687  30.068  1.00  0.00     0.000 C 
BRANCH  17  18
ATOM     18  C   UNL     1      26.946   0.114  28.959  1.00  0.00     0.000 C 
BRANCH  18  19
ATOM     19  C   UNL     1      28.464  -0.136  28.881  1.00  0.00     0.000 C 
BRANCH  19  20
ATOM     20  C   UNL     1      29.347   1.002  29.419  1.00  0.00     0.000 C 
BRANCH  20  21
ATOM     21  C   UNL     1      29.497   0.964  30.949  1.00  0.00     0.000 C 
BRANCH  21  22
ATOM     22  C   UNL     1      28.432   1.805  31.677  1.00  0.00    -0.000 C 
BRANCH  22  23
ATOM     23  C   UNL     1      28.047   3.129  30.985  1.00  0.00    -0.000 C 
BRANCH  23  24
ATOM     24  C   UNL     1      28.272   4.399  31.823  1.00  0.00    -0.000 C 
BRANCH  24  25
ATOM     25  C   UNL     1      28.822   5.609  31.041  1.00  0.00    -0.000 C 
BRANCH  25  26
ATOM     26  C   UNL     1      27.737   6.435  30.317  1.00  0.00    -0.000 C 
BRANCH  26  27
ATOM     27  C   UNL     1      27.791   7.928  30.682  1.00  0.00    -0.000 C 
BRANCH  27  28
ATOM     28  C   UNL     1      26.522   8.685  30.257  1.00  0.00    -0.000 C 
BRANCH  28  29
ATOM     29  C   UNL     1      26.132   9.789  31.252  1.00  0.00    -0.003 C 
ATOM     30  C   UNL     1      27.242  10.830  31.381  1.00  0.00     0.004 C 
ENDBRANCH  28  29
ENDBRANCH  27  28
ENDBRANCH  26  27
ENDBRANCH  25  26
ENDBRANCH  24  25
ENDBRANCH  23  24
ENDBRANCH  22  23
ENDBRANCH  21  22
ENDBRANCH  20  21
ENDBRANCH  19  20
ENDBRANCH  18  19
ENDBRANCH  17  18
ENDBRANCH   1  17
TORSDOF 26
ENDMDL
