MODEL 1
REMARK VINA RESULT:    -4.289      0.000      0.000
REMARK INTER + INTRA:         -10.797
REMARK INTER:                  -8.049
REMARK INTRA:                  -2.748
REMARK UNBOUND:                -2.748
REMARK SMILES CCCCCCCCC=CCCCCCCCC(=O)[O-]
REMARK SMILES IDX 10 1 9 2 11 3 12 4 13 5 14 6 15 7 16 8 17 9 18 10 19 11
REMARK SMILES IDX 20 12 8 13 7 14 6 15 5 16 4 17 3 18 2 19 1 20
REMARK H PARENT
REMARK Flexibility Score: inf
ROOT
ATOM      1  C   UNL     1     117.545 119.720 130.162  1.00  0.00    -0.031 C 
ATOM      2  C   UNL     1     117.870 120.982 130.478  1.00  0.00    -0.031 C 
ENDROOT
BRANCH   1   3
ATOM      3  C   UNL     1     116.889 119.383 128.852  1.00  0.00     0.027 C 
BRANCH   3   4
ATOM      4  C   UNL     1     115.389 119.716 128.889  1.00  0.00     0.004 C 
BRANCH   4   5
ATOM      5  C   UNL     1     114.965 120.662 127.757  1.00  0.00     0.000 C 
BRANCH   5   6
ATOM      6  C   UNL     1     114.264 121.927 128.275  1.00  0.00     0.000 C 
BRANCH   6   7
ATOM      7  C   UNL     1     115.218 123.127 128.265  1.00  0.00     0.000 C 
BRANCH   7   8
ATOM      8  C   UNL     1     116.413 122.874 127.335  1.00  0.00     0.006 C 
BRANCH   8   9
ATOM      9  C   UNL     1     117.695 123.551 127.838  1.00  0.00     0.053 C 
BRANCH   9  10
ATOM     10  C   UNL     1     118.035 124.767 127.033  1.00  0.00     0.041 C 
ATOM     11  O   UNL     1     117.293 125.784 127.078  1.00  0.00    -0.550 OA
ATOM     12  O   UNL     1     119.189 124.791 126.261  1.00  0.00    -0.550 OA
ENDBRANCH   9  10
ENDBRANCH   8   9
ENDBRANCH   7   8
ENDBRANCH   6   7
ENDBRANCH   5   6
ENDBRANCH   4   5
ENDBRANCH   3   4
ENDBRANCH   1   3
BRANCH   2  13
ATOM     13  C   UNL     1     118.454 121.336 131.819  1.00  0.00     0.027 C 
BRANCH  13  14
ATOM     14  C   UNL     1     118.492 120.117 132.751  1.00  0.00     0.004 C 
BRANCH  14  15
ATOM     15  C   UNL     1     118.565 120.519 134.231  1.00  0.00     0.000 C 
BRANCH  15  16
ATOM     16  C   UNL     1     117.202 121.010 134.736  1.00  0.00     0.000 C 
BRANCH  16  17
ATOM     17  C   UNL     1     116.087 119.964 134.558  1.00  0.00    -0.000 C 
BRANCH  17  18
ATOM     18  C   UNL     1     114.778 120.502 133.944  1.00  0.00    -0.000 C 
BRANCH  18  19
ATOM     19  C   UNL     1     114.763 120.571 132.407  1.00  0.00    -0.003 C 
ATOM     20  C   UNL     1     114.704 122.002 131.876  1.00  0.00     0.004 C 
ENDBRANCH  18  19
ENDBRANCH  17  18
ENDBRANCH  16  17
ENDBRANCH  15  16
ENDBRANCH  14  15
ENDBRANCH  13  14
ENDBRANCH   2  13
TORSDOF 15
ENDMDL
MODEL 2
REMARK VINA RESULT:    -4.266      1.999      4.294
REMARK INTER + INTRA:         -10.754
REMARK INTER:                  -7.900
REMARK INTRA:                  -2.854
REMARK UNBOUND:                -2.748
REMARK SMILES CCCCCCCCC=CCCCCCCCC(=O)[O-]
REMARK SMILES IDX 10 1 9 2 11 3 12 4 13 5 14 6 15 7 16 8 17 9 18 10 19 11
REMARK SMILES IDX 20 12 8 13 7 14 6 15 5 16 4 17 3 18 2 19 1 20
REMARK H PARENT
REMARK Flexibility Score: inf
ROOT
ATOM      1  C   UNL     1     117.879 123.347 130.956  1.00  0.00    -0.031 C 
ATOM      2  C   UNL     1     116.590 123.695 131.077  1.00  0.00    -0.031 C 
ENDROOT
BRANCH   1   3
ATOM      3  C   UNL     1     118.891 124.278 130.351  1.00  0.00     0.027 C 
BRANCH   3   4
ATOM      4  C   UNL     1     118.618 125.731 130.771  1.00  0.00     0.004 C 
BRANCH   4   5
ATOM      5  C   UNL     1     118.410 126.665 129.571  1.00  0.00     0.000 C 
BRANCH   5   6
ATOM      6  C   UNL     1     116.927 126.844 129.212  1.00  0.00     0.000 C 
BRANCH   6   7
ATOM      7  C   UNL     1     116.538 125.957 128.024  1.00  0.00     0.000 C 
BRANCH   7   8
ATOM      8  C   UNL     1     117.732 125.741 127.082  1.00  0.00     0.006 C 
BRANCH   8   9
ATOM      9  C   UNL     1     117.855 124.282 126.623  1.00  0.00     0.053 C 
BRANCH   9  10
ATOM     10  C   UNL     1     119.283 123.884 126.414  1.00  0.00     0.041 C 
ATOM     11  O   UNL     1     120.214 124.629 126.818  1.00  0.00    -0.550 OA
ATOM     12  O   UNL     1     119.586 122.673 125.804  1.00  0.00    -0.550 OA
ENDBRANCH   9  10
ENDBRANCH   8   9
ENDBRANCH   7   8
ENDBRANCH   6   7
ENDBRANCH   5   6
ENDBRANCH   4   5
ENDBRANCH   3   4
ENDBRANCH   1   3
BRANCH   2  13
ATOM     13  C   UNL     1     115.559 122.738 131.609  1.00  0.00     0.027 C 
BRANCH  13  14
ATOM     14  C   UNL     1     116.215 121.561 132.343  1.00  0.00     0.004 C 
BRANCH  14  15
ATOM     15  C   UNL     1     115.786 120.204 131.765  1.00  0.00     0.000 C 
BRANCH  15  16
ATOM     16  C   UNL     1     116.663 119.814 130.568  1.00  0.00     0.000 C 
BRANCH  16  17
ATOM     17  C   UNL     1     115.854 119.202 129.410  1.00  0.00    -0.000 C 
BRANCH  17  18
ATOM     18  C   UNL     1     114.991 120.203 128.616  1.00  0.00    -0.000 C 
BRANCH  18  19
ATOM     19  C   UNL     1     115.734 121.461 128.133  1.00  0.00    -0.003 C 
ATOM     20  C   UNL     1     114.808 122.661 127.941  1.00  0.00     0.004 C 
ENDBRANCH  18  19
ENDBRANCH  17  18
ENDBRANCH  16  17
ENDBRANCH  15  16
ENDBRANCH  14  15
ENDBRANCH  13  14
ENDBRANCH   2  13
TORSDOF 15
ENDMDL
MODEL 3
REMARK VINA RESULT:    -4.189      1.013      2.620
REMARK INTER + INTRA:         -10.609
REMARK INTER:                  -8.449
REMARK INTRA:                  -2.160
REMARK UNBOUND:                -2.748
REMARK SMILES CCCCCCCCC=CCCCCCCCC(=O)[O-]
REMARK SMILES IDX 10 1 9 2 11 3 12 4 13 5 14 6 15 7 16 8 17 9 18 10 19 11
REMARK SMILES IDX 20 12 8 13 7 14 6 15 5 16 4 17 3 18 2 19 1 20
REMARK H PARENT
REMARK Flexibility Score: inf
ROOT
ATOM      1  C   UNL     1     115.532 119.927 131.243  1.00  0.00    -0.031 C 
ATOM      2  C   UNL     1     115.234 120.846 132.172  1.00  0.00    -0.031 C 
ENDROOT
BRANCH   1   3
ATOM      3  C   UNL     1     116.097 120.316 129.906  1.00  0.00     0.027 C 
BRANCH   3   4
ATOM      4  C   UNL     1     115.148 119.905 128.769  1.00  0.00     0.004 C 
BRANCH   4   5
ATOM      5  C   UNL     1     114.449 121.107 128.118  1.00  0.00     0.000 C 
BRANCH   5   6
ATOM      6  C   UNL     1     115.120 122.443 128.470  1.00  0.00     0.000 C 
BRANCH   6   7
ATOM      7  C   UNL     1     115.901 122.998 127.274  1.00  0.00     0.000 C 
BRANCH   7   8
ATOM      8  C   UNL     1     117.387 123.176 127.619  1.00  0.00     0.006 C 
BRANCH   8   9
ATOM      9  C   UNL     1     118.131 124.015 126.573  1.00  0.00     0.053 C 
BRANCH   9  10
ATOM     10  C   UNL     1     118.235 125.452 126.984  1.00  0.00     0.041 C 
ATOM     11  O   UNL     1     119.353 126.032 126.981  1.00  0.00    -0.550 OA
ATOM     12  O   UNL     1     117.093 126.159 127.337  1.00  0.00    -0.550 OA
ENDBRANCH   9  10
ENDBRANCH   8   9
ENDBRANCH   7   8
ENDBRANCH   6   7
ENDBRANCH   5   6
ENDBRANCH   4   5
ENDBRANCH   3   4
ENDBRANCH   1   3
BRANCH   2  13
ATOM     13  C   UNL     1     114.595 120.469 133.481  1.00  0.00     0.027 C 
BRANCH  13  14
ATOM     14  C   UNL     1     115.501 120.822 134.668  1.00  0.00     0.004 C 
BRANCH  14  15
ATOM     15  C   UNL     1     116.604 119.777 134.887  1.00  0.00     0.000 C 
BRANCH  15  16
ATOM     16  C   UNL     1     117.996 120.407 134.743  1.00  0.00     0.000 C 
BRANCH  16  17
ATOM     17  C   UNL     1     118.857 119.715 133.670  1.00  0.00    -0.000 C 
BRANCH  17  18
ATOM     18  C   UNL     1     118.987 120.486 132.341  1.00  0.00    -0.000 C 
BRANCH  18  19
ATOM     19  C   UNL     1     119.104 122.013 132.485  1.00  0.00    -0.003 C 
ATOM     20  C   UNL     1     118.324 122.773 131.413  1.00  0.00     0.004 C 
ENDBRANCH  18  19
ENDBRANCH  17  18
ENDBRANCH  16  17
ENDBRANCH  15  16
ENDBRANCH  14  15
ENDBRANCH  13  14
ENDBRANCH   2  13
TORSDOF 15
ENDMDL
MODEL 4
REMARK VINA RESULT:    -4.177      3.511      6.887
REMARK INTER + INTRA:         -10.588
REMARK INTER:                  -8.479
REMARK INTRA:                  -2.110
REMARK UNBOUND:                -2.748
REMARK SMILES CCCCCCCCC=CCCCCCCCC(=O)[O-]
REMARK SMILES IDX 10 1 9 2 11 3 12 4 13 5 14 6 15 7 16 8 17 9 18 10 19 11
REMARK SMILES IDX 20 12 8 13 7 14 6 15 5 16 4 17 3 18 2 19 1 20
REMARK H PARENT
REMARK Flexibility Score: inf
ROOT
ATOM      1  C   UNL     1     117.877 123.449 131.205  1.00  0.00    -0.031 C 
ATOM      2  C   UNL     1     117.384 124.681 131.012  1.00  0.00    -0.031 C 
ENDROOT
BRANCH   1   3
ATOM      3  C   UNL     1     116.974 122.259 131.371  1.00  0.00     0.027 C 
BRANCH   3   4
ATOM      4  C   UNL     1     115.498 122.675 131.277  1.00  0.00     0.004 C 
BRANCH   4   5
ATOM      5  C   UNL     1     114.536 121.503 131.522  1.00  0.00     0.000 C 
BRANCH   5   6
ATOM      6  C   UNL     1     115.187 120.361 132.317  1.00  0.00     0.000 C 
BRANCH   6   7
ATOM      7  C   UNL     1     114.755 120.398 133.787  1.00  0.00     0.000 C 
BRANCH   7   8
ATOM      8  C   UNL     1     115.930 120.781 134.698  1.00  0.00     0.006 C 
BRANCH   8   9
ATOM      9  C   UNL     1     116.819 119.577 135.039  1.00  0.00     0.053 C 
BRANCH   9  10
ATOM     10  C   UNL     1     118.234 119.789 134.598  1.00  0.00     0.041 C 
ATOM     11  O   UNL     1     118.632 120.941 134.279  1.00  0.00    -0.550 OA
ATOM     12  O   UNL     1     119.122 118.722 134.572  1.00  0.00    -0.550 OA
ENDBRANCH   9  10
ENDBRANCH   8   9
ENDBRANCH   7   8
ENDBRANCH   6   7
ENDBRANCH   5   6
ENDBRANCH   4   5
ENDBRANCH   3   4
ENDBRANCH   1   3
BRANCH   2  13
ATOM     13  C   UNL     1     118.280 125.886 130.923  1.00  0.00     0.027 C 
BRANCH  13  14
ATOM     14  C   UNL     1     118.422 126.371 129.475  1.00  0.00     0.004 C 
BRANCH  14  15
ATOM     15  C   UNL     1     117.080 126.815 128.876  1.00  0.00     0.000 C 
BRANCH  15  16
ATOM     16  C   UNL     1     116.817 126.117 127.535  1.00  0.00     0.000 C 
BRANCH  16  17
ATOM     17  C   UNL     1     117.916 125.105 127.163  1.00  0.00    -0.000 C 
BRANCH  17  18
ATOM     18  C   UNL     1     117.405 123.725 126.703  1.00  0.00    -0.000 C 
BRANCH  18  19
ATOM     19  C   UNL     1     116.722 122.888 127.799  1.00  0.00    -0.003 C 
ATOM     20  C   UNL     1     115.325 122.413 127.401  1.00  0.00     0.004 C 
ENDBRANCH  18  19
ENDBRANCH  17  18
ENDBRANCH  16  17
ENDBRANCH  15  16
ENDBRANCH  14  15
ENDBRANCH  13  14
ENDBRANCH   2  13
TORSDOF 15
ENDMDL
MODEL 5
REMARK VINA RESULT:    -4.166      2.075      4.716
REMARK INTER + INTRA:         -10.567
REMARK INTER:                  -7.805
REMARK INTRA:                  -2.762
REMARK UNBOUND:                -2.748
REMARK SMILES CCCCCCCCC=CCCCCCCCC(=O)[O-]
REMARK SMILES IDX 10 1 9 2 11 3 12 4 13 5 14 6 15 7 16 8 17 9 18 10 19 11
REMARK SMILES IDX 20 12 8 13 7 14 6 15 5 16 4 17 3 18 2 19 1 20
REMARK H PARENT
REMARK Flexibility Score: inf
ROOT
ATOM      1  C   UNL     1     117.086 123.255 129.724  1.00  0.00    -0.031 C 
ATOM      2  C   UNL     1     116.071 123.311 128.848  1.00  0.00    -0.031 C 
ENDROOT
BRANCH   1   3
ATOM      3  C   UNL     1     117.047 124.013 131.021  1.00  0.00     0.027 C 
BRANCH   3   4
ATOM      4  C   UNL     1     118.036 125.189 130.997  1.00  0.00     0.004 C 
BRANCH   4   5
ATOM      5  C   UNL     1     117.334 126.551 130.892  1.00  0.00     0.000 C 
BRANCH   5   6
ATOM      6  C   UNL     1     117.597 127.248 129.549  1.00  0.00     0.000 C 
BRANCH   6   7
ATOM      7  C   UNL     1     116.582 126.804 128.490  1.00  0.00     0.000 C 
BRANCH   7   8
ATOM      8  C   UNL     1     117.284 126.154 127.290  1.00  0.00     0.006 C 
BRANCH   8   9
ATOM      9  C   UNL     1     118.812 126.163 127.434  1.00  0.00     0.053 C 
BRANCH   9  10
ATOM     10  C   UNL     1     119.398 124.798 127.240  1.00  0.00     0.041 C 
ATOM     11  O   UNL     1     120.106 124.279 128.143  1.00  0.00    -0.550 OA
ATOM     12  O   UNL     1     119.132 124.086 126.077  1.00  0.00    -0.550 OA
ENDBRANCH   9  10
ENDBRANCH   8   9
ENDBRANCH   7   8
ENDBRANCH   6   7
ENDBRANCH   5   6
ENDBRANCH   4   5
ENDBRANCH   3   4
ENDBRANCH   1   3
BRANCH   2  13
ATOM     13  C   UNL     1     116.139 122.618 127.515  1.00  0.00     0.027 C 
BRANCH  13  14
ATOM     14  C   UNL     1     114.799 121.960 127.159  1.00  0.00     0.004 C 
BRANCH  14  15
ATOM     15  C   UNL     1     114.475 120.771 128.074  1.00  0.00     0.000 C 
BRANCH  15  16
ATOM     16  C   UNL     1     115.712 119.889 128.289  1.00  0.00     0.000 C 
BRANCH  16  17
ATOM     17  C   UNL     1     115.687 119.142 129.635  1.00  0.00    -0.000 C 
BRANCH  17  18
ATOM     18  C   UNL     1     116.404 119.862 130.795  1.00  0.00    -0.000 C 
BRANCH  18  19
ATOM     19  C   UNL     1     115.518 120.171 132.014  1.00  0.00    -0.003 C 
ATOM     20  C   UNL     1     114.604 121.375 131.796  1.00  0.00     0.004 C 
ENDBRANCH  18  19
ENDBRANCH  17  18
ENDBRANCH  16  17
ENDBRANCH  15  16
ENDBRANCH  14  15
ENDBRANCH  13  14
ENDBRANCH   2  13
TORSDOF 15
ENDMDL
MODEL 6
REMARK VINA RESULT:    -4.161      3.606      6.497
REMARK INTER + INTRA:         -10.557
REMARK INTER:                  -7.836
REMARK INTRA:                  -2.721
REMARK UNBOUND:                -2.748
REMARK SMILES CCCCCCCCC=CCCCCCCCC(=O)[O-]
REMARK SMILES IDX 10 1 9 2 11 3 12 4 13 5 14 6 15 7 16 8 17 9 18 10 19 11
REMARK SMILES IDX 20 12 8 13 7 14 6 15 5 16 4 17 3 18 2 19 1 20
REMARK H PARENT
REMARK Flexibility Score: inf
ROOT
ATOM      1  C   UNL     1     118.246 122.096 127.654  1.00  0.00    -0.031 C 
ATOM      2  C   UNL     1     117.882 123.164 126.930  1.00  0.00    -0.031 C 
ENDROOT
BRANCH   1   3
ATOM      3  C   UNL     1     117.228 121.222 128.331  1.00  0.00     0.027 C 
BRANCH   3   4
ATOM      4  C   UNL     1     115.805 121.745 128.080  1.00  0.00     0.004 C 
BRANCH   4   5
ATOM      5  C   UNL     1     115.046 122.045 129.381  1.00  0.00     0.000 C 
BRANCH   5   6
ATOM      6  C   UNL     1     115.818 122.995 130.309  1.00  0.00     0.000 C 
BRANCH   6   7
ATOM      7  C   UNL     1     115.809 122.481 131.752  1.00  0.00     0.000 C 
BRANCH   7   8
ATOM      8  C   UNL     1     114.820 121.318 131.918  1.00  0.00     0.006 C 
BRANCH   8   9
ATOM      9  C   UNL     1     115.465 120.094 132.581  1.00  0.00     0.053 C 
BRANCH   9  10
ATOM     10  C   UNL     1     115.459 120.203 134.075  1.00  0.00     0.041 C 
ATOM     11  O   UNL     1     114.605 120.924 134.654  1.00  0.00    -0.550 OA
ATOM     12  O   UNL     1     116.374 119.479 134.829  1.00  0.00    -0.550 OA
ENDBRANCH   9  10
ENDBRANCH   8   9
ENDBRANCH   7   8
ENDBRANCH   6   7
ENDBRANCH   5   6
ENDBRANCH   4   5
ENDBRANCH   3   4
ENDBRANCH   1   3
BRANCH   2  13
ATOM     13  C   UNL     1     118.900 124.087 126.316  1.00  0.00     0.027 C 
BRANCH  13  14
ATOM     14  C   UNL     1     118.737 125.522 126.834  1.00  0.00     0.004 C 
BRANCH  14  15
ATOM     15  C   UNL     1     117.304 125.810 127.305  1.00  0.00     0.000 C 
BRANCH  15  16
ATOM     16  C   UNL     1     117.288 126.267 128.771  1.00  0.00     0.000 C 
BRANCH  16  17
ATOM     17  C   UNL     1     118.651 126.094 129.465  1.00  0.00    -0.000 C 
BRANCH  17  18
ATOM     18  C   UNL     1     118.622 125.255 130.759  1.00  0.00    -0.000 C 
BRANCH  18  19
ATOM     19  C   UNL     1     119.423 123.943 130.699  1.00  0.00    -0.003 C 
ATOM     20  C   UNL     1     120.630 124.023 129.766  1.00  0.00     0.004 C 
ENDBRANCH  18  19
ENDBRANCH  17  18
ENDBRANCH  16  17
ENDBRANCH  15  16
ENDBRANCH  14  15
ENDBRANCH  13  14
ENDBRANCH   2  13
TORSDOF 15
ENDMDL
MODEL 7
REMARK VINA RESULT:    -4.133      1.390      3.086
REMARK INTER + INTRA:         -10.506
REMARK INTER:                  -7.676
REMARK INTRA:                  -2.829
REMARK UNBOUND:                -2.748
REMARK SMILES CCCCCCCCC=CCCCCCCCC(=O)[O-]
REMARK SMILES IDX 10 1 9 2 11 3 12 4 13 5 14 6 15 7 16 8 17 9 18 10 19 11
REMARK SMILES IDX 20 12 8 13 7 14 6 15 5 16 4 17 3 18 2 19 1 20
REMARK H PARENT
REMARK Flexibility Score: inf
ROOT
ATOM      1  C   UNL     1     118.696 121.368 132.211  1.00  0.00    -0.031 C 
ATOM      2  C   UNL     1     118.673 120.236 132.929  1.00  0.00    -0.031 C 
ENDROOT
BRANCH   1   3
ATOM      3  C   UNL     1     119.519 121.487 130.958  1.00  0.00     0.027 C 
BRANCH   3   4
ATOM      4  C   UNL     1     118.840 122.421 129.945  1.00  0.00     0.004 C 
BRANCH   4   5
ATOM      5  C   UNL     1     118.288 123.699 130.594  1.00  0.00     0.000 C 
BRANCH   5   6
ATOM      6  C   UNL     1     117.026 124.220 129.892  1.00  0.00     0.000 C 
BRANCH   6   7
ATOM      7  C   UNL     1     116.841 123.551 128.525  1.00  0.00     0.000 C 
BRANCH   7   8
ATOM      8  C   UNL     1     117.050 124.558 127.385  1.00  0.00     0.006 C 
BRANCH   8   9
ATOM      9  C   UNL     1     118.217 124.166 126.469  1.00  0.00     0.053 C 
BRANCH   9  10
ATOM     10  C   UNL     1     119.456 124.947 126.782  1.00  0.00     0.041 C 
ATOM     11  O   UNL     1     119.379 126.174 127.058  1.00  0.00    -0.550 OA
ATOM     12  O   UNL     1     120.692 124.313 126.804  1.00  0.00    -0.550 OA
ENDBRANCH   9  10
ENDBRANCH   8   9
ENDBRANCH   7   8
ENDBRANCH   6   7
ENDBRANCH   5   6
ENDBRANCH   4   5
ENDBRANCH   3   4
ENDBRANCH   1   3
BRANCH   2  13
ATOM     13  C   UNL     1     117.914 120.137 134.225  1.00  0.00     0.027 C 
BRANCH  13  14
ATOM     14  C   UNL     1     116.801 121.189 134.302  1.00  0.00     0.004 C 
BRANCH  14  15
ATOM     15  C   UNL     1     115.412 120.556 134.463  1.00  0.00     0.000 C 
BRANCH  15  16
ATOM     16  C   UNL     1     114.791 120.235 133.096  1.00  0.00     0.000 C 
BRANCH  16  17
ATOM     17  C   UNL     1     114.871 121.416 132.112  1.00  0.00    -0.000 C 
BRANCH  17  18
ATOM     18  C   UNL     1     115.327 121.048 130.685  1.00  0.00    -0.000 C 
BRANCH  18  19
ATOM     19  C   UNL     1     115.869 119.617 130.526  1.00  0.00    -0.003 C 
ATOM     20  C   UNL     1     116.564 119.389 129.185  1.00  0.00     0.004 C 
ENDBRANCH  18  19
ENDBRANCH  17  18
ENDBRANCH  16  17
ENDBRANCH  15  16
ENDBRANCH  14  15
ENDBRANCH  13  14
ENDBRANCH   2  13
TORSDOF 15
ENDMDL
MODEL 8
REMARK VINA RESULT:    -4.107      1.493      2.882
REMARK INTER + INTRA:         -10.457
REMARK INTER:                  -7.545
REMARK INTRA:                  -2.912
REMARK UNBOUND:                -2.748
REMARK SMILES CCCCCCCCC=CCCCCCCCC(=O)[O-]
REMARK SMILES IDX 10 1 9 2 11 3 12 4 13 5 14 6 15 7 16 8 17 9 18 10 19 11
REMARK SMILES IDX 20 12 8 13 7 14 6 15 5 16 4 17 3 18 2 19 1 20
REMARK H PARENT
REMARK Flexibility Score: inf
ROOT
ATOM      1  C   UNL     1     115.454 120.060 131.032  1.00  0.00    -0.031 C 
ATOM      2  C   UNL     1     115.140 120.841 132.076  1.00  0.00    -0.031 C 
ENDROOT
BRANCH   1   3
ATOM      3  C   UNL     1     115.382 120.571 129.620  1.00  0.00     0.027 C 
BRANCH   3   4
ATOM      4  C   UNL     1     114.608 121.897 129.557  1.00  0.00     0.004 C 
BRANCH   4   5
ATOM      5  C   UNL     1     114.877 122.679 128.263  1.00  0.00     0.000 C 
BRANCH   5   6
ATOM      6  C   UNL     1     116.249 122.355 127.652  1.00  0.00     0.000 C 
BRANCH   6   7
ATOM      7  C   UNL     1     116.990 123.637 127.254  1.00  0.00     0.000 C 
BRANCH   7   8
ATOM      8  C   UNL     1     118.428 123.329 126.814  1.00  0.00     0.006 C 
BRANCH   8   9
ATOM      9  C   UNL     1     119.468 123.847 127.817  1.00  0.00     0.053 C 
BRANCH   9  10
ATOM     10  C   UNL     1     119.451 125.342 127.913  1.00  0.00     0.041 C 
ATOM     11  O   UNL     1     119.581 126.044 126.876  1.00  0.00    -0.550 OA
ATOM     12  O   UNL     1     119.256 125.957 129.143  1.00  0.00    -0.550 OA
ENDBRANCH   9  10
ENDBRANCH   8   9
ENDBRANCH   7   8
ENDBRANCH   6   7
ENDBRANCH   5   6
ENDBRANCH   4   5
ENDBRANCH   3   4
ENDBRANCH   1   3
BRANCH   2  13
ATOM     13  C   UNL     1     115.135 120.312 133.485  1.00  0.00     0.027 C 
BRANCH  13  14
ATOM     14  C   UNL     1     116.287 120.903 134.308  1.00  0.00     0.004 C 
BRANCH  14  15
ATOM     15  C   UNL     1     117.626 120.209 134.015  1.00  0.00     0.000 C 
BRANCH  15  16
ATOM     16  C   UNL     1     118.620 121.183 133.368  1.00  0.00     0.000 C 
BRANCH  16  17
ATOM     17  C   UNL     1     118.957 120.813 131.912  1.00  0.00    -0.000 C 
BRANCH  17  18
ATOM     18  C   UNL     1     118.543 121.862 130.860  1.00  0.00    -0.000 C 
BRANCH  18  19
ATOM     19  C   UNL     1     118.431 123.303 131.389  1.00  0.00    -0.003 C 
ATOM     20  C   UNL     1     117.113 123.975 131.010  1.00  0.00     0.004 C 
ENDBRANCH  18  19
ENDBRANCH  17  18
ENDBRANCH  16  17
ENDBRANCH  15  16
ENDBRANCH  14  15
ENDBRANCH  13  14
ENDBRANCH   2  13
TORSDOF 15
ENDMDL
MODEL 9
REMARK VINA RESULT:    -4.078      2.417      4.499
REMARK INTER + INTRA:         -10.402
REMARK INTER:                  -8.128
REMARK INTRA:                  -2.273
REMARK UNBOUND:                -2.748
REMARK SMILES CCCCCCCCC=CCCCCCCCC(=O)[O-]
REMARK SMILES IDX 10 1 9 2 11 3 12 4 13 5 14 6 15 7 16 8 17 9 18 10 19 11
REMARK SMILES IDX 20 12 8 13 7 14 6 15 5 16 4 17 3 18 2 19 1 20
REMARK H PARENT
REMARK Flexibility Score: inf
ROOT
ATOM      1  C   UNL     1     118.248 125.479 130.140  1.00  0.00    -0.031 C 
ATOM      2  C   UNL     1     117.022 125.130 130.558  1.00  0.00    -0.031 C 
ENDROOT
BRANCH   1   3
ATOM      3  C   UNL     1     118.459 126.631 129.199  1.00  0.00     0.027 C 
BRANCH   3   4
ATOM      4  C   UNL     1     118.961 126.138 127.833  1.00  0.00     0.004 C 
BRANCH   4   5
ATOM      5  C   UNL     1     117.833 125.577 126.955  1.00  0.00     0.000 C 
BRANCH   5   6
ATOM      6  C   UNL     1     118.109 124.142 126.483  1.00  0.00     0.000 C 
BRANCH   6   7
ATOM      7  C   UNL     1     117.856 123.134 127.609  1.00  0.00     0.000 C 
BRANCH   7   8
ATOM      8  C   UNL     1     116.545 122.368 127.380  1.00  0.00     0.006 C 
BRANCH   8   9
ATOM      9  C   UNL     1     115.359 123.011 128.111  1.00  0.00     0.053 C 
BRANCH   9  10
ATOM     10  C   UNL     1     114.074 122.298 127.821  1.00  0.00     0.041 C 
ATOM     11  O   UNL     1     114.073 121.056 127.611  1.00  0.00    -0.550 OA
ATOM     12  O   UNL     1     112.875 122.999 127.817  1.00  0.00    -0.550 OA
ENDBRANCH   9  10
ENDBRANCH   8   9
ENDBRANCH   7   8
ENDBRANCH   6   7
ENDBRANCH   5   6
ENDBRANCH   4   5
ENDBRANCH   3   4
ENDBRANCH   1   3
BRANCH   2  13
ATOM     13  C   UNL     1     116.797 123.930 131.436  1.00  0.00     0.027 C 
BRANCH  13  14
ATOM     14  C   UNL     1     117.962 122.936 131.332  1.00  0.00     0.004 C 
BRANCH  14  15
ATOM     15  C   UNL     1     117.502 121.482 131.510  1.00  0.00     0.000 C 
BRANCH  15  16
ATOM     16  C   UNL     1     115.973 121.373 131.426  1.00  0.00     0.000 C 
BRANCH  16  17
ATOM     17  C   UNL     1     115.415 120.179 132.220  1.00  0.00    -0.000 C 
BRANCH  17  18
ATOM     18  C   UNL     1     114.750 120.541 133.563  1.00  0.00    -0.000 C 
BRANCH  18  19
ATOM     19  C   UNL     1     115.728 120.813 134.719  1.00  0.00    -0.003 C 
ATOM     20  C   UNL     1     116.812 119.744 134.846  1.00  0.00     0.004 C 
ENDBRANCH  18  19
ENDBRANCH  17  18
ENDBRANCH  16  17
ENDBRANCH  15  16
ENDBRANCH  14  15
ENDBRANCH  13  14
ENDBRANCH   2  13
TORSDOF 15
ENDMDL
