MODEL 1
REMARK VINA RESULT:    -4.439      0.000      0.000
REMARK INTER + INTRA:         -13.564
REMARK INTER:                 -11.705
REMARK INTRA:                  -1.858
REMARK UNBOUND:                -1.858
REMARK SMILES CCCCCCCCCCCCCCCCCCCCCCCCCCCCCC(=O)[O-]
REMARK SMILES IDX 16 1 17 2 18 3 19 4 20 5 21 6 22 7 23 8 24 9 25 10 26 11
REMARK SMILES IDX 27 12 28 13 29 14 30 15 31 16 32 17 15 18 14 19 13 20 12 21
REMARK SMILES IDX 11 22 10 23 9 24 8 25 7 26 6 27 5 28 4 29 3 30 2 31 1 32
REMARK H PARENT
REMARK Flexibility Score: inf
ROOT
ATOM      1  C   UNL     1       3.353   0.888  17.750  1.00  0.00     0.000 C 
ENDROOT
BRANCH   1   2
ATOM      2  C   UNL     1       3.841   0.382  19.117  1.00  0.00     0.000 C 
BRANCH   2   3
ATOM      3  C   UNL     1       4.356  -1.071  19.091  1.00  0.00     0.000 C 
BRANCH   3   4
ATOM      4  C   UNL     1       3.244  -2.082  19.415  1.00  0.00     0.000 C 
BRANCH   4   5
ATOM      5  C   UNL     1       2.439  -1.646  20.647  1.00  0.00     0.000 C 
BRANCH   5   6
ATOM      6  C   UNL     1       3.119  -2.039  21.971  1.00  0.00     0.000 C 
BRANCH   6   7
ATOM      7  C   UNL     1       4.638  -1.784  22.026  1.00  0.00     0.000 C 
BRANCH   7   8
ATOM      8  C   UNL     1       5.495  -2.986  22.471  1.00  0.00     0.000 C 
BRANCH   8   9
ATOM      9  C   UNL     1       6.865  -3.079  21.772  1.00  0.00     0.000 C 
BRANCH   9  10
ATOM     10  C   UNL     1       6.748  -3.274  20.251  1.00  0.00     0.000 C 
BRANCH  10  11
ATOM     11  C   UNL     1       6.961  -4.744  19.870  1.00  0.00     0.000 C 
BRANCH  11  12
ATOM     12  C   UNL     1       7.485  -5.559  21.063  1.00  0.00     0.000 C 
BRANCH  12  13
ATOM     13  C   UNL     1       6.607  -6.777  21.393  1.00  0.00     0.006 C 
BRANCH  13  14
ATOM     14  C   UNL     1       7.391  -8.099  21.531  1.00  0.00     0.053 C 
BRANCH  14  15
ATOM     15  C   UNL     1       6.946  -8.912  22.713  1.00  0.00     0.041 C 
ATOM     16  O   UNL     1       6.105  -9.837  22.568  1.00  0.00    -0.550 OA
ATOM     17  O   UNL     1       7.435  -8.617  23.981  1.00  0.00    -0.550 OA
ENDBRANCH  14  15
ENDBRANCH  13  14
ENDBRANCH  12  13
ENDBRANCH  11  12
ENDBRANCH  10  11
ENDBRANCH   9  10
ENDBRANCH   8   9
ENDBRANCH   7   8
ENDBRANCH   6   7
ENDBRANCH   5   6
ENDBRANCH   4   5
ENDBRANCH   3   4
ENDBRANCH   2   3
ENDBRANCH   1   2
BRANCH   1  18
ATOM     18  C   UNL     1       1.904   0.486  17.433  1.00  0.00     0.000 C 
BRANCH  18  19
ATOM     19  C   UNL     1       0.876   1.538  17.884  1.00  0.00     0.000 C 
BRANCH  19  20
ATOM     20  C   UNL     1       1.005   2.893  17.153  1.00  0.00     0.000 C 
BRANCH  20  21
ATOM     21  C   UNL     1       1.542   4.019  18.054  1.00  0.00     0.000 C 
BRANCH  21  22
ATOM     22  C   UNL     1       0.941   5.392  17.697  1.00  0.00     0.000 C 
BRANCH  22  23
ATOM     23  C   UNL     1       1.205   6.458  18.778  1.00  0.00     0.000 C 
BRANCH  23  24
ATOM     24  C   UNL     1       0.876   7.910  18.359  1.00  0.00    -0.000 C 
BRANCH  24  25
ATOM     25  C   UNL     1       1.668   8.442  17.146  1.00  0.00    -0.000 C 
BRANCH  25  26
ATOM     26  C   UNL     1       1.153   7.944  15.781  1.00  0.00    -0.000 C 
BRANCH  26  27
ATOM     27  C   UNL     1       2.234   7.996  14.691  1.00  0.00    -0.000 C 
BRANCH  27  28
ATOM     28  C   UNL     1       3.479   7.195  15.109  1.00  0.00    -0.000 C 
BRANCH  28  29
ATOM     29  C   UNL     1       3.275   5.677  14.965  1.00  0.00    -0.000 C 
BRANCH  29  30
ATOM     30  C   UNL     1       4.454   5.003  14.238  1.00  0.00    -0.000 C 
BRANCH  30  31
ATOM     31  C   UNL     1       5.549   6.006  13.838  1.00  0.00    -0.003 C 
ATOM     32  C   UNL     1       6.890   5.331  13.550  1.00  0.00     0.004 C 
ENDBRANCH  30  31
ENDBRANCH  29  30
ENDBRANCH  28  29
ENDBRANCH  27  28
ENDBRANCH  26  27
ENDBRANCH  25  26
ENDBRANCH  24  25
ENDBRANCH  23  24
ENDBRANCH  22  23
ENDBRANCH  21  22
ENDBRANCH  20  21
ENDBRANCH  19  20
ENDBRANCH  18  19
ENDBRANCH   1  18
TORSDOF 28
ENDMDL
MODEL 2
REMARK VINA RESULT:    -4.210      4.912     12.409
REMARK INTER + INTRA:         -12.960
REMARK INTER:                 -10.999
REMARK INTRA:                  -1.961
REMARK UNBOUND:                -1.858
REMARK SMILES CCCCCCCCCCCCCCCCCCCCCCCCCCCCCC(=O)[O-]
REMARK SMILES IDX 16 1 17 2 18 3 19 4 20 5 21 6 22 7 23 8 24 9 25 10 26 11
REMARK SMILES IDX 27 12 28 13 29 14 30 15 31 16 32 17 15 18 14 19 13 20 12 21
REMARK SMILES IDX 11 22 10 23 9 24 8 25 7 26 6 27 5 28 4 29 3 30 2 31 1 32
REMARK H PARENT
REMARK Flexibility Score: inf
ROOT
ATOM      1  C   UNL     1       3.930   0.587  19.283  1.00  0.00     0.000 C 
ENDROOT
BRANCH   1   2
ATOM      2  C   UNL     1       3.116  -0.023  18.130  1.00  0.00     0.000 C 
BRANCH   2   3
ATOM      3  C   UNL     1       1.682   0.533  18.023  1.00  0.00     0.000 C 
BRANCH   3   4
ATOM      4  C   UNL     1       1.603   2.006  18.456  1.00  0.00     0.000 C 
BRANCH   4   5
ATOM      5  C   UNL     1       1.204   2.910  17.282  1.00  0.00     0.000 C 
BRANCH   5   6
ATOM      6  C   UNL     1       1.138   4.398  17.672  1.00  0.00     0.000 C 
BRANCH   6   7
ATOM      7  C   UNL     1       2.343   5.246  17.221  1.00  0.00     0.000 C 
BRANCH   7   8
ATOM      8  C   UNL     1       2.026   6.353  16.196  1.00  0.00     0.000 C 
BRANCH   8   9
ATOM      9  C   UNL     1       3.250   6.839  15.395  1.00  0.00     0.000 C 
BRANCH   9  10
ATOM     10  C   UNL     1       4.022   5.691  14.725  1.00  0.00     0.000 C 
BRANCH  10  11
ATOM     11  C   UNL     1       5.281   6.214  14.023  1.00  0.00     0.000 C 
BRANCH  11  12
ATOM     12  C   UNL     1       5.834   5.181  13.028  1.00  0.00     0.000 C 
BRANCH  12  13
ATOM     13  C   UNL     1       7.345   5.329  12.782  1.00  0.00     0.006 C 
BRANCH  13  14
ATOM     14  C   UNL     1       7.707   5.811  11.362  1.00  0.00     0.053 C 
BRANCH  14  15
ATOM     15  C   UNL     1       8.160   4.689  10.472  1.00  0.00     0.041 C 
ATOM     16  O   UNL     1       7.315   3.965   9.883  1.00  0.00    -0.550 OA
ATOM     17  O   UNL     1       9.517   4.423  10.326  1.00  0.00    -0.550 OA
ENDBRANCH  14  15
ENDBRANCH  13  14
ENDBRANCH  12  13
ENDBRANCH  11  12
ENDBRANCH  10  11
ENDBRANCH   9  10
ENDBRANCH   8   9
ENDBRANCH   7   8
ENDBRANCH   6   7
ENDBRANCH   5   6
ENDBRANCH   4   5
ENDBRANCH   3   4
ENDBRANCH   2   3
ENDBRANCH   1   2
BRANCH   1  18
ATOM     18  C   UNL     1       5.439   0.314  19.174  1.00  0.00     0.000 C 
BRANCH  18  19
ATOM     19  C   UNL     1       6.110   0.092  20.540  1.00  0.00     0.000 C 
BRANCH  19  20
ATOM     20  C   UNL     1       6.417  -1.390  20.853  1.00  0.00     0.000 C 
BRANCH  20  21
ATOM     21  C   UNL     1       5.782  -1.876  22.167  1.00  0.00     0.000 C 
BRANCH  21  22
ATOM     22  C   UNL     1       4.721  -2.968  21.937  1.00  0.00     0.000 C 
BRANCH  22  23
ATOM     23  C   UNL     1       3.882  -2.727  20.666  1.00  0.00     0.000 C 
BRANCH  23  24
ATOM     24  C   UNL     1       4.223  -3.649  19.472  1.00  0.00    -0.000 C 
BRANCH  24  25
ATOM     25  C   UNL     1       5.640  -3.472  18.886  1.00  0.00    -0.000 C 
BRANCH  25  26
ATOM     26  C   UNL     1       6.516  -4.738  18.946  1.00  0.00    -0.000 C 
BRANCH  26  27
ATOM     27  C   UNL     1       7.288  -4.856  20.269  1.00  0.00    -0.000 C 
BRANCH  27  28
ATOM     28  C   UNL     1       6.665  -5.931  21.177  1.00  0.00    -0.000 C 
BRANCH  28  29
ATOM     29  C   UNL     1       7.701  -6.960  21.663  1.00  0.00    -0.000 C 
BRANCH  29  30
ATOM     30  C   UNL     1       7.336  -8.393  21.232  1.00  0.00    -0.000 C 
BRANCH  30  31
ATOM     31  C   UNL     1       6.715  -9.211  22.378  1.00  0.00    -0.003 C 
ATOM     32  C   UNL     1       7.296  -8.845  23.744  1.00  0.00     0.004 C 
ENDBRANCH  30  31
ENDBRANCH  29  30
ENDBRANCH  28  29
ENDBRANCH  27  28
ENDBRANCH  26  27
ENDBRANCH  25  26
ENDBRANCH  24  25
ENDBRANCH  23  24
ENDBRANCH  22  23
ENDBRANCH  21  22
ENDBRANCH  20  21
ENDBRANCH  19  20
ENDBRANCH  18  19
ENDBRANCH   1  18
TORSDOF 28
ENDMDL
MODEL 3
REMARK VINA RESULT:    -3.988      1.572      2.622
REMARK INTER + INTRA:         -12.374
REMARK INTER:                 -10.750
REMARK INTRA:                  -1.624
REMARK UNBOUND:                -1.858
REMARK SMILES CCCCCCCCCCCCCCCCCCCCCCCCCCCCCC(=O)[O-]
REMARK SMILES IDX 16 1 17 2 18 3 19 4 20 5 21 6 22 7 23 8 24 9 25 10 26 11
REMARK SMILES IDX 27 12 28 13 29 14 30 15 31 16 32 17 15 18 14 19 13 20 12 21
REMARK SMILES IDX 11 22 10 23 9 24 8 25 7 26 6 27 5 28 4 29 3 30 2 31 1 32
REMARK H PARENT
REMARK Flexibility Score: inf
ROOT
ATOM      1  C   UNL     1       2.228   0.792  17.221  1.00  0.00     0.000 C 
ENDROOT
BRANCH   1   2
ATOM      2  C   UNL     1       2.640   0.638  18.694  1.00  0.00     0.000 C 
BRANCH   2   3
ATOM      3  C   UNL     1       1.723  -0.305  19.498  1.00  0.00     0.000 C 
BRANCH   3   4
ATOM      4  C   UNL     1       2.066  -1.784  19.258  1.00  0.00     0.000 C 
BRANCH   4   5
ATOM      5  C   UNL     1       3.207  -2.244  20.176  1.00  0.00     0.000 C 
BRANCH   5   6
ATOM      6  C   UNL     1       3.130  -1.618  21.581  1.00  0.00     0.000 C 
BRANCH   6   7
ATOM      7  C   UNL     1       3.815  -2.431  22.697  1.00  0.00     0.000 C 
BRANCH   7   8
ATOM      8  C   UNL     1       5.265  -2.865  22.405  1.00  0.00     0.000 C 
BRANCH   8   9
ATOM      9  C   UNL     1       6.120  -1.784  21.714  1.00  0.00     0.000 C 
BRANCH   9  10
ATOM     10  C   UNL     1       6.799  -2.289  20.431  1.00  0.00     0.000 C 
BRANCH  10  11
ATOM     11  C   UNL     1       7.497  -3.634  20.673  1.00  0.00     0.000 C 
BRANCH  11  12
ATOM     12  C   UNL     1       6.711  -4.791  20.035  1.00  0.00     0.000 C 
BRANCH  12  13
ATOM     13  C   UNL     1       6.338  -5.892  21.041  1.00  0.00     0.006 C 
BRANCH  13  14
ATOM     14  C   UNL     1       7.540  -6.721  21.541  1.00  0.00     0.053 C 
BRANCH  14  15
ATOM     15  C   UNL     1       7.220  -8.183  21.662  1.00  0.00     0.041 C 
ATOM     16  O   UNL     1       7.729  -9.013  20.863  1.00  0.00    -0.550 OA
ATOM     17  O   UNL     1       6.329  -8.621  22.635  1.00  0.00    -0.550 OA
ENDBRANCH  14  15
ENDBRANCH  13  14
ENDBRANCH  12  13
ENDBRANCH  11  12
ENDBRANCH  10  11
ENDBRANCH   9  10
ENDBRANCH   8   9
ENDBRANCH   7   8
ENDBRANCH   6   7
ENDBRANCH   5   6
ENDBRANCH   4   5
ENDBRANCH   3   4
ENDBRANCH   2   3
ENDBRANCH   1   2
BRANCH   1  18
ATOM     18  C   UNL     1       1.020   1.720  17.020  1.00  0.00     0.000 C 
BRANCH  18  19
ATOM     19  C   UNL     1       0.949   2.850  18.061  1.00  0.00     0.000 C 
BRANCH  19  20
ATOM     20  C   UNL     1       1.196   4.258  17.475  1.00  0.00     0.000 C 
BRANCH  20  21
ATOM     21  C   UNL     1       2.216   5.081  18.281  1.00  0.00     0.000 C 
BRANCH  21  22
ATOM     22  C   UNL     1       2.476   6.465  17.658  1.00  0.00     0.000 C 
BRANCH  22  23
ATOM     23  C   UNL     1       1.616   6.728  16.406  1.00  0.00     0.000 C 
BRANCH  23  24
ATOM     24  C   UNL     1       2.392   7.255  15.177  1.00  0.00    -0.000 C 
BRANCH  24  25
ATOM     25  C   UNL     1       3.268   6.211  14.453  1.00  0.00    -0.000 C 
BRANCH  25  26
ATOM     26  C   UNL     1       4.655   6.730  14.026  1.00  0.00    -0.000 C 
BRANCH  26  27
ATOM     27  C   UNL     1       5.793   5.798  14.472  1.00  0.00    -0.000 C 
BRANCH  27  28
ATOM     28  C   UNL     1       6.354   5.004  13.280  1.00  0.00    -0.000 C 
BRANCH  28  29
ATOM     29  C   UNL     1       7.274   5.856  12.389  1.00  0.00    -0.000 C 
BRANCH  29  30
ATOM     30  C   UNL     1       7.428   5.257  10.978  1.00  0.00    -0.000 C 
BRANCH  30  31
ATOM     31  C   UNL     1       8.704   4.410  10.835  1.00  0.00    -0.003 C 
ATOM     32  C   UNL     1       9.261   4.420   9.412  1.00  0.00     0.004 C 
ENDBRANCH  30  31
ENDBRANCH  29  30
ENDBRANCH  28  29
ENDBRANCH  27  28
ENDBRANCH  26  27
ENDBRANCH  25  26
ENDBRANCH  24  25
ENDBRANCH  23  24
ENDBRANCH  22  23
ENDBRANCH  21  22
ENDBRANCH  20  21
ENDBRANCH  19  20
ENDBRANCH  18  19
ENDBRANCH   1  18
TORSDOF 28
ENDMDL
MODEL 4
REMARK VINA RESULT:    -3.828      1.783      3.741
REMARK INTER + INTRA:         -11.953
REMARK INTER:                 -11.024
REMARK INTRA:                  -0.929
REMARK UNBOUND:                -1.858
REMARK SMILES CCCCCCCCCCCCCCCCCCCCCCCCCCCCCC(=O)[O-]
REMARK SMILES IDX 16 1 17 2 18 3 19 4 20 5 21 6 22 7 23 8 24 9 25 10 26 11
REMARK SMILES IDX 27 12 28 13 29 14 30 15 31 16 32 17 15 18 14 19 13 20 12 21
REMARK SMILES IDX 11 22 10 23 9 24 8 25 7 26 6 27 5 28 4 29 3 30 2 31 1 32
REMARK H PARENT
REMARK Flexibility Score: inf
ROOT
ATOM      1  C   UNL     1       0.875   3.493  18.123  1.00  0.00     0.000 C 
ENDROOT
BRANCH   1   2
ATOM      2  C   UNL     1       1.000   2.232  17.252  1.00  0.00     0.000 C 
BRANCH   2   3
ATOM      3  C   UNL     1       0.943   0.917  18.056  1.00  0.00     0.000 C 
BRANCH   3   4
ATOM      4  C   UNL     1       2.323   0.516  18.600  1.00  0.00     0.000 C 
BRANCH   4   5
ATOM      5  C   UNL     1       2.280  -0.874  19.250  1.00  0.00     0.000 C 
BRANCH   5   6
ATOM      6  C   UNL     1       3.684  -1.447  19.522  1.00  0.00     0.000 C 
BRANCH   6   7
ATOM      7  C   UNL     1       3.732  -2.604  20.538  1.00  0.00     0.000 C 
BRANCH   7   8
ATOM      8  C   UNL     1       4.669  -2.389  21.743  1.00  0.00     0.000 C 
BRANCH   8   9
ATOM      9  C   UNL     1       5.737  -3.487  21.917  1.00  0.00     0.000 C 
BRANCH   9  10
ATOM     10  C   UNL     1       6.882  -3.374  20.898  1.00  0.00     0.000 C 
BRANCH  10  11
ATOM     11  C   UNL     1       7.886  -4.520  21.074  1.00  0.00     0.000 C 
BRANCH  11  12
ATOM     12  C   UNL     1       7.195  -5.888  20.957  1.00  0.00     0.000 C 
BRANCH  12  13
ATOM     13  C   UNL     1       8.065  -7.048  21.471  1.00  0.00     0.006 C 
BRANCH  13  14
ATOM     14  C   UNL     1       7.384  -8.430  21.389  1.00  0.00     0.053 C 
BRANCH  14  15
ATOM     15  C   UNL     1       6.843  -8.885  22.713  1.00  0.00     0.041 C 
ATOM     16  O   UNL     1       5.843  -9.649  22.763  1.00  0.00    -0.550 OA
ATOM     17  O   UNL     1       7.421  -8.430  23.893  1.00  0.00    -0.550 OA
ENDBRANCH  14  15
ENDBRANCH  13  14
ENDBRANCH  12  13
ENDBRANCH  11  12
ENDBRANCH  10  11
ENDBRANCH   9  10
ENDBRANCH   8   9
ENDBRANCH   7   8
ENDBRANCH   6   7
ENDBRANCH   5   6
ENDBRANCH   4   5
ENDBRANCH   3   4
ENDBRANCH   2   3
ENDBRANCH   1   2
BRANCH   1  18
ATOM     18  C   UNL     1       1.337   4.774  17.410  1.00  0.00     0.000 C 
BRANCH  18  19
ATOM     19  C   UNL     1       0.971   6.055  18.178  1.00  0.00     0.000 C 
BRANCH  19  20
ATOM     20  C   UNL     1       1.876   7.263  17.848  1.00  0.00     0.000 C 
BRANCH  20  21
ATOM     21  C   UNL     1       1.233   8.252  16.861  1.00  0.00     0.000 C 
BRANCH  21  22
ATOM     22  C   UNL     1       2.254   8.835  15.866  1.00  0.00     0.000 C 
BRANCH  22  23
ATOM     23  C   UNL     1       2.609   7.853  14.732  1.00  0.00     0.000 C 
BRANCH  23  24
ATOM     24  C   UNL     1       3.450   6.630  15.164  1.00  0.00    -0.000 C 
BRANCH  24  25
ATOM     25  C   UNL     1       4.304   5.989  14.049  1.00  0.00    -0.000 C 
BRANCH  25  26
ATOM     26  C   UNL     1       5.821   6.219  14.197  1.00  0.00    -0.000 C 
BRANCH  26  27
ATOM     27  C   UNL     1       6.518   6.429  12.844  1.00  0.00    -0.000 C 
BRANCH  27  28
ATOM     28  C   UNL     1       7.248   5.151  12.396  1.00  0.00    -0.000 C 
BRANCH  28  29
ATOM     29  C   UNL     1       8.144   5.388  11.167  1.00  0.00    -0.000 C 
BRANCH  29  30
ATOM     30  C   UNL     1       8.155   4.174  10.218  1.00  0.00    -0.000 C 
BRANCH  30  31
ATOM     31  C   UNL     1       9.291   4.247   9.185  1.00  0.00    -0.003 C 
ATOM     32  C   UNL     1      10.601   3.656   9.708  1.00  0.00     0.004 C 
ENDBRANCH  30  31
ENDBRANCH  29  30
ENDBRANCH  28  29
ENDBRANCH  27  28
ENDBRANCH  26  27
ENDBRANCH  25  26
ENDBRANCH  24  25
ENDBRANCH  23  24
ENDBRANCH  22  23
ENDBRANCH  21  22
ENDBRANCH  20  21
ENDBRANCH  19  20
ENDBRANCH  18  19
ENDBRANCH   1  18
TORSDOF 28
ENDMDL
MODEL 5
REMARK VINA RESULT:    -3.016      5.236     12.528
REMARK INTER + INTRA:          -9.811
REMARK INTER:                  -8.368
REMARK INTRA:                  -1.443
REMARK UNBOUND:                -1.858
REMARK SMILES CCCCCCCCCCCCCCCCCCCCCCCCCCCCCC(=O)[O-]
REMARK SMILES IDX 16 1 17 2 18 3 19 4 20 5 21 6 22 7 23 8 24 9 25 10 26 11
REMARK SMILES IDX 27 12 28 13 29 14 30 15 31 16 32 17 15 18 14 19 13 20 12 21
REMARK SMILES IDX 11 22 10 23 9 24 8 25 7 26 6 27 5 28 4 29 3 30 2 31 1 32
REMARK H PARENT
REMARK Flexibility Score: inf
ROOT
ATOM      1  C   UNL     1       1.630   3.635  17.199  1.00  0.00     0.000 C 
ENDROOT
BRANCH   1   2
ATOM      2  C   UNL     1       1.499   4.874  18.098  1.00  0.00     0.000 C 
BRANCH   2   3
ATOM      3  C   UNL     1       2.360   6.067  17.638  1.00  0.00     0.000 C 
BRANCH   3   4
ATOM      4  C   UNL     1       1.595   6.992  16.677  1.00  0.00     0.000 C 
BRANCH   4   5
ATOM      5  C   UNL     1       2.375   7.204  15.372  1.00  0.00     0.000 C 
BRANCH   5   6
ATOM      6  C   UNL     1       3.493   6.163  15.172  1.00  0.00     0.000 C 
BRANCH   6   7
ATOM      7  C   UNL     1       4.445   6.445  13.993  1.00  0.00     0.000 C 
BRANCH   7   8
ATOM      8  C   UNL     1       5.906   6.001  14.202  1.00  0.00     0.000 C 
BRANCH   8   9
ATOM      9  C   UNL     1       6.511   5.238  13.007  1.00  0.00     0.000 C 
BRANCH   9  10
ATOM     10  C   UNL     1       7.313   6.147  12.062  1.00  0.00     0.000 C 
BRANCH  10  11
ATOM     11  C   UNL     1       8.490   5.386  11.439  1.00  0.00     0.000 C 
BRANCH  11  12
ATOM     12  C   UNL     1       8.044   4.581  10.207  1.00  0.00     0.000 C 
BRANCH  12  13
ATOM     13  C   UNL     1       9.097   3.561   9.741  1.00  0.00     0.006 C 
BRANCH  13  14
ATOM     14  C   UNL     1      10.367   4.198   9.139  1.00  0.00     0.053 C 
BRANCH  14  15
ATOM     15  C   UNL     1      11.617   3.454   9.513  1.00  0.00     0.041 C 
ATOM     16  O   UNL     1      11.663   2.200   9.416  1.00  0.00    -0.550 OA
ATOM     17  O   UNL     1      12.716   4.148  10.006  1.00  0.00    -0.550 OA
ENDBRANCH  14  15
ENDBRANCH  13  14
ENDBRANCH  12  13
ENDBRANCH  11  12
ENDBRANCH  10  11
ENDBRANCH   9  10
ENDBRANCH   8   9
ENDBRANCH   7   8
ENDBRANCH   6   7
ENDBRANCH   5   6
ENDBRANCH   4   5
ENDBRANCH   3   4
ENDBRANCH   2   3
ENDBRANCH   1   2
BRANCH   1  18
ATOM     18  C   UNL     1       0.875   2.409  17.736  1.00  0.00     0.000 C 
BRANCH  18  19
ATOM     19  C   UNL     1       1.618   1.086  17.483  1.00  0.00     0.000 C 
BRANCH  19  20
ATOM     20  C   UNL     1       2.077   0.370  18.773  1.00  0.00     0.000 C 
BRANCH  20  21
ATOM     21  C   UNL     1       3.250  -0.599  18.544  1.00  0.00     0.000 C 
BRANCH  21  22
ATOM     22  C   UNL     1       4.041  -0.877  19.836  1.00  0.00     0.000 C 
BRANCH  22  23
ATOM     23  C   UNL     1       3.242  -1.709  20.859  1.00  0.00     0.000 C 
BRANCH  23  24
ATOM     24  C   UNL     1       4.049  -2.184  22.090  1.00  0.00    -0.000 C 
BRANCH  24  25
ATOM     25  C   UNL     1       5.555  -2.412  21.843  1.00  0.00    -0.000 C 
BRANCH  25  26
ATOM     26  C   UNL     1       5.903  -3.800  21.269  1.00  0.00    -0.000 C 
BRANCH  26  27
ATOM     27  C   UNL     1       7.141  -3.765  20.359  1.00  0.00    -0.000 C 
BRANCH  27  28
ATOM     28  C   UNL     1       8.279  -4.620  20.943  1.00  0.00    -0.000 C 
BRANCH  28  29
ATOM     29  C   UNL     1       7.778  -5.618  22.002  1.00  0.00    -0.000 C 
BRANCH  29  30
ATOM     30  C   UNL     1       7.860  -7.074  21.507  1.00  0.00    -0.000 C 
BRANCH  30  31
ATOM     31  C   UNL     1       6.584  -7.874  21.820  1.00  0.00    -0.003 C 
ATOM     32  C   UNL     1       6.845  -9.057  22.752  1.00  0.00     0.004 C 
ENDBRANCH  30  31
ENDBRANCH  29  30
ENDBRANCH  28  29
ENDBRANCH  27  28
ENDBRANCH  26  27
ENDBRANCH  25  26
ENDBRANCH  24  25
ENDBRANCH  23  24
ENDBRANCH  22  23
ENDBRANCH  21  22
ENDBRANCH  20  21
ENDBRANCH  19  20
ENDBRANCH  18  19
ENDBRANCH   1  18
TORSDOF 28
ENDMDL
MODEL 6
REMARK VINA RESULT:    -2.915      5.237     10.563
REMARK INTER + INTRA:          -9.545
REMARK INTER:                  -7.272
REMARK INTRA:                  -2.273
REMARK UNBOUND:                -1.858
REMARK SMILES CCCCCCCCCCCCCCCCCCCCCCCCCCCCCC(=O)[O-]
REMARK SMILES IDX 16 1 17 2 18 3 19 4 20 5 21 6 22 7 23 8 24 9 25 10 26 11
REMARK SMILES IDX 27 12 28 13 29 14 30 15 31 16 32 17 15 18 14 19 13 20 12 21
REMARK SMILES IDX 11 22 10 23 9 24 8 25 7 26 6 27 5 28 4 29 3 30 2 31 1 32
REMARK H PARENT
REMARK Flexibility Score: inf
ROOT
ATOM      1  C   UNL     1       0.875   0.780  18.283  1.00  0.00     0.000 C 
ENDROOT
BRANCH   1   2
ATOM      2  C   UNL     1       2.083   1.467  17.626  1.00  0.00     0.000 C 
BRANCH   2   3
ATOM      3  C   UNL     1       3.051   0.488  16.934  1.00  0.00     0.000 C 
BRANCH   3   4
ATOM      4  C   UNL     1       4.493   0.651  17.440  1.00  0.00     0.000 C 
BRANCH   4   5
ATOM      5  C   UNL     1       4.686  -0.038  18.798  1.00  0.00     0.000 C 
BRANCH   5   6
ATOM      6  C   UNL     1       5.536   0.798  19.774  1.00  0.00     0.000 C 
BRANCH   6   7
ATOM      7  C   UNL     1       7.041   0.468  19.777  1.00  0.00     0.000 C 
BRANCH   7   8
ATOM      8  C   UNL     1       7.937   1.458  19.006  1.00  0.00     0.000 C 
BRANCH   8   9
ATOM      9  C   UNL     1       9.228   1.853  19.751  1.00  0.00     0.000 C 
BRANCH   9  10
ATOM     10  C   UNL     1      10.153   2.747  18.910  1.00  0.00     0.000 C 
BRANCH  10  11
ATOM     11  C   UNL     1      10.259   2.226  17.471  1.00  0.00     0.000 C 
BRANCH  11  12
ATOM     12  C   UNL     1      11.365   1.166  17.343  1.00  0.00     0.000 C 
BRANCH  12  13
ATOM     13  C   UNL     1      12.661   1.721  16.727  1.00  0.00     0.006 C 
BRANCH  13  14
ATOM     14  C   UNL     1      13.794   0.680  16.603  1.00  0.00     0.053 C 
BRANCH  14  15
ATOM     15  C   UNL     1      15.109   1.197  17.109  1.00  0.00     0.041 C 
ATOM     16  O   UNL     1      15.332   2.435  17.150  1.00  0.00    -0.550 OA
ATOM     17  O   UNL     1      16.102   0.304  17.498  1.00  0.00    -0.550 OA
ENDBRANCH  14  15
ENDBRANCH  13  14
ENDBRANCH  12  13
ENDBRANCH  11  12
ENDBRANCH  10  11
ENDBRANCH   9  10
ENDBRANCH   8   9
ENDBRANCH   7   8
ENDBRANCH   6   7
ENDBRANCH   5   6
ENDBRANCH   4   5
ENDBRANCH   3   4
ENDBRANCH   2   3
ENDBRANCH   1   2
BRANCH   1  18
ATOM     18  C   UNL     1       1.245  -0.043  19.527  1.00  0.00     0.000 C 
BRANCH  18  19
ATOM     19  C   UNL     1       1.497  -1.528  19.213  1.00  0.00     0.000 C 
BRANCH  19  20
ATOM     20  C   UNL     1       2.838  -2.065  19.761  1.00  0.00     0.000 C 
BRANCH  20  21
ATOM     21  C   UNL     1       2.794  -2.387  21.265  1.00  0.00     0.000 C 
BRANCH  21  22
ATOM     22  C   UNL     1       3.927  -1.696  22.046  1.00  0.00     0.000 C 
BRANCH  22  23
ATOM     23  C   UNL     1       5.100  -2.645  22.362  1.00  0.00     0.000 C 
BRANCH  23  24
ATOM     24  C   UNL     1       6.456  -2.240  21.739  1.00  0.00    -0.000 C 
BRANCH  24  25
ATOM     25  C   UNL     1       6.835  -2.987  20.442  1.00  0.00    -0.000 C 
BRANCH  25  26
ATOM     26  C   UNL     1       5.857  -4.110  20.044  1.00  0.00    -0.000 C 
BRANCH  26  27
ATOM     27  C   UNL     1       6.238  -5.466  20.658  1.00  0.00    -0.000 C 
BRANCH  27  28
ATOM     28  C   UNL     1       7.666  -5.430  21.231  1.00  0.00    -0.000 C 
BRANCH  28  29
ATOM     29  C   UNL     1       8.002  -6.690  22.047  1.00  0.00    -0.000 C 
BRANCH  29  30
ATOM     30  C   UNL     1       7.483  -7.972  21.369  1.00  0.00    -0.000 C 
BRANCH  30  31
ATOM     31  C   UNL     1       6.545  -8.781  22.280  1.00  0.00    -0.003 C 
ATOM     32  C   UNL     1       7.165  -9.081  23.645  1.00  0.00     0.004 C 
ENDBRANCH  30  31
ENDBRANCH  29  30
ENDBRANCH  28  29
ENDBRANCH  27  28
ENDBRANCH  26  27
ENDBRANCH  25  26
ENDBRANCH  24  25
ENDBRANCH  23  24
ENDBRANCH  22  23
ENDBRANCH  21  22
ENDBRANCH  20  21
ENDBRANCH  19  20
ENDBRANCH  18  19
ENDBRANCH   1  18
TORSDOF 28
ENDMDL
MODEL 7
REMARK VINA RESULT:    -2.883      4.983     12.911
REMARK INTER + INTRA:          -9.460
REMARK INTER:                  -8.429
REMARK INTRA:                  -1.031
REMARK UNBOUND:                -1.858
REMARK SMILES CCCCCCCCCCCCCCCCCCCCCCCCCCCCCC(=O)[O-]
REMARK SMILES IDX 16 1 17 2 18 3 19 4 20 5 21 6 22 7 23 8 24 9 25 10 26 11
REMARK SMILES IDX 27 12 28 13 29 14 30 15 31 16 32 17 15 18 14 19 13 20 12 21
REMARK SMILES IDX 11 22 10 23 9 24 8 25 7 26 6 27 5 28 4 29 3 30 2 31 1 32
REMARK H PARENT
REMARK Flexibility Score: inf
ROOT
ATOM      1  C   UNL     1       1.628   0.680  18.275  1.00  0.00     0.000 C 
ENDROOT
BRANCH   1   2
ATOM      2  C   UNL     1       0.877   2.015  18.409  1.00  0.00     0.000 C 
BRANCH   2   3
ATOM      3  C   UNL     1       0.965   2.903  17.152  1.00  0.00     0.000 C 
BRANCH   3   4
ATOM      4  C   UNL     1       1.756   4.195  17.414  1.00  0.00     0.000 C 
BRANCH   4   5
ATOM      5  C   UNL     1       0.875   5.259  18.083  1.00  0.00     0.000 C 
BRANCH   5   6
ATOM      6  C   UNL     1       0.989   6.637  17.405  1.00  0.00     0.000 C 
BRANCH   6   7
ATOM      7  C   UNL     1       1.418   6.604  15.925  1.00  0.00     0.000 C 
BRANCH   7   8
ATOM      8  C   UNL     1       2.890   6.973  15.655  1.00  0.00     0.000 C 
BRANCH   8   9
ATOM      9  C   UNL     1       3.173   7.417  14.206  1.00  0.00     0.000 C 
BRANCH   9  10
ATOM     10  C   UNL     1       4.596   7.069  13.741  1.00  0.00     0.000 C 
BRANCH  10  11
ATOM     11  C   UNL     1       5.056   5.733  14.338  1.00  0.00     0.000 C 
BRANCH  11  12
ATOM     12  C   UNL     1       6.504   5.411  13.932  1.00  0.00     0.000 C 
BRANCH  12  13
ATOM     13  C   UNL     1       6.736   5.496  12.414  1.00  0.00     0.006 C 
BRANCH  13  14
ATOM     14  C   UNL     1       8.025   4.794  11.935  1.00  0.00     0.053 C 
BRANCH  14  15
ATOM     15  C   UNL     1       8.075   4.639  10.443  1.00  0.00     0.041 C 
ATOM     16  O   UNL     1       7.052   4.273   9.807  1.00  0.00    -0.550 OA
ATOM     17  O   UNL     1       9.267   4.861   9.762  1.00  0.00    -0.550 OA
ENDBRANCH  14  15
ENDBRANCH  13  14
ENDBRANCH  12  13
ENDBRANCH  11  12
ENDBRANCH  10  11
ENDBRANCH   9  10
ENDBRANCH   8   9
ENDBRANCH   7   8
ENDBRANCH   6   7
ENDBRANCH   5   6
ENDBRANCH   4   5
ENDBRANCH   3   4
ENDBRANCH   2   3
ENDBRANCH   1   2
BRANCH   1  18
ATOM     18  C   UNL     1       1.361  -0.288  19.438  1.00  0.00     0.000 C 
BRANCH  18  19
ATOM     19  C   UNL     1       2.069  -1.643  19.267  1.00  0.00     0.000 C 
BRANCH  19  20
ATOM     20  C   UNL     1       3.457  -1.714  19.941  1.00  0.00     0.000 C 
BRANCH  20  21
ATOM     21  C   UNL     1       3.390  -1.662  21.476  1.00  0.00     0.000 C 
BRANCH  21  22
ATOM     22  C   UNL     1       4.466  -2.542  22.141  1.00  0.00     0.000 C 
BRANCH  22  23
ATOM     23  C   UNL     1       5.101  -3.549  21.162  1.00  0.00     0.000 C 
BRANCH  23  24
ATOM     24  C   UNL     1       6.526  -3.188  20.684  1.00  0.00    -0.000 C 
BRANCH  24  25
ATOM     25  C   UNL     1       7.314  -4.342  20.027  1.00  0.00    -0.000 C 
BRANCH  25  26
ATOM     26  C   UNL     1       8.402  -4.962  20.925  1.00  0.00    -0.000 C 
BRANCH  26  27
ATOM     27  C   UNL     1       7.833  -6.004  21.901  1.00  0.00    -0.000 C 
BRANCH  27  28
ATOM     28  C   UNL     1       6.842  -6.942  21.190  1.00  0.00    -0.000 C 
BRANCH  28  29
ATOM     29  C   UNL     1       7.510  -8.242  20.706  1.00  0.00    -0.000 C 
BRANCH  29  30
ATOM     30  C   UNL     1       7.757  -9.229  21.863  1.00  0.00    -0.000 C 
BRANCH  30  31
ATOM     31  C   UNL     1       6.457  -9.632  22.579  1.00  0.00    -0.003 C 
ATOM     32  C   UNL     1       6.009  -8.598  23.612  1.00  0.00     0.004 C 
ENDBRANCH  30  31
ENDBRANCH  29  30
ENDBRANCH  28  29
ENDBRANCH  27  28
ENDBRANCH  26  27
ENDBRANCH  25  26
ENDBRANCH  24  25
ENDBRANCH  23  24
ENDBRANCH  22  23
ENDBRANCH  21  22
ENDBRANCH  20  21
ENDBRANCH  19  20
ENDBRANCH  18  19
ENDBRANCH   1  18
TORSDOF 28
ENDMDL
MODEL 8
REMARK VINA RESULT:    -2.733      4.062      6.060
REMARK INTER + INTRA:          -9.064
REMARK INTER:                  -7.156
REMARK INTRA:                  -1.908
REMARK UNBOUND:                -1.858
REMARK SMILES CCCCCCCCCCCCCCCCCCCCCCCCCCCCCC(=O)[O-]
REMARK SMILES IDX 16 1 17 2 18 3 19 4 20 5 21 6 22 7 23 8 24 9 25 10 26 11
REMARK SMILES IDX 27 12 28 13 29 14 30 15 31 16 32 17 15 18 14 19 13 20 12 21
REMARK SMILES IDX 11 22 10 23 9 24 8 25 7 26 6 27 5 28 4 29 3 30 2 31 1 32
REMARK H PARENT
REMARK Flexibility Score: inf
ROOT
ATOM      1  C   UNL     1       0.875  -0.039  18.333  1.00  0.00     0.000 C 
ENDROOT
BRANCH   1   2
ATOM      2  C   UNL     1       1.240  -0.775  19.632  1.00  0.00     0.000 C 
BRANCH   2   3
ATOM      3  C   UNL     1       1.625  -2.253  19.418  1.00  0.00     0.000 C 
BRANCH   3   4
ATOM      4  C   UNL     1       2.963  -2.601  20.091  1.00  0.00     0.000 C 
BRANCH   4   5
ATOM      5  C   UNL     1       3.235  -1.685  21.292  1.00  0.00     0.000 C 
BRANCH   5   6
ATOM      6  C   UNL     1       3.689  -2.462  22.542  1.00  0.00     0.000 C 
BRANCH   6   7
ATOM      7  C   UNL     1       5.182  -2.842  22.568  1.00  0.00     0.000 C 
BRANCH   7   8
ATOM      8  C   UNL     1       6.103  -1.971  21.692  1.00  0.00     0.000 C 
BRANCH   8   9
ATOM      9  C   UNL     1       7.043  -2.774  20.771  1.00  0.00     0.000 C 
BRANCH   9  10
ATOM     10  C   UNL     1       6.302  -3.827  19.931  1.00  0.00     0.000 C 
BRANCH  10  11
ATOM     11  C   UNL     1       6.695  -5.246  20.362  1.00  0.00     0.000 C 
BRANCH  11  12
ATOM     12  C   UNL     1       7.823  -5.218  21.406  1.00  0.00     0.000 C 
BRANCH  12  13
ATOM     13  C   UNL     1       8.232  -6.621  21.887  1.00  0.00     0.006 C 
BRANCH  13  14
ATOM     14  C   UNL     1       7.051  -7.491  22.366  1.00  0.00     0.053 C 
BRANCH  14  15
ATOM     15  C   UNL     1       7.037  -8.848  21.723  1.00  0.00     0.041 C 
ATOM     16  O   UNL     1       7.549  -9.017  20.585  1.00  0.00    -0.550 OA
ATOM     17  O   UNL     1       6.422  -9.915  22.368  1.00  0.00    -0.550 OA
ENDBRANCH  14  15
ENDBRANCH  13  14
ENDBRANCH  12  13
ENDBRANCH  11  12
ENDBRANCH  10  11
ENDBRANCH   9  10
ENDBRANCH   8   9
ENDBRANCH   7   8
ENDBRANCH   6   7
ENDBRANCH   5   6
ENDBRANCH   4   5
ENDBRANCH   3   4
ENDBRANCH   2   3
ENDBRANCH   1   2
BRANCH   1  18
ATOM     18  C   UNL     1       1.547   1.337  18.204  1.00  0.00     0.000 C 
BRANCH  18  19
ATOM     19  C   UNL     1       2.524   1.422  17.019  1.00  0.00     0.000 C 
BRANCH  19  20
ATOM     20  C   UNL     1       3.860   0.681  17.256  1.00  0.00     0.000 C 
BRANCH  20  21
ATOM     21  C   UNL     1       4.060   0.242  18.716  1.00  0.00     0.000 C 
BRANCH  21  22
ATOM     22  C   UNL     1       5.534  -0.067  19.039  1.00  0.00     0.000 C 
BRANCH  22  23
ATOM     23  C   UNL     1       6.194   1.019  19.911  1.00  0.00     0.000 C 
BRANCH  23  24
ATOM     24  C   UNL     1       7.735   0.932  20.010  1.00  0.00    -0.000 C 
BRANCH  24  25
ATOM     25  C   UNL     1       8.505   1.431  18.769  1.00  0.00    -0.000 C 
BRANCH  25  26
ATOM     26  C   UNL     1       9.730   2.310  19.090  1.00  0.00    -0.000 C 
BRANCH  26  27
ATOM     27  C   UNL     1      10.513   2.709  17.830  1.00  0.00    -0.000 C 
BRANCH  27  28
ATOM     28  C   UNL     1      11.162   1.479  17.172  1.00  0.00    -0.000 C 
BRANCH  28  29
ATOM     29  C   UNL     1      12.565   1.783  16.617  1.00  0.00    -0.000 C 
BRANCH  29  30
ATOM     30  C   UNL     1      13.595   0.717  17.036  1.00  0.00    -0.000 C 
BRANCH  30  31
ATOM     31  C   UNL     1      15.043   1.164  16.773  1.00  0.00    -0.003 C 
ATOM     32  C   UNL     1      16.066   0.319  17.531  1.00  0.00     0.004 C 
ENDBRANCH  30  31
ENDBRANCH  29  30
ENDBRANCH  28  29
ENDBRANCH  27  28
ENDBRANCH  26  27
ENDBRANCH  25  26
ENDBRANCH  24  25
ENDBRANCH  23  24
ENDBRANCH  22  23
ENDBRANCH  21  22
ENDBRANCH  20  21
ENDBRANCH  19  20
ENDBRANCH  18  19
ENDBRANCH   1  18
TORSDOF 28
ENDMDL
MODEL 9
REMARK VINA RESULT:    -2.251      2.559      5.474
REMARK INTER + INTRA:          -7.793
REMARK INTER:                  -6.400
REMARK INTRA:                  -1.393
REMARK UNBOUND:                -1.858
REMARK SMILES CCCCCCCCCCCCCCCCCCCCCCCCCCCCCC(=O)[O-]
REMARK SMILES IDX 16 1 17 2 18 3 19 4 20 5 21 6 22 7 23 8 24 9 25 10 26 11
REMARK SMILES IDX 27 12 28 13 29 14 30 15 31 16 32 17 15 18 14 19 13 20 12 21
REMARK SMILES IDX 11 22 10 23 9 24 8 25 7 26 6 27 5 28 4 29 3 30 2 31 1 32
REMARK H PARENT
REMARK Flexibility Score: inf
ROOT
ATOM      1  C   UNL     1       1.369   5.950  18.613  1.00  0.00     0.000 C 
ENDROOT
BRANCH   1   2
ATOM      2  C   UNL     1       1.922   4.868  17.672  1.00  0.00     0.000 C 
BRANCH   2   3
ATOM      3  C   UNL     1       0.887   3.791  17.290  1.00  0.00     0.000 C 
BRANCH   3   4
ATOM      4  C   UNL     1       0.936   2.584  18.241  1.00  0.00     0.000 C 
BRANCH   4   5
ATOM      5  C   UNL     1       1.673   1.401  17.598  1.00  0.00     0.000 C 
BRANCH   5   6
ATOM      6  C   UNL     1       2.697   0.751  18.547  1.00  0.00     0.000 C 
BRANCH   6   7
ATOM      7  C   UNL     1       2.478  -0.750  18.816  1.00  0.00     0.000 C 
BRANCH   7   8
ATOM      8  C   UNL     1       2.711  -1.202  20.271  1.00  0.00     0.000 C 
BRANCH   8   9
ATOM      9  C   UNL     1       4.180  -1.530  20.603  1.00  0.00     0.000 C 
BRANCH   9  10
ATOM     10  C   UNL     1       4.868  -2.366  19.513  1.00  0.00     0.000 C 
BRANCH  10  11
ATOM     11  C   UNL     1       5.440  -3.664  20.097  1.00  0.00     0.000 C 
BRANCH  11  12
ATOM     12  C   UNL     1       6.876  -3.459  20.606  1.00  0.00     0.000 C 
BRANCH  12  13
ATOM     13  C   UNL     1       7.504  -4.746  21.169  1.00  0.00     0.006 C 
BRANCH  13  14
ATOM     14  C   UNL     1       6.749  -6.035  20.784  1.00  0.00     0.053 C 
BRANCH  14  15
ATOM     15  C   UNL     1       7.311  -7.254  21.455  1.00  0.00     0.041 C 
ATOM     16  O   UNL     1       7.701  -7.199  22.651  1.00  0.00    -0.550 OA
ATOM     17  O   UNL     1       7.440  -8.442  20.743  1.00  0.00    -0.550 OA
ENDBRANCH  14  15
ENDBRANCH  13  14
ENDBRANCH  12  13
ENDBRANCH  11  12
ENDBRANCH  10  11
ENDBRANCH   9  10
ENDBRANCH   8   9
ENDBRANCH   7   8
ENDBRANCH   6   7
ENDBRANCH   5   6
ENDBRANCH   4   5
ENDBRANCH   3   4
ENDBRANCH   2   3
ENDBRANCH   1   2
BRANCH   1  18
ATOM     18  C   UNL     1       0.875   7.204  17.877  1.00  0.00     0.000 C 
BRANCH  18  19
ATOM     19  C   UNL     1       1.917   7.780  16.903  1.00  0.00     0.000 C 
BRANCH  19  20
ATOM     20  C   UNL     1       1.615   7.486  15.416  1.00  0.00     0.000 C 
BRANCH  20  21
ATOM     21  C   UNL     1       2.881   7.268  14.571  1.00  0.00     0.000 C 
BRANCH  21  22
ATOM     22  C   UNL     1       3.731   6.089  15.082  1.00  0.00     0.000 C 
BRANCH  22  23
ATOM     23  C   UNL     1       4.609   5.465  13.979  1.00  0.00     0.000 C 
BRANCH  23  24
ATOM     24  C   UNL     1       6.059   5.998  13.917  1.00  0.00    -0.000 C 
BRANCH  24  25
ATOM     25  C   UNL     1       6.969   5.314  12.874  1.00  0.00    -0.000 C 
BRANCH  25  26
ATOM     26  C   UNL     1       7.409   6.229  11.715  1.00  0.00    -0.000 C 
BRANCH  26  27
ATOM     27  C   UNL     1       8.447   5.560  10.800  1.00  0.00    -0.000 C 
BRANCH  27  28
ATOM     28  C   UNL     1       7.926   4.212  10.270  1.00  0.00    -0.000 C 
BRANCH  28  29
ATOM     29  C   UNL     1       8.985   3.457   9.448  1.00  0.00    -0.000 C 
BRANCH  29  30
ATOM     30  C   UNL     1      10.345   4.181   9.455  1.00  0.00    -0.000 C 
BRANCH  30  31
ATOM     31  C   UNL     1      11.531   3.205   9.370  1.00  0.00    -0.003 C 
ATOM     32  C   UNL     1      12.851   3.844   9.799  1.00  0.00     0.004 C 
ENDBRANCH  30  31
ENDBRANCH  29  30
ENDBRANCH  28  29
ENDBRANCH  27  28
ENDBRANCH  26  27
ENDBRANCH  25  26
ENDBRANCH  24  25
ENDBRANCH  23  24
ENDBRANCH  22  23
ENDBRANCH  21  22
ENDBRANCH  20  21
ENDBRANCH  19  20
ENDBRANCH  18  19
ENDBRANCH   1  18
TORSDOF 28
ENDMDL
