MODEL 1
REMARK VINA RESULT:    -5.220      0.000      0.000
REMARK INTER + INTRA:          -6.407
REMARK INTER:                  -6.135
REMARK INTRA:                  -0.272
REMARK UNBOUND:                -0.272
REMARK SMILES O=c1cc(-c2ccc(O)c(O)c2)oc2cc(O)cc(O)c12
REMARK SMILES IDX 4 1 3 2 2 3 1 4 21 5 19 6 18 7 16 8 15 9 14 10 13 11 5 12
REMARK SMILES IDX 6 13 7 14 8 15 12 16 10 17 9 18 11 20 20 22 17 24
REMARK H PARENT 9 19 11 21 20 23 17 25
REMARK Flexibility Score: inf
ROOT
ATOM      1  C   UNL     1       0.345  12.460   9.723  1.00  0.00     0.138 A 
ATOM      2  C   UNL     1       1.621  12.025  10.106  1.00  0.00     0.100 A 
ATOM      3  C   UNL     1       1.953  11.968  11.460  1.00  0.00     0.197 A 
ATOM      4  O   UNL     1       3.123  11.625  11.769  1.00  0.00    -0.289 OA
ATOM      5  C   UNL     1       0.989  12.314  12.437  1.00  0.00     0.107 A 
ATOM      6  C   UNL     1       1.203  12.261  13.847  1.00  0.00     0.134 A 
ATOM      7  C   UNL     1       0.205  12.723  14.715  1.00  0.00     0.093 A 
ATOM      8  C   UNL     1      -1.018  13.181  14.227  1.00  0.00     0.123 A 
ATOM      9  C   UNL     1      -1.257  13.191  12.852  1.00  0.00     0.094 A 
ATOM     10  C   UNL     1      -0.270  12.769  11.960  1.00  0.00     0.146 A 
ATOM     11  O   UNL     1      -0.532  12.810  10.658  1.00  0.00    -0.456 OA
ENDROOT
BRANCH   1  12
ATOM     12  C   UNL     1      -0.063  12.539   8.297  1.00  0.00     0.021 A 
ATOM     13  C   UNL     1       0.519  13.465   7.409  1.00  0.00     0.016 A 
ATOM     14  C   UNL     1       0.107  13.522   6.076  1.00  0.00     0.051 A 
ATOM     15  C   UNL     1      -0.895  12.663   5.607  1.00  0.00     0.157 A 
ATOM     16  C   UNL     1      -1.079  11.689   7.821  1.00  0.00     0.062 A 
ATOM     17  C   UNL     1      -1.490  11.747   6.481  1.00  0.00     0.158 A 
BRANCH  15  18
ATOM     18  O   UNL     1      -1.306  12.718   4.276  1.00  0.00    -0.504 OA
ATOM     19  H   UNL     1      -2.146  12.248   3.960  1.00  0.00     0.293 HD
ENDBRANCH  15  18
BRANCH  17  20
ATOM     20  O   UNL     1      -2.490  10.897   6.013  1.00  0.00    -0.504 OA
ATOM     21  H   UNL     1      -3.470  11.078   6.197  1.00  0.00     0.293 HD
ENDBRANCH  17  20
ENDBRANCH   1  12
BRANCH   6  22
ATOM     22  O   UNL     1       2.358  11.747  14.446  1.00  0.00    -0.507 OA
ATOM     23  H   UNL     1       2.633  11.904  15.402  1.00  0.00     0.293 HD
ENDBRANCH   6  22
BRANCH   8  24
ATOM     24  O   UNL     1      -1.993  13.619  15.121  1.00  0.00    -0.508 OA
ATOM     25  H   UNL     1      -2.787  14.168  14.812  1.00  0.00     0.293 HD
ENDBRANCH   8  24
TORSDOF 5
ENDMDL
MODEL 2
REMARK VINA RESULT:    -5.018      1.572      2.284
REMARK INTER + INTRA:          -6.170
REMARK INTER:                  -5.855
REMARK INTRA:                  -0.315
REMARK UNBOUND:                -0.272
REMARK SMILES O=c1cc(-c2ccc(O)c(O)c2)oc2cc(O)cc(O)c12
REMARK SMILES IDX 4 1 3 2 2 3 1 4 21 5 19 6 18 7 16 8 15 9 14 10 13 11 5 12
REMARK SMILES IDX 6 13 7 14 8 15 12 16 10 17 9 18 11 20 20 22 17 24
REMARK H PARENT 9 19 11 21 20 23 17 25
REMARK Flexibility Score: inf
ROOT
ATOM      1  C   UNL     1      -0.305  11.853   7.962  1.00  0.00     0.138 A 
ATOM      2  C   UNL     1       1.094  11.776   7.951  1.00  0.00     0.100 A 
ATOM      3  C   UNL     1       1.810  12.029   9.121  1.00  0.00     0.197 A 
ATOM      4  O   UNL     1       3.066  12.006   9.065  1.00  0.00    -0.289 OA
ATOM      5  C   UNL     1       1.117  12.325  10.320  1.00  0.00     0.107 A 
ATOM      6  C   UNL     1       1.739  12.567  11.581  1.00  0.00     0.134 A 
ATOM      7  C   UNL     1       0.953  12.948  12.677  1.00  0.00     0.093 A 
ATOM      8  C   UNL     1      -0.434  13.039  12.571  1.00  0.00     0.123 A 
ATOM      9  C   UNL     1      -1.058  12.758  11.355  1.00  0.00     0.094 A 
ATOM     10  C   UNL     1      -0.299  12.408  10.236  1.00  0.00     0.146 A 
ATOM     11  O   UNL     1      -0.930  12.164   9.092  1.00  0.00    -0.456 OA
ENDROOT
BRANCH   1  12
ATOM     12  C   UNL     1      -1.117  11.592   6.746  1.00  0.00     0.021 A 
ATOM     13  C   UNL     1      -0.546  11.601   5.458  1.00  0.00     0.016 A 
ATOM     14  C   UNL     1      -1.338  11.361   4.332  1.00  0.00     0.051 A 
ATOM     15  C   UNL     1      -2.709  11.116   4.470  1.00  0.00     0.157 A 
ATOM     16  C   UNL     1      -2.498  11.358   6.874  1.00  0.00     0.062 A 
ATOM     17  C   UNL     1      -3.291  11.116   5.742  1.00  0.00     0.158 A 
BRANCH  15  18
ATOM     18  O   UNL     1      -3.499  10.875   3.348  1.00  0.00    -0.504 OA
ATOM     19  H   UNL     1      -4.510  10.924   3.390  1.00  0.00     0.293 HD
ENDBRANCH  15  18
BRANCH  17  20
ATOM     20  O   UNL     1      -4.657  10.876   5.877  1.00  0.00    -0.504 OA
ATOM     21  H   UNL     1      -5.049  10.508   6.736  1.00  0.00     0.293 HD
ENDBRANCH  17  20
ENDBRANCH   1  12
BRANCH   6  22
ATOM     22  O   UNL     1       3.110  12.426  11.819  1.00  0.00    -0.507 OA
ATOM     23  H   UNL     1       3.761  11.970  11.200  1.00  0.00     0.293 HD
ENDBRANCH   6  22
BRANCH   8  24
ATOM     24  O   UNL     1      -1.185  13.407  13.686  1.00  0.00    -0.508 OA
ATOM     25  H   UNL     1      -2.176  13.205  13.748  1.00  0.00     0.293 HD
ENDBRANCH   8  24
TORSDOF 5
ENDMDL
MODEL 3
REMARK VINA RESULT:    -4.936     20.809     22.769
REMARK INTER + INTRA:          -6.073
REMARK INTER:                  -5.787
REMARK INTRA:                  -0.286
REMARK UNBOUND:                -0.272
REMARK SMILES O=c1cc(-c2ccc(O)c(O)c2)oc2cc(O)cc(O)c12
REMARK SMILES IDX 4 1 3 2 2 3 1 4 21 5 19 6 18 7 16 8 15 9 14 10 13 11 5 12
REMARK SMILES IDX 6 13 7 14 8 15 12 16 10 17 9 18 11 20 20 22 17 24
REMARK H PARENT 9 19 11 21 20 23 17 25
REMARK Flexibility Score: inf
ROOT
ATOM      1  C   UNL     1     -12.351  30.137   9.278  1.00  0.00     0.138 A 
ATOM      2  C   UNL     1     -13.624  30.022   9.854  1.00  0.00     0.100 A 
ATOM      3  C   UNL     1     -14.759  30.133   9.050  1.00  0.00     0.197 A 
ATOM      4  O   UNL     1     -15.886  30.080   9.605  1.00  0.00    -0.289 OA
ATOM      5  C   UNL     1     -14.616  30.325   7.654  1.00  0.00     0.107 A 
ATOM      6  C   UNL     1     -15.700  30.419   6.731  1.00  0.00     0.134 A 
ATOM      7  C   UNL     1     -15.438  30.708   5.385  1.00  0.00     0.093 A 
ATOM      8  C   UNL     1     -14.132  30.849   4.920  1.00  0.00     0.123 A 
ATOM      9  C   UNL     1     -13.061  30.711   5.805  1.00  0.00     0.094 A 
ATOM     10  C   UNL     1     -13.291  30.457   7.159  1.00  0.00     0.146 A 
ATOM     11  O   UNL     1     -12.245  30.349   7.971  1.00  0.00    -0.456 OA
ENDROOT
BRANCH   1  12
ATOM     12  C   UNL     1     -11.109  30.024  10.086  1.00  0.00     0.021 A 
ATOM     13  C   UNL     1      -9.916  30.668   9.703  1.00  0.00     0.016 A 
ATOM     14  C   UNL     1      -8.761  30.535  10.478  1.00  0.00     0.051 A 
ATOM     15  C   UNL     1      -8.775  29.754  11.640  1.00  0.00     0.157 A 
ATOM     16  C   UNL     1     -11.110  29.231  11.247  1.00  0.00     0.062 A 
ATOM     17  C   UNL     1      -9.950  29.100  12.025  1.00  0.00     0.158 A 
BRANCH  15  18
ATOM     18  O   UNL     1      -7.624  29.622  12.415  1.00  0.00    -0.504 OA
ATOM     19  H   UNL     1      -6.906  30.337  12.426  1.00  0.00     0.293 HD
ENDBRANCH  15  18
BRANCH  17  20
ATOM     20  O   UNL     1      -9.960  28.320  13.180  1.00  0.00    -0.504 OA
ATOM     21  H   UNL     1      -9.521  28.636  14.037  1.00  0.00     0.293 HD
ENDBRANCH  17  20
ENDBRANCH   1  12
BRANCH   6  22
ATOM     22  O   UNL     1     -17.041  30.215   7.073  1.00  0.00    -0.507 OA
ATOM     23  H   UNL     1     -17.436  30.369   7.987  1.00  0.00     0.293 HD
ENDBRANCH   6  22
BRANCH   8  24
ATOM     24  O   UNL     1     -13.908  31.122   3.572  1.00  0.00    -0.508 OA
ATOM     25  H   UNL     1     -14.493  30.725   2.846  1.00  0.00     0.293 HD
ENDBRANCH   8  24
TORSDOF 5
ENDMDL
MODEL 4
REMARK VINA RESULT:    -4.790     20.365     22.204
REMARK INTER + INTRA:          -5.902
REMARK INTER:                  -5.597
REMARK INTRA:                  -0.306
REMARK UNBOUND:                -0.272
REMARK SMILES O=c1cc(-c2ccc(O)c(O)c2)oc2cc(O)cc(O)c12
REMARK SMILES IDX 4 1 3 2 2 3 1 4 21 5 19 6 18 7 16 8 15 9 14 10 13 11 5 12
REMARK SMILES IDX 6 13 7 14 8 15 12 16 10 17 9 18 11 20 20 22 17 24
REMARK H PARENT 9 19 11 21 20 23 17 25
REMARK Flexibility Score: inf
ROOT
ATOM      1  C   UNL     1     -11.325  30.236   9.376  1.00  0.00     0.138 A 
ATOM      2  C   UNL     1     -11.021  30.705   8.091  1.00  0.00     0.100 A 
ATOM      3  C   UNL     1     -12.019  30.751   7.117  1.00  0.00     0.197 A 
ATOM      4  O   UNL     1     -11.701  31.125   5.960  1.00  0.00    -0.289 OA
ATOM      5  C   UNL     1     -13.339  30.358   7.444  1.00  0.00     0.107 A 
ATOM      6  C   UNL     1     -14.446  30.394   6.544  1.00  0.00     0.134 A 
ATOM      7  C   UNL     1     -15.686  29.886   6.953  1.00  0.00     0.093 A 
ATOM      8  C   UNL     1     -15.874  29.398   8.245  1.00  0.00     0.123 A 
ATOM      9  C   UNL     1     -14.811  29.403   9.150  1.00  0.00     0.094 A 
ATOM     10  C   UNL     1     -13.554  29.871   8.762  1.00  0.00     0.146 A 
ATOM     11  O   UNL     1     -12.565  29.843   9.648  1.00  0.00    -0.456 OA
ENDROOT
BRANCH   1  12
ATOM     12  C   UNL     1     -10.302  30.168  10.451  1.00  0.00     0.021 A 
ATOM     13  C   UNL     1      -9.215  31.063  10.496  1.00  0.00     0.016 A 
ATOM     14  C   UNL     1      -8.264  30.968  11.515  1.00  0.00     0.051 A 
ATOM     15  C   UNL     1      -8.376  29.978  12.498  1.00  0.00     0.157 A 
ATOM     16  C   UNL     1     -10.399  29.168  11.435  1.00  0.00     0.062 A 
ATOM     17  C   UNL     1      -9.443  29.075  12.457  1.00  0.00     0.158 A 
BRANCH  15  18
ATOM     18  O   UNL     1      -7.428  29.883  13.516  1.00  0.00    -0.504 OA
ATOM     19  H   UNL     1      -7.687  29.632  14.462  1.00  0.00     0.293 HD
ENDBRANCH  15  18
BRANCH  17  20
ATOM     20  O   UNL     1      -9.550  28.088  13.435  1.00  0.00    -0.504 OA
ATOM     21  H   UNL     1      -9.253  27.134  13.261  1.00  0.00     0.293 HD
ENDBRANCH  17  20
ENDBRANCH   1  12
BRANCH   6  22
ATOM     22  O   UNL     1     -14.391  30.935   5.255  1.00  0.00    -0.507 OA
ATOM     23  H   UNL     1     -14.917  31.734   4.939  1.00  0.00     0.293 HD
ENDBRANCH   6  22
BRANCH   8  24
ATOM     24  O   UNL     1     -17.125  28.914   8.622  1.00  0.00    -0.508 OA
ATOM     25  H   UNL     1     -17.322  28.640   9.577  1.00  0.00     0.293 HD
ENDBRANCH   8  24
TORSDOF 5
ENDMDL
MODEL 5
REMARK VINA RESULT:    -4.667     20.879     22.141
REMARK INTER + INTRA:          -5.758
REMARK INTER:                  -5.466
REMARK INTRA:                  -0.292
REMARK UNBOUND:                -0.272
REMARK SMILES O=c1cc(-c2ccc(O)c(O)c2)oc2cc(O)cc(O)c12
REMARK SMILES IDX 4 1 3 2 2 3 1 4 21 5 19 6 18 7 16 8 15 9 14 10 13 11 5 12
REMARK SMILES IDX 6 13 7 14 8 15 12 16 10 17 9 18 11 20 20 22 17 24
REMARK H PARENT 9 19 11 21 20 23 17 25
REMARK Flexibility Score: inf
ROOT
ATOM      1  C   UNL     1     -13.660  30.023   9.124  1.00  0.00     0.138 A 
ATOM      2  C   UNL     1     -14.367  30.397  10.275  1.00  0.00     0.100 A 
ATOM      3  C   UNL     1     -13.685  30.570  11.479  1.00  0.00     0.197 A 
ATOM      4  O   UNL     1     -14.356  30.851  12.505  1.00  0.00    -0.289 OA
ATOM      5  C   UNL     1     -12.280  30.402  11.523  1.00  0.00     0.107 A 
ATOM      6  C   UNL     1     -11.474  30.585  12.687  1.00  0.00     0.134 A 
ATOM      7  C   UNL     1     -10.105  30.295  12.631  1.00  0.00     0.093 A 
ATOM      8  C   UNL     1      -9.503  29.884  11.442  1.00  0.00     0.123 A 
ATOM      9  C   UNL     1     -10.273  29.748  10.286  1.00  0.00     0.094 A 
ATOM     10  C   UNL     1     -11.646  29.998  10.317  1.00  0.00     0.146 A 
ATOM     11  O   UNL     1     -12.345  29.841   9.198  1.00  0.00    -0.456 OA
ENDROOT
BRANCH   1  12
ATOM     12  C   UNL     1     -14.334  29.828   7.815  1.00  0.00     0.021 A 
ATOM     13  C   UNL     1     -15.524  29.082   7.699  1.00  0.00     0.016 A 
ATOM     14  C   UNL     1     -16.130  28.907   6.452  1.00  0.00     0.051 A 
ATOM     15  C   UNL     1     -15.557  29.466   5.303  1.00  0.00     0.157 A 
ATOM     16  C   UNL     1     -13.759  30.373   6.653  1.00  0.00     0.062 A 
ATOM     17  C   UNL     1     -14.370  30.197   5.402  1.00  0.00     0.158 A 
BRANCH  15  18
ATOM     18  O   UNL     1     -16.162  29.293   4.058  1.00  0.00    -0.504 OA
ATOM     19  H   UNL     1     -15.764  28.682   3.355  1.00  0.00     0.293 HD
ENDBRANCH  15  18
BRANCH  17  20
ATOM     20  O   UNL     1     -13.800  30.749   4.256  1.00  0.00    -0.504 OA
ATOM     21  H   UNL     1     -14.343  30.903   3.414  1.00  0.00     0.293 HD
ENDBRANCH  17  20
ENDBRANCH   1  12
BRANCH   6  22
ATOM     22  O   UNL     1     -11.957  31.069  13.907  1.00  0.00    -0.507 OA
ATOM     23  H   UNL     1     -11.384  31.387  14.672  1.00  0.00     0.293 HD
ENDBRANCH   6  22
BRANCH   8  24
ATOM     24  O   UNL     1      -8.136  29.617  11.421  1.00  0.00    -0.508 OA
ATOM     25  H   UNL     1      -7.780  28.685  11.242  1.00  0.00     0.293 HD
ENDBRANCH   8  24
TORSDOF 5
ENDMDL
MODEL 6
REMARK VINA RESULT:    -4.636     20.800     21.845
REMARK INTER + INTRA:          -5.721
REMARK INTER:                  -5.430
REMARK INTRA:                  -0.291
REMARK UNBOUND:                -0.272
REMARK SMILES O=c1cc(-c2ccc(O)c(O)c2)oc2cc(O)cc(O)c12
REMARK SMILES IDX 4 1 3 2 2 3 1 4 21 5 19 6 18 7 16 8 15 9 14 10 13 11 5 12
REMARK SMILES IDX 6 13 7 14 8 15 12 16 10 17 9 18 11 20 20 22 17 24
REMARK H PARENT 9 19 11 21 20 23 17 25
REMARK Flexibility Score: inf
ROOT
ATOM      1  C   UNL     1     -12.378  30.344   8.372  1.00  0.00     0.138 A 
ATOM      2  C   UNL     1     -11.021  30.289   8.024  1.00  0.00     0.100 A 
ATOM      3  C   UNL     1     -10.052  30.256   9.027  1.00  0.00     0.197 A 
ATOM      4  O   UNL     1      -8.842  30.264   8.682  1.00  0.00    -0.289 OA
ATOM      5  C   UNL     1     -10.446  30.240  10.387  1.00  0.00     0.107 A 
ATOM      6  C   UNL     1      -9.548  30.172  11.494  1.00  0.00     0.134 A 
ATOM      7  C   UNL     1     -10.051  30.262  12.798  1.00  0.00     0.093 A 
ATOM      8  C   UNL     1     -11.421  30.358  13.036  1.00  0.00     0.123 A 
ATOM      9  C   UNL     1     -12.313  30.376  11.962  1.00  0.00     0.094 A 
ATOM     10  C   UNL     1     -11.840  30.323  10.650  1.00  0.00     0.146 A 
ATOM     11  O   UNL     1     -12.720  30.359   9.655  1.00  0.00    -0.456 OA
ENDROOT
BRANCH   1  12
ATOM     12  C   UNL     1     -13.452  30.379   7.346  1.00  0.00     0.021 A 
ATOM     13  C   UNL     1     -14.783  30.037   7.656  1.00  0.00     0.016 A 
ATOM     14  C   UNL     1     -15.770  30.070   6.667  1.00  0.00     0.051 A 
ATOM     15  C   UNL     1     -15.445  30.436   5.356  1.00  0.00     0.157 A 
ATOM     16  C   UNL     1     -13.132  30.732   6.023  1.00  0.00     0.062 A 
ATOM     17  C   UNL     1     -14.125  30.765   5.032  1.00  0.00     0.158 A 
BRANCH  15  18
ATOM     18  O   UNL     1     -16.429  30.470   4.369  1.00  0.00    -0.504 OA
ATOM     19  H   UNL     1     -17.415  30.455   4.601  1.00  0.00     0.293 HD
ENDBRANCH  15  18
BRANCH  17  20
ATOM     20  O   UNL     1     -13.804  31.125   3.725  1.00  0.00    -0.504 OA
ATOM     21  H   UNL     1     -14.065  30.545   2.935  1.00  0.00     0.293 HD
ENDBRANCH  17  20
ENDBRANCH   1  12
BRANCH   6  22
ATOM     22  O   UNL     1      -8.166  29.994  11.372  1.00  0.00    -0.507 OA
ATOM     23  H   UNL     1      -7.469  30.488  11.906  1.00  0.00     0.293 HD
ENDBRANCH   6  22
BRANCH   8  24
ATOM     24  O   UNL     1     -11.887  30.431  14.347  1.00  0.00    -0.508 OA
ATOM     25  H   UNL     1     -12.451  31.210  14.667  1.00  0.00     0.293 HD
ENDBRANCH   8  24
TORSDOF 5
ENDMDL
MODEL 7
REMARK VINA RESULT:    -4.563     20.699     21.906
REMARK INTER + INTRA:          -5.635
REMARK INTER:                  -5.353
REMARK INTRA:                  -0.283
REMARK UNBOUND:                -0.272
REMARK SMILES O=c1cc(-c2ccc(O)c(O)c2)oc2cc(O)cc(O)c12
REMARK SMILES IDX 4 1 3 2 2 3 1 4 21 5 19 6 18 7 16 8 15 9 14 10 13 11 5 12
REMARK SMILES IDX 6 13 7 14 8 15 12 16 10 17 9 18 11 20 20 22 17 24
REMARK H PARENT 9 19 11 21 20 23 17 25
REMARK Flexibility Score: inf
ROOT
ATOM      1  C   UNL     1     -12.868  30.348   9.198  1.00  0.00     0.138 A 
ATOM      2  C   UNL     1     -13.723  30.601  10.280  1.00  0.00     0.100 A 
ATOM      3  C   UNL     1     -13.212  30.603  11.578  1.00  0.00     0.197 A 
ATOM      4  O   UNL     1     -14.015  30.778  12.530  1.00  0.00    -0.289 OA
ATOM      5  C   UNL     1     -11.829  30.387  11.791  1.00  0.00     0.107 A 
ATOM      6  C   UNL     1     -11.190  30.402  13.067  1.00  0.00     0.134 A 
ATOM      7  C   UNL     1      -9.830  30.077  13.162  1.00  0.00     0.093 A 
ATOM      8  C   UNL     1      -9.076  29.797  12.024  1.00  0.00     0.123 A 
ATOM      9  C   UNL     1      -9.679  29.828  10.766  1.00  0.00     0.094 A 
ATOM     10  C   UNL     1     -11.040  30.114  10.642  1.00  0.00     0.146 A 
ATOM     11  O   UNL     1     -11.579  30.118   9.427  1.00  0.00    -0.456 OA
ENDROOT
BRANCH   1  12
ATOM     12  C   UNL     1     -13.357  30.336   7.795  1.00  0.00     0.021 A 
ATOM     13  C   UNL     1     -12.559  30.797   6.730  1.00  0.00     0.016 A 
ATOM     14  C   UNL     1     -13.050  30.783   5.422  1.00  0.00     0.051 A 
ATOM     15  C   UNL     1     -14.343  30.315   5.156  1.00  0.00     0.157 A 
ATOM     16  C   UNL     1     -14.659  29.881   7.521  1.00  0.00     0.062 A 
ATOM     17  C   UNL     1     -15.149  29.866   6.207  1.00  0.00     0.158 A 
BRANCH  15  18
ATOM     18  O   UNL     1     -14.833  30.299   3.852  1.00  0.00    -0.504 OA
ATOM     19  H   UNL     1     -14.225  30.440   3.054  1.00  0.00     0.293 HD
ENDBRANCH  15  18
BRANCH  17  20
ATOM     20  O   UNL     1     -16.437  29.405   5.941  1.00  0.00    -0.504 OA
ATOM     21  H   UNL     1     -16.654  28.415   5.921  1.00  0.00     0.293 HD
ENDBRANCH  17  20
ENDBRANCH   1  12
BRANCH   6  22
ATOM     22  O   UNL     1     -11.831  30.747  14.261  1.00  0.00    -0.507 OA
ATOM     23  H   UNL     1     -12.509  30.177  14.741  1.00  0.00     0.293 HD
ENDBRANCH   6  22
BRANCH   8  24
ATOM     24  O   UNL     1      -7.722  29.492  12.156  1.00  0.00    -0.508 OA
ATOM     25  H   UNL     1      -7.412  28.583  12.479  1.00  0.00     0.293 HD
ENDBRANCH   8  24
TORSDOF 5
ENDMDL
MODEL 8
REMARK VINA RESULT:    -4.076     21.111     22.327
REMARK INTER + INTRA:          -5.062
REMARK INTER:                  -4.800
REMARK INTRA:                  -0.263
REMARK UNBOUND:                -0.272
REMARK SMILES O=c1cc(-c2ccc(O)c(O)c2)oc2cc(O)cc(O)c12
REMARK SMILES IDX 4 1 3 2 2 3 1 4 21 5 19 6 18 7 16 8 15 9 14 10 13 11 5 12
REMARK SMILES IDX 6 13 7 14 8 15 12 16 10 17 9 18 11 20 20 22 17 24
REMARK H PARENT 9 19 11 21 20 23 17 25
REMARK Flexibility Score: inf
ROOT
ATOM      1  C   UNL     1     -14.166  29.983   9.138  1.00  0.00     0.138 A 
ATOM      2  C   UNL     1     -14.796  30.382  10.324  1.00  0.00     0.100 A 
ATOM      3  C   UNL     1     -14.035  30.578  11.478  1.00  0.00     0.197 A 
ATOM      4  O   UNL     1     -14.637  30.883  12.539  1.00  0.00    -0.289 OA
ATOM      5  C   UNL     1     -12.630  30.409  11.432  1.00  0.00     0.107 A 
ATOM      6  C   UNL     1     -11.749  30.615  12.535  1.00  0.00     0.134 A 
ATOM      7  C   UNL     1     -10.386  30.320  12.395  1.00  0.00     0.093 A 
ATOM      8  C   UNL     1      -9.866  29.884  11.178  1.00  0.00     0.123 A 
ATOM      9  C   UNL     1     -10.710  29.726  10.078  1.00  0.00     0.094 A 
ATOM     10  C   UNL     1     -12.078  29.978  10.195  1.00  0.00     0.146 A 
ATOM     11  O   UNL     1     -12.850  29.800   9.129  1.00  0.00    -0.456 OA
ENDROOT
BRANCH   1  12
ATOM     12  C   UNL     1     -14.926  29.762   7.880  1.00  0.00     0.021 A 
ATOM     13  C   UNL     1     -15.104  30.789   6.933  1.00  0.00     0.016 A 
ATOM     14  C   UNL     1     -15.832  30.554   5.764  1.00  0.00     0.051 A 
ATOM     15  C   UNL     1     -16.399  29.296   5.524  1.00  0.00     0.157 A 
ATOM     16  C   UNL     1     -15.511  28.506   7.638  1.00  0.00     0.062 A 
ATOM     17  C   UNL     1     -16.241  28.272   6.463  1.00  0.00     0.158 A 
BRANCH  15  18
ATOM     18  O   UNL     1     -17.125  29.060   4.358  1.00  0.00    -0.504 OA
ATOM     19  H   UNL     1     -16.889  29.516   3.484  1.00  0.00     0.293 HD
ENDBRANCH  15  18
BRANCH  17  20
ATOM     20  O   UNL     1     -16.810  27.022   6.224  1.00  0.00    -0.504 OA
ATOM     21  H   UNL     1     -17.804  26.915   6.058  1.00  0.00     0.293 HD
ENDBRANCH  17  20
ENDBRANCH   1  12
BRANCH   6  22
ATOM     22  O   UNL     1     -12.150  31.124  13.774  1.00  0.00    -0.507 OA
ATOM     23  H   UNL     1     -13.072  31.028  14.170  1.00  0.00     0.293 HD
ENDBRANCH   6  22
BRANCH   8  24
ATOM     24  O   UNL     1      -8.503  29.614  11.071  1.00  0.00    -0.508 OA
ATOM     25  H   UNL     1      -8.137  28.676  11.189  1.00  0.00     0.293 HD
ENDBRANCH   8  24
TORSDOF 5
ENDMDL
MODEL 9
REMARK VINA RESULT:    -2.414      1.811      7.077
REMARK INTER + INTRA:          -3.109
REMARK INTER:                  -2.800
REMARK INTRA:                  -0.310
REMARK UNBOUND:                -0.272
REMARK SMILES O=c1cc(-c2ccc(O)c(O)c2)oc2cc(O)cc(O)c12
REMARK SMILES IDX 4 1 3 2 2 3 1 4 21 5 19 6 18 7 16 8 15 9 14 10 13 11 5 12
REMARK SMILES IDX 6 13 7 14 8 15 12 16 10 17 9 18 11 20 20 22 17 24
REMARK H PARENT 9 19 11 21 20 23 17 25
REMARK Flexibility Score: inf
ROOT
ATOM      1  C   UNL     1       0.289  11.914   8.517  1.00  0.00     0.138 A 
ATOM      2  C   UNL     1       1.256  11.729   7.520  1.00  0.00     0.100 A 
ATOM      3  C   UNL     1       0.857  11.414   6.220  1.00  0.00     0.197 A 
ATOM      4  O   UNL     1       1.750  11.200   5.362  1.00  0.00    -0.289 OA
ATOM      5  C   UNL     1      -0.522  11.321   5.910  1.00  0.00     0.107 A 
ATOM      6  C   UNL     1      -1.047  11.040   4.613  1.00  0.00     0.134 A 
ATOM      7  C   UNL     1      -2.429  10.875   4.449  1.00  0.00     0.093 A 
ATOM      8  C   UNL     1      -3.306  11.038   5.520  1.00  0.00     0.123 A 
ATOM      9  C   UNL     1      -2.807  11.361   6.783  1.00  0.00     0.094 A 
ATOM     10  C   UNL     1      -1.433  11.498   6.986  1.00  0.00     0.146 A 
ATOM     11  O   UNL     1      -0.998  11.790   8.207  1.00  0.00    -0.456 OA
ENDROOT
BRANCH   1  12
ATOM     12  C   UNL     1       0.656  12.253   9.916  1.00  0.00     0.021 A 
ATOM     13  C   UNL     1       1.912  11.911  10.455  1.00  0.00     0.016 A 
ATOM     14  C   UNL     1       2.226  12.235  11.777  1.00  0.00     0.051 A 
ATOM     15  C   UNL     1       1.292  12.896  12.584  1.00  0.00     0.157 A 
ATOM     16  C   UNL     1      -0.280  12.905  10.738  1.00  0.00     0.062 A 
ATOM     17  C   UNL     1       0.037  13.229  12.065  1.00  0.00     0.158 A 
BRANCH  15  18
ATOM     18  O   UNL     1       1.604  13.220  13.904  1.00  0.00    -0.504 OA
ATOM     19  H   UNL     1       2.168  14.030  14.132  1.00  0.00     0.293 HD
ENDBRANCH  15  18
BRANCH  17  20
ATOM     20  O   UNL     1      -0.892  13.884  12.872  1.00  0.00    -0.504 OA
ATOM     21  H   UNL     1      -1.655  13.385  13.316  1.00  0.00     0.293 HD
ENDBRANCH  17  20
ENDBRANCH   1  12
BRANCH   6  22
ATOM     22  O   UNL     1      -0.267  10.936   3.457  1.00  0.00    -0.507 OA
ATOM     23  H   UNL     1       0.687  11.248   3.372  1.00  0.00     0.293 HD
ENDBRANCH   6  22
BRANCH   8  24
ATOM     24  O   UNL     1      -4.675  10.880   5.316  1.00  0.00    -0.508 OA
ATOM     25  H   UNL     1      -5.113   9.967   5.339  1.00  0.00     0.293 HD
ENDBRANCH   8  24
TORSDOF 5
ENDMDL
