MODEL 1
REMARK VINA RESULT:    -4.523      0.000      0.000
REMARK INTER + INTRA:         -14.324
REMARK INTER:                 -11.926
REMARK INTRA:                  -2.398
REMARK UNBOUND:                -2.398
REMARK SMILES CCCCCCCCCCCCCCCCCCCCCCCCCCCCCC(=O)[O-]
REMARK SMILES IDX 16 1 17 2 18 3 19 4 20 5 21 6 22 7 23 8 24 9 25 10 26 11
REMARK SMILES IDX 27 12 28 13 29 14 30 15 31 16 32 17 15 18 14 19 13 20 12 21
REMARK SMILES IDX 11 22 10 23 9 24 8 25 7 26 6 27 5 28 4 29 3 30 2 31 1 32
REMARK H PARENT
REMARK Flexibility Score: inf
ROOT
ATOM      1  C   UNL     1      12.199  26.002  33.564  1.00  0.00     0.000 C 
ENDROOT
BRANCH   1   2
ATOM      2  C   UNL     1      13.270  24.918  33.363  1.00  0.00     0.000 C 
BRANCH   2   3
ATOM      3  C   UNL     1      14.630  25.498  32.942  1.00  0.00     0.000 C 
BRANCH   3   4
ATOM      4  C   UNL     1      15.813  24.650  33.433  1.00  0.00     0.000 C 
BRANCH   4   5
ATOM      5  C   UNL     1      15.323  23.326  34.037  1.00  0.00     0.000 C 
BRANCH   5   6
ATOM      6  C   UNL     1      15.474  23.277  35.568  1.00  0.00     0.000 C 
BRANCH   6   7
ATOM      7  C   UNL     1      16.499  22.250  36.091  1.00  0.00     0.000 C 
BRANCH   7   8
ATOM      8  C   UNL     1      16.537  20.918  35.323  1.00  0.00     0.000 C 
BRANCH   8   9
ATOM      9  C   UNL     1      15.383  19.978  35.703  1.00  0.00     0.000 C 
BRANCH   9  10
ATOM     10  C   UNL     1      15.322  18.767  34.759  1.00  0.00     0.000 C 
BRANCH  10  11
ATOM     11  C   UNL     1      16.433  17.737  35.053  1.00  0.00     0.000 C 
BRANCH  11  12
ATOM     12  C   UNL     1      15.923  16.288  35.163  1.00  0.00     0.000 C 
BRANCH  12  13
ATOM     13  C   UNL     1      15.345  15.754  33.843  1.00  0.00     0.006 C 
BRANCH  13  14
ATOM     14  C   UNL     1      16.296  14.769  33.151  1.00  0.00     0.053 C 
BRANCH  14  15
ATOM     15  C   UNL     1      15.561  13.838  32.237  1.00  0.00     0.041 C 
ATOM     16  O   UNL     1      16.155  13.303  31.265  1.00  0.00    -0.550 OA
ATOM     17  O   UNL     1      14.228  13.532  32.485  1.00  0.00    -0.550 OA
ENDBRANCH  14  15
ENDBRANCH  13  14
ENDBRANCH  12  13
ENDBRANCH  11  12
ENDBRANCH  10  11
ENDBRANCH   9  10
ENDBRANCH   8   9
ENDBRANCH   7   8
ENDBRANCH   6   7
ENDBRANCH   5   6
ENDBRANCH   4   5
ENDBRANCH   3   4
ENDBRANCH   2   3
ENDBRANCH   1   2
BRANCH   1  18
ATOM     18  C   UNL     1      12.694  27.088  34.527  1.00  0.00     0.000 C 
BRANCH  18  19
ATOM     19  C   UNL     1      11.541  27.628  35.388  1.00  0.00     0.000 C 
BRANCH  19  20
ATOM     20  C   UNL     1      11.734  29.103  35.774  1.00  0.00     0.000 C 
BRANCH  20  21
ATOM     21  C   UNL     1      12.941  29.319  36.706  1.00  0.00     0.000 C 
BRANCH  21  22
ATOM     22  C   UNL     1      14.023  30.208  36.072  1.00  0.00     0.000 C 
BRANCH  22  23
ATOM     23  C   UNL     1      15.446  29.774  36.466  1.00  0.00     0.000 C 
BRANCH  23  24
ATOM     24  C   UNL     1      15.775  28.338  36.006  1.00  0.00    -0.000 C 
BRANCH  24  25
ATOM     25  C   UNL     1      16.205  28.238  34.530  1.00  0.00    -0.000 C 
BRANCH  25  26
ATOM     26  C   UNL     1      17.064  29.410  34.019  1.00  0.00    -0.000 C 
BRANCH  26  27
ATOM     27  C   UNL     1      16.846  29.785  32.541  1.00  0.00    -0.000 C 
BRANCH  27  28
ATOM     28  C   UNL     1      16.294  31.211  32.359  1.00  0.00    -0.000 C 
BRANCH  28  29
ATOM     29  C   UNL     1      16.519  31.753  30.937  1.00  0.00    -0.000 C 
BRANCH  29  30
ATOM     30  C   UNL     1      16.918  30.649  29.943  1.00  0.00    -0.000 C 
BRANCH  30  31
ATOM     31  C   UNL     1      16.217  30.801  28.584  1.00  0.00    -0.003 C 
ATOM     32  C   UNL     1      16.362  32.205  27.995  1.00  0.00     0.004 C 
ENDBRANCH  30  31
ENDBRANCH  29  30
ENDBRANCH  28  29
ENDBRANCH  27  28
ENDBRANCH  26  27
ENDBRANCH  25  26
ENDBRANCH  24  25
ENDBRANCH  23  24
ENDBRANCH  22  23
ENDBRANCH  21  22
ENDBRANCH  20  21
ENDBRANCH  19  20
ENDBRANCH  18  19
ENDBRANCH   1  18
TORSDOF 28
ENDMDL
MODEL 2
REMARK VINA RESULT:    -4.079      4.252     12.139
REMARK INTER + INTRA:         -13.154
REMARK INTER:                 -10.376
REMARK INTRA:                  -2.778
REMARK UNBOUND:                -2.398
REMARK SMILES CCCCCCCCCCCCCCCCCCCCCCCCCCCCCC(=O)[O-]
REMARK SMILES IDX 16 1 17 2 18 3 19 4 20 5 21 6 22 7 23 8 24 9 25 10 26 11
REMARK SMILES IDX 27 12 28 13 29 14 30 15 31 16 32 17 15 18 14 19 13 20 12 21
REMARK SMILES IDX 11 22 10 23 9 24 8 25 7 26 6 27 5 28 4 29 3 30 2 31 1 32
REMARK H PARENT
REMARK Flexibility Score: inf
ROOT
ATOM      1  C   UNL     1      14.154  24.840  33.024  1.00  0.00     0.000 C 
ENDROOT
BRANCH   1   2
ATOM      2  C   UNL     1      14.184  26.333  33.384  1.00  0.00     0.000 C 
BRANCH   2   3
ATOM      3  C   UNL     1      15.585  26.818  33.791  1.00  0.00     0.000 C 
BRANCH   3   4
ATOM      4  C   UNL     1      16.152  27.869  32.825  1.00  0.00     0.000 C 
BRANCH   4   5
ATOM      5  C   UNL     1      16.390  29.203  33.549  1.00  0.00     0.000 C 
BRANCH   5   6
ATOM      6  C   UNL     1      16.321  29.072  35.081  1.00  0.00     0.000 C 
BRANCH   6   7
ATOM      7  C   UNL     1      16.694  30.348  35.863  1.00  0.00     0.000 C 
BRANCH   7   8
ATOM      8  C   UNL     1      16.382  31.670  35.141  1.00  0.00     0.000 C 
BRANCH   8   9
ATOM      9  C   UNL     1      14.933  32.135  35.348  1.00  0.00     0.000 C 
BRANCH   9  10
ATOM     10  C   UNL     1      14.519  32.018  36.824  1.00  0.00     0.000 C 
BRANCH  10  11
ATOM     11  C   UNL     1      13.031  32.361  37.045  1.00  0.00     0.000 C 
BRANCH  11  12
ATOM     12  C   UNL     1      12.063  31.271  36.547  1.00  0.00     0.000 C 
BRANCH  12  13
ATOM     13  C   UNL     1      12.497  29.853  36.951  1.00  0.00     0.006 C 
BRANCH  13  14
ATOM     14  C   UNL     1      12.812  28.975  35.734  1.00  0.00     0.053 C 
BRANCH  14  15
ATOM     15  C   UNL     1      11.792  27.894  35.552  1.00  0.00     0.041 C 
ATOM     16  O   UNL     1      11.517  27.115  36.502  1.00  0.00    -0.550 OA
ATOM     17  O   UNL     1      11.118  27.773  34.343  1.00  0.00    -0.550 OA
ENDBRANCH  14  15
ENDBRANCH  13  14
ENDBRANCH  12  13
ENDBRANCH  11  12
ENDBRANCH  10  11
ENDBRANCH   9  10
ENDBRANCH   8   9
ENDBRANCH   7   8
ENDBRANCH   6   7
ENDBRANCH   5   6
ENDBRANCH   4   5
ENDBRANCH   3   4
ENDBRANCH   2   3
ENDBRANCH   1   2
BRANCH   1  18
ATOM     18  C   UNL     1      15.570  24.250  33.013  1.00  0.00     0.000 C 
BRANCH  18  19
ATOM     19  C   UNL     1      15.613  22.906  33.756  1.00  0.00     0.000 C 
BRANCH  19  20
ATOM     20  C   UNL     1      15.229  23.040  35.239  1.00  0.00     0.000 C 
BRANCH  20  21
ATOM     21  C   UNL     1      16.271  22.409  36.181  1.00  0.00     0.000 C 
BRANCH  21  22
ATOM     22  C   UNL     1      16.624  20.965  35.786  1.00  0.00     0.000 C 
BRANCH  22  23
ATOM     23  C   UNL     1      15.395  20.039  35.785  1.00  0.00     0.000 C 
BRANCH  23  24
ATOM     24  C   UNL     1      15.449  18.983  34.661  1.00  0.00    -0.000 C 
BRANCH  24  25
ATOM     25  C   UNL     1      16.821  18.297  34.515  1.00  0.00    -0.000 C 
BRANCH  25  26
ATOM     26  C   UNL     1      16.769  16.792  34.197  1.00  0.00    -0.000 C 
BRANCH  26  27
ATOM     27  C   UNL     1      16.630  15.868  35.421  1.00  0.00    -0.000 C 
BRANCH  27  28
ATOM     28  C   UNL     1      15.179  15.426  35.679  1.00  0.00    -0.000 C 
BRANCH  28  29
ATOM     29  C   UNL     1      15.065  13.922  35.978  1.00  0.00    -0.000 C 
BRANCH  29  30
ATOM     30  C   UNL     1      14.698  13.100  34.730  1.00  0.00    -0.000 C 
BRANCH  30  31
ATOM     31  C   UNL     1      14.386  13.987  33.514  1.00  0.00    -0.003 C 
ATOM     32  C   UNL     1      15.153  13.566  32.260  1.00  0.00     0.004 C 
ENDBRANCH  30  31
ENDBRANCH  29  30
ENDBRANCH  28  29
ENDBRANCH  27  28
ENDBRANCH  26  27
ENDBRANCH  25  26
ENDBRANCH  24  25
ENDBRANCH  23  24
ENDBRANCH  22  23
ENDBRANCH  21  22
ENDBRANCH  20  21
ENDBRANCH  19  20
ENDBRANCH  18  19
ENDBRANCH   1  18
TORSDOF 28
ENDMDL
MODEL 3
REMARK VINA RESULT:    -3.819      4.029     12.075
REMARK INTER + INTRA:         -12.468
REMARK INTER:                 -10.099
REMARK INTRA:                  -2.369
REMARK UNBOUND:                -2.398
REMARK SMILES CCCCCCCCCCCCCCCCCCCCCCCCCCCCCC(=O)[O-]
REMARK SMILES IDX 16 1 17 2 18 3 19 4 20 5 21 6 22 7 23 8 24 9 25 10 26 11
REMARK SMILES IDX 27 12 28 13 29 14 30 15 31 16 32 17 15 18 14 19 13 20 12 21
REMARK SMILES IDX 11 22 10 23 9 24 8 25 7 26 6 27 5 28 4 29 3 30 2 31 1 32
REMARK H PARENT
REMARK Flexibility Score: inf
ROOT
ATOM      1  C   UNL     1      12.644  25.921  33.552  1.00  0.00     0.000 C 
ENDROOT
BRANCH   1   2
ATOM      2  C   UNL     1      12.936  26.995  34.612  1.00  0.00     0.000 C 
BRANCH   2   3
ATOM      3  C   UNL     1      11.695  27.367  35.438  1.00  0.00     0.000 C 
BRANCH   3   4
ATOM      4  C   UNL     1      11.493  28.886  35.553  1.00  0.00     0.000 C 
BRANCH   4   5
ATOM      5  C   UNL     1      12.003  29.404  36.906  1.00  0.00     0.000 C 
BRANCH   5   6
ATOM      6  C   UNL     1      12.996  30.571  36.762  1.00  0.00     0.000 C 
BRANCH   6   7
ATOM      7  C   UNL     1      12.358  31.935  36.430  1.00  0.00     0.000 C 
BRANCH   7   8
ATOM      8  C   UNL     1      13.334  33.125  36.412  1.00  0.00     0.000 C 
BRANCH   8   9
ATOM      9  C   UNL     1      14.474  32.944  35.399  1.00  0.00     0.000 C 
BRANCH   9  10
ATOM     10  C   UNL     1      15.842  32.947  36.098  1.00  0.00     0.000 C 
BRANCH  10  11
ATOM     11  C   UNL     1      16.692  31.713  35.730  1.00  0.00     0.000 C 
BRANCH  11  12
ATOM     12  C   UNL     1      16.085  30.855  34.604  1.00  0.00     0.000 C 
BRANCH  12  13
ATOM     13  C   UNL     1      15.795  29.410  35.040  1.00  0.00     0.006 C 
BRANCH  13  14
ATOM     14  C   UNL     1      16.784  28.411  34.427  1.00  0.00     0.053 C 
BRANCH  14  15
ATOM     15  C   UNL     1      16.500  28.170  32.976  1.00  0.00     0.041 C 
ATOM     16  O   UNL     1      16.136  27.031  32.582  1.00  0.00    -0.550 OA
ATOM     17  O   UNL     1      16.602  29.216  32.067  1.00  0.00    -0.550 OA
ENDBRANCH  14  15
ENDBRANCH  13  14
ENDBRANCH  12  13
ENDBRANCH  11  12
ENDBRANCH  10  11
ENDBRANCH   9  10
ENDBRANCH   8   9
ENDBRANCH   7   8
ENDBRANCH   6   7
ENDBRANCH   5   6
ENDBRANCH   4   5
ENDBRANCH   3   4
ENDBRANCH   2   3
ENDBRANCH   1   2
BRANCH   1  18
ATOM     18  C   UNL     1      13.743  24.852  33.537  1.00  0.00     0.000 C 
BRANCH  18  19
ATOM     19  C   UNL     1      14.489  24.809  34.880  1.00  0.00     0.000 C 
BRANCH  19  20
ATOM     20  C   UNL     1      15.559  23.707  34.925  1.00  0.00     0.000 C 
BRANCH  20  21
ATOM     21  C   UNL     1      15.555  22.824  33.664  1.00  0.00     0.000 C 
BRANCH  21  22
ATOM     22  C   UNL     1      16.335  21.513  33.859  1.00  0.00     0.000 C 
BRANCH  22  23
ATOM     23  C   UNL     1      15.749  20.642  34.984  1.00  0.00     0.000 C 
BRANCH  23  24
ATOM     24  C   UNL     1      16.672  19.463  35.361  1.00  0.00    -0.000 C 
BRANCH  24  25
ATOM     25  C   UNL     1      17.047  18.559  34.171  1.00  0.00    -0.000 C 
BRANCH  25  26
ATOM     26  C   UNL     1      16.732  17.064  34.361  1.00  0.00    -0.000 C 
BRANCH  26  27
ATOM     27  C   UNL     1      16.284  16.664  35.780  1.00  0.00    -0.000 C 
BRANCH  27  28
ATOM     28  C   UNL     1      16.227  15.139  35.983  1.00  0.00    -0.000 C 
BRANCH  28  29
ATOM     29  C   UNL     1      14.786  14.601  35.998  1.00  0.00    -0.000 C 
BRANCH  29  30
ATOM     30  C   UNL     1      14.522  13.595  34.864  1.00  0.00    -0.000 C 
BRANCH  30  31
ATOM     31  C   UNL     1      14.595  14.247  33.474  1.00  0.00    -0.003 C 
ATOM     32  C   UNL     1      14.478  13.231  32.336  1.00  0.00     0.004 C 
ENDBRANCH  30  31
ENDBRANCH  29  30
ENDBRANCH  28  29
ENDBRANCH  27  28
ENDBRANCH  26  27
ENDBRANCH  25  26
ENDBRANCH  24  25
ENDBRANCH  23  24
ENDBRANCH  22  23
ENDBRANCH  21  22
ENDBRANCH  20  21
ENDBRANCH  19  20
ENDBRANCH  18  19
ENDBRANCH   1  18
TORSDOF 28
ENDMDL
MODEL 4
REMARK VINA RESULT:    -3.800      4.523     12.409
REMARK INTER + INTRA:         -12.419
REMARK INTER:                  -9.718
REMARK INTRA:                  -2.701
REMARK UNBOUND:                -2.398
REMARK SMILES CCCCCCCCCCCCCCCCCCCCCCCCCCCCCC(=O)[O-]
REMARK SMILES IDX 16 1 17 2 18 3 19 4 20 5 21 6 22 7 23 8 24 9 25 10 26 11
REMARK SMILES IDX 27 12 28 13 29 14 30 15 31 16 32 17 15 18 14 19 13 20 12 21
REMARK SMILES IDX 11 22 10 23 9 24 8 25 7 26 6 27 5 28 4 29 3 30 2 31 1 32
REMARK H PARENT
REMARK Flexibility Score: inf
ROOT
ATOM      1  C   UNL     1      14.220  25.403  33.234  1.00  0.00     0.000 C 
ENDROOT
BRANCH   1   2
ATOM      2  C   UNL     1      15.230  26.396  33.831  1.00  0.00     0.000 C 
BRANCH   2   3
ATOM      3  C   UNL     1      15.519  26.128  35.316  1.00  0.00     0.000 C 
BRANCH   3   4
ATOM      4  C   UNL     1      14.568  26.891  36.251  1.00  0.00     0.000 C 
BRANCH   4   5
ATOM      5  C   UNL     1      13.411  25.990  36.708  1.00  0.00     0.000 C 
BRANCH   5   6
ATOM      6  C   UNL     1      12.049  26.706  36.681  1.00  0.00     0.000 C 
BRANCH   6   7
ATOM      7  C   UNL     1      11.714  27.422  35.356  1.00  0.00     0.000 C 
BRANCH   7   8
ATOM      8  C   UNL     1      11.568  28.950  35.459  1.00  0.00     0.000 C 
BRANCH   8   9
ATOM      9  C   UNL     1      12.051  29.505  36.808  1.00  0.00     0.000 C 
BRANCH   9  10
ATOM     10  C   UNL     1      12.876  30.786  36.616  1.00  0.00     0.000 C 
BRANCH  10  11
ATOM     11  C   UNL     1      14.340  30.488  36.227  1.00  0.00     0.000 C 
BRANCH  11  12
ATOM     12  C   UNL     1      15.215  31.748  36.096  1.00  0.00     0.000 C 
BRANCH  12  13
ATOM     13  C   UNL     1      15.371  32.221  34.641  1.00  0.00     0.006 C 
BRANCH  13  14
ATOM     14  C   UNL     1      16.757  31.895  34.071  1.00  0.00     0.053 C 
BRANCH  14  15
ATOM     15  C   UNL     1      16.753  30.606  33.309  1.00  0.00     0.041 C 
ATOM     16  O   UNL     1      16.905  29.512  33.912  1.00  0.00    -0.550 OA
ATOM     17  O   UNL     1      16.541  30.613  31.935  1.00  0.00    -0.550 OA
ENDBRANCH  14  15
ENDBRANCH  13  14
ENDBRANCH  12  13
ENDBRANCH  11  12
ENDBRANCH  10  11
ENDBRANCH   9  10
ENDBRANCH   8   9
ENDBRANCH   7   8
ENDBRANCH   6   7
ENDBRANCH   5   6
ENDBRANCH   4   5
ENDBRANCH   3   4
ENDBRANCH   2   3
ENDBRANCH   1   2
BRANCH   1  18
ATOM     18  C   UNL     1      14.483  23.980  33.744  1.00  0.00     0.000 C 
BRANCH  18  19
ATOM     19  C   UNL     1      15.660  23.336  32.995  1.00  0.00     0.000 C 
BRANCH  19  20
ATOM     20  C   UNL     1      16.781  22.879  33.942  1.00  0.00     0.000 C 
BRANCH  20  21
ATOM     21  C   UNL     1      16.996  21.354  33.914  1.00  0.00     0.000 C 
BRANCH  21  22
ATOM     22  C   UNL     1      15.675  20.571  33.992  1.00  0.00     0.000 C 
BRANCH  22  23
ATOM     23  C   UNL     1      15.513  19.821  35.325  1.00  0.00     0.000 C 
BRANCH  23  24
ATOM     24  C   UNL     1      16.367  18.538  35.391  1.00  0.00    -0.000 C 
BRANCH  24  25
ATOM     25  C   UNL     1      16.003  17.605  36.561  1.00  0.00    -0.000 C 
BRANCH  25  26
ATOM     26  C   UNL     1      16.920  16.379  36.730  1.00  0.00    -0.000 C 
BRANCH  26  27
ATOM     27  C   UNL     1      16.211  15.014  36.645  1.00  0.00    -0.000 C 
BRANCH  27  28
ATOM     28  C   UNL     1      15.262  14.905  35.438  1.00  0.00    -0.000 C 
BRANCH  28  29
ATOM     29  C   UNL     1      15.572  13.685  34.554  1.00  0.00    -0.000 C 
BRANCH  29  30
ATOM     30  C   UNL     1      16.524  14.024  33.394  1.00  0.00    -0.000 C 
BRANCH  30  31
ATOM     31  C   UNL     1      15.890  13.760  32.019  1.00  0.00    -0.003 C 
ATOM     32  C   UNL     1      14.517  13.093  32.116  1.00  0.00     0.004 C 
ENDBRANCH  30  31
ENDBRANCH  29  30
ENDBRANCH  28  29
ENDBRANCH  27  28
ENDBRANCH  26  27
ENDBRANCH  25  26
ENDBRANCH  24  25
ENDBRANCH  23  24
ENDBRANCH  22  23
ENDBRANCH  21  22
ENDBRANCH  20  21
ENDBRANCH  19  20
ENDBRANCH  18  19
ENDBRANCH   1  18
TORSDOF 28
ENDMDL
MODEL 5
REMARK VINA RESULT:    -3.753      4.866     12.459
REMARK INTER + INTRA:         -12.295
REMARK INTER:                 -10.476
REMARK INTRA:                  -1.818
REMARK UNBOUND:                -2.398
REMARK SMILES CCCCCCCCCCCCCCCCCCCCCCCCCCCCCC(=O)[O-]
REMARK SMILES IDX 16 1 17 2 18 3 19 4 20 5 21 6 22 7 23 8 24 9 25 10 26 11
REMARK SMILES IDX 27 12 28 13 29 14 30 15 31 16 32 17 15 18 14 19 13 20 12 21
REMARK SMILES IDX 11 22 10 23 9 24 8 25 7 26 6 27 5 28 4 29 3 30 2 31 1 32
REMARK H PARENT
REMARK Flexibility Score: inf
ROOT
ATOM      1  C   UNL     1      12.612  26.450  34.300  1.00  0.00     0.000 C 
ENDROOT
BRANCH   1   2
ATOM      2  C   UNL     1      11.955  26.989  35.581  1.00  0.00     0.000 C 
BRANCH   2   3
ATOM      3  C   UNL     1      11.263  28.345  35.368  1.00  0.00     0.000 C 
BRANCH   3   4
ATOM      4  C   UNL     1      11.907  29.473  36.187  1.00  0.00     0.000 C 
BRANCH   4   5
ATOM      5  C   UNL     1      13.318  29.078  36.647  1.00  0.00     0.000 C 
BRANCH   5   6
ATOM      6  C   UNL     1      14.362  30.178  36.384  1.00  0.00     0.000 C 
BRANCH   6   7
ATOM      7  C   UNL     1      15.745  29.670  35.928  1.00  0.00     0.000 C 
BRANCH   7   8
ATOM      8  C   UNL     1      15.724  28.364  35.115  1.00  0.00     0.000 C 
BRANCH   8   9
ATOM      9  C   UNL     1      15.850  28.603  33.603  1.00  0.00     0.000 C 
BRANCH   9  10
ATOM     10  C   UNL     1      16.833  29.745  33.302  1.00  0.00     0.000 C 
BRANCH  10  11
ATOM     11  C   UNL     1      16.194  31.136  33.501  1.00  0.00     0.000 C 
BRANCH  11  12
ATOM     12  C   UNL     1      16.497  32.127  32.362  1.00  0.00     0.000 C 
BRANCH  12  13
ATOM     13  C   UNL     1      16.551  31.455  30.981  1.00  0.00     0.006 C 
BRANCH  13  14
ATOM     14  C   UNL     1      16.945  32.439  29.873  1.00  0.00     0.053 C 
BRANCH  14  15
ATOM     15  C   UNL     1      16.277  32.107  28.574  1.00  0.00     0.041 C 
ATOM     16  O   UNL     1      15.865  33.027  27.820  1.00  0.00    -0.550 OA
ATOM     17  O   UNL     1      16.145  30.781  28.180  1.00  0.00    -0.550 OA
ENDBRANCH  14  15
ENDBRANCH  13  14
ENDBRANCH  12  13
ENDBRANCH  11  12
ENDBRANCH  10  11
ENDBRANCH   9  10
ENDBRANCH   8   9
ENDBRANCH   7   8
ENDBRANCH   6   7
ENDBRANCH   5   6
ENDBRANCH   4   5
ENDBRANCH   3   4
ENDBRANCH   2   3
ENDBRANCH   1   2
BRANCH   1  18
ATOM     18  C   UNL     1      13.663  25.383  34.631  1.00  0.00     0.000 C 
BRANCH  18  19
ATOM     19  C   UNL     1      13.873  25.268  36.149  1.00  0.00     0.000 C 
BRANCH  19  20
ATOM     20  C   UNL     1      15.079  24.387  36.512  1.00  0.00     0.000 C 
BRANCH  20  21
ATOM     21  C   UNL     1      15.242  23.184  35.564  1.00  0.00     0.000 C 
BRANCH  21  22
ATOM     22  C   UNL     1      15.466  21.864  36.321  1.00  0.00     0.000 C 
BRANCH  22  23
ATOM     23  C   UNL     1      15.842  20.705  35.382  1.00  0.00     0.000 C 
BRANCH  23  24
ATOM     24  C   UNL     1      16.608  19.579  36.110  1.00  0.00    -0.000 C 
BRANCH  24  25
ATOM     25  C   UNL     1      15.944  18.194  35.989  1.00  0.00    -0.000 C 
BRANCH  25  26
ATOM     26  C   UNL     1      15.674  17.722  34.548  1.00  0.00    -0.000 C 
BRANCH  26  27
ATOM     27  C   UNL     1      16.425  16.446  34.125  1.00  0.00    -0.000 C 
BRANCH  27  28
ATOM     28  C   UNL     1      16.296  15.306  35.151  1.00  0.00    -0.000 C 
BRANCH  28  29
ATOM     29  C   UNL     1      14.969  14.540  35.017  1.00  0.00    -0.000 C 
BRANCH  29  30
ATOM     30  C   UNL     1      15.175  13.067  34.627  1.00  0.00    -0.000 C 
BRANCH  30  31
ATOM     31  C   UNL     1      15.573  12.901  33.151  1.00  0.00    -0.003 C 
ATOM     32  C   UNL     1      14.407  13.145  32.192  1.00  0.00     0.004 C 
ENDBRANCH  30  31
ENDBRANCH  29  30
ENDBRANCH  28  29
ENDBRANCH  27  28
ENDBRANCH  26  27
ENDBRANCH  25  26
ENDBRANCH  24  25
ENDBRANCH  23  24
ENDBRANCH  22  23
ENDBRANCH  21  22
ENDBRANCH  20  21
ENDBRANCH  19  20
ENDBRANCH  18  19
ENDBRANCH   1  18
TORSDOF 28
ENDMDL
MODEL 6
REMARK VINA RESULT:    -3.409      4.336     12.779
REMARK INTER + INTRA:         -11.388
REMARK INTER:                  -9.198
REMARK INTRA:                  -2.190
REMARK UNBOUND:                -2.398
REMARK SMILES CCCCCCCCCCCCCCCCCCCCCCCCCCCCCC(=O)[O-]
REMARK SMILES IDX 16 1 17 2 18 3 19 4 20 5 21 6 22 7 23 8 24 9 25 10 26 11
REMARK SMILES IDX 27 12 28 13 29 14 30 15 31 16 32 17 15 18 14 19 13 20 12 21
REMARK SMILES IDX 11 22 10 23 9 24 8 25 7 26 6 27 5 28 4 29 3 30 2 31 1 32
REMARK H PARENT
REMARK Flexibility Score: inf
ROOT
ATOM      1  C   UNL     1      15.230  23.731  33.683  1.00  0.00     0.000 C 
ENDROOT
BRANCH   1   2
ATOM      2  C   UNL     1      15.370  25.096  34.374  1.00  0.00     0.000 C 
BRANCH   2   3
ATOM      3  C   UNL     1      14.147  26.001  34.155  1.00  0.00     0.000 C 
BRANCH   3   4
ATOM      4  C   UNL     1      14.533  27.441  33.785  1.00  0.00     0.000 C 
BRANCH   4   5
ATOM      5  C   UNL     1      15.878  27.472  33.044  1.00  0.00     0.000 C 
BRANCH   5   6
ATOM      6  C   UNL     1      16.568  28.846  33.115  1.00  0.00     0.000 C 
BRANCH   6   7
ATOM      7  C   UNL     1      17.120  29.228  34.504  1.00  0.00     0.000 C 
BRANCH   7   8
ATOM      8  C   UNL     1      16.246  30.205  35.308  1.00  0.00     0.000 C 
BRANCH   8   9
ATOM      9  C   UNL     1      15.949  31.505  34.546  1.00  0.00     0.000 C 
BRANCH   9  10
ATOM     10  C   UNL     1      15.036  32.431  35.365  1.00  0.00     0.000 C 
BRANCH  10  11
ATOM     11  C   UNL     1      14.329  31.687  36.517  1.00  0.00     0.000 C 
BRANCH  11  12
ATOM     12  C   UNL     1      12.815  31.957  36.593  1.00  0.00     0.000 C 
BRANCH  12  13
ATOM     13  C   UNL     1      11.990  30.683  36.836  1.00  0.00     0.006 C 
BRANCH  13  14
ATOM     14  C   UNL     1      12.594  29.459  36.138  1.00  0.00     0.053 C 
BRANCH  14  15
ATOM     15  C   UNL     1      11.552  28.431  35.820  1.00  0.00     0.041 C 
ATOM     16  O   UNL     1      10.730  28.628  34.887  1.00  0.00    -0.550 OA
ATOM     17  O   UNL     1      11.515  27.239  36.533  1.00  0.00    -0.550 OA
ENDBRANCH  14  15
ENDBRANCH  13  14
ENDBRANCH  12  13
ENDBRANCH  11  12
ENDBRANCH  10  11
ENDBRANCH   9  10
ENDBRANCH   8   9
ENDBRANCH   7   8
ENDBRANCH   6   7
ENDBRANCH   5   6
ENDBRANCH   4   5
ENDBRANCH   3   4
ENDBRANCH   2   3
ENDBRANCH   1   2
BRANCH   1  18
ATOM     18  C   UNL     1      16.601  23.068  33.497  1.00  0.00     0.000 C 
BRANCH  18  19
ATOM     19  C   UNL     1      16.452  21.640  32.950  1.00  0.00     0.000 C 
BRANCH  19  20
ATOM     20  C   UNL     1      15.648  20.729  33.891  1.00  0.00     0.000 C 
BRANCH  20  21
ATOM     21  C   UNL     1      16.495  19.584  34.476  1.00  0.00     0.000 C 
BRANCH  21  22
ATOM     22  C   UNL     1      15.749  18.796  35.565  1.00  0.00     0.000 C 
BRANCH  22  23
ATOM     23  C   UNL     1      16.675  18.354  36.712  1.00  0.00     0.000 C 
BRANCH  23  24
ATOM     24  C   UNL     1      16.691  16.823  36.904  1.00  0.00    -0.000 C 
BRANCH  24  25
ATOM     25  C   UNL     1      15.395  16.124  36.452  1.00  0.00    -0.000 C 
BRANCH  25  26
ATOM     26  C   UNL     1      15.243  14.664  36.916  1.00  0.00    -0.000 C 
BRANCH  26  27
ATOM     27  C   UNL     1      16.541  13.835  36.905  1.00  0.00    -0.000 C 
BRANCH  27  28
ATOM     28  C   UNL     1      16.652  12.909  35.680  1.00  0.00    -0.000 C 
BRANCH  28  29
ATOM     29  C   UNL     1      15.813  13.405  34.490  1.00  0.00    -0.000 C 
BRANCH  29  30
ATOM     30  C   UNL     1      16.644  14.219  33.483  1.00  0.00    -0.000 C 
BRANCH  30  31
ATOM     31  C   UNL     1      16.243  13.935  32.026  1.00  0.00    -0.003 C 
ATOM     32  C   UNL     1      14.921  13.175  31.912  1.00  0.00     0.004 C 
ENDBRANCH  30  31
ENDBRANCH  29  30
ENDBRANCH  28  29
ENDBRANCH  27  28
ENDBRANCH  26  27
ENDBRANCH  25  26
ENDBRANCH  24  25
ENDBRANCH  23  24
ENDBRANCH  22  23
ENDBRANCH  21  22
ENDBRANCH  20  21
ENDBRANCH  19  20
ENDBRANCH  18  19
ENDBRANCH   1  18
TORSDOF 28
ENDMDL
MODEL 7
REMARK VINA RESULT:    -3.290      2.636      4.703
REMARK INTER + INTRA:         -11.073
REMARK INTER:                  -8.417
REMARK INTRA:                  -2.656
REMARK UNBOUND:                -2.398
REMARK SMILES CCCCCCCCCCCCCCCCCCCCCCCCCCCCCC(=O)[O-]
REMARK SMILES IDX 16 1 17 2 18 3 19 4 20 5 21 6 22 7 23 8 24 9 25 10 26 11
REMARK SMILES IDX 27 12 28 13 29 14 30 15 31 16 32 17 15 18 14 19 13 20 12 21
REMARK SMILES IDX 11 22 10 23 9 24 8 25 7 26 6 27 5 28 4 29 3 30 2 31 1 32
REMARK H PARENT
REMARK Flexibility Score: inf
ROOT
ATOM      1  C   UNL     1      14.764  24.986  33.208  1.00  0.00     0.000 C 
ENDROOT
BRANCH   1   2
ATOM      2  C   UNL     1      15.883  23.933  33.186  1.00  0.00     0.000 C 
BRANCH   2   3
ATOM      3  C   UNL     1      15.652  22.800  34.199  1.00  0.00     0.000 C 
BRANCH   3   4
ATOM      4  C   UNL     1      16.757  22.723  35.264  1.00  0.00     0.000 C 
BRANCH   4   5
ATOM      5  C   UNL     1      17.120  21.263  35.571  1.00  0.00     0.000 C 
BRANCH   5   6
ATOM      6  C   UNL     1      16.403  20.263  34.645  1.00  0.00     0.000 C 
BRANCH   6   7
ATOM      7  C   UNL     1      15.591  19.170  35.369  1.00  0.00     0.000 C 
BRANCH   7   8
ATOM      8  C   UNL     1      15.431  17.853  34.590  1.00  0.00     0.000 C 
BRANCH   8   9
ATOM      9  C   UNL     1      16.249  16.702  35.193  1.00  0.00     0.000 C 
BRANCH   9  10
ATOM     10  C   UNL     1      15.661  16.248  36.538  1.00  0.00     0.000 C 
BRANCH  10  11
ATOM     11  C   UNL     1      15.888  14.744  36.800  1.00  0.00     0.000 C 
BRANCH  11  12
ATOM     12  C   UNL     1      16.974  14.116  35.907  1.00  0.00     0.000 C 
BRANCH  12  13
ATOM     13  C   UNL     1      16.482  12.875  35.145  1.00  0.00     0.006 C 
BRANCH  13  14
ATOM     14  C   UNL     1      14.980  12.938  34.844  1.00  0.00     0.053 C 
BRANCH  14  15
ATOM     15  C   UNL     1      14.710  13.527  33.494  1.00  0.00     0.041 C 
ATOM     16  O   UNL     1      15.021  12.893  32.452  1.00  0.00    -0.550 OA
ATOM     17  O   UNL     1      14.079  14.761  33.389  1.00  0.00    -0.550 OA
ENDBRANCH  14  15
ENDBRANCH  13  14
ENDBRANCH  12  13
ENDBRANCH  11  12
ENDBRANCH  10  11
ENDBRANCH   9  10
ENDBRANCH   8   9
ENDBRANCH   7   8
ENDBRANCH   6   7
ENDBRANCH   5   6
ENDBRANCH   4   5
ENDBRANCH   3   4
ENDBRANCH   2   3
ENDBRANCH   1   2
BRANCH   1  18
ATOM     18  C   UNL     1      15.333  26.395  33.001  1.00  0.00     0.000 C 
BRANCH  18  19
ATOM     19  C   UNL     1      16.779  26.485  33.514  1.00  0.00     0.000 C 
BRANCH  19  20
ATOM     20  C   UNL     1      16.871  26.356  35.043  1.00  0.00     0.000 C 
BRANCH  20  21
ATOM     21  C   UNL     1      17.059  27.714  35.743  1.00  0.00     0.000 C 
BRANCH  21  22
ATOM     22  C   UNL     1      15.784  28.574  35.712  1.00  0.00     0.000 C 
BRANCH  22  23
ATOM     23  C   UNL     1      15.936  29.880  36.511  1.00  0.00     0.000 C 
BRANCH  23  24
ATOM     24  C   UNL     1      15.274  31.085  35.808  1.00  0.00    -0.000 C 
BRANCH  24  25
ATOM     25  C   UNL     1      14.353  31.912  36.725  1.00  0.00    -0.000 C 
BRANCH  25  26
ATOM     26  C   UNL     1      12.985  32.277  36.121  1.00  0.00    -0.000 C 
BRANCH  26  27
ATOM     27  C   UNL     1      11.841  31.299  36.452  1.00  0.00    -0.000 C 
BRANCH  27  28
ATOM     28  C   UNL     1      12.340  29.879  36.775  1.00  0.00    -0.000 C 
BRANCH  28  29
ATOM     29  C   UNL     1      11.599  28.798  35.970  1.00  0.00    -0.000 C 
BRANCH  29  30
ATOM     30  C   UNL     1      12.559  27.788  35.318  1.00  0.00    -0.000 C 
BRANCH  30  31
ATOM     31  C   UNL     1      12.386  26.367  35.878  1.00  0.00    -0.003 C 
ATOM     32  C   UNL     1      13.646  25.843  36.567  1.00  0.00     0.004 C 
ENDBRANCH  30  31
ENDBRANCH  29  30
ENDBRANCH  28  29
ENDBRANCH  27  28
ENDBRANCH  26  27
ENDBRANCH  25  26
ENDBRANCH  24  25
ENDBRANCH  23  24
ENDBRANCH  22  23
ENDBRANCH  21  22
ENDBRANCH  20  21
ENDBRANCH  19  20
ENDBRANCH  18  19
ENDBRANCH   1  18
TORSDOF 28
ENDMDL
MODEL 8
REMARK VINA RESULT:    -3.255      4.114     11.817
REMARK INTER + INTRA:         -10.981
REMARK INTER:                  -8.414
REMARK INTRA:                  -2.567
REMARK UNBOUND:                -2.398
REMARK SMILES CCCCCCCCCCCCCCCCCCCCCCCCCCCCCC(=O)[O-]
REMARK SMILES IDX 16 1 17 2 18 3 19 4 20 5 21 6 22 7 23 8 24 9 25 10 26 11
REMARK SMILES IDX 27 12 28 13 29 14 30 15 31 16 32 17 15 18 14 19 13 20 12 21
REMARK SMILES IDX 11 22 10 23 9 24 8 25 7 26 6 27 5 28 4 29 3 30 2 31 1 32
REMARK H PARENT
REMARK Flexibility Score: inf
ROOT
ATOM      1  C   UNL     1      14.003  24.997  32.993  1.00  0.00     0.000 C 
ENDROOT
BRANCH   1   2
ATOM      2  C   UNL     1      13.529  25.797  34.217  1.00  0.00     0.000 C 
BRANCH   2   3
ATOM      3  C   UNL     1      14.025  25.200  35.544  1.00  0.00     0.000 C 
BRANCH   3   4
ATOM      4  C   UNL     1      13.589  26.026  36.764  1.00  0.00     0.000 C 
BRANCH   4   5
ATOM      5  C   UNL     1      12.110  26.425  36.653  1.00  0.00     0.000 C 
BRANCH   5   6
ATOM      6  C   UNL     1      11.858  27.895  37.034  1.00  0.00     0.000 C 
BRANCH   6   7
ATOM      7  C   UNL     1      11.939  28.896  35.863  1.00  0.00     0.000 C 
BRANCH   7   8
ATOM      8  C   UNL     1      11.887  30.379  36.268  1.00  0.00     0.000 C 
BRANCH   8   9
ATOM      9  C   UNL     1      13.089  30.805  37.124  1.00  0.00     0.000 C 
BRANCH   9  10
ATOM     10  C   UNL     1      14.085  31.639  36.304  1.00  0.00     0.000 C 
BRANCH  10  11
ATOM     11  C   UNL     1      15.365  30.849  35.958  1.00  0.00     0.000 C 
BRANCH  11  12
ATOM     12  C   UNL     1      15.184  29.850  34.800  1.00  0.00     0.000 C 
BRANCH  12  13
ATOM     13  C   UNL     1      16.446  29.018  34.522  1.00  0.00     0.006 C 
BRANCH  13  14
ATOM     14  C   UNL     1      17.031  28.407  35.801  1.00  0.00     0.053 C 
BRANCH  14  15
ATOM     15  C   UNL     1      17.108  26.914  35.717  1.00  0.00     0.041 C 
ATOM     16  O   UNL     1      17.124  26.220  36.767  1.00  0.00    -0.550 OA
ATOM     17  O   UNL     1      17.123  26.289  34.476  1.00  0.00    -0.550 OA
ENDBRANCH  14  15
ENDBRANCH  13  14
ENDBRANCH  12  13
ENDBRANCH  11  12
ENDBRANCH  10  11
ENDBRANCH   9  10
ENDBRANCH   8   9
ENDBRANCH   7   8
ENDBRANCH   6   7
ENDBRANCH   5   6
ENDBRANCH   4   5
ENDBRANCH   3   4
ENDBRANCH   2   3
ENDBRANCH   1   2
BRANCH   1  18
ATOM     18  C   UNL     1      14.484  23.600  33.404  1.00  0.00     0.000 C 
BRANCH  18  19
ATOM     19  C   UNL     1      16.014  23.495  33.310  1.00  0.00     0.000 C 
BRANCH  19  20
ATOM     20  C   UNL     1      16.624  22.707  34.481  1.00  0.00     0.000 C 
BRANCH  20  21
ATOM     21  C   UNL     1      15.607  21.770  35.159  1.00  0.00     0.000 C 
BRANCH  21  22
ATOM     22  C   UNL     1      16.122  21.210  36.495  1.00  0.00     0.000 C 
BRANCH  22  23
ATOM     23  C   UNL     1      17.049  19.996  36.306  1.00  0.00     0.000 C 
BRANCH  23  24
ATOM     24  C   UNL     1      16.454  18.939  35.351  1.00  0.00    -0.000 C 
BRANCH  24  25
ATOM     25  C   UNL     1      16.932  17.503  35.635  1.00  0.00    -0.000 C 
BRANCH  25  26
ATOM     26  C   UNL     1      15.924  16.615  36.388  1.00  0.00    -0.000 C 
BRANCH  26  27
ATOM     27  C   UNL     1      16.175  15.099  36.276  1.00  0.00    -0.000 C 
BRANCH  27  28
ATOM     28  C   UNL     1      16.064  14.577  34.832  1.00  0.00    -0.000 C 
BRANCH  28  29
ATOM     29  C   UNL     1      14.696  13.937  34.541  1.00  0.00    -0.000 C 
BRANCH  29  30
ATOM     30  C   UNL     1      14.687  13.141  33.225  1.00  0.00    -0.000 C 
BRANCH  30  31
ATOM     31  C   UNL     1      16.066  13.116  32.545  1.00  0.00    -0.003 C 
ATOM     32  C   UNL     1      15.985  13.328  31.033  1.00  0.00     0.004 C 
ENDBRANCH  30  31
ENDBRANCH  29  30
ENDBRANCH  28  29
ENDBRANCH  27  28
ENDBRANCH  26  27
ENDBRANCH  25  26
ENDBRANCH  24  25
ENDBRANCH  23  24
ENDBRANCH  22  23
ENDBRANCH  21  22
ENDBRANCH  20  21
ENDBRANCH  19  20
ENDBRANCH  18  19
ENDBRANCH   1  18
TORSDOF 28
ENDMDL
MODEL 9
REMARK VINA RESULT:    -3.244      4.015     12.215
REMARK INTER + INTRA:         -10.953
REMARK INTER:                  -9.002
REMARK INTRA:                  -1.951
REMARK UNBOUND:                -2.398
REMARK SMILES CCCCCCCCCCCCCCCCCCCCCCCCCCCCCC(=O)[O-]
REMARK SMILES IDX 16 1 17 2 18 3 19 4 20 5 21 6 22 7 23 8 24 9 25 10 26 11
REMARK SMILES IDX 27 12 28 13 29 14 30 15 31 16 32 17 15 18 14 19 13 20 12 21
REMARK SMILES IDX 11 22 10 23 9 24 8 25 7 26 6 27 5 28 4 29 3 30 2 31 1 32
REMARK H PARENT
REMARK Flexibility Score: inf
ROOT
ATOM      1  C   UNL     1      13.979  25.261  32.975  1.00  0.00     0.000 C 
ENDROOT
BRANCH   1   2
ATOM      2  C   UNL     1      13.821  26.302  34.095  1.00  0.00     0.000 C 
BRANCH   2   3
ATOM      3  C   UNL     1      14.578  25.916  35.375  1.00  0.00     0.000 C 
BRANCH   3   4
ATOM      4  C   UNL     1      14.721  27.089  36.356  1.00  0.00     0.000 C 
BRANCH   4   5
ATOM      5  C   UNL     1      13.385  27.828  36.522  1.00  0.00     0.000 C 
BRANCH   5   6
ATOM      6  C   UNL     1      13.554  29.247  37.095  1.00  0.00     0.000 C 
BRANCH   6   7
ATOM      7  C   UNL     1      13.424  30.387  36.066  1.00  0.00     0.000 C 
BRANCH   7   8
ATOM      8  C   UNL     1      14.114  31.704  36.460  1.00  0.00     0.000 C 
BRANCH   8   9
ATOM      9  C   UNL     1      15.581  31.507  36.873  1.00  0.00     0.000 C 
BRANCH   9  10
ATOM     10  C   UNL     1      16.512  32.422  36.062  1.00  0.00     0.000 C 
BRANCH  10  11
ATOM     11  C   UNL     1      16.912  31.798  34.708  1.00  0.00     0.000 C 
BRANCH  11  12
ATOM     12  C   UNL     1      16.239  32.466  33.495  1.00  0.00     0.000 C 
BRANCH  12  13
ATOM     13  C   UNL     1      16.062  31.509  32.304  1.00  0.00     0.006 C 
BRANCH  13  14
ATOM     14  C   UNL     1      17.125  30.403  32.287  1.00  0.00     0.053 C 
BRANCH  14  15
ATOM     15  C   UNL     1      16.536  29.065  32.611  1.00  0.00     0.041 C 
ATOM     16  O   UNL     1      15.665  28.956  33.513  1.00  0.00    -0.550 OA
ATOM     17  O   UNL     1      16.924  27.943  31.887  1.00  0.00    -0.550 OA
ENDBRANCH  14  15
ENDBRANCH  13  14
ENDBRANCH  12  13
ENDBRANCH  11  12
ENDBRANCH  10  11
ENDBRANCH   9  10
ENDBRANCH   8   9
ENDBRANCH   7   8
ENDBRANCH   6   7
ENDBRANCH   5   6
ENDBRANCH   4   5
ENDBRANCH   3   4
ENDBRANCH   2   3
ENDBRANCH   1   2
BRANCH   1  18
ATOM     18  C   UNL     1      14.314  23.881  33.554  1.00  0.00     0.000 C 
BRANCH  18  19
ATOM     19  C   UNL     1      15.752  23.470  33.201  1.00  0.00     0.000 C 
BRANCH  19  20
ATOM     20  C   UNL     1      16.527  22.933  34.416  1.00  0.00     0.000 C 
BRANCH  20  21
ATOM     21  C   UNL     1      15.610  22.259  35.453  1.00  0.00     0.000 C 
BRANCH  21  22
ATOM     22  C   UNL     1      16.387  21.727  36.669  1.00  0.00     0.000 C 
BRANCH  22  23
ATOM     23  C   UNL     1      17.021  20.350  36.405  1.00  0.00     0.000 C 
BRANCH  23  24
ATOM     24  C   UNL     1      16.108  19.429  35.568  1.00  0.00    -0.000 C 
BRANCH  24  25
ATOM     25  C   UNL     1      16.681  18.015  35.351  1.00  0.00    -0.000 C 
BRANCH  25  26
ATOM     26  C   UNL     1      16.047  16.912  36.219  1.00  0.00    -0.000 C 
BRANCH  26  27
ATOM     27  C   UNL     1      16.188  15.481  35.666  1.00  0.00    -0.000 C 
BRANCH  27  28
ATOM     28  C   UNL     1      15.361  15.246  34.389  1.00  0.00    -0.000 C 
BRANCH  28  29
ATOM     29  C   UNL     1      15.281  13.759  34.005  1.00  0.00    -0.000 C 
BRANCH  29  30
ATOM     30  C   UNL     1      14.318  13.506  32.832  1.00  0.00    -0.000 C 
BRANCH  30  31
ATOM     31  C   UNL     1      15.056  13.123  31.539  1.00  0.00    -0.003 C 
ATOM     32  C   UNL     1      16.526  13.545  31.548  1.00  0.00     0.004 C 
ENDBRANCH  30  31
ENDBRANCH  29  30
ENDBRANCH  28  29
ENDBRANCH  27  28
ENDBRANCH  26  27
ENDBRANCH  25  26
ENDBRANCH  24  25
ENDBRANCH  23  24
ENDBRANCH  22  23
ENDBRANCH  21  22
ENDBRANCH  20  21
ENDBRANCH  19  20
ENDBRANCH  18  19
ENDBRANCH   1  18
TORSDOF 28
ENDMDL
