MODEL 1
REMARK VINA RESULT:    -5.471      0.000      0.000
REMARK INTER + INTRA:          -5.791
REMARK INTER:                  -5.791
REMARK INTRA:                   0.000
REMARK UNBOUND:                 0.000
REMARK SMILES O=c1ccc2cc(O)c(O)cc2o1
REMARK SMILES IDX 4 1 3 2 2 3 1 4 13 5 12 6 11 7 9 8 7 9 6 10 5 11 8 12 10 14
REMARK H PARENT 8 13 10 15
REMARK Flexibility Score: inf
ROOT
ATOM      1  C   UNL     1     -18.142   7.629 -18.726  1.00  0.00     0.019 A 
ATOM      2  C   UNL     1     -18.176   8.627 -19.699  1.00  0.00     0.094 A 
ATOM      3  C   UNL     1     -19.401   9.219 -20.022  1.00  0.00     0.336 A 
ATOM      4  O   UNL     1     -19.452  10.123 -20.898  1.00  0.00    -0.246 OA
ATOM      5  O   UNL     1     -20.518   8.833 -19.410  1.00  0.00    -0.423 OA
ATOM      6  C   UNL     1     -20.531   7.885 -18.477  1.00  0.00     0.142 A 
ATOM      7  C   UNL     1     -21.735   7.520 -17.867  1.00  0.00     0.098 A 
ATOM      8  C   UNL     1     -21.755   6.521 -16.883  1.00  0.00     0.161 A 
ATOM      9  C   UNL     1     -20.563   5.884 -16.507  1.00  0.00     0.158 A 
ATOM     10  C   UNL     1     -19.351   6.245 -17.115  1.00  0.00     0.062 A 
ATOM     11  C   UNL     1     -19.331   7.244 -18.099  1.00  0.00     0.022 A 
ENDROOT
BRANCH   9  12
ATOM     12  O   UNL     1     -20.590   4.892 -15.528  1.00  0.00    -0.504 OA
ATOM     13  H   UNL     1     -21.431   4.361 -15.334  1.00  0.00     0.293 HD
ENDBRANCH   9  12
BRANCH   8  14
ATOM     14  O   UNL     1     -22.954   6.156 -16.273  1.00  0.00    -0.504 OA
ATOM     15  H   UNL     1     -23.704   6.823 -16.138  1.00  0.00     0.293 HD
ENDBRANCH   8  14
TORSDOF 2
ENDMDL
MODEL 2
REMARK VINA RESULT:    -5.443      1.116      4.635
REMARK INTER + INTRA:          -5.761
REMARK INTER:                  -5.761
REMARK INTRA:                   0.000
REMARK UNBOUND:                 0.000
REMARK SMILES O=c1ccc2cc(O)c(O)cc2o1
REMARK SMILES IDX 4 1 3 2 2 3 1 4 13 5 12 6 11 7 9 8 7 9 6 10 5 11 8 12 10 14
REMARK H PARENT 8 13 10 15
REMARK Flexibility Score: inf
ROOT
ATOM      1  C   UNL     1     -19.074   6.679 -17.352  1.00  0.00     0.019 A 
ATOM      2  C   UNL     1     -20.279   6.294 -16.765  1.00  0.00     0.094 A 
ATOM      3  C   UNL     1     -21.478   6.787 -17.290  1.00  0.00     0.336 A 
ATOM      4  O   UNL     1     -22.576   6.450 -16.774  1.00  0.00    -0.246 OA
ATOM      5  O   UNL     1     -21.467   7.612 -18.334  1.00  0.00    -0.423 OA
ATOM      6  C   UNL     1     -20.341   8.005 -18.924  1.00  0.00     0.142 A 
ATOM      7  C   UNL     1     -20.391   8.874 -20.018  1.00  0.00     0.098 A 
ATOM      8  C   UNL     1     -19.206   9.291 -20.644  1.00  0.00     0.161 A 
ATOM      9  C   UNL     1     -17.966   8.836 -20.171  1.00  0.00     0.158 A 
ATOM     10  C   UNL     1     -17.910   7.965 -19.073  1.00  0.00     0.062 A 
ATOM     11  C   UNL     1     -19.093   7.547 -18.448  1.00  0.00     0.022 A 
ENDROOT
BRANCH   9  12
ATOM     12  O   UNL     1     -16.794   9.255 -20.798  1.00  0.00    -0.504 OA
ATOM     13  H   UNL     1     -16.275  10.062 -20.469  1.00  0.00     0.293 HD
ENDBRANCH   9  12
BRANCH   8  14
ATOM     14  O   UNL     1     -19.253  10.156 -21.735  1.00  0.00    -0.504 OA
ATOM     15  H   UNL     1     -19.584   9.848 -22.642  1.00  0.00     0.293 HD
ENDBRANCH   8  14
TORSDOF 2
ENDMDL
MODEL 3
REMARK VINA RESULT:    -5.407      1.059      2.233
REMARK INTER + INTRA:          -5.723
REMARK INTER:                  -5.723
REMARK INTRA:                   0.000
REMARK UNBOUND:                 0.000
REMARK SMILES O=c1ccc2cc(O)c(O)cc2o1
REMARK SMILES IDX 4 1 3 2 2 3 1 4 13 5 12 6 11 7 9 8 7 9 6 10 5 11 8 12 10 14
REMARK H PARENT 8 13 10 15
REMARK Flexibility Score: inf
ROOT
ATOM      1  C   UNL     1     -20.761   9.052 -19.479  1.00  0.00     0.019 A 
ATOM      2  C   UNL     1     -19.573   9.415 -20.112  1.00  0.00     0.094 A 
ATOM      3  C   UNL     1     -18.395   8.736 -19.784  1.00  0.00     0.336 A 
ATOM      4  O   UNL     1     -17.312   9.048 -20.345  1.00  0.00    -0.246 OA
ATOM      5  O   UNL     1     -18.409   7.759 -18.880  1.00  0.00    -0.423 OA
ATOM      6  C   UNL     1     -19.521   7.382 -18.252  1.00  0.00     0.142 A 
ATOM      7  C   UNL     1     -19.476   6.349 -17.311  1.00  0.00     0.098 A 
ATOM      8  C   UNL     1     -20.644   5.947 -16.647  1.00  0.00     0.161 A 
ATOM      9  C   UNL     1     -21.863   6.583 -16.926  1.00  0.00     0.158 A 
ATOM     10  C   UNL     1     -21.914   7.620 -17.868  1.00  0.00     0.062 A 
ATOM     11  C   UNL     1     -20.747   8.022 -18.533  1.00  0.00     0.022 A 
ENDROOT
BRANCH   9  12
ATOM     12  O   UNL     1     -23.019   6.178 -16.261  1.00  0.00    -0.504 OA
ATOM     13  H   UNL     1     -23.005   5.916 -15.282  1.00  0.00     0.293 HD
ENDBRANCH   9  12
BRANCH   8  14
ATOM     14  O   UNL     1     -20.602   4.917 -15.709  1.00  0.00    -0.504 OA
ATOM     15  H   UNL     1     -19.739   4.432 -15.493  1.00  0.00     0.293 HD
ENDBRANCH   8  14
TORSDOF 2
ENDMDL
MODEL 4
REMARK VINA RESULT:    -5.274      8.517      8.897
REMARK INTER + INTRA:          -5.583
REMARK INTER:                  -5.583
REMARK INTRA:                   0.000
REMARK UNBOUND:                 0.000
REMARK SMILES O=c1ccc2cc(O)c(O)cc2o1
REMARK SMILES IDX 4 1 3 2 2 3 1 4 13 5 12 6 11 7 9 8 7 9 6 10 5 11 8 12 10 14
REMARK H PARENT 8 13 10 15
REMARK Flexibility Score: inf
ROOT
ATOM      1  C   UNL     1     -19.471   2.123 -26.492  1.00  0.00     0.019 A 
ATOM      2  C   UNL     1     -18.899   3.344 -26.848  1.00  0.00     0.094 A 
ATOM      3  C   UNL     1     -18.067   3.996 -25.932  1.00  0.00     0.336 A 
ATOM      4  O   UNL     1     -17.541   5.100 -26.234  1.00  0.00    -0.246 OA
ATOM      5  O   UNL     1     -17.826   3.458 -24.739  1.00  0.00    -0.423 OA
ATOM      6  C   UNL     1     -18.351   2.295 -24.359  1.00  0.00     0.142 A 
ATOM      7  C   UNL     1     -18.062   1.778 -23.093  1.00  0.00     0.098 A 
ATOM      8  C   UNL     1     -18.612   0.553 -22.688  1.00  0.00     0.161 A 
ATOM      9  C   UNL     1     -19.456  -0.157 -23.555  1.00  0.00     0.158 A 
ATOM     10  C   UNL     1     -19.750   0.357 -24.826  1.00  0.00     0.062 A 
ATOM     11  C   UNL     1     -19.200   1.581 -25.232  1.00  0.00     0.022 A 
ENDROOT
BRANCH   9  12
ATOM     12  O   UNL     1     -19.999  -1.374 -23.145  1.00  0.00    -0.504 OA
ATOM     13  H   UNL     1     -20.685  -1.865 -23.706  1.00  0.00     0.293 HD
ENDBRANCH   9  12
BRANCH   8  14
ATOM     14  O   UNL     1     -18.325   0.035 -21.426  1.00  0.00    -0.504 OA
ATOM     15  H   UNL     1     -19.061  -0.259 -20.795  1.00  0.00     0.293 HD
ENDBRANCH   8  14
TORSDOF 2
ENDMDL
MODEL 5
REMARK VINA RESULT:    -5.181      1.319      5.135
REMARK INTER + INTRA:          -5.484
REMARK INTER:                  -5.484
REMARK INTRA:                   0.000
REMARK UNBOUND:                 0.000
REMARK SMILES O=c1ccc2cc(O)c(O)cc2o1
REMARK SMILES IDX 4 1 3 2 2 3 1 4 13 5 12 6 11 7 9 8 7 9 6 10 5 11 8 12 10 14
REMARK H PARENT 8 13 10 15
REMARK Flexibility Score: inf
ROOT
ATOM      1  C   UNL     1     -21.508   7.703 -18.105  1.00  0.00     0.019 A 
ATOM      2  C   UNL     1     -21.375   6.832 -17.024  1.00  0.00     0.094 A 
ATOM      3  C   UNL     1     -20.102   6.369 -16.678  1.00  0.00     0.336 A 
ATOM      4  O   UNL     1     -19.961   5.583 -15.704  1.00  0.00    -0.246 OA
ATOM      5  O   UNL     1     -19.033   6.753 -17.372  1.00  0.00    -0.423 OA
ATOM      6  C   UNL     1     -19.115   7.581 -18.411  1.00  0.00     0.142 A 
ATOM      7  C   UNL     1     -17.958   7.951 -19.103  1.00  0.00     0.098 A 
ATOM      8  C   UNL     1     -18.038   8.824 -20.198  1.00  0.00     0.161 A 
ATOM      9  C   UNL     1     -19.283   9.328 -20.602  1.00  0.00     0.158 A 
ATOM     10  C   UNL     1     -20.447   8.962 -19.912  1.00  0.00     0.062 A 
ATOM     11  C   UNL     1     -20.368   8.090 -18.817  1.00  0.00     0.022 A 
ENDROOT
BRANCH   9  12
ATOM     12  O   UNL     1     -19.354  10.196 -21.691  1.00  0.00    -0.504 OA
ATOM     13  H   UNL     1     -19.841   9.940 -22.543  1.00  0.00     0.293 HD
ENDBRANCH   9  12
BRANCH   8  14
ATOM     14  O   UNL     1     -16.886   9.193 -20.890  1.00  0.00    -0.504 OA
ATOM     15  H   UNL     1     -16.367  10.029 -20.647  1.00  0.00     0.293 HD
ENDBRANCH   8  14
TORSDOF 2
ENDMDL
MODEL 6
REMARK VINA RESULT:    -5.055      8.535      8.926
REMARK INTER + INTRA:          -5.351
REMARK INTER:                  -5.351
REMARK INTRA:                   0.000
REMARK UNBOUND:                 0.000
REMARK SMILES O=c1ccc2cc(O)c(O)cc2o1
REMARK SMILES IDX 4 1 3 2 2 3 1 4 13 5 12 6 11 7 9 8 7 9 6 10 5 11 8 12 10 14
REMARK H PARENT 8 13 10 15
REMARK Flexibility Score: inf
ROOT
ATOM      1  C   UNL     1     -15.083   1.273 -22.870  1.00  0.00     0.019 A 
ATOM      2  C   UNL     1     -14.992   2.661 -22.959  1.00  0.00     0.094 A 
ATOM      3  C   UNL     1     -16.160   3.406 -23.154  1.00  0.00     0.336 A 
ATOM      4  O   UNL     1     -16.099   4.661 -23.236  1.00  0.00    -0.246 OA
ATOM      5  O   UNL     1     -17.339   2.797 -23.255  1.00  0.00    -0.423 OA
ATOM      6  C   UNL     1     -17.471   1.475 -23.176  1.00  0.00     0.142 A 
ATOM      7  C   UNL     1     -18.735   0.890 -23.288  1.00  0.00     0.098 A 
ATOM      8  C   UNL     1     -18.879  -0.502 -23.206  1.00  0.00     0.161 A 
ATOM      9  C   UNL     1     -17.752  -1.313 -23.011  1.00  0.00     0.158 A 
ATOM     10  C   UNL     1     -16.480  -0.733 -22.897  1.00  0.00     0.062 A 
ATOM     11  C   UNL     1     -16.335   0.659 -22.979  1.00  0.00     0.022 A 
ENDROOT
BRANCH   9  12
ATOM     12  O   UNL     1     -17.903  -2.697 -22.930  1.00  0.00    -0.504 OA
ATOM     13  H   UNL     1     -18.079  -3.161 -22.046  1.00  0.00     0.293 HD
ENDBRANCH   9  12
BRANCH   8  14
ATOM     14  O   UNL     1     -20.139  -1.088 -23.318  1.00  0.00    -0.504 OA
ATOM     15  H   UNL     1     -20.702  -1.294 -22.501  1.00  0.00     0.293 HD
ENDBRANCH   8  14
TORSDOF 2
ENDMDL
MODEL 7
REMARK VINA RESULT:    -5.003      9.477     10.636
REMARK INTER + INTRA:          -5.296
REMARK INTER:                  -5.296
REMARK INTRA:                   0.000
REMARK UNBOUND:                 0.000
REMARK SMILES O=c1ccc2cc(O)c(O)cc2o1
REMARK SMILES IDX 4 1 3 2 2 3 1 4 13 5 12 6 11 7 9 8 7 9 6 10 5 11 8 12 10 14
REMARK H PARENT 8 13 10 15
REMARK Flexibility Score: inf
ROOT
ATOM      1  C   UNL     1     -19.886   2.182 -23.504  1.00  0.00     0.019 A 
ATOM      2  C   UNL     1     -19.730   1.026 -22.738  1.00  0.00     0.094 A 
ATOM      3  C   UNL     1     -19.486  -0.189 -23.386  1.00  0.00     0.336 A 
ATOM      4  O   UNL     1     -19.342  -1.243 -22.712  1.00  0.00    -0.246 OA
ATOM      5  O   UNL     1     -19.406  -0.241 -24.713  1.00  0.00    -0.423 OA
ATOM      6  C   UNL     1     -19.549   0.836 -25.482  1.00  0.00     0.142 A 
ATOM      7  C   UNL     1     -19.454   0.721 -26.872  1.00  0.00     0.098 A 
ATOM      8  C   UNL     1     -19.604   1.854 -27.686  1.00  0.00     0.161 A 
ATOM      9  C   UNL     1     -19.850   3.107 -27.105  1.00  0.00     0.158 A 
ATOM     10  C   UNL     1     -19.946   3.228 -25.711  1.00  0.00     0.062 A 
ATOM     11  C   UNL     1     -19.797   2.097 -24.897  1.00  0.00     0.022 A 
ENDROOT
BRANCH   9  12
ATOM     12  O   UNL     1     -19.998   4.227 -27.922  1.00  0.00    -0.504 OA
ATOM     13  H   UNL     1     -19.321   4.452 -28.642  1.00  0.00     0.293 HD
ENDBRANCH   9  12
BRANCH   8  14
ATOM     14  O   UNL     1     -19.510   1.742 -29.072  1.00  0.00    -0.504 OA
ATOM     15  H   UNL     1     -18.792   2.229 -29.595  1.00  0.00     0.293 HD
ENDBRANCH   8  14
TORSDOF 2
ENDMDL
MODEL 8
REMARK VINA RESULT:    -4.996      8.235      8.511
REMARK INTER + INTRA:          -5.288
REMARK INTER:                  -5.288
REMARK INTRA:                   0.000
REMARK UNBOUND:                 0.000
REMARK SMILES O=c1ccc2cc(O)c(O)cc2o1
REMARK SMILES IDX 4 1 3 2 2 3 1 4 13 5 12 6 11 7 9 8 7 9 6 10 5 11 8 12 10 14
REMARK H PARENT 8 13 10 15
REMARK Flexibility Score: inf
ROOT
ATOM      1  C   UNL     1     -17.769   3.745 -24.197  1.00  0.00     0.019 A 
ATOM      2  C   UNL     1     -18.129   4.395 -25.377  1.00  0.00     0.094 A 
ATOM      3  C   UNL     1     -19.028   3.772 -26.248  1.00  0.00     0.336 A 
ATOM      4  O   UNL     1     -19.366   4.343 -27.319  1.00  0.00    -0.246 OA
ATOM      5  O   UNL     1     -19.531   2.575 -25.955  1.00  0.00    -0.423 OA
ATOM      6  C   UNL     1     -19.214   1.919 -24.840  1.00  0.00     0.142 A 
ATOM      7  C   UNL     1     -19.774   0.664 -24.584  1.00  0.00     0.098 A 
ATOM      8  C   UNL     1     -19.444  -0.030 -23.412  1.00  0.00     0.161 A 
ATOM      9  C   UNL     1     -18.548   0.534 -22.491  1.00  0.00     0.158 A 
ATOM     10  C   UNL     1     -17.983   1.793 -22.742  1.00  0.00     0.062 A 
ATOM     11  C   UNL     1     -18.313   2.488 -23.914  1.00  0.00     0.022 A 
ENDROOT
BRANCH   9  12
ATOM     12  O   UNL     1     -18.225  -0.163 -21.328  1.00  0.00    -0.504 OA
ATOM     13  H   UNL     1     -18.853  -0.188 -20.533  1.00  0.00     0.293 HD
ENDBRANCH   9  12
BRANCH   8  14
ATOM     14  O   UNL     1     -20.001  -1.282 -23.154  1.00  0.00    -0.504 OA
ATOM     15  H   UNL     1     -20.952  -1.503 -23.421  1.00  0.00     0.293 HD
ENDBRANCH   8  14
TORSDOF 2
ENDMDL
MODEL 9
REMARK VINA RESULT:    -4.957      8.663      9.212
REMARK INTER + INTRA:          -5.247
REMARK INTER:                  -5.247
REMARK INTRA:                   0.000
REMARK UNBOUND:                 0.000
REMARK SMILES O=c1ccc2cc(O)c(O)cc2o1
REMARK SMILES IDX 4 1 3 2 2 3 1 4 13 5 12 6 11 7 9 8 7 9 6 10 5 11 8 12 10 14
REMARK H PARENT 8 13 10 15
REMARK Flexibility Score: inf
ROOT
ATOM      1  C   UNL     1     -17.471   3.002 -23.449  1.00  0.00     0.019 A 
ATOM      2  C   UNL     1     -16.207   3.570 -23.294  1.00  0.00     0.094 A 
ATOM      3  C   UNL     1     -15.122   2.740 -22.995  1.00  0.00     0.336 A 
ATOM      4  O   UNL     1     -13.973   3.234 -22.852  1.00  0.00    -0.246 OA
ATOM      5  O   UNL     1     -15.295   1.427 -22.860  1.00  0.00    -0.423 OA
ATOM      6  C   UNL     1     -16.484   0.844 -22.999  1.00  0.00     0.142 A 
ATOM      7  C   UNL     1     -16.606  -0.540 -22.845  1.00  0.00     0.098 A 
ATOM      8  C   UNL     1     -17.856  -1.159 -22.990  1.00  0.00     0.161 A 
ATOM      9  C   UNL     1     -18.989  -0.389 -23.290  1.00  0.00     0.158 A 
ATOM     10  C   UNL     1     -18.873   1.000 -23.446  1.00  0.00     0.062 A 
ATOM     11  C   UNL     1     -17.624   1.620 -23.301  1.00  0.00     0.022 A 
ENDROOT
BRANCH   9  12
ATOM     12  O   UNL     1     -20.228  -1.012 -23.433  1.00  0.00    -0.504 OA
ATOM     13  H   UNL     1     -20.641  -1.551 -22.681  1.00  0.00     0.293 HD
ENDBRANCH   9  12
BRANCH   8  14
ATOM     14  O   UNL     1     -17.980  -2.539 -22.838  1.00  0.00    -0.504 OA
ATOM     15  H   UNL     1     -17.309  -3.180 -23.246  1.00  0.00     0.293 HD
ENDBRANCH   8  14
TORSDOF 2
ENDMDL
