MODEL 1
REMARK VINA RESULT:    -7.266      0.000      0.000
REMARK INTER + INTRA:          -9.046
REMARK INTER:                  -8.753
REMARK INTRA:                  -0.293
REMARK UNBOUND:                -0.293
REMARK SMILES O=c1c(O)c(-c2ccc(O)c(O)c2)oc2cc(O)cc(O)c12
REMARK SMILES IDX 5 1 3 2 2 3 1 4 22 5 20 6 19 7 17 8 16 9 15 10 14 11 6 12
REMARK SMILES IDX 7 13 8 14 9 15 13 16 11 17 10 18 12 20 4 22 21 24 18 26
REMARK H PARENT 10 19 12 21 4 23 21 25 18 27
REMARK Flexibility Score: inf
ROOT
ATOM      1  C   UNL     1     -37.645   4.687  79.342  1.00  0.00     0.180 A 
ATOM      2  C   UNL     1     -38.218   4.778  80.626  1.00  0.00     0.208 A 
ATOM      3  C   UNL     1     -39.504   4.255  80.832  1.00  0.00     0.238 A 
ATOM      4  O   UNL     1     -40.023   4.320  81.979  1.00  0.00    -0.285 OA
ATOM      5  C   UNL     1     -40.200   3.670  79.754  1.00  0.00     0.111 A 
ATOM      6  C   UNL     1     -41.500   3.124  79.878  1.00  0.00     0.134 A 
ATOM      7  C   UNL     1     -42.131   2.569  78.754  1.00  0.00     0.093 A 
ATOM      8  C   UNL     1     -41.490   2.549  77.514  1.00  0.00     0.123 A 
ATOM      9  C   UNL     1     -40.205   3.087  77.386  1.00  0.00     0.094 A 
ATOM     10  C   UNL     1     -39.559   3.643  78.493  1.00  0.00     0.146 A 
ATOM     11  O   UNL     1     -38.338   4.143  78.345  1.00  0.00    -0.452 OA
ENDROOT
BRANCH   1  12
ATOM     12  C   UNL     1     -36.286   5.198  79.050  1.00  0.00     0.025 A 
ATOM     13  C   UNL     1     -35.136   4.482  79.427  1.00  0.00     0.016 A 
ATOM     14  C   UNL     1     -33.865   4.972  79.118  1.00  0.00     0.051 A 
ATOM     15  C   UNL     1     -33.724   6.178  78.418  1.00  0.00     0.157 A 
ATOM     16  C   UNL     1     -36.139   6.396  78.330  1.00  0.00     0.062 A 
ATOM     17  C   UNL     1     -34.863   6.889  78.021  1.00  0.00     0.158 A 
BRANCH  15  18
ATOM     18  O   UNL     1     -32.458   6.672  78.111  1.00  0.00    -0.504 OA
ATOM     19  H   UNL     1     -32.320   7.358  77.378  1.00  0.00     0.293 HD
ENDBRANCH  15  18
BRANCH  17  20
ATOM     20  O   UNL     1     -34.720   8.084  77.319  1.00  0.00    -0.504 OA
ATOM     21  H   UNL     1     -35.476   8.757  77.256  1.00  0.00     0.293 HD
ENDBRANCH  17  20
ENDBRANCH   1  12
BRANCH   2  22
ATOM     22  O   UNL     1     -37.527   5.406  81.665  1.00  0.00    -0.502 OA
ATOM     23  H   UNL     1     -37.740   6.350  81.966  1.00  0.00     0.293 HD
ENDBRANCH   2  22
BRANCH   6  24
ATOM     24  O   UNL     1     -42.168   3.129  81.103  1.00  0.00    -0.507 OA
ATOM     25  H   UNL     1     -42.173   3.945  81.704  1.00  0.00     0.293 HD
ENDBRANCH   6  24
BRANCH   8  26
ATOM     26  O   UNL     1     -42.138   1.991  76.414  1.00  0.00    -0.508 OA
ATOM     27  H   UNL     1     -41.635   1.750  75.568  1.00  0.00     0.293 HD
ENDBRANCH   8  26
TORSDOF 6
ENDMDL
MODEL 2
REMARK VINA RESULT:    -6.693      1.911      7.242
REMARK INTER + INTRA:          -8.356
REMARK INTER:                  -8.024
REMARK INTRA:                  -0.332
REMARK UNBOUND:                -0.293
REMARK SMILES O=c1c(O)c(-c2ccc(O)c(O)c2)oc2cc(O)cc(O)c12
REMARK SMILES IDX 5 1 3 2 2 3 1 4 22 5 20 6 19 7 17 8 16 9 15 10 14 11 6 12
REMARK SMILES IDX 7 13 8 14 9 15 13 16 11 17 10 18 12 20 4 22 21 24 18 26
REMARK H PARENT 10 19 12 21 4 23 21 25 18 27
REMARK Flexibility Score: inf
ROOT
ATOM      1  C   UNL     1     -38.306   5.942  77.923  1.00  0.00     0.180 A 
ATOM      2  C   UNL     1     -38.677   7.165  77.333  1.00  0.00     0.208 A 
ATOM      3  C   UNL     1     -37.676   8.101  77.025  1.00  0.00     0.238 A 
ATOM      4  O   UNL     1     -37.996   9.194  76.485  1.00  0.00    -0.285 OA
ATOM      5  C   UNL     1     -36.331   7.807  77.329  1.00  0.00     0.111 A 
ATOM      6  C   UNL     1     -35.265   8.697  77.055  1.00  0.00     0.134 A 
ATOM      7  C   UNL     1     -33.953   8.336  77.397  1.00  0.00     0.093 A 
ATOM      8  C   UNL     1     -33.687   7.107  78.007  1.00  0.00     0.123 A 
ATOM      9  C   UNL     1     -34.737   6.225  78.279  1.00  0.00     0.094 A 
ATOM     10  C   UNL     1     -36.051   6.565  77.944  1.00  0.00     0.146 A 
ATOM     11  O   UNL     1     -37.028   5.706  78.210  1.00  0.00    -0.452 OA
ENDROOT
BRANCH   1  12
ATOM     12  C   UNL     1     -39.301   4.897  78.260  1.00  0.00     0.025 A 
ATOM     13  C   UNL     1     -39.646   3.891  77.341  1.00  0.00     0.016 A 
ATOM     14  C   UNL     1     -40.569   2.902  77.690  1.00  0.00     0.051 A 
ATOM     15  C   UNL     1     -41.150   2.896  78.965  1.00  0.00     0.157 A 
ATOM     16  C   UNL     1     -39.870   4.874  79.544  1.00  0.00     0.062 A 
ATOM     17  C   UNL     1     -40.797   3.883  79.895  1.00  0.00     0.158 A 
BRANCH  15  18
ATOM     18  O   UNL     1     -42.072   1.912  79.316  1.00  0.00    -0.504 OA
ATOM     19  H   UNL     1     -42.072   1.002  78.871  1.00  0.00     0.293 HD
ENDBRANCH  15  18
BRANCH  17  20
ATOM     20  O   UNL     1     -41.371   3.870  81.165  1.00  0.00    -0.504 OA
ATOM     21  H   UNL     1     -41.439   4.712  81.724  1.00  0.00     0.293 HD
ENDBRANCH  17  20
ENDBRANCH   1  12
BRANCH   2  22
ATOM     22  O   UNL     1     -40.022   7.452  77.087  1.00  0.00    -0.502 OA
ATOM     23  H   UNL     1     -40.710   6.727  76.921  1.00  0.00     0.293 HD
ENDBRANCH   2  22
BRANCH   6  24
ATOM     24  O   UNL     1     -35.496   9.932  76.448  1.00  0.00    -0.507 OA
ATOM     25  H   UNL     1     -34.949  10.752  76.683  1.00  0.00     0.293 HD
ENDBRANCH   6  24
BRANCH   8  26
ATOM     26  O   UNL     1     -32.376   6.774  78.336  1.00  0.00    -0.508 OA
ATOM     27  H   UNL     1     -31.847   6.102  77.792  1.00  0.00     0.293 HD
ENDBRANCH   8  26
TORSDOF 6
ENDMDL
MODEL 3
REMARK VINA RESULT:    -6.608      1.596      6.996
REMARK INTER + INTRA:          -8.253
REMARK INTER:                  -7.929
REMARK INTRA:                  -0.324
REMARK UNBOUND:                -0.293
REMARK SMILES O=c1c(O)c(-c2ccc(O)c(O)c2)oc2cc(O)cc(O)c12
REMARK SMILES IDX 5 1 3 2 2 3 1 4 22 5 20 6 19 7 17 8 16 9 15 10 14 11 6 12
REMARK SMILES IDX 7 13 8 14 9 15 13 16 11 17 10 18 12 20 4 22 21 24 18 26
REMARK H PARENT 10 19 12 21 4 23 21 25 18 27
REMARK Flexibility Score: inf
ROOT
ATOM      1  C   UNL     1     -38.248   4.732  78.215  1.00  0.00     0.180 A 
ATOM      2  C   UNL     1     -37.026   4.114  78.547  1.00  0.00     0.208 A 
ATOM      3  C   UNL     1     -35.839   4.853  78.425  1.00  0.00     0.238 A 
ATOM      4  O   UNL     1     -34.740   4.315  78.731  1.00  0.00    -0.285 OA
ATOM      5  C   UNL     1     -35.890   6.183  77.958  1.00  0.00     0.111 A 
ATOM      6  C   UNL     1     -34.740   6.993  77.803  1.00  0.00     0.134 A 
ATOM      7  C   UNL     1     -34.873   8.305  77.322  1.00  0.00     0.093 A 
ATOM      8  C   UNL     1     -36.129   8.820  76.994  1.00  0.00     0.123 A 
ATOM      9  C   UNL     1     -37.268   8.023  77.145  1.00  0.00     0.094 A 
ATOM     10  C   UNL     1     -37.157   6.715  77.624  1.00  0.00     0.146 A 
ATOM     11  O   UNL     1     -38.256   5.983  77.763  1.00  0.00    -0.452 OA
ENDROOT
BRANCH   1  12
ATOM     12  C   UNL     1     -39.544   4.025  78.335  1.00  0.00     0.025 A 
ATOM     13  C   UNL     1     -40.085   3.298  77.259  1.00  0.00     0.016 A 
ATOM     14  C   UNL     1     -41.297   2.619  77.403  1.00  0.00     0.051 A 
ATOM     15  C   UNL     1     -41.980   2.645  78.627  1.00  0.00     0.157 A 
ATOM     16  C   UNL     1     -40.223   4.030  79.565  1.00  0.00     0.062 A 
ATOM     17  C   UNL     1     -41.440   3.350  79.710  1.00  0.00     0.158 A 
BRANCH  15  18
ATOM     18  O   UNL     1     -43.190   1.970  78.774  1.00  0.00    -0.504 OA
ATOM     19  H   UNL     1     -43.323   1.034  78.410  1.00  0.00     0.293 HD
ENDBRANCH  15  18
BRANCH  17  20
ATOM     20  O   UNL     1     -42.118   3.368  80.928  1.00  0.00    -0.504 OA
ATOM     21  H   UNL     1     -43.119   3.520  80.975  1.00  0.00     0.293 HD
ENDBRANCH  17  20
ENDBRANCH   1  12
BRANCH   2  22
ATOM     22  O   UNL     1     -36.998   2.781  78.961  1.00  0.00    -0.502 OA
ATOM     23  H   UNL     1     -37.689   2.104  78.660  1.00  0.00     0.293 HD
ENDBRANCH   2  22
BRANCH   6  24
ATOM     24  O   UNL     1     -33.471   6.508  78.122  1.00  0.00    -0.507 OA
ATOM     25  H   UNL     1     -32.875   6.074  77.425  1.00  0.00     0.293 HD
ENDBRANCH   6  24
BRANCH   8  26
ATOM     26  O   UNL     1     -36.232  10.125  76.518  1.00  0.00    -0.508 OA
ATOM     27  H   UNL     1     -36.374  10.908  77.146  1.00  0.00     0.293 HD
ENDBRANCH   8  26
TORSDOF 6
ENDMDL
MODEL 4
REMARK VINA RESULT:    -6.143      2.359      6.822
REMARK INTER + INTRA:          -7.694
REMARK INTER:                  -7.572
REMARK INTRA:                  -0.122
REMARK UNBOUND:                -0.293
REMARK SMILES O=c1c(O)c(-c2ccc(O)c(O)c2)oc2cc(O)cc(O)c12
REMARK SMILES IDX 5 1 3 2 2 3 1 4 22 5 20 6 19 7 17 8 16 9 15 10 14 11 6 12
REMARK SMILES IDX 7 13 8 14 9 15 13 16 11 17 10 18 12 20 4 22 21 24 18 26
REMARK H PARENT 10 19 12 21 4 23 21 25 18 27
REMARK Flexibility Score: inf
ROOT
ATOM      1  C   UNL     1     -37.946   3.597  80.528  1.00  0.00     0.180 A 
ATOM      2  C   UNL     1     -37.676   2.858  81.697  1.00  0.00     0.208 A 
ATOM      3  C   UNL     1     -36.613   3.258  82.521  1.00  0.00     0.238 A 
ATOM      4  O   UNL     1     -36.369   2.611  83.576  1.00  0.00    -0.285 OA
ATOM      5  C   UNL     1     -35.829   4.373  82.157  1.00  0.00     0.111 A 
ATOM      6  C   UNL     1     -34.739   4.838  82.931  1.00  0.00     0.134 A 
ATOM      7  C   UNL     1     -34.002   5.949  82.495  1.00  0.00     0.093 A 
ATOM      8  C   UNL     1     -34.331   6.602  81.305  1.00  0.00     0.123 A 
ATOM      9  C   UNL     1     -35.408   6.146  80.537  1.00  0.00     0.094 A 
ATOM     10  C   UNL     1     -36.156   5.042  80.954  1.00  0.00     0.146 A 
ATOM     11  O   UNL     1     -37.176   4.634  80.209  1.00  0.00    -0.452 OA
ENDROOT
BRANCH   1  12
ATOM     12  C   UNL     1     -39.061   3.249  79.618  1.00  0.00     0.025 A 
ATOM     13  C   UNL     1     -38.826   2.848  78.291  1.00  0.00     0.016 A 
ATOM     14  C   UNL     1     -39.892   2.501  77.458  1.00  0.00     0.051 A 
ATOM     15  C   UNL     1     -41.207   2.537  77.942  1.00  0.00     0.157 A 
ATOM     16  C   UNL     1     -40.379   3.263  80.104  1.00  0.00     0.062 A 
ATOM     17  C   UNL     1     -41.450   2.916  79.268  1.00  0.00     0.158 A 
BRANCH  15  18
ATOM     18  O   UNL     1     -42.273   2.193  77.113  1.00  0.00    -0.504 OA
ATOM     19  H   UNL     1     -42.266   2.408  76.123  1.00  0.00     0.293 HD
ENDBRANCH  15  18
BRANCH  17  20
ATOM     20  O   UNL     1     -42.758   2.944  79.748  1.00  0.00    -0.504 OA
ATOM     21  H   UNL     1     -43.449   2.268  79.444  1.00  0.00     0.293 HD
ENDBRANCH  17  20
ENDBRANCH   1  12
BRANCH   2  22
ATOM     22  O   UNL     1     -38.436   1.728  82.010  1.00  0.00    -0.502 OA
ATOM     23  H   UNL     1     -39.268   1.473  81.491  1.00  0.00     0.293 HD
ENDBRANCH   2  22
BRANCH   6  24
ATOM     24  O   UNL     1     -34.384   4.208  84.124  1.00  0.00    -0.507 OA
ATOM     25  H   UNL     1     -33.788   3.388  84.137  1.00  0.00     0.293 HD
ENDBRANCH   6  24
BRANCH   8  26
ATOM     26  O   UNL     1     -33.582   7.702  80.895  1.00  0.00    -0.508 OA
ATOM     27  H   UNL     1     -33.036   8.246  81.553  1.00  0.00     0.293 HD
ENDBRANCH   8  26
TORSDOF 6
ENDMDL
MODEL 5
REMARK VINA RESULT:    -6.135      1.567      3.004
REMARK INTER + INTRA:          -7.683
REMARK INTER:                  -7.375
REMARK INTRA:                  -0.308
REMARK UNBOUND:                -0.293
REMARK SMILES O=c1c(O)c(-c2ccc(O)c(O)c2)oc2cc(O)cc(O)c12
REMARK SMILES IDX 5 1 3 2 2 3 1 4 22 5 20 6 19 7 17 8 16 9 15 10 14 11 6 12
REMARK SMILES IDX 7 13 8 14 9 15 13 16 11 17 10 18 12 20 4 22 21 24 18 26
REMARK H PARENT 10 19 12 21 4 23 21 25 18 27
REMARK Flexibility Score: inf
ROOT
ATOM      1  C   UNL     1     -37.460   4.800  79.615  1.00  0.00     0.180 A 
ATOM      2  C   UNL     1     -38.493   4.817  78.658  1.00  0.00     0.208 A 
ATOM      3  C   UNL     1     -39.742   4.274  79.000  1.00  0.00     0.238 A 
ATOM      4  O   UNL     1     -40.678   4.295  78.156  1.00  0.00    -0.285 OA
ATOM      5  C   UNL     1     -39.930   3.709  80.278  1.00  0.00     0.111 A 
ATOM      6  C   UNL     1     -41.156   3.139  80.699  1.00  0.00     0.134 A 
ATOM      7  C   UNL     1     -41.260   2.586  81.984  1.00  0.00     0.093 A 
ATOM      8  C   UNL     1     -40.168   2.592  82.854  1.00  0.00     0.123 A 
ATOM      9  C   UNL     1     -38.955   3.155  82.443  1.00  0.00     0.094 A 
ATOM     10  C   UNL     1     -38.831   3.712  81.168  1.00  0.00     0.146 A 
ATOM     11  O   UNL     1     -37.669   4.244  80.805  1.00  0.00    -0.452 OA
ENDROOT
BRANCH   1  12
ATOM     12  C   UNL     1     -36.121   5.369  79.337  1.00  0.00     0.025 A 
ATOM     13  C   UNL     1     -35.059   4.562  78.893  1.00  0.00     0.016 A 
ATOM     14  C   UNL     1     -33.812   5.125  78.613  1.00  0.00     0.051 A 
ATOM     15  C   UNL     1     -33.611   6.505  78.760  1.00  0.00     0.157 A 
ATOM     16  C   UNL     1     -35.920   6.754  79.463  1.00  0.00     0.062 A 
ATOM     17  C   UNL     1     -34.668   7.320  79.184  1.00  0.00     0.158 A 
BRANCH  15  18
ATOM     18  O   UNL     1     -32.368   7.070  78.484  1.00  0.00    -0.504 OA
ATOM     19  H   UNL     1     -31.930   7.725  79.122  1.00  0.00     0.293 HD
ENDBRANCH  15  18
BRANCH  17  20
ATOM     20  O   UNL     1     -34.468   8.692  79.322  1.00  0.00    -0.504 OA
ATOM     21  H   UNL     1     -33.539   9.085  79.429  1.00  0.00     0.293 HD
ENDBRANCH  17  20
ENDBRANCH   1  12
BRANCH   2  22
ATOM     22  O   UNL     1     -38.267   5.339  77.382  1.00  0.00    -0.502 OA
ATOM     23  H   UNL     1     -38.017   6.308  77.229  1.00  0.00     0.293 HD
ENDBRANCH   2  22
BRANCH   6  24
ATOM     24  O   UNL     1     -42.265   3.116  79.854  1.00  0.00    -0.507 OA
ATOM     25  H   UNL     1     -42.967   2.385  79.914  1.00  0.00     0.293 HD
ENDBRANCH   6  24
BRANCH   8  26
ATOM     26  O   UNL     1     -40.298   2.037  84.125  1.00  0.00    -0.508 OA
ATOM     27  H   UNL     1     -41.052   2.308  84.746  1.00  0.00     0.293 HD
ENDBRANCH   8  26
TORSDOF 6
ENDMDL
MODEL 6
REMARK VINA RESULT:    -6.125      9.111     12.078
REMARK INTER + INTRA:          -7.671
REMARK INTER:                  -7.701
REMARK INTRA:                   0.030
REMARK UNBOUND:                -0.293
REMARK SMILES O=c1c(O)c(-c2ccc(O)c(O)c2)oc2cc(O)cc(O)c12
REMARK SMILES IDX 5 1 3 2 2 3 1 4 22 5 20 6 19 7 17 8 16 9 15 10 14 11 6 12
REMARK SMILES IDX 7 13 8 14 9 15 13 16 11 17 10 18 12 20 4 22 21 24 18 26
REMARK H PARENT 10 19 12 21 4 23 21 25 18 27
REMARK Flexibility Score: inf
ROOT
ATOM      1  C   UNL     1     -45.863   3.304  72.101  1.00  0.00     0.180 A 
ATOM      2  C   UNL     1     -46.627   3.103  70.934  1.00  0.00     0.208 A 
ATOM      3  C   UNL     1     -47.137   4.223  70.258  1.00  0.00     0.238 A 
ATOM      4  O   UNL     1     -47.812   4.057  69.206  1.00  0.00    -0.285 OA
ATOM      5  C   UNL     1     -46.895   5.516  70.767  1.00  0.00     0.111 A 
ATOM      6  C   UNL     1     -47.377   6.693  70.148  1.00  0.00     0.134 A 
ATOM      7  C   UNL     1     -47.100   7.944  70.722  1.00  0.00     0.093 A 
ATOM      8  C   UNL     1     -46.355   8.039  71.899  1.00  0.00     0.123 A 
ATOM      9  C   UNL     1     -45.876   6.877  72.514  1.00  0.00     0.094 A 
ATOM     10  C   UNL     1     -46.139   5.623  71.958  1.00  0.00     0.146 A 
ATOM     11  O   UNL     1     -45.668   4.537  72.560  1.00  0.00    -0.452 OA
ENDROOT
BRANCH   1  12
ATOM     12  C   UNL     1     -45.275   2.176  72.859  1.00  0.00     0.025 A 
ATOM     13  C   UNL     1     -43.924   2.181  73.250  1.00  0.00     0.016 A 
ATOM     14  C   UNL     1     -43.398   1.116  73.986  1.00  0.00     0.051 A 
ATOM     15  C   UNL     1     -44.216   0.039  74.353  1.00  0.00     0.157 A 
ATOM     16  C   UNL     1     -46.095   1.103  73.247  1.00  0.00     0.062 A 
ATOM     17  C   UNL     1     -45.567   0.034  73.985  1.00  0.00     0.158 A 
BRANCH  15  18
ATOM     18  O   UNL     1     -43.694  -1.026  75.085  1.00  0.00    -0.504 OA
ATOM     19  H   UNL     1     -42.776  -0.976  75.512  1.00  0.00     0.293 HD
ENDBRANCH  15  18
BRANCH  17  20
ATOM     20  O   UNL     1     -46.379  -1.036  74.357  1.00  0.00    -0.504 OA
ATOM     21  H   UNL     1     -46.109  -1.676  75.094  1.00  0.00     0.293 HD
ENDBRANCH  17  20
ENDBRANCH   1  12
BRANCH   2  22
ATOM     22  O   UNL     1     -46.894   1.811  70.478  1.00  0.00    -0.502 OA
ATOM     23  H   UNL     1     -46.891   1.570  69.494  1.00  0.00     0.293 HD
ENDBRANCH   2  22
BRANCH   6  24
ATOM     24  O   UNL     1     -48.125   6.633  68.972  1.00  0.00    -0.507 OA
ATOM     25  H   UNL     1     -47.721   6.862  68.070  1.00  0.00     0.293 HD
ENDBRANCH   6  24
BRANCH   8  26
ATOM     26  O   UNL     1     -46.095   9.292  72.449  1.00  0.00    -0.508 OA
ATOM     27  H   UNL     1     -45.551   9.396  73.297  1.00  0.00     0.293 HD
ENDBRANCH   8  26
TORSDOF 6
ENDMDL
MODEL 7
REMARK VINA RESULT:    -6.057      8.869     11.186
REMARK INTER + INTRA:          -7.590
REMARK INTER:                  -7.294
REMARK INTRA:                  -0.296
REMARK UNBOUND:                -0.293
REMARK SMILES O=c1c(O)c(-c2ccc(O)c(O)c2)oc2cc(O)cc(O)c12
REMARK SMILES IDX 5 1 3 2 2 3 1 4 22 5 20 6 19 7 17 8 16 9 15 10 14 11 6 12
REMARK SMILES IDX 7 13 8 14 9 15 13 16 11 17 10 18 12 20 4 22 21 24 18 26
REMARK H PARENT 10 19 12 21 4 23 21 25 18 27
REMARK Flexibility Score: inf
ROOT
ATOM      1  C   UNL     1     -42.302  -4.856  82.248  1.00  0.00     0.180 A 
ATOM      2  C   UNL     1     -42.560  -6.026  82.989  1.00  0.00     0.208 A 
ATOM      3  C   UNL     1     -43.608  -6.868  82.582  1.00  0.00     0.238 A 
ATOM      4  O   UNL     1     -43.842  -7.924  83.230  1.00  0.00    -0.285 OA
ATOM      5  C   UNL     1     -44.388  -6.518  81.460  1.00  0.00     0.111 A 
ATOM      6  C   UNL     1     -45.462  -7.310  80.989  1.00  0.00     0.134 A 
ATOM      7  C   UNL     1     -46.198  -6.888  79.870  1.00  0.00     0.093 A 
ATOM      8  C   UNL     1     -45.881  -5.695  79.217  1.00  0.00     0.123 A 
ATOM      9  C   UNL     1     -44.819  -4.910  79.679  1.00  0.00     0.094 A 
ATOM     10  C   UNL     1     -44.074  -5.313  80.790  1.00  0.00     0.146 A 
ATOM     11  O   UNL     1     -43.068  -4.551  81.204  1.00  0.00    -0.452 OA
ENDROOT
BRANCH   1  12
ATOM     12  C   UNL     1     -41.203  -3.928  82.602  1.00  0.00     0.025 A 
ATOM     13  C   UNL     1     -41.443  -2.760  83.348  1.00  0.00     0.016 A 
ATOM     14  C   UNL     1     -40.387  -1.913  83.692  1.00  0.00     0.051 A 
ATOM     15  C   UNL     1     -39.076  -2.225  83.306  1.00  0.00     0.157 A 
ATOM     16  C   UNL     1     -39.885  -4.247  82.236  1.00  0.00     0.062 A 
ATOM     17  C   UNL     1     -38.825  -3.396  82.579  1.00  0.00     0.158 A 
BRANCH  15  18
ATOM     18  O   UNL     1     -38.020  -1.381  83.645  1.00  0.00    -0.504 OA
ATOM     19  H   UNL     1     -37.131  -1.424  83.161  1.00  0.00     0.293 HD
ENDBRANCH  15  18
BRANCH  17  20
ATOM     20  O   UNL     1     -37.520  -3.708  82.203  1.00  0.00    -0.504 OA
ATOM     21  H   UNL     1     -36.733  -3.520  82.814  1.00  0.00     0.293 HD
ENDBRANCH  17  20
ENDBRANCH   1  12
BRANCH   2  22
ATOM     22  O   UNL     1     -41.805  -6.324  84.125  1.00  0.00    -0.502 OA
ATOM     23  H   UNL     1     -42.171  -6.877  84.891  1.00  0.00     0.293 HD
ENDBRANCH   2  22
BRANCH   6  24
ATOM     24  O   UNL     1     -45.805  -8.506  81.619  1.00  0.00    -0.507 OA
ATOM     25  H   UNL     1     -45.213  -9.327  81.564  1.00  0.00     0.293 HD
ENDBRANCH   6  24
BRANCH   8  26
ATOM     26  O   UNL     1     -46.627  -5.299  78.109  1.00  0.00    -0.508 OA
ATOM     27  H   UNL     1     -47.231  -4.486  78.140  1.00  0.00     0.293 HD
ENDBRANCH   8  26
TORSDOF 6
ENDMDL
MODEL 8
REMARK VINA RESULT:    -5.928      2.985      4.764
REMARK INTER + INTRA:          -7.434
REMARK INTER:                  -7.148
REMARK INTRA:                  -0.286
REMARK UNBOUND:                -0.293
REMARK SMILES O=c1c(O)c(-c2ccc(O)c(O)c2)oc2cc(O)cc(O)c12
REMARK SMILES IDX 5 1 3 2 2 3 1 4 22 5 20 6 19 7 17 8 16 9 15 10 14 11 6 12
REMARK SMILES IDX 7 13 8 14 9 15 13 16 11 17 10 18 12 20 4 22 21 24 18 26
REMARK H PARENT 10 19 12 21 4 23 21 25 18 27
REMARK Flexibility Score: inf
ROOT
ATOM      1  C   UNL     1     -39.003   5.060  79.594  1.00  0.00     0.180 A 
ATOM      2  C   UNL     1     -40.206   4.347  79.764  1.00  0.00     0.208 A 
ATOM      3  C   UNL     1     -40.294   3.405  80.802  1.00  0.00     0.238 A 
ATOM      4  O   UNL     1     -41.370   2.770  80.971  1.00  0.00    -0.285 OA
ATOM      5  C   UNL     1     -39.180   3.179  81.635  1.00  0.00     0.111 A 
ATOM      6  C   UNL     1     -39.187   2.247  82.700  1.00  0.00     0.134 A 
ATOM      7  C   UNL     1     -38.032   2.072  83.478  1.00  0.00     0.093 A 
ATOM      8  C   UNL     1     -36.876   2.809  83.214  1.00  0.00     0.123 A 
ATOM      9  C   UNL     1     -36.864   3.732  82.164  1.00  0.00     0.094 A 
ATOM     10  C   UNL     1     -38.004   3.922  81.378  1.00  0.00     0.146 A 
ATOM     11  O   UNL     1     -37.967   4.809  80.390  1.00  0.00    -0.452 OA
ENDROOT
BRANCH   1  12
ATOM     12  C   UNL     1     -38.838   6.082  78.535  1.00  0.00     0.025 A 
ATOM     13  C   UNL     1     -38.180   5.786  77.328  1.00  0.00     0.016 A 
ATOM     14  C   UNL     1     -38.058   6.760  76.333  1.00  0.00     0.051 A 
ATOM     15  C   UNL     1     -38.601   8.037  76.524  1.00  0.00     0.157 A 
ATOM     16  C   UNL     1     -39.398   7.357  78.713  1.00  0.00     0.062 A 
ATOM     17  C   UNL     1     -39.275   8.335  77.716  1.00  0.00     0.158 A 
BRANCH  15  18
ATOM     18  O   UNL     1     -38.480   9.011  75.535  1.00  0.00    -0.504 OA
ATOM     19  H   UNL     1     -37.783   9.744  75.596  1.00  0.00     0.293 HD
ENDBRANCH  15  18
BRANCH  17  20
ATOM     20  O   UNL     1     -39.821   9.604  77.900  1.00  0.00    -0.504 OA
ATOM     21  H   UNL     1     -39.788  10.307  77.171  1.00  0.00     0.293 HD
ENDBRANCH  17  20
ENDBRANCH   1  12
BRANCH   2  22
ATOM     22  O   UNL     1     -41.279   4.554  78.894  1.00  0.00    -0.502 OA
ATOM     23  H   UNL     1     -41.773   5.437  78.842  1.00  0.00     0.293 HD
ENDBRANCH   2  22
BRANCH   6  24
ATOM     24  O   UNL     1     -40.325   1.494  82.989  1.00  0.00    -0.507 OA
ATOM     25  H   UNL     1     -40.353   0.491  82.844  1.00  0.00     0.293 HD
ENDBRANCH   6  24
BRANCH   8  26
ATOM     26  O   UNL     1     -35.743   2.616  84.002  1.00  0.00    -0.508 OA
ATOM     27  H   UNL     1     -34.881   2.256  83.611  1.00  0.00     0.293 HD
ENDBRANCH   8  26
TORSDOF 6
ENDMDL
MODEL 9
REMARK VINA RESULT:    -5.861      1.943      6.993
REMARK INTER + INTRA:          -7.354
REMARK INTER:                  -7.093
REMARK INTRA:                  -0.260
REMARK UNBOUND:                -0.293
REMARK SMILES O=c1c(O)c(-c2ccc(O)c(O)c2)oc2cc(O)cc(O)c12
REMARK SMILES IDX 5 1 3 2 2 3 1 4 22 5 20 6 19 7 17 8 16 9 15 10 14 11 6 12
REMARK SMILES IDX 7 13 8 14 9 15 13 16 11 17 10 18 12 20 4 22 21 24 18 26
REMARK H PARENT 10 19 12 21 4 23 21 25 18 27
REMARK Flexibility Score: inf
ROOT
ATOM      1  C   UNL     1     -38.483   5.927  79.598  1.00  0.00     0.180 A 
ATOM      2  C   UNL     1     -39.041   7.026  78.916  1.00  0.00     0.208 A 
ATOM      3  C   UNL     1     -38.197   7.850  78.153  1.00  0.00     0.238 A 
ATOM      4  O   UNL     1     -38.687   8.829  77.529  1.00  0.00    -0.285 OA
ATOM      5  C   UNL     1     -36.815   7.574  78.101  1.00  0.00     0.111 A 
ATOM      6  C   UNL     1     -35.898   8.357  77.360  1.00  0.00     0.134 A 
ATOM      7  C   UNL     1     -34.535   8.023  77.367  1.00  0.00     0.093 A 
ATOM      8  C   UNL     1     -34.073   6.927  78.098  1.00  0.00     0.123 A 
ATOM      9  C   UNL     1     -34.976   6.150  78.832  1.00  0.00     0.094 A 
ATOM     10  C   UNL     1     -36.337   6.465  78.837  1.00  0.00     0.146 A 
ATOM     11  O   UNL     1     -37.173   5.708  79.538  1.00  0.00    -0.452 OA
ENDROOT
BRANCH   1  12
ATOM     12  C   UNL     1     -39.310   5.002  80.407  1.00  0.00     0.025 A 
ATOM     13  C   UNL     1     -39.321   5.068  81.812  1.00  0.00     0.016 A 
ATOM     14  C   UNL     1     -40.128   4.201  82.553  1.00  0.00     0.051 A 
ATOM     15  C   UNL     1     -40.944   3.266  81.902  1.00  0.00     0.157 A 
ATOM     16  C   UNL     1     -40.145   4.077  79.760  1.00  0.00     0.062 A 
ATOM     17  C   UNL     1     -40.954   3.205  80.503  1.00  0.00     0.158 A 
BRANCH  15  18
ATOM     18  O   UNL     1     -41.748   2.398  82.638  1.00  0.00    -0.504 OA
ATOM     19  H   UNL     1     -41.872   2.509  83.638  1.00  0.00     0.293 HD
ENDBRANCH  15  18
BRANCH  17  20
ATOM     20  O   UNL     1     -41.771   2.279  79.859  1.00  0.00    -0.504 OA
ATOM     21  H   UNL     1     -41.649   2.056  78.878  1.00  0.00     0.293 HD
ENDBRANCH  17  20
ENDBRANCH   1  12
BRANCH   2  22
ATOM     22  O   UNL     1     -40.405   7.306  79.023  1.00  0.00    -0.502 OA
ATOM     23  H   UNL     1     -40.899   7.872  78.343  1.00  0.00     0.293 HD
ENDBRANCH   2  22
BRANCH   6  24
ATOM     24  O   UNL     1     -36.327   9.459  76.620  1.00  0.00    -0.507 OA
ATOM     25  H   UNL     1     -35.842   9.761  75.782  1.00  0.00     0.293 HD
ENDBRANCH   6  24
BRANCH   8  26
ATOM     26  O   UNL     1     -32.715   6.618  78.088  1.00  0.00    -0.508 OA
ATOM     27  H   UNL     1     -32.384   5.680  78.281  1.00  0.00     0.293 HD
ENDBRANCH   8  26
TORSDOF 6
ENDMDL
