MODEL 1
REMARK VINA RESULT:    -4.118      0.000      0.000
REMARK INTER + INTRA:          -5.427
REMARK INTER:                  -5.081
REMARK INTRA:                  -0.347
REMARK UNBOUND:                -0.347
REMARK SMILES Oc1cc(O)c2cc(O)c(-c3cc(O)c(O)c(O)c3)[o+]c2c1
REMARK SMILES IDX 10 1 20 2 21 3 22 4 2 5 3 6 4 7 6 8 7 9 8 10 11 11 12 12
REMARK SMILES IDX 13 13 19 14 15 15 17 16 14 17 16 19 18 21 9 23 1 25 5 27
REMARK H PARENT 14 18 16 20 18 22 9 24 1 26 5 28
REMARK Flexibility Score: inf
ROOT
ATOM      1  C   UNL     1     -16.015  46.211  -9.645  1.00  0.00     0.402 A 
ATOM      2  O   UNL     1     -17.315  46.140  -9.920  1.00  0.00    -0.202 OA
ATOM      3  C   UNL     1     -17.934  45.006 -10.234  1.00  0.00     0.368 A 
ATOM      4  C   UNL     1     -19.303  45.033 -10.512  1.00  0.00     0.162 A 
ATOM      5  C   UNL     1     -19.978  43.856 -10.847  1.00  0.00     0.128 A 
ATOM      6  C   UNL     1     -19.281  42.647 -10.906  1.00  0.00     0.093 A 
ATOM      7  C   UNL     1     -17.908  42.594 -10.633  1.00  0.00     0.136 A 
ATOM      8  C   UNL     1     -17.219  43.786 -10.290  1.00  0.00     0.125 A 
ATOM      9  C   UNL     1     -15.848  43.825  -9.987  1.00  0.00     0.078 A 
ATOM     10  C   UNL     1     -15.238  45.038  -9.652  1.00  0.00     0.223 A 
ENDROOT
BRANCH   1  11
ATOM     11  C   UNL     1     -15.440  47.536  -9.319  1.00  0.00     0.091 A 
ATOM     12  C   UNL     1     -15.251  47.894  -7.975  1.00  0.00     0.068 A 
ATOM     13  C   UNL     1     -14.727  49.150  -7.637  1.00  0.00     0.162 A 
ATOM     14  C   UNL     1     -15.130  48.467 -10.325  1.00  0.00     0.068 A 
ATOM     15  C   UNL     1     -14.401  50.067  -8.651  1.00  0.00     0.200 A 
ATOM     16  C   UNL     1     -14.608  49.725  -9.993  1.00  0.00     0.162 A 
BRANCH  13  17
ATOM     17  O   UNL     1     -14.530  49.489  -6.299  1.00  0.00    -0.504 OA
ATOM     18  H   UNL     1     -15.302  49.539  -5.645  1.00  0.00     0.293 HD
ENDBRANCH  13  17
BRANCH  15  19
ATOM     19  O   UNL     1     -13.875  51.321  -8.341  1.00  0.00    -0.502 OA
ATOM     20  H   UNL     1     -13.982  51.738  -7.424  1.00  0.00     0.293 HD
ENDBRANCH  15  19
BRANCH  16  21
ATOM     21  O   UNL     1     -14.296  50.643 -10.994  1.00  0.00    -0.504 OA
ATOM     22  H   UNL     1     -14.525  50.467 -11.966  1.00  0.00     0.293 HD
ENDBRANCH  16  21
ENDBRANCH   1  11
BRANCH  10  23
ATOM     23  O   UNL     1     -13.888  45.070  -9.303  1.00  0.00    -0.500 OA
ATOM     24  H   UNL     1     -13.450  45.912  -8.947  1.00  0.00     0.294 HD
ENDBRANCH  10  23
BRANCH   5  25
ATOM     25  O   UNL     1     -21.343  43.875 -11.125  1.00  0.00    -0.507 OA
ATOM     26  H   UNL     1     -21.894  43.025 -11.137  1.00  0.00     0.293 HD
ENDBRANCH   5  25
BRANCH   7  27
ATOM     27  O   UNL     1     -17.283  41.346 -10.717  1.00  0.00    -0.507 OA
ATOM     28  H   UNL     1     -16.595  41.099 -11.412  1.00  0.00     0.293 HD
ENDBRANCH   7  27
TORSDOF 7
ENDMDL
MODEL 2
REMARK VINA RESULT:    -2.801      1.275      7.108
REMARK INTER + INTRA:          -3.802
REMARK INTER:                  -3.423
REMARK INTRA:                  -0.379
REMARK UNBOUND:                -0.347
REMARK SMILES Oc1cc(O)c2cc(O)c(-c3cc(O)c(O)c(O)c3)[o+]c2c1
REMARK SMILES IDX 10 1 20 2 21 3 22 4 2 5 3 6 4 7 6 8 7 9 8 10 11 11 12 12
REMARK SMILES IDX 13 13 19 14 15 15 17 16 14 17 16 19 18 21 9 23 1 25 5 27
REMARK H PARENT 14 18 16 20 18 22 9 24 1 26 5 28
REMARK Flexibility Score: inf
ROOT
ATOM      1  C   UNL     1     -16.190  46.250  -9.026  1.00  0.00     0.402 A 
ATOM      2  O   UNL     1     -15.844  47.233  -9.854  1.00  0.00    -0.202 OA
ATOM      3  C   UNL     1     -15.226  48.340  -9.455  1.00  0.00     0.368 A 
ATOM      4  C   UNL     1     -14.907  49.318 -10.400  1.00  0.00     0.162 A 
ATOM      5  C   UNL     1     -14.259  50.493 -10.008  1.00  0.00     0.128 A 
ATOM      6  C   UNL     1     -13.928  50.690  -8.665  1.00  0.00     0.093 A 
ATOM      7  C   UNL     1     -14.237  49.724  -7.699  1.00  0.00     0.136 A 
ATOM      8  C   UNL     1     -14.893  48.530  -8.092  1.00  0.00     0.125 A 
ATOM      9  C   UNL     1     -15.229  47.501  -7.196  1.00  0.00     0.078 A 
ATOM     10  C   UNL     1     -15.871  46.349  -7.659  1.00  0.00     0.223 A 
ENDROOT
BRANCH   1  11
ATOM     11  C   UNL     1     -16.885  45.071  -9.590  1.00  0.00     0.091 A 
ATOM     12  C   UNL     1     -18.288  45.024  -9.574  1.00  0.00     0.068 A 
ATOM     13  C   UNL     1     -18.971  43.910 -10.082  1.00  0.00     0.162 A 
ATOM     14  C   UNL     1     -16.170  43.970 -10.091  1.00  0.00     0.068 A 
ATOM     15  C   UNL     1     -18.248  42.822 -10.600  1.00  0.00     0.200 A 
ATOM     16  C   UNL     1     -16.847  42.853 -10.598  1.00  0.00     0.162 A 
BRANCH  13  17
ATOM     17  O   UNL     1     -20.365  43.881 -10.074  1.00  0.00    -0.504 OA
ATOM     18  H   UNL     1     -20.882  43.344  -9.389  1.00  0.00     0.293 HD
ENDBRANCH  13  17
BRANCH  15  19
ATOM     19  O   UNL     1     -18.904  41.704 -11.114  1.00  0.00    -0.502 OA
ATOM     20  H   UNL     1     -19.584  41.183 -10.574  1.00  0.00     0.293 HD
ENDBRANCH  15  19
BRANCH  16  21
ATOM     21  O   UNL     1     -16.134  41.765 -11.099  1.00  0.00    -0.504 OA
ATOM     22  H   UNL     1     -15.829  41.008 -10.498  1.00  0.00     0.293 HD
ENDBRANCH  16  21
ENDBRANCH   1  11
BRANCH  10  23
ATOM     23  O   UNL     1     -16.160  45.307  -6.778  1.00  0.00    -0.500 OA
ATOM     24  H   UNL     1     -16.470  45.483  -5.828  1.00  0.00     0.294 HD
ENDBRANCH  10  23
BRANCH   5  25
ATOM     25  O   UNL     1     -13.938  51.473 -10.944  1.00  0.00    -0.507 OA
ATOM     26  H   UNL     1     -14.163  51.362 -11.926  1.00  0.00     0.293 HD
ENDBRANCH   5  25
BRANCH   7  27
ATOM     27  O   UNL     1     -13.876  49.999  -6.376  1.00  0.00    -0.507 OA
ATOM     28  H   UNL     1     -14.533  50.163  -5.629  1.00  0.00     0.293 HD
ENDBRANCH   7  27
TORSDOF 7
ENDMDL
MODEL 3
REMARK VINA RESULT:    -2.571      2.362      7.266
REMARK INTER + INTRA:          -3.519
REMARK INTER:                  -3.247
REMARK INTRA:                  -0.272
REMARK UNBOUND:                -0.347
REMARK SMILES Oc1cc(O)c2cc(O)c(-c3cc(O)c(O)c(O)c3)[o+]c2c1
REMARK SMILES IDX 10 1 20 2 21 3 22 4 2 5 3 6 4 7 6 8 7 9 8 10 11 11 12 12
REMARK SMILES IDX 13 13 19 14 15 15 17 16 14 17 16 19 18 21 9 23 1 25 5 27
REMARK H PARENT 14 18 16 20 18 22 9 24 1 26 5 28
REMARK Flexibility Score: inf
ROOT
ATOM      1  C   UNL     1     -15.802  47.101  -8.665  1.00  0.00     0.402 A 
ATOM      2  O   UNL     1     -15.504  48.053  -7.783  1.00  0.00    -0.202 OA
ATOM      3  C   UNL     1     -14.988  49.229  -8.125  1.00  0.00     0.368 A 
ATOM      4  C   UNL     1     -14.705  50.163  -7.126  1.00  0.00     0.162 A 
ATOM      5  C   UNL     1     -14.160  51.407  -7.457  1.00  0.00     0.128 A 
ATOM      6  C   UNL     1     -13.897  51.718  -8.793  1.00  0.00     0.093 A 
ATOM      7  C   UNL     1     -14.171  50.798  -9.813  1.00  0.00     0.136 A 
ATOM      8  C   UNL     1     -14.726  49.535  -9.482  1.00  0.00     0.125 A 
ATOM      9  C   UNL     1     -15.047  48.557 -10.439  1.00  0.00     0.078 A 
ATOM     10  C   UNL     1     -15.596  47.337 -10.037  1.00  0.00     0.223 A 
ENDROOT
BRANCH   1  11
ATOM     11  C   UNL     1     -16.362  45.828  -8.159  1.00  0.00     0.091 A 
ATOM     12  C   UNL     1     -17.719  45.537  -8.374  1.00  0.00     0.068 A 
ATOM     13  C   UNL     1     -18.281  44.349  -7.888  1.00  0.00     0.162 A 
ATOM     14  C   UNL     1     -15.580  44.927  -7.418  1.00  0.00     0.068 A 
ATOM     15  C   UNL     1     -17.485  43.444  -7.165  1.00  0.00     0.200 A 
ATOM     16  C   UNL     1     -16.136  43.737  -6.927  1.00  0.00     0.162 A 
BRANCH  13  17
ATOM     17  O   UNL     1     -19.626  44.065  -8.120  1.00  0.00    -0.504 OA
ATOM     18  H   UNL     1     -20.275  44.779  -8.428  1.00  0.00     0.293 HD
ENDBRANCH  13  17
BRANCH  15  19
ATOM     19  O   UNL     1     -18.020  42.252  -6.674  1.00  0.00    -0.502 OA
ATOM     20  H   UNL     1     -18.489  41.585  -7.274  1.00  0.00     0.293 HD
ENDBRANCH  15  19
BRANCH  16  21
ATOM     21  O   UNL     1     -15.355  42.843  -6.198  1.00  0.00    -0.504 OA
ATOM     22  H   UNL     1     -15.546  41.848  -6.201  1.00  0.00     0.293 HD
ENDBRANCH  16  21
ENDBRANCH   1  11
BRANCH  10  23
ATOM     23  O   UNL     1     -15.961  46.385 -10.990  1.00  0.00    -0.500 OA
ATOM     24  H   UNL     1     -16.616  45.642 -10.777  1.00  0.00     0.294 HD
ENDBRANCH  10  23
BRANCH   5  25
ATOM     25  O   UNL     1     -13.875  52.344  -6.466  1.00  0.00    -0.507 OA
ATOM     26  H   UNL     1     -13.384  53.205  -6.675  1.00  0.00     0.293 HD
ENDBRANCH   5  25
BRANCH   7  27
ATOM     27  O   UNL     1     -13.875  51.184 -11.124  1.00  0.00    -0.507 OA
ATOM     28  H   UNL     1     -13.440  52.059 -11.376  1.00  0.00     0.293 HD
ENDBRANCH   7  27
TORSDOF 7
ENDMDL
