MODEL 1
REMARK VINA RESULT:    -4.243      0.000      0.000
REMARK INTER + INTRA:         -12.979
REMARK INTER:                  -9.203
REMARK INTRA:                  -3.776
REMARK UNBOUND:                -3.776
REMARK SMILES CCCCCCCCCCCCCCCCCCCCCC(=O)[O-]
REMARK SMILES IDX 12 1 11 2 10 3 9 4 8 5 7 6 6 7 5 8 4 9 3 10 2 11 1 12 13 13
REMARK SMILES IDX 14 14 15 15 16 16 17 17 18 18 19 19 20 20 21 21 22 22 23 23
REMARK SMILES IDX 24 24
REMARK H PARENT
REMARK Flexibility Score: inf
ROOT
ATOM      1  C   UNL     1      -6.869  -3.522   8.895  1.00  0.00     0.000 C 
ENDROOT
BRANCH   1   2
ATOM      2  C   UNL     1      -6.081  -4.835   8.740  1.00  0.00     0.000 C 
BRANCH   2   3
ATOM      3  C   UNL     1      -4.682  -4.765   9.373  1.00  0.00     0.000 C 
BRANCH   3   4
ATOM      4  C   UNL     1      -3.557  -4.908   8.334  1.00  0.00    -0.000 C 
BRANCH   4   5
ATOM      5  C   UNL     1      -2.160  -4.695   8.942  1.00  0.00    -0.000 C 
BRANCH   5   6
ATOM      6  C   UNL     1      -1.441  -3.469   8.352  1.00  0.00    -0.000 C 
BRANCH   6   7
ATOM      7  C   UNL     1      -2.305  -2.718   7.327  1.00  0.00    -0.000 C 
BRANCH   7   8
ATOM      8  C   UNL     1      -2.365  -1.205   7.595  1.00  0.00    -0.000 C 
BRANCH   8   9
ATOM      9  C   UNL     1      -3.759  -0.733   8.048  1.00  0.00    -0.000 C 
BRANCH   9  10
ATOM     10  C   UNL     1      -4.202  -1.253   9.428  1.00  0.00    -0.000 C 
BRANCH  10  11
ATOM     11  C   UNL     1      -3.242  -0.847  10.556  1.00  0.00    -0.003 C 
ATOM     12  C   UNL     1      -2.922  -2.035  11.459  1.00  0.00     0.004 C 
ENDBRANCH  10  11
ENDBRANCH   9  10
ENDBRANCH   8   9
ENDBRANCH   7   8
ENDBRANCH   6   7
ENDBRANCH   5   6
ENDBRANCH   4   5
ENDBRANCH   3   4
ENDBRANCH   2   3
ENDBRANCH   1   2
BRANCH   1  13
ATOM     13  C   UNL     1      -8.384  -3.754   9.017  1.00  0.00     0.000 C 
BRANCH  13  14
ATOM     14  C   UNL     1      -9.104  -2.596   9.727  1.00  0.00     0.000 C 
BRANCH  14  15
ATOM     15  C   UNL     1      -8.195  -1.366   9.832  1.00  0.00     0.000 C 
BRANCH  15  16
ATOM     16  C   UNL     1      -8.616  -0.283   8.827  1.00  0.00     0.000 C 
BRANCH  16  17
ATOM     17  C   UNL     1      -7.438   0.232   7.985  1.00  0.00     0.000 C 
BRANCH  17  18
ATOM     18  C   UNL     1      -7.438  -0.336   6.555  1.00  0.00     0.000 C 
BRANCH  18  19
ATOM     19  C   UNL     1      -8.650  -1.239   6.277  1.00  0.00     0.000 C 
BRANCH  19  20
ATOM     20  C   UNL     1      -8.488  -2.064   4.989  1.00  0.00     0.006 C 
BRANCH  20  21
ATOM     21  C   UNL     1      -8.921  -3.525   5.179  1.00  0.00     0.053 C 
BRANCH  21  22
ATOM     22  C   UNL     1      -7.748  -4.433   5.382  1.00  0.00     0.041 C 
ATOM     23  O   UNL     1      -6.575  -3.989   5.262  1.00  0.00    -0.550 OA
ATOM     24  O   UNL     1      -7.948  -5.762   5.732  1.00  0.00    -0.550 OA
ENDBRANCH  21  22
ENDBRANCH  20  21
ENDBRANCH  19  20
ENDBRANCH  18  19
ENDBRANCH  17  18
ENDBRANCH  16  17
ENDBRANCH  15  16
ENDBRANCH  14  15
ENDBRANCH  13  14
ENDBRANCH   1  13
TORSDOF 20
ENDMDL
MODEL 2
REMARK VINA RESULT:    -4.043      1.429      2.798
REMARK INTER + INTRA:         -12.546
REMARK INTER:                  -9.030
REMARK INTRA:                  -3.516
REMARK UNBOUND:                -3.776
REMARK SMILES CCCCCCCCCCCCCCCCCCCCCC(=O)[O-]
REMARK SMILES IDX 12 1 11 2 10 3 9 4 8 5 7 6 6 7 5 8 4 9 3 10 2 11 1 12 13 13
REMARK SMILES IDX 14 14 15 15 16 16 17 17 18 18 19 19 20 20 21 21 22 22 23 23
REMARK SMILES IDX 24 24
REMARK H PARENT
REMARK Flexibility Score: inf
ROOT
ATOM      1  C   UNL     1      -6.039  -0.723   8.131  1.00  0.00     0.000 C 
ENDROOT
BRANCH   1   2
ATOM      2  C   UNL     1      -5.490  -1.777   9.110  1.00  0.00     0.000 C 
BRANCH   2   3
ATOM      3  C   UNL     1      -4.887  -2.994   8.391  1.00  0.00     0.000 C 
BRANCH   3   4
ATOM      4  C   UNL     1      -5.137  -4.309   9.149  1.00  0.00    -0.000 C 
BRANCH   4   5
ATOM      5  C   UNL     1      -3.842  -5.095   9.414  1.00  0.00    -0.000 C 
BRANCH   5   6
ATOM      6  C   UNL     1      -2.836  -4.983   8.255  1.00  0.00    -0.000 C 
BRANCH   6   7
ATOM      7  C   UNL     1      -1.487  -4.398   8.703  1.00  0.00    -0.000 C 
BRANCH   7   8
ATOM      8  C   UNL     1      -1.313  -2.925   8.293  1.00  0.00    -0.000 C 
BRANCH   8   9
ATOM      9  C   UNL     1      -1.438  -1.955   9.481  1.00  0.00    -0.000 C 
BRANCH   9  10
ATOM     10  C   UNL     1      -1.333  -2.614  10.869  1.00  0.00    -0.000 C 
BRANCH  10  11
ATOM     11  C   UNL     1      -2.629  -2.500  11.684  1.00  0.00    -0.003 C 
ATOM     12  C   UNL     1      -3.011  -1.039  11.908  1.00  0.00     0.004 C 
ENDBRANCH  10  11
ENDBRANCH   9  10
ENDBRANCH   8   9
ENDBRANCH   7   8
ENDBRANCH   6   7
ENDBRANCH   5   6
ENDBRANCH   4   5
ENDBRANCH   3   4
ENDBRANCH   2   3
ENDBRANCH   1   2
BRANCH   1  13
ATOM     13  C   UNL     1      -6.798   0.407   8.846  1.00  0.00     0.000 C 
BRANCH  13  14
ATOM     14  C   UNL     1      -8.312   0.148   8.919  1.00  0.00     0.000 C 
BRANCH  14  15
ATOM     15  C   UNL     1      -8.899   0.691  10.227  1.00  0.00     0.000 C 
BRANCH  15  16
ATOM     16  C   UNL     1      -9.662  -0.406  10.984  1.00  0.00     0.000 C 
BRANCH  16  17
ATOM     17  C   UNL     1      -9.057  -1.803  10.767  1.00  0.00     0.000 C 
BRANCH  17  18
ATOM     18  C   UNL     1     -10.124  -2.869  10.463  1.00  0.00     0.000 C 
BRANCH  18  19
ATOM     19  C   UNL     1     -10.063  -3.371   9.012  1.00  0.00     0.000 C 
BRANCH  19  20
ATOM     20  C   UNL     1      -8.620  -3.531   8.504  1.00  0.00     0.006 C 
BRANCH  20  21
ATOM     21  C   UNL     1      -8.521  -3.367   6.980  1.00  0.00     0.053 C 
BRANCH  21  22
ATOM     22  C   UNL     1      -7.589  -4.368   6.371  1.00  0.00     0.041 C 
ATOM     23  O   UNL     1      -6.816  -4.028   5.437  1.00  0.00    -0.550 OA
ATOM     24  O   UNL     1      -7.553  -5.671   6.853  1.00  0.00    -0.550 OA
ENDBRANCH  21  22
ENDBRANCH  20  21
ENDBRANCH  19  20
ENDBRANCH  18  19
ENDBRANCH  17  18
ENDBRANCH  16  17
ENDBRANCH  15  16
ENDBRANCH  14  15
ENDBRANCH  13  14
ENDBRANCH   1  13
TORSDOF 20
ENDMDL
MODEL 3
REMARK VINA RESULT:    -3.942     10.373     14.012
REMARK INTER + INTRA:         -12.326
REMARK INTER:                  -8.794
REMARK INTRA:                  -3.532
REMARK UNBOUND:                -3.776
REMARK SMILES CCCCCCCCCCCCCCCCCCCCCC(=O)[O-]
REMARK SMILES IDX 12 1 11 2 10 3 9 4 8 5 7 6 6 7 5 8 4 9 3 10 2 11 1 12 13 13
REMARK SMILES IDX 14 14 15 15 16 16 17 17 18 18 19 19 20 20 21 21 22 22 23 23
REMARK SMILES IDX 24 24
REMARK H PARENT
REMARK Flexibility Score: inf
ROOT
ATOM      1  C   UNL     1       9.550   3.443   8.454  1.00  0.00     0.000 C 
ENDROOT
BRANCH   1   2
ATOM      2  C   UNL     1       8.425   4.319   7.875  1.00  0.00     0.000 C 
BRANCH   2   3
ATOM      3  C   UNL     1       7.198   4.394   8.798  1.00  0.00     0.000 C 
BRANCH   3   4
ATOM      4  C   UNL     1       6.137   5.384   8.288  1.00  0.00    -0.000 C 
BRANCH   4   5
ATOM      5  C   UNL     1       4.753   5.142   8.913  1.00  0.00    -0.000 C 
BRANCH   5   6
ATOM      6  C   UNL     1       3.638   5.035   7.857  1.00  0.00    -0.000 C 
BRANCH   6   7
ATOM      7  C   UNL     1       2.262   5.435   8.414  1.00  0.00    -0.000 C 
BRANCH   7   8
ATOM      8  C   UNL     1       1.469   4.233   8.955  1.00  0.00    -0.000 C 
BRANCH   8   9
ATOM      9  C   UNL     1       1.313   4.260  10.486  1.00  0.00    -0.000 C 
BRANCH   9  10
ATOM     10  C   UNL     1       2.061   3.141  11.234  1.00  0.00    -0.000 C 
BRANCH  10  11
ATOM     11  C   UNL     1       2.415   1.952  10.329  1.00  0.00    -0.003 C 
ATOM     12  C   UNL     1       3.926   1.756  10.245  1.00  0.00     0.004 C 
ENDBRANCH  10  11
ENDBRANCH   9  10
ENDBRANCH   8   9
ENDBRANCH   7   8
ENDBRANCH   6   7
ENDBRANCH   5   6
ENDBRANCH   4   5
ENDBRANCH   3   4
ENDBRANCH   2   3
ENDBRANCH   1   2
BRANCH   1  13
ATOM     13  C   UNL     1       9.657   3.554   9.984  1.00  0.00     0.000 C 
BRANCH  13  14
ATOM     14  C   UNL     1       9.406   2.214  10.693  1.00  0.00     0.000 C 
BRANCH  14  15
ATOM     15  C   UNL     1       8.957   1.140   9.695  1.00  0.00     0.000 C 
BRANCH  15  16
ATOM     16  C   UNL     1       7.481   0.772   9.910  1.00  0.00     0.000 C 
BRANCH  16  17
ATOM     17  C   UNL     1       6.751   0.466   8.593  1.00  0.00     0.000 C 
BRANCH  17  18
ATOM     18  C   UNL     1       7.712   0.353   7.395  1.00  0.00     0.000 C 
BRANCH  18  19
ATOM     19  C   UNL     1       7.272   1.213   6.201  1.00  0.00     0.000 C 
BRANCH  19  20
ATOM     20  C   UNL     1       5.950   1.955   6.463  1.00  0.00     0.006 C 
BRANCH  20  21
ATOM     21  C   UNL     1       5.679   3.044   5.414  1.00  0.00     0.053 C 
BRANCH  21  22
ATOM     22  C   UNL     1       4.740   2.570   4.348  1.00  0.00     0.041 C 
ATOM     23  O   UNL     1       3.561   3.013   4.300  1.00  0.00    -0.550 OA
ATOM     24  O   UNL     1       5.173   1.663   3.390  1.00  0.00    -0.550 OA
ENDBRANCH  21  22
ENDBRANCH  20  21
ENDBRANCH  19  20
ENDBRANCH  18  19
ENDBRANCH  17  18
ENDBRANCH  16  17
ENDBRANCH  15  16
ENDBRANCH  14  15
ENDBRANCH  13  14
ENDBRANCH   1  13
TORSDOF 20
ENDMDL
MODEL 4
REMARK VINA RESULT:    -3.914      1.283      2.794
REMARK INTER + INTRA:         -12.265
REMARK INTER:                  -8.960
REMARK INTRA:                  -3.305
REMARK UNBOUND:                -3.776
REMARK SMILES CCCCCCCCCCCCCCCCCCCCCC(=O)[O-]
REMARK SMILES IDX 12 1 11 2 10 3 9 4 8 5 7 6 6 7 5 8 4 9 3 10 2 11 1 12 13 13
REMARK SMILES IDX 14 14 15 15 16 16 17 17 18 18 19 19 20 20 21 21 22 22 23 23
REMARK SMILES IDX 24 24
REMARK H PARENT
REMARK Flexibility Score: inf
ROOT
ATOM      1  C   UNL     1      -5.840  -0.705   9.089  1.00  0.00     0.000 C 
ENDROOT
BRANCH   1   2
ATOM      2  C   UNL     1      -5.397  -2.006   8.394  1.00  0.00     0.000 C 
BRANCH   2   3
ATOM      3  C   UNL     1      -5.298  -3.193   9.365  1.00  0.00     0.000 C 
BRANCH   3   4
ATOM      4  C   UNL     1      -5.025  -4.523   8.643  1.00  0.00    -0.000 C 
BRANCH   4   5
ATOM      5  C   UNL     1      -3.730  -4.491   7.813  1.00  0.00    -0.000 C 
BRANCH   5   6
ATOM      6  C   UNL     1      -2.527  -5.078   8.572  1.00  0.00    -0.000 C 
BRANCH   6   7
ATOM      7  C   UNL     1      -1.912  -4.076   9.562  1.00  0.00    -0.000 C 
BRANCH   7   8
ATOM      8  C   UNL     1      -1.134  -2.951   8.860  1.00  0.00    -0.000 C 
BRANCH   8   9
ATOM      9  C   UNL     1      -1.740  -1.558   9.111  1.00  0.00    -0.000 C 
BRANCH   9  10
ATOM     10  C   UNL     1      -2.083  -0.762   7.838  1.00  0.00    -0.000 C 
BRANCH  10  11
ATOM     11  C   UNL     1      -1.678  -1.492   6.549  1.00  0.00    -0.003 C 
ATOM     12  C   UNL     1      -2.886  -1.724   5.646  1.00  0.00     0.004 C 
ENDBRANCH  10  11
ENDBRANCH   9  10
ENDBRANCH   8   9
ENDBRANCH   7   8
ENDBRANCH   6   7
ENDBRANCH   5   6
ENDBRANCH   4   5
ENDBRANCH   3   4
ENDBRANCH   2   3
ENDBRANCH   1   2
BRANCH   1  13
ATOM     13  C   UNL     1      -6.965   0.015   8.330  1.00  0.00     0.000 C 
BRANCH  13  14
ATOM     14  C   UNL     1      -8.232   0.193   9.182  1.00  0.00     0.000 C 
BRANCH  14  15
ATOM     15  C   UNL     1      -8.181  -0.689  10.435  1.00  0.00     0.000 C 
BRANCH  15  16
ATOM     16  C   UNL     1      -9.298  -1.742  10.413  1.00  0.00     0.000 C 
BRANCH  16  17
ATOM     17  C   UNL     1      -8.953  -2.951   9.529  1.00  0.00     0.000 C 
BRANCH  17  18
ATOM     18  C   UNL     1      -9.766  -2.982   8.223  1.00  0.00     0.000 C 
BRANCH  18  19
ATOM     19  C   UNL     1      -8.899  -2.728   6.980  1.00  0.00     0.000 C 
BRANCH  19  20
ATOM     20  C   UNL     1      -9.655  -2.997   5.668  1.00  0.00     0.006 C 
BRANCH  20  21
ATOM     21  C   UNL     1      -8.813  -3.803   4.668  1.00  0.00     0.053 C 
BRANCH  21  22
ATOM     22  C   UNL     1      -7.723  -4.571   5.350  1.00  0.00     0.041 C 
ATOM     23  O   UNL     1      -7.949  -5.725   5.803  1.00  0.00    -0.550 OA
ATOM     24  O   UNL     1      -6.450  -4.027   5.459  1.00  0.00    -0.550 OA
ENDBRANCH  21  22
ENDBRANCH  20  21
ENDBRANCH  19  20
ENDBRANCH  18  19
ENDBRANCH  17  18
ENDBRANCH  16  17
ENDBRANCH  15  16
ENDBRANCH  14  15
ENDBRANCH  13  14
ENDBRANCH   1  13
TORSDOF 20
ENDMDL
MODEL 5
REMARK VINA RESULT:    -3.907      2.696      6.473
REMARK INTER + INTRA:         -12.252
REMARK INTER:                  -8.087
REMARK INTRA:                  -4.165
REMARK UNBOUND:                -3.776
REMARK SMILES CCCCCCCCCCCCCCCCCCCCCC(=O)[O-]
REMARK SMILES IDX 12 1 11 2 10 3 9 4 8 5 7 6 6 7 5 8 4 9 3 10 2 11 1 12 13 13
REMARK SMILES IDX 14 14 15 15 16 16 17 17 18 18 19 19 20 20 21 21 22 22 23 23
REMARK SMILES IDX 24 24
REMARK H PARENT
REMARK Flexibility Score: inf
ROOT
ATOM      1  C   UNL     1      -4.127  -4.744   9.313  1.00  0.00     0.000 C 
ENDROOT
BRANCH   1   2
ATOM      2  C   UNL     1      -5.548  -4.855   8.733  1.00  0.00     0.000 C 
BRANCH   2   3
ATOM      3  C   UNL     1      -6.426  -3.642   9.080  1.00  0.00     0.000 C 
BRANCH   3   4
ATOM      4  C   UNL     1      -7.905  -3.863   8.721  1.00  0.00    -0.000 C 
BRANCH   4   5
ATOM      5  C   UNL     1      -8.858  -3.038   9.603  1.00  0.00    -0.000 C 
BRANCH   5   6
ATOM      6  C   UNL     1      -9.256  -1.701   8.952  1.00  0.00    -0.000 C 
BRANCH   6   7
ATOM      7  C   UNL     1      -8.339  -0.544   9.379  1.00  0.00    -0.000 C 
BRANCH   7   8
ATOM      8  C   UNL     1      -7.603   0.099   8.191  1.00  0.00    -0.000 C 
BRANCH   8   9
ATOM      9  C   UNL     1      -8.082  -0.437   6.830  1.00  0.00    -0.000 C 
BRANCH   9  10
ATOM     10  C   UNL     1      -6.958  -0.898   5.884  1.00  0.00    -0.000 C 
BRANCH  10  11
ATOM     11  C   UNL     1      -7.076  -2.379   5.493  1.00  0.00    -0.003 C 
ATOM     12  C   UNL     1      -5.703  -3.043   5.433  1.00  0.00     0.004 C 
ENDBRANCH  10  11
ENDBRANCH   9  10
ENDBRANCH   8   9
ENDBRANCH   7   8
ENDBRANCH   6   7
ENDBRANCH   5   6
ENDBRANCH   4   5
ENDBRANCH   3   4
ENDBRANCH   2   3
ENDBRANCH   1   2
BRANCH   1  13
ATOM     13  C   UNL     1      -3.040  -4.828   8.229  1.00  0.00     0.000 C 
BRANCH  13  14
ATOM     14  C   UNL     1      -1.656  -4.401   8.746  1.00  0.00     0.000 C 
BRANCH  14  15
ATOM     15  C   UNL     1      -1.194  -3.105   8.072  1.00  0.00     0.000 C 
BRANCH  15  16
ATOM     16  C   UNL     1      -2.264  -2.575   7.105  1.00  0.00     0.000 C 
BRANCH  16  17
ATOM     17  C   UNL     1      -2.691  -1.135   7.429  1.00  0.00     0.000 C 
BRANCH  17  18
ATOM     18  C   UNL     1      -4.072  -1.064   8.106  1.00  0.00     0.000 C 
BRANCH  18  19
ATOM     19  C   UNL     1      -4.015  -0.422   9.500  1.00  0.00     0.000 C 
BRANCH  19  20
ATOM     20  C   UNL     1      -3.701  -1.443  10.608  1.00  0.00     0.006 C 
BRANCH  20  21
ATOM     21  C   UNL     1      -2.261  -1.312  11.125  1.00  0.00     0.053 C 
BRANCH  21  22
ATOM     22  C   UNL     1      -1.840  -2.516  11.911  1.00  0.00     0.041 C 
ATOM     23  O   UNL     1      -2.661  -3.097  12.669  1.00  0.00    -0.550 OA
ATOM     24  O   UNL     1      -0.549  -3.014  11.784  1.00  0.00    -0.550 OA
ENDBRANCH  21  22
ENDBRANCH  20  21
ENDBRANCH  19  20
ENDBRANCH  18  19
ENDBRANCH  17  18
ENDBRANCH  16  17
ENDBRANCH  15  16
ENDBRANCH  14  15
ENDBRANCH  13  14
ENDBRANCH   1  13
TORSDOF 20
ENDMDL
MODEL 6
REMARK VINA RESULT:    -3.904      2.129      3.103
REMARK INTER + INTRA:         -12.245
REMARK INTER:                  -8.695
REMARK INTRA:                  -3.550
REMARK UNBOUND:                -3.776
REMARK SMILES CCCCCCCCCCCCCCCCCCCCCC(=O)[O-]
REMARK SMILES IDX 12 1 11 2 10 3 9 4 8 5 7 6 6 7 5 8 4 9 3 10 2 11 1 12 13 13
REMARK SMILES IDX 14 14 15 15 16 16 17 17 18 18 19 19 20 20 21 21 22 22 23 23
REMARK SMILES IDX 24 24
REMARK H PARENT
REMARK Flexibility Score: inf
ROOT
ATOM      1  C   UNL     1      -7.769  -3.727   7.652  1.00  0.00     0.000 C 
ENDROOT
BRANCH   1   2
ATOM      2  C   UNL     1      -6.273  -3.365   7.703  1.00  0.00     0.000 C 
BRANCH   2   3
ATOM      3  C   UNL     1      -5.651  -3.611   9.087  1.00  0.00     0.000 C 
BRANCH   3   4
ATOM      4  C   UNL     1      -4.671  -4.796   9.090  1.00  0.00    -0.000 C 
BRANCH   4   5
ATOM      5  C   UNL     1      -3.540  -4.630   8.061  1.00  0.00    -0.000 C 
BRANCH   5   6
ATOM      6  C   UNL     1      -2.157  -4.975   8.642  1.00  0.00    -0.000 C 
BRANCH   6   7
ATOM      7  C   UNL     1      -1.208  -3.766   8.655  1.00  0.00    -0.000 C 
BRANCH   7   8
ATOM      8  C   UNL     1      -1.067  -3.137  10.052  1.00  0.00    -0.000 C 
BRANCH   8   9
ATOM      9  C   UNL     1      -1.593  -1.691  10.111  1.00  0.00    -0.000 C 
BRANCH   9  10
ATOM     10  C   UNL     1      -2.918  -1.514  10.874  1.00  0.00    -0.000 C 
BRANCH  10  11
ATOM     11  C   UNL     1      -3.967  -0.726  10.076  1.00  0.00    -0.003 C 
ATOM     12  C   UNL     1      -3.501  -0.486   8.643  1.00  0.00     0.004 C 
ENDBRANCH  10  11
ENDBRANCH   9  10
ENDBRANCH   8   9
ENDBRANCH   7   8
ENDBRANCH   6   7
ENDBRANCH   5   6
ENDBRANCH   4   5
ENDBRANCH   3   4
ENDBRANCH   2   3
ENDBRANCH   1   2
BRANCH   1  13
ATOM     13  C   UNL     1      -8.408  -3.792   9.048  1.00  0.00     0.000 C 
BRANCH  13  14
ATOM     14  C   UNL     1      -9.725  -3.005   9.132  1.00  0.00     0.000 C 
BRANCH  14  15
ATOM     15  C   UNL     1     -10.098  -2.711  10.589  1.00  0.00     0.000 C 
BRANCH  15  16
ATOM     16  C   UNL     1      -9.439  -1.411  11.075  1.00  0.00     0.000 C 
BRANCH  16  17
ATOM     17  C   UNL     1      -9.150  -0.432   9.926  1.00  0.00     0.000 C 
BRANCH  17  18
ATOM     18  C   UNL     1      -7.663  -0.043   9.839  1.00  0.00     0.000 C 
BRANCH  18  19
ATOM     19  C   UNL     1      -7.209   0.238   8.398  1.00  0.00     0.000 C 
BRANCH  19  20
ATOM     20  C   UNL     1      -8.336   0.026   7.372  1.00  0.00     0.006 C 
BRANCH  20  21
ATOM     21  C   UNL     1      -7.792  -0.340   5.983  1.00  0.00     0.053 C 
BRANCH  21  22
ATOM     22  C   UNL     1      -7.823   0.829   5.048  1.00  0.00     0.041 C 
ATOM     23  O   UNL     1      -8.333   1.921   5.413  1.00  0.00    -0.550 OA
ATOM     24  O   UNL     1      -7.260   0.723   3.782  1.00  0.00    -0.550 OA
ENDBRANCH  21  22
ENDBRANCH  20  21
ENDBRANCH  19  20
ENDBRANCH  18  19
ENDBRANCH  17  18
ENDBRANCH  16  17
ENDBRANCH  15  16
ENDBRANCH  14  15
ENDBRANCH  13  14
ENDBRANCH   1  13
TORSDOF 20
ENDMDL
MODEL 7
REMARK VINA RESULT:    -3.891      1.581      3.299
REMARK INTER + INTRA:         -12.217
REMARK INTER:                  -8.966
REMARK INTRA:                  -3.251
REMARK UNBOUND:                -3.776
REMARK SMILES CCCCCCCCCCCCCCCCCCCCCC(=O)[O-]
REMARK SMILES IDX 12 1 11 2 10 3 9 4 8 5 7 6 6 7 5 8 4 9 3 10 2 11 1 12 13 13
REMARK SMILES IDX 14 14 15 15 16 16 17 17 18 18 19 19 20 20 21 21 22 22 23 23
REMARK SMILES IDX 24 24
REMARK H PARENT
REMARK Flexibility Score: inf
ROOT
ATOM      1  C   UNL     1      -3.599  -4.547   9.294  1.00  0.00     0.000 C 
ENDROOT
BRANCH   1   2
ATOM      2  C   UNL     1      -2.339  -4.981   8.523  1.00  0.00     0.000 C 
BRANCH   2   3
ATOM      3  C   UNL     1      -1.119  -4.100   8.839  1.00  0.00     0.000 C 
BRANCH   3   4
ATOM      4  C   UNL     1      -1.249  -3.376  10.189  1.00  0.00    -0.000 C 
BRANCH   4   5
ATOM      5  C   UNL     1      -0.349  -2.132  10.282  1.00  0.00    -0.000 C 
BRANCH   5   6
ATOM      6  C   UNL     1      -0.608  -1.129   9.144  1.00  0.00    -0.000 C 
BRANCH   6   7
ATOM      7  C   UNL     1      -1.854  -0.265   9.395  1.00  0.00    -0.000 C 
BRANCH   7   8
ATOM      8  C   UNL     1      -2.950  -0.483   8.337  1.00  0.00    -0.000 C 
BRANCH   8   9
ATOM      9  C   UNL     1      -2.408  -1.092   7.031  1.00  0.00    -0.000 C 
BRANCH   9  10
ATOM     10  C   UNL     1      -3.321  -2.147   6.381  1.00  0.00    -0.000 C 
BRANCH  10  11
ATOM     11  C   UNL     1      -3.074  -2.303   4.873  1.00  0.00    -0.003 C 
ATOM     12  C   UNL     1      -4.386  -2.489   4.117  1.00  0.00     0.004 C 
ENDBRANCH  10  11
ENDBRANCH   9  10
ENDBRANCH   8   9
ENDBRANCH   7   8
ENDBRANCH   6   7
ENDBRANCH   5   6
ENDBRANCH   4   5
ENDBRANCH   3   4
ENDBRANCH   2   3
ENDBRANCH   1   2
BRANCH   1  13
ATOM     13  C   UNL     1      -4.875  -4.654   8.444  1.00  0.00     0.000 C 
BRANCH  13  14
ATOM     14  C   UNL     1      -6.083  -3.967   9.103  1.00  0.00     0.000 C 
BRANCH  14  15
ATOM     15  C   UNL     1      -5.988  -2.443   8.972  1.00  0.00     0.000 C 
BRANCH  15  16
ATOM     16  C   UNL     1      -7.360  -1.786   9.181  1.00  0.00     0.000 C 
BRANCH  16  17
ATOM     17  C   UNL     1      -8.473  -2.814   9.438  1.00  0.00     0.000 C 
BRANCH  17  18
ATOM     18  C   UNL     1      -9.409  -2.990   8.228  1.00  0.00     0.000 C 
BRANCH  18  19
ATOM     19  C   UNL     1      -8.968  -2.157   7.015  1.00  0.00     0.000 C 
BRANCH  19  20
ATOM     20  C   UNL     1      -8.919  -2.984   5.718  1.00  0.00     0.006 C 
BRANCH  20  21
ATOM     21  C   UNL     1      -7.627  -3.805   5.603  1.00  0.00     0.053 C 
BRANCH  21  22
ATOM     22  C   UNL     1      -7.903  -5.276   5.554  1.00  0.00     0.041 C 
ATOM     23  O   UNL     1      -8.428  -5.788   4.530  1.00  0.00    -0.550 OA
ATOM     24  O   UNL     1      -7.553  -6.087   6.626  1.00  0.00    -0.550 OA
ENDBRANCH  21  22
ENDBRANCH  20  21
ENDBRANCH  19  20
ENDBRANCH  18  19
ENDBRANCH  17  18
ENDBRANCH  16  17
ENDBRANCH  15  16
ENDBRANCH  14  15
ENDBRANCH  13  14
ENDBRANCH   1  13
TORSDOF 20
ENDMDL
MODEL 8
REMARK VINA RESULT:    -3.847      2.631      4.460
REMARK INTER + INTRA:         -12.121
REMARK INTER:                  -8.079
REMARK INTRA:                  -4.042
REMARK UNBOUND:                -3.776
REMARK SMILES CCCCCCCCCCCCCCCCCCCCCC(=O)[O-]
REMARK SMILES IDX 12 1 11 2 10 3 9 4 8 5 7 6 6 7 5 8 4 9 3 10 2 11 1 12 13 13
REMARK SMILES IDX 14 14 15 15 16 16 17 17 18 18 19 19 20 20 21 21 22 22 23 23
REMARK SMILES IDX 24 24
REMARK H PARENT
REMARK Flexibility Score: inf
ROOT
ATOM      1  C   UNL     1      -5.765  -4.646   9.130  1.00  0.00     0.000 C 
ENDROOT
BRANCH   1   2
ATOM      2  C   UNL     1      -4.282  -4.778   9.522  1.00  0.00     0.000 C 
BRANCH   2   3
ATOM      3  C   UNL     1      -3.343  -4.746   8.306  1.00  0.00     0.000 C 
BRANCH   3   4
ATOM      4  C   UNL     1      -1.863  -4.881   8.701  1.00  0.00    -0.000 C 
BRANCH   4   5
ATOM      5  C   UNL     1      -0.999  -3.728   8.160  1.00  0.00    -0.000 C 
BRANCH   5   6
ATOM      6  C   UNL     1      -1.713  -2.367   8.241  1.00  0.00    -0.000 C 
BRANCH   6   7
ATOM      7  C   UNL     1      -1.761  -1.648   6.884  1.00  0.00    -0.000 C 
BRANCH   7   8
ATOM      8  C   UNL     1      -3.171  -1.633   6.270  1.00  0.00    -0.000 C 
BRANCH   8   9
ATOM      9  C   UNL     1      -3.361  -2.707   5.183  1.00  0.00    -0.000 C 
BRANCH   9  10
ATOM     10  C   UNL     1      -4.749  -2.716   4.516  1.00  0.00    -0.000 C 
BRANCH  10  11
ATOM     11  C   UNL     1      -5.671  -1.607   5.043  1.00  0.00    -0.003 C 
ATOM     12  C   UNL     1      -7.032  -1.650   4.353  1.00  0.00     0.004 C 
ENDBRANCH  10  11
ENDBRANCH   9  10
ENDBRANCH   8   9
ENDBRANCH   7   8
ENDBRANCH   6   7
ENDBRANCH   5   6
ENDBRANCH   4   5
ENDBRANCH   3   4
ENDBRANCH   2   3
ENDBRANCH   1   2
BRANCH   1  13
ATOM     13  C   UNL     1      -5.953  -4.081   7.714  1.00  0.00     0.000 C 
BRANCH  13  14
ATOM     14  C   UNL     1      -7.405  -4.190   7.221  1.00  0.00     0.000 C 
BRANCH  14  15
ATOM     15  C   UNL     1      -8.392  -3.838   8.339  1.00  0.00     0.000 C 
BRANCH  15  16
ATOM     16  C   UNL     1      -9.377  -2.752   7.881  1.00  0.00     0.000 C 
BRANCH  16  17
ATOM     17  C   UNL     1      -8.688  -1.404   7.615  1.00  0.00     0.000 C 
BRANCH  17  18
ATOM     18  C   UNL     1      -8.658  -0.498   8.858  1.00  0.00     0.000 C 
BRANCH  18  19
ATOM     19  C   UNL     1      -7.360  -0.645   9.666  1.00  0.00     0.000 C 
BRANCH  19  20
ATOM     20  C   UNL     1      -6.103  -0.565   8.784  1.00  0.00     0.006 C 
BRANCH  20  21
ATOM     21  C   UNL     1      -4.830  -0.951   9.551  1.00  0.00     0.053 C 
BRANCH  21  22
ATOM     22  C   UNL     1      -3.917   0.221   9.740  1.00  0.00     0.041 C 
ATOM     23  O   UNL     1      -3.635   0.969   8.766  1.00  0.00    -0.550 OA
ATOM     24  O   UNL     1      -3.399   0.505  10.997  1.00  0.00    -0.550 OA
ENDBRANCH  21  22
ENDBRANCH  20  21
ENDBRANCH  19  20
ENDBRANCH  18  19
ENDBRANCH  17  18
ENDBRANCH  16  17
ENDBRANCH  15  16
ENDBRANCH  14  15
ENDBRANCH  13  14
ENDBRANCH   1  13
TORSDOF 20
ENDMDL
MODEL 9
REMARK VINA RESULT:    -3.842     11.151     13.775
REMARK INTER + INTRA:         -12.109
REMARK INTER:                  -8.545
REMARK INTRA:                  -3.565
REMARK UNBOUND:                -3.776
REMARK SMILES CCCCCCCCCCCCCCCCCCCCCC(=O)[O-]
REMARK SMILES IDX 12 1 11 2 10 3 9 4 8 5 7 6 6 7 5 8 4 9 3 10 2 11 1 12 13 13
REMARK SMILES IDX 14 14 15 15 16 16 17 17 18 18 19 19 20 20 21 21 22 22 23 23
REMARK SMILES IDX 24 24
REMARK H PARENT
REMARK Flexibility Score: inf
ROOT
ATOM      1  C   UNL     1       5.940   4.444   8.761  1.00  0.00     0.000 C 
ENDROOT
BRANCH   1   2
ATOM      2  C   UNL     1       7.367   4.843   8.342  1.00  0.00     0.000 C 
BRANCH   2   3
ATOM      3  C   UNL     1       8.448   4.053   9.096  1.00  0.00     0.000 C 
BRANCH   3   4
ATOM      4  C   UNL     1       9.244   3.116   8.172  1.00  0.00    -0.000 C 
BRANCH   4   5
ATOM      5  C   UNL     1       8.554   1.756   7.971  1.00  0.00    -0.000 C 
BRANCH   5   6
ATOM      6  C   UNL     1       8.036   1.156   9.290  1.00  0.00    -0.000 C 
BRANCH   6   7
ATOM      7  C   UNL     1       6.836   0.219   9.077  1.00  0.00    -0.000 C 
BRANCH   7   8
ATOM      8  C   UNL     1       5.508   0.980   8.923  1.00  0.00    -0.000 C 
BRANCH   8   9
ATOM      9  C   UNL     1       4.640   0.930  10.194  1.00  0.00    -0.000 C 
BRANCH   9  10
ATOM     10  C   UNL     1       3.319   1.715  10.106  1.00  0.00    -0.000 C 
BRANCH  10  11
ATOM     11  C   UNL     1       2.917   2.359  11.441  1.00  0.00    -0.003 C 
ATOM     12  C   UNL     1       1.621   3.153  11.301  1.00  0.00     0.004 C 
ENDBRANCH  10  11
ENDBRANCH   9  10
ENDBRANCH   8   9
ENDBRANCH   7   8
ENDBRANCH   6   7
ENDBRANCH   5   6
ENDBRANCH   4   5
ENDBRANCH   3   4
ENDBRANCH   2   3
ENDBRANCH   1   2
BRANCH   1  13
ATOM     13  C   UNL     1       4.961   5.628   8.721  1.00  0.00     0.000 C 
BRANCH  13  14
ATOM     14  C   UNL     1       3.499   5.193   8.904  1.00  0.00     0.000 C 
BRANCH  14  15
ATOM     15  C   UNL     1       2.783   5.087   7.552  1.00  0.00     0.000 C 
BRANCH  15  16
ATOM     16  C   UNL     1       2.136   3.705   7.379  1.00  0.00     0.000 C 
BRANCH  16  17
ATOM     17  C   UNL     1       3.038   2.723   6.616  1.00  0.00     0.000 C 
BRANCH  17  18
ATOM     18  C   UNL     1       3.815   3.397   5.472  1.00  0.00     0.000 C 
BRANCH  18  19
ATOM     19  C   UNL     1       5.166   2.720   5.194  1.00  0.00     0.000 C 
BRANCH  19  20
ATOM     20  C   UNL     1       6.353   3.687   5.343  1.00  0.00     0.006 C 
BRANCH  20  21
ATOM     21  C   UNL     1       7.625   3.151   4.670  1.00  0.00     0.053 C 
BRANCH  21  22
ATOM     22  C   UNL     1       8.674   4.211   4.536  1.00  0.00     0.041 C 
ATOM     23  O   UNL     1       9.871   3.893   4.304  1.00  0.00    -0.550 OA
ATOM     24  O   UNL     1       8.327   5.553   4.639  1.00  0.00    -0.550 OA
ENDBRANCH  21  22
ENDBRANCH  20  21
ENDBRANCH  19  20
ENDBRANCH  18  19
ENDBRANCH  17  18
ENDBRANCH  16  17
ENDBRANCH  15  16
ENDBRANCH  14  15
ENDBRANCH  13  14
ENDBRANCH   1  13
TORSDOF 20
ENDMDL
