MODEL 1
REMARK VINA RESULT:    26.629      0.000      0.000
REMARK INTER + INTRA:          29.301
REMARK INTER:                  28.964
REMARK INTRA:                   0.337
REMARK UNBOUND:                 0.337
REMARK SMILES CC1(C)CC[C@@]2(C(=O)[O-])CC[C@@]3(C)C(=CC[C@@H]4[C@]5(C)CC[C@@H](O)C(C)(C)[C@@H]5CC[C@@]43C)[C@H]2C1
REMARK SMILES IDX 6 1 5 2 10 3 32 4 4 5 11 6 14 7 33 8 2 9 12 10 15 11 1 12
REMARK SMILES IDX 3 13 13 14 30 15 16 16 17 17 29 18 31 19 18 20 28 21 27 22
REMARK SMILES IDX 20 23 19 24 24 25 21 26 22 27 25 28 26 29 7 30 8 31 9 32
REMARK SMILES IDX 23 33
REMARK H PARENT 23 34
REMARK Flexibility Score: inf
ROOT
ATOM      1  C   UNL     1      23.257  -2.528  14.184  1.00  0.00     0.017 C 
ATOM      2  C   UNL     1      22.362  -2.665  15.464  1.00  0.00     0.014 C 
ATOM      3  C   UNL     1      22.624  -3.386  13.067  1.00  0.00     0.014 C 
ATOM      4  C   UNL     1      23.335  -1.031  13.709  1.00  0.00     0.028 C 
ATOM      5  C   UNL     1      22.379  -1.395  16.324  1.00  0.00     0.007 C 
ATOM      6  C   UNL     1      23.439  -3.334  11.776  1.00  0.00     0.013 C 
ATOM      7  C   UNL     1      23.721  -0.828  12.239  1.00  0.00    -0.064 C 
ATOM      8  C   UNL     1      22.020  -0.280  14.028  1.00  0.00     0.015 C 
ATOM      9  C   UNL     1      21.769  -0.175  15.566  1.00  0.00    -0.035 C 
ATOM     10  C   UNL     1      23.546  -1.896  11.139  1.00  0.00    -0.006 C 
ATOM     11  C   UNL     1      24.192   0.390  11.901  1.00  0.00    -0.027 C 
ATOM     12  C   UNL     1      20.248  -0.106  15.825  1.00  0.00     0.011 C 
ATOM     13  C   UNL     1      22.407   1.121  16.112  1.00  0.00     0.011 C 
ATOM     14  C   UNL     1      22.187  -1.642  10.432  1.00  0.00     0.017 C 
ATOM     15  C   UNL     1      24.789  -1.775  10.104  1.00  0.00    -0.020 C 
ATOM     16  C   UNL     1      24.324   0.812  10.475  1.00  0.00     0.032 C 
ATOM     17  C   UNL     1      25.007  -0.259   9.572  1.00  0.00     0.006 C 
ATOM     18  C   UNL     1      24.671  -2.813   8.946  1.00  0.00     0.008 C 
ATOM     19  C   UNL     1      26.111  -2.173  10.864  1.00  0.00     0.012 C 
ATOM     20  C   UNL     1      24.928   0.106   7.989  1.00  0.00    -0.025 C 
ATOM     21  C   UNL     1      24.110  -2.270   7.651  1.00  0.00     0.005 C 
ATOM     22  C   UNL     1      25.045  -1.180   7.074  1.00  0.00     0.003 C 
ATOM     23  C   UNL     1      23.609   0.873   7.622  1.00  0.00     0.010 C 
ATOM     24  C   UNL     1      26.125   1.078   7.720  1.00  0.00     0.012 C 
ATOM     25  C   UNL     1      24.801  -0.946   5.511  1.00  0.00    -0.006 C 
ATOM     26  C   UNL     1      23.389   1.124   6.122  1.00  0.00     0.033 C 
ATOM     27  C   UNL     1      23.465  -0.171   5.301  1.00  0.00     0.120 C 
ATOM     28  C   UNL     1      26.009  -0.204   4.855  1.00  0.00     0.014 C 
ATOM     29  C   UNL     1      24.692  -2.299   4.743  1.00  0.00     0.014 C 
ENDROOT
BRANCH   1  30
ATOM     30  C   UNL     1      24.642  -3.079  14.517  1.00  0.00     0.048 C 
ATOM     31  O   UNL     1      25.658  -2.767  13.841  1.00  0.00    -0.550 OA
ATOM     32  O   UNL     1      24.799  -3.948  15.592  1.00  0.00    -0.550 OA
ENDBRANCH   1  30
BRANCH  27  33
ATOM     33  O   UNL     1      23.216   0.083   3.939  1.00  0.00    -0.393 OA
ATOM     34  H   UNL     1      22.246  -0.042   3.770  1.00  0.00     0.210 HD
ENDBRANCH  27  33
TORSDOF 2
ENDMDL
