MODEL 1
REMARK VINA RESULT:    -5.821      0.000      0.000
REMARK INTER + INTRA:          -5.927
REMARK INTER:                  -6.331
REMARK INTRA:                   0.404
REMARK UNBOUND:                 0.404
REMARK SMILES CC1(C)CC[C@]2(C(=O)[O-])CC[C@]3(C)C(=CC[C@H]4[C@]5(C)CC[C@H](O)C(C)(C)[C@@H]5CC[C@]43C)[C@@H]2C1
REMARK SMILES IDX 6 1 5 2 10 3 32 4 4 5 11 6 14 7 33 8 2 9 12 10 15 11 1 12
REMARK SMILES IDX 3 13 13 14 30 15 16 16 17 17 29 18 31 19 18 20 28 21 27 22
REMARK SMILES IDX 20 23 19 24 24 25 21 26 22 27 25 28 26 29 7 30 8 31 9 32
REMARK SMILES IDX 23 33
REMARK H PARENT 23 34
REMARK Flexibility Score: inf
ROOT
ATOM      1  C   UNL     1       3.761  18.380  15.054  1.00  0.00     0.017 C 
ATOM      2  C   UNL     1       3.670  19.372  13.861  1.00  0.00     0.014 C 
ATOM      3  C   UNL     1       5.172  18.424  15.690  1.00  0.00     0.014 C 
ATOM      4  C   UNL     1       3.465  16.918  14.590  1.00  0.00     0.028 C 
ATOM      5  C   UNL     1       4.456  18.935  12.618  1.00  0.00     0.007 C 
ATOM      6  C   UNL     1       5.242  17.572  16.964  1.00  0.00     0.013 C 
ATOM      7  C   UNL     1       3.755  15.878  15.676  1.00  0.00    -0.064 C 
ATOM      8  C   UNL     1       4.225  16.516  13.298  1.00  0.00     0.015 C 
ATOM      9  C   UNL     1       4.068  17.521  12.132  1.00  0.00    -0.035 C 
ATOM     10  C   UNL     1       4.820  16.065  16.776  1.00  0.00    -0.006 C 
ATOM     11  C   UNL     1       3.106  14.697  15.596  1.00  0.00    -0.027 C 
ATOM     12  C   UNL     1       5.030  17.112  10.994  1.00  0.00     0.011 C 
ATOM     13  C   UNL     1       2.629  17.495  11.566  1.00  0.00     0.011 C 
ATOM     14  C   UNL     1       6.112  15.345  16.282  1.00  0.00     0.017 C 
ATOM     15  C   UNL     1       4.220  15.444  18.143  1.00  0.00    -0.020 C 
ATOM     16  C   UNL     1       3.442  13.529  16.480  1.00  0.00     0.032 C 
ATOM     17  C   UNL     1       3.730  13.925  17.959  1.00  0.00     0.006 C 
ATOM     18  C   UNL     1       5.243  15.596  19.316  1.00  0.00     0.008 C 
ATOM     19  C   UNL     1       2.942  16.258  18.568  1.00  0.00     0.012 C 
ATOM     20  C   UNL     1       4.501  12.829  18.804  1.00  0.00    -0.025 C 
ATOM     21  C   UNL     1       4.917  14.767  20.564  1.00  0.00     0.005 C 
ATOM     22  C   UNL     1       4.545  13.262  20.338  1.00  0.00     0.003 C 
ATOM     23  C   UNL     1       3.855  11.406  18.641  1.00  0.00     0.010 C 
ATOM     24  C   UNL     1       5.958  12.618  18.277  1.00  0.00     0.012 C 
ATOM     25  C   UNL     1       3.341  12.787  21.284  1.00  0.00    -0.006 C 
ATOM     26  C   UNL     1       2.611  11.158  19.475  1.00  0.00     0.033 C 
ATOM     27  C   UNL     1       2.958  11.315  20.956  1.00  0.00     0.120 C 
ATOM     28  C   UNL     1       2.059  13.677  21.226  1.00  0.00     0.014 C 
ATOM     29  C   UNL     1       3.835  12.818  22.756  1.00  0.00     0.014 C 
ENDROOT
BRANCH   1  30
ATOM     30  C   UNL     1       2.724  18.858  16.067  1.00  0.00     0.048 C 
ATOM     31  O   UNL     1       1.875  18.066  16.557  1.00  0.00    -0.550 OA
ATOM     32  O   UNL     1       2.636  20.210  16.385  1.00  0.00    -0.550 OA
ENDBRANCH   1  30
BRANCH  27  33
ATOM     33  O   UNL     1       1.875  10.885  21.746  1.00  0.00    -0.393 OA
ATOM     34  H   UNL     1       1.296  10.325  21.165  1.00  0.00     0.210 HD
ENDBRANCH  27  33
TORSDOF 2
ENDMDL
MODEL 2
REMARK VINA RESULT:    -3.601      2.582      4.050
REMARK INTER + INTRA:          -3.512
REMARK INTER:                  -3.377
REMARK INTRA:                  -0.135
REMARK UNBOUND:                 0.404
REMARK SMILES CC1(C)CC[C@]2(C(=O)[O-])CC[C@]3(C)C(=CC[C@H]4[C@]5(C)CC[C@H](O)C(C)(C)[C@@H]5CC[C@]43C)[C@@H]2C1
REMARK SMILES IDX 6 1 5 2 10 3 32 4 4 5 11 6 14 7 33 8 2 9 12 10 15 11 1 12
REMARK SMILES IDX 3 13 13 14 30 15 16 16 17 17 29 18 31 19 18 20 28 21 27 22
REMARK SMILES IDX 20 23 19 24 24 25 21 26 22 27 25 28 26 29 7 30 8 31 9 32
REMARK SMILES IDX 23 33
REMARK H PARENT 23 34
REMARK Flexibility Score: inf
ROOT
ATOM      1  C   UNL     1       3.160  15.858  13.497  1.00  0.00     0.017 C 
ATOM      2  C   UNL     1       2.937  16.000  11.965  1.00  0.00     0.014 C 
ATOM      3  C   UNL     1       1.884  16.269  14.271  1.00  0.00     0.014 C 
ATOM      4  C   UNL     1       4.349  16.751  13.976  1.00  0.00     0.028 C 
ATOM      5  C   UNL     1       2.872  17.451  11.471  1.00  0.00     0.007 C 
ATOM      6  C   UNL     1       2.024  15.990  15.774  1.00  0.00     0.013 C 
ATOM      7  C   UNL     1       4.468  16.816  15.501  1.00  0.00    -0.064 C 
ATOM      8  C   UNL     1       4.294  18.199  13.417  1.00  0.00     0.015 C 
ATOM      9  C   UNL     1       4.109  18.280  11.883  1.00  0.00    -0.035 C 
ATOM     10  C   UNL     1       3.271  16.666  16.460  1.00  0.00    -0.006 C 
ATOM     11  C   UNL     1       5.678  17.120  16.017  1.00  0.00    -0.027 C 
ATOM     12  C   UNL     1       3.864  19.754  11.491  1.00  0.00     0.011 C 
ATOM     13  C   UNL     1       5.379  17.799  11.144  1.00  0.00     0.011 C 
ATOM     14  C   UNL     1       2.797  18.108  16.821  1.00  0.00     0.017 C 
ATOM     15  C   UNL     1       3.776  15.816  17.739  1.00  0.00    -0.020 C 
ATOM     16  C   UNL     1       5.886  17.403  17.478  1.00  0.00     0.032 C 
ATOM     17  C   UNL     1       5.082  16.457  18.420  1.00  0.00     0.006 C 
ATOM     18  C   UNL     1       2.613  15.616  18.765  1.00  0.00     0.008 C 
ATOM     19  C   UNL     1       4.200  14.374  17.271  1.00  0.00     0.012 C 
ATOM     20  C   UNL     1       4.917  16.978  19.906  1.00  0.00    -0.025 C 
ATOM     21  C   UNL     1       3.053  15.109  20.144  1.00  0.00     0.005 C 
ATOM     22  C   UNL     1       4.270  15.837  20.811  1.00  0.00     0.003 C 
ATOM     23  C   UNL     1       6.284  17.465  20.510  1.00  0.00     0.010 C 
ATOM     24  C   UNL     1       4.028  18.263  19.968  1.00  0.00     0.012 C 
ATOM     25  C   UNL     1       5.260  14.812  21.545  1.00  0.00    -0.006 C 
ATOM     26  C   UNL     1       7.201  16.363  21.009  1.00  0.00     0.033 C 
ATOM     27  C   UNL     1       6.490  15.579  22.112  1.00  0.00     0.120 C 
ATOM     28  C   UNL     1       5.758  13.622  20.664  1.00  0.00     0.014 C 
ATOM     29  C   UNL     1       4.510  14.186  22.751  1.00  0.00     0.014 C 
ENDROOT
BRANCH   1  30
ATOM     30  C   UNL     1       3.452  14.378  13.734  1.00  0.00     0.048 C 
ATOM     31  O   UNL     1       4.634  13.941  13.758  1.00  0.00    -0.550 OA
ATOM     32  O   UNL     1       2.404  13.469  13.825  1.00  0.00    -0.550 OA
ENDBRANCH   1  30
BRANCH  27  33
ATOM     33  O   UNL     1       7.397  14.695  22.728  1.00  0.00    -0.393 OA
ATOM     34  H   UNL     1       8.217  15.217  22.932  1.00  0.00     0.210 HD
ENDBRANCH  27  33
TORSDOF 2
ENDMDL
MODEL 3
REMARK VINA RESULT:    -3.507      2.096      7.871
REMARK INTER + INTRA:          -3.410
REMARK INTER:                  -3.778
REMARK INTRA:                   0.368
REMARK UNBOUND:                 0.404
REMARK SMILES CC1(C)CC[C@]2(C(=O)[O-])CC[C@]3(C)C(=CC[C@H]4[C@]5(C)CC[C@H](O)C(C)(C)[C@@H]5CC[C@]43C)[C@@H]2C1
REMARK SMILES IDX 6 1 5 2 10 3 32 4 4 5 11 6 14 7 33 8 2 9 12 10 15 11 1 12
REMARK SMILES IDX 3 13 13 14 30 15 16 16 17 17 29 18 31 19 18 20 28 21 27 22
REMARK SMILES IDX 20 23 19 24 24 25 21 26 22 27 25 28 26 29 7 30 8 31 9 32
REMARK SMILES IDX 23 33
REMARK H PARENT 23 34
REMARK Flexibility Score: inf
ROOT
ATOM      1  C   UNL     1       3.575  10.519  18.432  1.00  0.00     0.017 C 
ATOM      2  C   UNL     1       3.391   9.027  18.829  1.00  0.00     0.014 C 
ATOM      3  C   UNL     1       5.062  10.819  18.125  1.00  0.00     0.014 C 
ATOM      4  C   UNL     1       3.097  11.466  19.579  1.00  0.00     0.028 C 
ATOM      5  C   UNL     1       3.949   8.670  20.212  1.00  0.00     0.007 C 
ATOM      6  C   UNL     1       5.248  12.242  17.582  1.00  0.00     0.013 C 
ATOM      7  C   UNL     1       3.458  12.933  19.330  1.00  0.00    -0.064 C 
ATOM      8  C   UNL     1       3.626  11.053  20.979  1.00  0.00     0.015 C 
ATOM      9  C   UNL     1       3.382   9.567  21.336  1.00  0.00    -0.035 C 
ATOM     10  C   UNL     1       4.683  13.384  18.509  1.00  0.00    -0.006 C 
ATOM     11  C   UNL     1       2.711  13.871  19.949  1.00  0.00    -0.027 C 
ATOM     12  C   UNL     1       4.132   9.244  22.647  1.00  0.00     0.011 C 
ATOM     13  C   UNL     1       1.879   9.291  21.570  1.00  0.00     0.011 C 
ATOM     14  C   UNL     1       5.827  13.677  19.528  1.00  0.00     0.017 C 
ATOM     15  C   UNL     1       4.241  14.680  17.649  1.00  0.00    -0.020 C 
ATOM     16  C   UNL     1       3.076  15.329  19.943  1.00  0.00     0.032 C 
ATOM     17  C   UNL     1       3.608  15.835  18.569  1.00  0.00     0.006 C 
ATOM     18  C   UNL     1       5.432  15.202  16.782  1.00  0.00     0.008 C 
ATOM     19  C   UNL     1       3.108  14.271  16.635  1.00  0.00     0.012 C 
ATOM     20  C   UNL     1       4.403  17.205  18.625  1.00  0.00    -0.025 C 
ATOM     21  C   UNL     1       5.227  16.598  16.180  1.00  0.00     0.005 C 
ATOM     22  C   UNL     1       4.705  17.716  17.146  1.00  0.00     0.003 C 
ATOM     23  C   UNL     1       3.628  18.296  19.449  1.00  0.00     0.010 C 
ATOM     24  C   UNL     1       5.746  17.056  19.413  1.00  0.00     0.012 C 
ATOM     25  C   UNL     1       3.618  18.663  16.445  1.00  0.00    -0.006 C 
ATOM     26  C   UNL     1       2.502  18.992  18.705  1.00  0.00     0.033 C 
ATOM     27  C   UNL     1       3.073  19.696  17.474  1.00  0.00     0.120 C 
ATOM     28  C   UNL     1       2.416  17.917  15.781  1.00  0.00     0.014 C 
ATOM     29  C   UNL     1       4.321  19.462  15.316  1.00  0.00     0.014 C 
ENDROOT
BRANCH   1  30
ATOM     30  C   UNL     1       2.738  10.715  17.170  1.00  0.00     0.048 C 
ATOM     31  O   UNL     1       1.893  11.646  17.085  1.00  0.00    -0.550 OA
ATOM     32  O   UNL     1       2.826   9.797  16.130  1.00  0.00    -0.550 OA
ENDBRANCH   1  30
BRANCH  27  33
ATOM     33  O   UNL     1       2.086  20.515  16.894  1.00  0.00    -0.393 OA
ATOM     34  H   UNL     1       2.240  20.506  15.913  1.00  0.00     0.210 HD
ENDBRANCH  27  33
TORSDOF 2
ENDMDL
