MODEL 1
REMARK VINA RESULT:    -3.915      0.000      0.000
REMARK INTER + INTRA:         -11.726
REMARK INTER:                  -8.493
REMARK INTRA:                  -3.233
REMARK UNBOUND:                -3.233
REMARK SMILES CCCCCCCCCCCCCCCCCCCCCC(=O)[O-]
REMARK SMILES IDX 12 1 11 2 10 3 9 4 8 5 7 6 6 7 5 8 4 9 3 10 2 11 1 12 13 13
REMARK SMILES IDX 14 14 15 15 16 16 17 17 18 18 19 19 20 20 21 21 22 22 23 23
REMARK SMILES IDX 24 24
REMARK H PARENT
REMARK Flexibility Score: inf
ROOT
ATOM      1  C   UNL     1      -2.666   6.134  39.463  1.00  0.00     0.000 C 
ENDROOT
BRANCH   1   2
ATOM      2  C   UNL     1      -2.621   7.602  39.922  1.00  0.00     0.000 C 
BRANCH   2   3
ATOM      3  C   UNL     1      -1.185   8.114  40.118  1.00  0.00     0.000 C 
BRANCH   3   4
ATOM      4  C   UNL     1      -0.886   9.383  39.300  1.00  0.00    -0.000 C 
BRANCH   4   5
ATOM      5  C   UNL     1      -2.033   9.730  38.328  1.00  0.00    -0.000 C 
BRANCH   5   6
ATOM      6  C   UNL     1      -1.576   9.920  36.871  1.00  0.00    -0.000 C 
BRANCH   6   7
ATOM      7  C   UNL     1      -0.672   8.781  36.374  1.00  0.00    -0.000 C 
BRANCH   7   8
ATOM      8  C   UNL     1       0.457   9.278  35.457  1.00  0.00    -0.000 C 
BRANCH   8   9
ATOM      9  C   UNL     1       1.854   9.021  36.044  1.00  0.00    -0.000 C 
BRANCH   9  10
ATOM     10  C   UNL     1       2.167  10.019  37.169  1.00  0.00    -0.000 C 
BRANCH  10  11
ATOM     11  C   UNL     1       2.554   9.325  38.485  1.00  0.00    -0.003 C 
ATOM     12  C   UNL     1       2.344   7.812  38.440  1.00  0.00     0.004 C 
ENDBRANCH  10  11
ENDBRANCH   9  10
ENDBRANCH   8   9
ENDBRANCH   7   8
ENDBRANCH   6   7
ENDBRANCH   5   6
ENDBRANCH   4   5
ENDBRANCH   3   4
ENDBRANCH   2   3
ENDBRANCH   1   2
BRANCH   1  13
ATOM     13  C   UNL     1      -1.442   5.732  38.618  1.00  0.00     0.000 C 
BRANCH  13  14
ATOM     14  C   UNL     1      -1.765   5.229  37.198  1.00  0.00     0.000 C 
BRANCH  14  15
ATOM     15  C   UNL     1      -0.671   4.312  36.625  1.00  0.00     0.000 C 
BRANCH  15  16
ATOM     16  C   UNL     1       0.708   4.987  36.581  1.00  0.00     0.000 C 
BRANCH  16  17
ATOM     17  C   UNL     1       1.000   5.636  35.216  1.00  0.00     0.000 C 
BRANCH  17  18
ATOM     18  C   UNL     1       2.341   5.181  34.610  1.00  0.00     0.000 C 
BRANCH  18  19
ATOM     19  C   UNL     1       2.309   4.874  33.099  1.00  0.00     0.000 C 
BRANCH  19  20
ATOM     20  C   UNL     1       1.195   5.588  32.306  1.00  0.00     0.006 C 
BRANCH  20  21
ATOM     21  C   UNL     1       1.680   6.311  31.040  1.00  0.00     0.053 C 
BRANCH  21  22
ATOM     22  C   UNL     1       1.850   7.781  31.266  1.00  0.00     0.041 C 
ATOM     23  O   UNL     1       1.733   8.263  32.424  1.00  0.00    -0.550 OA
ATOM     24  O   UNL     1       2.109   8.626  30.194  1.00  0.00    -0.550 OA
ENDBRANCH  21  22
ENDBRANCH  20  21
ENDBRANCH  19  20
ENDBRANCH  18  19
ENDBRANCH  17  18
ENDBRANCH  16  17
ENDBRANCH  15  16
ENDBRANCH  14  15
ENDBRANCH  13  14
ENDBRANCH   1  13
TORSDOF 20
ENDMDL
MODEL 2
REMARK VINA RESULT:    -3.652      1.427      4.061
REMARK INTER + INTRA:         -11.156
REMARK INTER:                  -8.102
REMARK INTRA:                  -3.054
REMARK UNBOUND:                -3.233
REMARK SMILES CCCCCCCCCCCCCCCCCCCCCC(=O)[O-]
REMARK SMILES IDX 12 1 11 2 10 3 9 4 8 5 7 6 6 7 5 8 4 9 3 10 2 11 1 12 13 13
REMARK SMILES IDX 14 14 15 15 16 16 17 17 18 18 19 19 20 20 21 21 22 22 23 23
REMARK SMILES IDX 24 24
REMARK H PARENT
REMARK Flexibility Score: inf
ROOT
ATOM      1  C   UNL     1      -0.814   8.955  36.331  1.00  0.00     0.000 C 
ENDROOT
BRANCH   1   2
ATOM      2  C   UNL     1      -1.660  10.003  37.074  1.00  0.00     0.000 C 
BRANCH   2   3
ATOM      3  C   UNL     1      -1.903   9.630  38.545  1.00  0.00     0.000 C 
BRANCH   3   4
ATOM      4  C   UNL     1      -0.687   8.947  39.197  1.00  0.00    -0.000 C 
BRANCH   4   5
ATOM      5  C   UNL     1      -1.063   7.610  39.868  1.00  0.00    -0.000 C 
BRANCH   5   6
ATOM      6  C   UNL     1      -2.575   7.322  39.875  1.00  0.00    -0.000 C 
BRANCH   6   7
ATOM      7  C   UNL     1      -2.909   5.867  39.509  1.00  0.00    -0.000 C 
BRANCH   7   8
ATOM      8  C   UNL     1      -1.793   5.192  38.694  1.00  0.00    -0.000 C 
BRANCH   8   9
ATOM      9  C   UNL     1      -2.038   5.269  37.179  1.00  0.00    -0.000 C 
BRANCH   9  10
ATOM     10  C   UNL     1      -1.143   4.272  36.429  1.00  0.00    -0.000 C 
BRANCH  10  11
ATOM     11  C   UNL     1       0.013   3.748  37.296  1.00  0.00    -0.003 C 
ATOM     12  C   UNL     1       0.977   2.851  36.519  1.00  0.00     0.004 C 
ENDBRANCH  10  11
ENDBRANCH   9  10
ENDBRANCH   8   9
ENDBRANCH   7   8
ENDBRANCH   6   7
ENDBRANCH   5   6
ENDBRANCH   4   5
ENDBRANCH   3   4
ENDBRANCH   2   3
ENDBRANCH   1   2
BRANCH   1  13
ATOM     13  C   UNL     1       0.477   9.541  35.730  1.00  0.00     0.000 C 
BRANCH  13  14
ATOM     14  C   UNL     1       1.776   8.828  36.150  1.00  0.00     0.000 C 
BRANCH  14  15
ATOM     15  C   UNL     1       1.536   7.396  36.657  1.00  0.00     0.000 C 
BRANCH  15  16
ATOM     16  C   UNL     1       2.201   6.331  35.770  1.00  0.00     0.000 C 
BRANCH  16  17
ATOM     17  C   UNL     1       1.429   6.093  34.461  1.00  0.00     0.000 C 
BRANCH  17  18
ATOM     18  C   UNL     1       2.235   6.490  33.209  1.00  0.00     0.000 C 
BRANCH  18  19
ATOM     19  C   UNL     1       1.851   7.847  32.584  1.00  0.00     0.000 C 
BRANCH  19  20
ATOM     20  C   UNL     1       1.824   7.876  31.042  1.00  0.00     0.006 C 
BRANCH  20  21
ATOM     21  C   UNL     1       1.843   6.488  30.382  1.00  0.00     0.053 C 
BRANCH  21  22
ATOM     22  C   UNL     1       2.388   6.539  28.988  1.00  0.00     0.041 C 
ATOM     23  O   UNL     1       2.997   5.545  28.509  1.00  0.00    -0.550 OA
ATOM     24  O   UNL     1       2.253   7.693  28.227  1.00  0.00    -0.550 OA
ENDBRANCH  21  22
ENDBRANCH  20  21
ENDBRANCH  19  20
ENDBRANCH  18  19
ENDBRANCH  17  18
ENDBRANCH  16  17
ENDBRANCH  15  16
ENDBRANCH  14  15
ENDBRANCH  13  14
ENDBRANCH   1  13
TORSDOF 20
ENDMDL
MODEL 3
REMARK VINA RESULT:    -3.586      1.297      4.306
REMARK INTER + INTRA:         -11.012
REMARK INTER:                  -7.886
REMARK INTRA:                  -3.126
REMARK UNBOUND:                -3.233
REMARK SMILES CCCCCCCCCCCCCCCCCCCCCC(=O)[O-]
REMARK SMILES IDX 12 1 11 2 10 3 9 4 8 5 7 6 6 7 5 8 4 9 3 10 2 11 1 12 13 13
REMARK SMILES IDX 14 14 15 15 16 16 17 17 18 18 19 19 20 20 21 21 22 22 23 23
REMARK SMILES IDX 24 24
REMARK H PARENT
REMARK Flexibility Score: inf
ROOT
ATOM      1  C   UNL     1      -1.253   9.314  36.283  1.00  0.00     0.000 C 
ENDROOT
BRANCH   1   2
ATOM      2  C   UNL     1      -1.867  10.125  37.437  1.00  0.00     0.000 C 
BRANCH   2   3
ATOM      3  C   UNL     1      -1.624   9.475  38.808  1.00  0.00     0.000 C 
BRANCH   3   4
ATOM      4  C   UNL     1      -0.171   9.628  39.293  1.00  0.00    -0.000 C 
BRANCH   4   5
ATOM      5  C   UNL     1       0.305   8.401  40.098  1.00  0.00    -0.000 C 
BRANCH   5   6
ATOM      6  C   UNL     1      -0.003   8.488  41.603  1.00  0.00    -0.000 C 
BRANCH   6   7
ATOM      7  C   UNL     1      -0.829   7.296  42.114  1.00  0.00    -0.000 C 
BRANCH   7   8
ATOM      8  C   UNL     1      -2.148   7.118  41.345  1.00  0.00    -0.000 C 
BRANCH   8   9
ATOM      9  C   UNL     1      -2.309   5.703  40.768  1.00  0.00    -0.000 C 
BRANCH   9  10
ATOM     10  C   UNL     1      -2.798   5.758  39.313  1.00  0.00    -0.000 C 
BRANCH  10  11
ATOM     11  C   UNL     1      -1.652   5.980  38.312  1.00  0.00    -0.003 C 
ATOM     12  C   UNL     1      -1.693   5.002  37.139  1.00  0.00     0.004 C 
ENDBRANCH  10  11
ENDBRANCH   9  10
ENDBRANCH   8   9
ENDBRANCH   7   8
ENDBRANCH   6   7
ENDBRANCH   5   6
ENDBRANCH   4   5
ENDBRANCH   3   4
ENDBRANCH   2   3
ENDBRANCH   1   2
BRANCH   1  13
ATOM     13  C   UNL     1      -0.201  10.108  35.486  1.00  0.00     0.000 C 
BRANCH  13  14
ATOM     14  C   UNL     1       1.257   9.658  35.699  1.00  0.00     0.000 C 
BRANCH  14  15
ATOM     15  C   UNL     1       1.394   8.137  35.880  1.00  0.00     0.000 C 
BRANCH  15  16
ATOM     16  C   UNL     1       2.260   7.758  37.091  1.00  0.00     0.000 C 
BRANCH  16  17
ATOM     17  C   UNL     1       2.047   6.298  37.530  1.00  0.00     0.000 C 
BRANCH  17  18
ATOM     18  C   UNL     1       1.984   5.319  36.342  1.00  0.00     0.000 C 
BRANCH  18  19
ATOM     19  C   UNL     1       3.257   5.257  35.472  1.00  0.00     0.000 C 
BRANCH  19  20
ATOM     20  C   UNL     1       3.010   5.106  33.957  1.00  0.00     0.006 C 
BRANCH  20  21
ATOM     21  C   UNL     1       1.598   5.505  33.501  1.00  0.00     0.053 C 
BRANCH  21  22
ATOM     22  C   UNL     1       1.629   6.381  32.286  1.00  0.00     0.041 C 
ATOM     23  O   UNL     1       2.125   7.537  32.351  1.00  0.00    -0.550 OA
ATOM     24  O   UNL     1       1.083   5.933  31.090  1.00  0.00    -0.550 OA
ENDBRANCH  21  22
ENDBRANCH  20  21
ENDBRANCH  19  20
ENDBRANCH  18  19
ENDBRANCH  17  18
ENDBRANCH  16  17
ENDBRANCH  15  16
ENDBRANCH  14  15
ENDBRANCH  13  14
ENDBRANCH   1  13
TORSDOF 20
ENDMDL
MODEL 4
REMARK VINA RESULT:    -3.572      2.220      4.926
REMARK INTER + INTRA:         -10.981
REMARK INTER:                  -7.379
REMARK INTRA:                  -3.602
REMARK UNBOUND:                -3.233
REMARK SMILES CCCCCCCCCCCCCCCCCCCCCC(=O)[O-]
REMARK SMILES IDX 12 1 11 2 10 3 9 4 8 5 7 6 6 7 5 8 4 9 3 10 2 11 1 12 13 13
REMARK SMILES IDX 14 14 15 15 16 16 17 17 18 18 19 19 20 20 21 21 22 22 23 23
REMARK SMILES IDX 24 24
REMARK H PARENT
REMARK Flexibility Score: inf
ROOT
ATOM      1  C   UNL     1      -2.605   7.326  40.391  1.00  0.00     0.000 C 
ENDROOT
BRANCH   1   2
ATOM      2  C   UNL     1      -2.780   5.976  39.675  1.00  0.00     0.000 C 
BRANCH   2   3
ATOM      3  C   UNL     1      -2.683   4.781  40.637  1.00  0.00     0.000 C 
BRANCH   3   4
ATOM      4  C   UNL     1      -2.343   5.201  42.078  1.00  0.00    -0.000 C 
BRANCH   4   5
ATOM      5  C   UNL     1      -0.928   4.752  42.496  1.00  0.00    -0.000 C 
BRANCH   5   6
ATOM      6  C   UNL     1       0.085   5.906  42.599  1.00  0.00    -0.000 C 
BRANCH   6   7
ATOM      7  C   UNL     1       0.766   6.225  41.259  1.00  0.00    -0.000 C 
BRANCH   7   8
ATOM      8  C   UNL     1       1.095   4.962  40.447  1.00  0.00    -0.000 C 
BRANCH   8   9
ATOM      9  C   UNL     1       0.695   5.088  38.968  1.00  0.00    -0.000 C 
BRANCH   9  10
ATOM     10  C   UNL     1       1.668   4.309  38.070  1.00  0.00    -0.000 C 
BRANCH  10  11
ATOM     11  C   UNL     1       3.033   4.078  38.738  1.00  0.00    -0.003 C 
ATOM     12  C   UNL     1       4.130   4.977  38.169  1.00  0.00     0.004 C 
ENDBRANCH  10  11
ENDBRANCH   9  10
ENDBRANCH   8   9
ENDBRANCH   7   8
ENDBRANCH   6   7
ENDBRANCH   5   6
ENDBRANCH   4   5
ENDBRANCH   3   4
ENDBRANCH   2   3
ENDBRANCH   1   2
BRANCH   1  13
ATOM     13  C   UNL     1      -2.343   8.491  39.419  1.00  0.00     0.000 C 
BRANCH  13  14
ATOM     14  C   UNL     1      -0.923   8.541  38.825  1.00  0.00     0.000 C 
BRANCH  14  15
ATOM     15  C   UNL     1      -0.199   9.867  39.117  1.00  0.00     0.000 C 
BRANCH  15  16
ATOM     16  C   UNL     1       1.053   9.680  39.988  1.00  0.00     0.000 C 
BRANCH  16  17
ATOM     17  C   UNL     1       2.207   9.010  39.222  1.00  0.00     0.000 C 
BRANCH  17  18
ATOM     18  C   UNL     1       2.589   9.765  37.935  1.00  0.00     0.000 C 
BRANCH  18  19
ATOM     19  C   UNL     1       2.047   9.152  36.627  1.00  0.00     0.000 C 
BRANCH  19  20
ATOM     20  C   UNL     1       1.954   7.612  36.612  1.00  0.00     0.006 C 
BRANCH  20  21
ATOM     21  C   UNL     1       1.004   7.044  35.546  1.00  0.00     0.053 C 
BRANCH  21  22
ATOM     22  C   UNL     1       1.749   6.452  34.390  1.00  0.00     0.041 C 
ATOM     23  O   UNL     1       2.676   5.623  34.591  1.00  0.00    -0.550 OA
ATOM     24  O   UNL     1       1.442   6.838  33.091  1.00  0.00    -0.550 OA
ENDBRANCH  21  22
ENDBRANCH  20  21
ENDBRANCH  19  20
ENDBRANCH  18  19
ENDBRANCH  17  18
ENDBRANCH  16  17
ENDBRANCH  15  16
ENDBRANCH  14  15
ENDBRANCH  13  14
ENDBRANCH   1  13
TORSDOF 20
ENDMDL
MODEL 5
REMARK VINA RESULT:    -3.475      2.951      5.217
REMARK INTER + INTRA:         -10.772
REMARK INTER:                  -6.905
REMARK INTRA:                  -3.866
REMARK UNBOUND:                -3.233
REMARK SMILES CCCCCCCCCCCCCCCCCCCCCC(=O)[O-]
REMARK SMILES IDX 12 1 11 2 10 3 9 4 8 5 7 6 6 7 5 8 4 9 3 10 2 11 1 12 13 13
REMARK SMILES IDX 14 14 15 15 16 16 17 17 18 18 19 19 20 20 21 21 22 22 23 23
REMARK SMILES IDX 24 24
REMARK H PARENT
REMARK Flexibility Score: inf
ROOT
ATOM      1  C   UNL     1       0.633  10.082  37.671  1.00  0.00     0.000 C 
ENDROOT
BRANCH   1   2
ATOM      2  C   UNL     1      -0.711   9.455  37.263  1.00  0.00     0.000 C 
BRANCH   2   3
ATOM      3  C   UNL     1      -1.828   9.743  38.279  1.00  0.00     0.000 C 
BRANCH   3   4
ATOM      4  C   UNL     1      -2.168   8.524  39.155  1.00  0.00    -0.000 C 
BRANCH   4   5
ATOM      5  C   UNL     1      -1.338   7.282  38.768  1.00  0.00    -0.000 C 
BRANCH   5   6
ATOM      6  C   UNL     1      -2.091   5.952  38.948  1.00  0.00    -0.000 C 
BRANCH   6   7
ATOM      7  C   UNL     1      -2.553   5.718  40.395  1.00  0.00    -0.000 C 
BRANCH   7   8
ATOM      8  C   UNL     1      -1.386   5.715  41.395  1.00  0.00    -0.000 C 
BRANCH   8   9
ATOM      9  C   UNL     1      -1.636   6.636  42.599  1.00  0.00    -0.000 C 
BRANCH   9  10
ATOM     10  C   UNL     1      -0.874   7.961  42.442  1.00  0.00    -0.000 C 
BRANCH  10  11
ATOM     11  C   UNL     1       0.630   7.752  42.206  1.00  0.00    -0.003 C 
ATOM     12  C   UNL     1       1.173   8.601  41.056  1.00  0.00     0.004 C 
ENDBRANCH  10  11
ENDBRANCH   9  10
ENDBRANCH   8   9
ENDBRANCH   7   8
ENDBRANCH   6   7
ENDBRANCH   5   6
ENDBRANCH   4   5
ENDBRANCH   3   4
ENDBRANCH   2   3
ENDBRANCH   1   2
BRANCH   1  13
ATOM     13  C   UNL     1       1.832   9.476  36.918  1.00  0.00     0.000 C 
BRANCH  13  14
ATOM     14  C   UNL     1       1.492   8.291  35.993  1.00  0.00     0.000 C 
BRANCH  14  15
ATOM     15  C   UNL     1       1.676   6.926  36.677  1.00  0.00     0.000 C 
BRANCH  15  16
ATOM     16  C   UNL     1       2.622   6.989  37.887  1.00  0.00     0.000 C 
BRANCH  16  17
ATOM     17  C   UNL     1       2.826   5.613  38.544  1.00  0.00     0.000 C 
BRANCH  17  18
ATOM     18  C   UNL     1       1.677   5.227  39.495  1.00  0.00     0.000 C 
BRANCH  18  19
ATOM     19  C   UNL     1       0.944   3.916  39.143  1.00  0.00     0.000 C 
BRANCH  19  20
ATOM     20  C   UNL     1       1.165   3.405  37.705  1.00  0.00     0.006 C 
BRANCH  20  21
ATOM     21  C   UNL     1      -0.035   3.611  36.767  1.00  0.00     0.053 C 
BRANCH  21  22
ATOM     22  C   UNL     1       0.238   3.097  35.387  1.00  0.00     0.041 C 
ATOM     23  O   UNL     1       1.378   2.650  35.092  1.00  0.00    -0.550 OA
ATOM     24  O   UNL     1      -0.755   3.141  34.417  1.00  0.00    -0.550 OA
ENDBRANCH  21  22
ENDBRANCH  20  21
ENDBRANCH  19  20
ENDBRANCH  18  19
ENDBRANCH  17  18
ENDBRANCH  16  17
ENDBRANCH  15  16
ENDBRANCH  14  15
ENDBRANCH  13  14
ENDBRANCH   1  13
TORSDOF 20
ENDMDL
MODEL 6
REMARK VINA RESULT:    -3.460      2.672      5.216
REMARK INTER + INTRA:         -10.738
REMARK INTER:                  -6.809
REMARK INTRA:                  -3.929
REMARK UNBOUND:                -3.233
REMARK SMILES CCCCCCCCCCCCCCCCCCCCCC(=O)[O-]
REMARK SMILES IDX 12 1 11 2 10 3 9 4 8 5 7 6 6 7 5 8 4 9 3 10 2 11 1 12 13 13
REMARK SMILES IDX 14 14 15 15 16 16 17 17 18 18 19 19 20 20 21 21 22 22 23 23
REMARK SMILES IDX 24 24
REMARK H PARENT
REMARK Flexibility Score: inf
ROOT
ATOM      1  C   UNL     1      -1.262   8.203  40.231  1.00  0.00     0.000 C 
ENDROOT
BRANCH   1   2
ATOM      2  C   UNL     1      -2.648   7.685  39.810  1.00  0.00     0.000 C 
BRANCH   2   3
ATOM      3  C   UNL     1      -2.728   6.150  39.807  1.00  0.00     0.000 C 
BRANCH   3   4
ATOM      4  C   UNL     1      -1.348   5.480  39.933  1.00  0.00    -0.000 C 
BRANCH   4   5
ATOM      5  C   UNL     1      -1.078   4.486  38.785  1.00  0.00    -0.000 C 
BRANCH   5   6
ATOM      6  C   UNL     1      -1.672   4.923  37.434  1.00  0.00    -0.000 C 
BRANCH   6   7
ATOM      7  C   UNL     1      -0.604   5.114  36.345  1.00  0.00    -0.000 C 
BRANCH   7   8
ATOM      8  C   UNL     1       0.264   3.862  36.141  1.00  0.00    -0.000 C 
BRANCH   8   9
ATOM      9  C   UNL     1       1.466   4.120  35.219  1.00  0.00    -0.000 C 
BRANCH   9  10
ATOM     10  C   UNL     1       1.767   5.623  35.119  1.00  0.00    -0.000 C 
BRANCH  10  11
ATOM     11  C   UNL     1       1.726   6.139  33.672  1.00  0.00    -0.003 C 
ATOM     12  C   UNL     1       1.550   7.655  33.588  1.00  0.00     0.004 C 
ENDBRANCH  10  11
ENDBRANCH   9  10
ENDBRANCH   8   9
ENDBRANCH   7   8
ENDBRANCH   6   7
ENDBRANCH   5   6
ENDBRANCH   4   5
ENDBRANCH   3   4
ENDBRANCH   2   3
ENDBRANCH   1   2
BRANCH   1  13
ATOM     13  C   UNL     1      -0.738   9.326  39.318  1.00  0.00     0.000 C 
BRANCH  13  14
ATOM     14  C   UNL     1      -0.951   9.096  37.809  1.00  0.00     0.000 C 
BRANCH  14  15
ATOM     15  C   UNL     1       0.162   8.248  37.171  1.00  0.00     0.000 C 
BRANCH  15  16
ATOM     16  C   UNL     1       1.539   8.927  37.236  1.00  0.00     0.000 C 
BRANCH  16  17
ATOM     17  C   UNL     1       2.568   8.093  38.017  1.00  0.00     0.000 C 
BRANCH  17  18
ATOM     18  C   UNL     1       1.915   7.058  38.953  1.00  0.00     0.000 C 
BRANCH  18  19
ATOM     19  C   UNL     1       2.288   5.588  38.670  1.00  0.00     0.000 C 
BRANCH  19  20
ATOM     20  C   UNL     1       3.754   5.350  38.256  1.00  0.00     0.006 C 
BRANCH  20  21
ATOM     21  C   UNL     1       4.098   3.883  37.954  1.00  0.00     0.053 C 
BRANCH  21  22
ATOM     22  C   UNL     1       5.171   3.761  36.916  1.00  0.00     0.041 C 
ATOM     23  O   UNL     1       6.227   3.122  37.169  1.00  0.00    -0.550 OA
ATOM     24  O   UNL     1       5.021   4.379  35.681  1.00  0.00    -0.550 OA
ENDBRANCH  21  22
ENDBRANCH  20  21
ENDBRANCH  19  20
ENDBRANCH  18  19
ENDBRANCH  17  18
ENDBRANCH  16  17
ENDBRANCH  15  16
ENDBRANCH  14  15
ENDBRANCH  13  14
ENDBRANCH   1  13
TORSDOF 20
ENDMDL
MODEL 7
REMARK VINA RESULT:    -3.420      5.551      8.056
REMARK INTER + INTRA:         -10.652
REMARK INTER:                  -7.919
REMARK INTRA:                  -2.734
REMARK UNBOUND:                -3.233
REMARK SMILES CCCCCCCCCCCCCCCCCCCCCC(=O)[O-]
REMARK SMILES IDX 12 1 11 2 10 3 9 4 8 5 7 6 6 7 5 8 4 9 3 10 2 11 1 12 13 13
REMARK SMILES IDX 14 14 15 15 16 16 17 17 18 18 19 19 20 20 21 21 22 22 23 23
REMARK SMILES IDX 24 24
REMARK H PARENT
REMARK Flexibility Score: inf
ROOT
ATOM      1  C   UNL     1      -1.494   5.613  38.662  1.00  0.00     0.000 C 
ENDROOT
BRANCH   1   2
ATOM      2  C   UNL     1      -2.761   6.099  39.387  1.00  0.00     0.000 C 
BRANCH   2   3
ATOM      3  C   UNL     1      -2.611   7.524  39.944  1.00  0.00     0.000 C 
BRANCH   3   4
ATOM      4  C   UNL     1      -1.141   7.943  40.125  1.00  0.00    -0.000 C 
BRANCH   4   5
ATOM      5  C   UNL     1      -0.816   9.256  39.384  1.00  0.00    -0.000 C 
BRANCH   5   6
ATOM      6  C   UNL     1      -1.763   9.557  38.209  1.00  0.00    -0.000 C 
BRANCH   6   7
ATOM      7  C   UNL     1      -1.015   9.923  36.917  1.00  0.00    -0.000 C 
BRANCH   7   8
ATOM      8  C   UNL     1       0.496  10.094  37.137  1.00  0.00    -0.000 C 
BRANCH   8   9
ATOM      9  C   UNL     1       1.328   9.062  36.358  1.00  0.00    -0.000 C 
BRANCH   9  10
ATOM     10  C   UNL     1       0.707   7.661  36.472  1.00  0.00    -0.000 C 
BRANCH  10  11
ATOM     11  C   UNL     1       1.706   6.614  36.990  1.00  0.00    -0.003 C 
ATOM     12  C   UNL     1       2.074   6.820  38.459  1.00  0.00     0.004 C 
ENDBRANCH  10  11
ENDBRANCH   9  10
ENDBRANCH   8   9
ENDBRANCH   7   8
ENDBRANCH   6   7
ENDBRANCH   5   6
ENDBRANCH   4   5
ENDBRANCH   3   4
ENDBRANCH   2   3
ENDBRANCH   1   2
BRANCH   1  13
ATOM     13  C   UNL     1      -0.989   4.254  39.182  1.00  0.00     0.000 C 
BRANCH  13  14
ATOM     14  C   UNL     1      -0.213   4.310  40.512  1.00  0.00     0.000 C 
BRANCH  14  15
ATOM     15  C   UNL     1      -0.981   3.668  41.680  1.00  0.00     0.000 C 
BRANCH  15  16
ATOM     16  C   UNL     1      -2.294   3.005  41.236  1.00  0.00     0.000 C 
BRANCH  16  17
ATOM     17  C   UNL     1      -3.470   3.350  42.166  1.00  0.00     0.000 C 
BRANCH  17  18
ATOM     18  C   UNL     1      -4.259   2.108  42.621  1.00  0.00     0.000 C 
BRANCH  18  19
ATOM     19  C   UNL     1      -5.654   1.944  41.981  1.00  0.00     0.000 C 
BRANCH  19  20
ATOM     20  C   UNL     1      -6.224   0.511  42.008  1.00  0.00     0.006 C 
BRANCH  20  21
ATOM     21  C   UNL     1      -5.948  -0.305  40.735  1.00  0.00     0.053 C 
BRANCH  21  22
ATOM     22  C   UNL     1      -5.012  -1.445  40.994  1.00  0.00     0.041 C 
ATOM     23  O   UNL     1      -3.797  -1.223  41.244  1.00  0.00    -0.550 OA
ATOM     24  O   UNL     1      -5.472  -2.754  40.930  1.00  0.00    -0.550 OA
ENDBRANCH  21  22
ENDBRANCH  20  21
ENDBRANCH  19  20
ENDBRANCH  18  19
ENDBRANCH  17  18
ENDBRANCH  16  17
ENDBRANCH  15  16
ENDBRANCH  14  15
ENDBRANCH  13  14
ENDBRANCH   1  13
TORSDOF 20
ENDMDL
MODEL 8
REMARK VINA RESULT:    -3.343      2.387      4.024
REMARK INTER + INTRA:         -10.485
REMARK INTER:                  -7.176
REMARK INTRA:                  -3.309
REMARK UNBOUND:                -3.233
REMARK SMILES CCCCCCCCCCCCCCCCCCCCCC(=O)[O-]
REMARK SMILES IDX 12 1 11 2 10 3 9 4 8 5 7 6 6 7 5 8 4 9 3 10 2 11 1 12 13 13
REMARK SMILES IDX 14 14 15 15 16 16 17 17 18 18 19 19 20 20 21 21 22 22 23 23
REMARK SMILES IDX 24 24
REMARK H PARENT
REMARK Flexibility Score: inf
ROOT
ATOM      1  C   UNL     1      -1.226   6.360  37.660  1.00  0.00     0.000 C 
ENDROOT
BRANCH   1   2
ATOM      2  C   UNL     1      -2.206   5.354  38.287  1.00  0.00     0.000 C 
BRANCH   2   3
ATOM      3  C   UNL     1      -2.576   5.715  39.734  1.00  0.00     0.000 C 
BRANCH   3   4
ATOM      4  C   UNL     1      -2.433   7.219  40.029  1.00  0.00    -0.000 C 
BRANCH   4   5
ATOM      5  C   UNL     1      -2.036   7.487  41.496  1.00  0.00    -0.000 C 
BRANCH   5   6
ATOM      6  C   UNL     1      -0.651   8.138  41.655  1.00  0.00    -0.000 C 
BRANCH   6   7
ATOM      7  C   UNL     1       0.465   7.348  40.953  1.00  0.00    -0.000 C 
BRANCH   7   8
ATOM      8  C   UNL     1       1.409   8.251  40.142  1.00  0.00    -0.000 C 
BRANCH   8   9
ATOM      9  C   UNL     1       0.850   9.669  39.949  1.00  0.00    -0.000 C 
BRANCH   9  10
ATOM     10  C   UNL     1       0.464   9.911  38.482  1.00  0.00    -0.000 C 
BRANCH  10  11
ATOM     11  C   UNL     1      -1.047  10.125  38.296  1.00  0.00    -0.003 C 
ATOM     12  C   UNL     1      -1.496   9.947  36.846  1.00  0.00     0.004 C 
ENDBRANCH  10  11
ENDBRANCH   9  10
ENDBRANCH   8   9
ENDBRANCH   7   8
ENDBRANCH   6   7
ENDBRANCH   5   6
ENDBRANCH   4   5
ENDBRANCH   3   4
ENDBRANCH   2   3
ENDBRANCH   1   2
BRANCH   1  13
ATOM     13  C   UNL     1       0.205   5.805  37.532  1.00  0.00     0.000 C 
BRANCH  13  14
ATOM     14  C   UNL     1       1.196   6.717  36.784  1.00  0.00     0.000 C 
BRANCH  14  15
ATOM     15  C   UNL     1       2.651   6.229  36.885  1.00  0.00     0.000 C 
BRANCH  15  16
ATOM     16  C   UNL     1       2.973   5.595  38.248  1.00  0.00     0.000 C 
BRANCH  16  17
ATOM     17  C   UNL     1       3.957   4.418  38.130  1.00  0.00     0.000 C 
BRANCH  17  18
ATOM     18  C   UNL     1       4.737   4.421  36.802  1.00  0.00     0.000 C 
BRANCH  18  19
ATOM     19  C   UNL     1       5.110   3.027  36.255  1.00  0.00     0.000 C 
BRANCH  19  20
ATOM     20  C   UNL     1       4.577   2.710  34.843  1.00  0.00     0.006 C 
BRANCH  20  21
ATOM     21  C   UNL     1       4.378   3.944  33.949  1.00  0.00     0.053 C 
BRANCH  21  22
ATOM     22  C   UNL     1       2.994   4.006  33.381  1.00  0.00     0.041 C 
ATOM     23  O   UNL     1       2.819   3.989  32.134  1.00  0.00    -0.550 OA
ATOM     24  O   UNL     1       1.897   4.114  34.227  1.00  0.00    -0.550 OA
ENDBRANCH  21  22
ENDBRANCH  20  21
ENDBRANCH  19  20
ENDBRANCH  18  19
ENDBRANCH  17  18
ENDBRANCH  16  17
ENDBRANCH  15  16
ENDBRANCH  14  15
ENDBRANCH  13  14
ENDBRANCH   1  13
TORSDOF 20
ENDMDL
MODEL 9
REMARK VINA RESULT:    -3.333      3.381      5.258
REMARK INTER + INTRA:         -10.463
REMARK INTER:                  -7.050
REMARK INTRA:                  -3.413
REMARK UNBOUND:                -3.233
REMARK SMILES CCCCCCCCCCCCCCCCCCCCCC(=O)[O-]
REMARK SMILES IDX 12 1 11 2 10 3 9 4 8 5 7 6 6 7 5 8 4 9 3 10 2 11 1 12 13 13
REMARK SMILES IDX 14 14 15 15 16 16 17 17 18 18 19 19 20 20 21 21 22 22 23 23
REMARK SMILES IDX 24 24
REMARK H PARENT
REMARK Flexibility Score: inf
ROOT
ATOM      1  C   UNL     1       2.147   8.379  37.463  1.00  0.00     0.000 C 
ENDROOT
BRANCH   1   2
ATOM      2  C   UNL     1       2.249   9.845  37.918  1.00  0.00     0.000 C 
BRANCH   2   3
ATOM      3  C   UNL     1       1.798  10.044  39.374  1.00  0.00     0.000 C 
BRANCH   3   4
ATOM      4  C   UNL     1       1.526   8.715  40.101  1.00  0.00    -0.000 C 
BRANCH   4   5
ATOM      5  C   UNL     1       0.123   8.680  40.741  1.00  0.00    -0.000 C 
BRANCH   5   6
ATOM      6  C   UNL     1      -1.027   8.717  39.719  1.00  0.00    -0.000 C 
BRANCH   6   7
ATOM      7  C   UNL     1      -2.215   7.830  40.124  1.00  0.00    -0.000 C 
BRANCH   7   8
ATOM      8  C   UNL     1      -2.204   7.472  41.618  1.00  0.00    -0.000 C 
BRANCH   8   9
ATOM      9  C   UNL     1      -2.104   5.958  41.863  1.00  0.00    -0.000 C 
BRANCH   9  10
ATOM     10  C   UNL     1      -1.599   5.233  40.607  1.00  0.00    -0.000 C 
BRANCH  10  11
ATOM     11  C   UNL     1      -0.084   4.976  40.642  1.00  0.00    -0.003 C 
ATOM     12  C   UNL     1       0.501   5.070  42.051  1.00  0.00     0.004 C 
ENDBRANCH  10  11
ENDBRANCH   9  10
ENDBRANCH   8   9
ENDBRANCH   7   8
ENDBRANCH   6   7
ENDBRANCH   5   6
ENDBRANCH   4   5
ENDBRANCH   3   4
ENDBRANCH   2   3
ENDBRANCH   1   2
BRANCH   1  13
ATOM     13  C   UNL     1       0.910   8.107  36.587  1.00  0.00     0.000 C 
BRANCH  13  14
ATOM     14  C   UNL     1       0.543   6.620  36.418  1.00  0.00     0.000 C 
BRANCH  14  15
ATOM     15  C   UNL     1      -0.749   6.235  37.159  1.00  0.00     0.000 C 
BRANCH  15  16
ATOM     16  C   UNL     1      -1.209   4.803  36.846  1.00  0.00     0.000 C 
BRANCH  16  17
ATOM     17  C   UNL     1      -0.061   3.916  36.334  1.00  0.00     0.000 C 
BRANCH  17  18
ATOM     18  C   UNL     1       0.677   3.178  37.467  1.00  0.00     0.000 C 
BRANCH  18  19
ATOM     19  C   UNL     1       2.175   2.908  37.210  1.00  0.00     0.000 C 
BRANCH  19  20
ATOM     20  C   UNL     1       2.783   3.668  36.013  1.00  0.00     0.006 C 
BRANCH  20  21
ATOM     21  C   UNL     1       3.710   4.829  36.404  1.00  0.00     0.053 C 
BRANCH  21  22
ATOM     22  C   UNL     1       4.728   4.416  37.422  1.00  0.00     0.041 C 
ATOM     23  O   UNL     1       4.665   4.860  38.599  1.00  0.00    -0.550 OA
ATOM     24  O   UNL     1       5.765   3.563  37.064  1.00  0.00    -0.550 OA
ENDBRANCH  21  22
ENDBRANCH  20  21
ENDBRANCH  19  20
ENDBRANCH  18  19
ENDBRANCH  17  18
ENDBRANCH  16  17
ENDBRANCH  15  16
ENDBRANCH  14  15
ENDBRANCH  13  14
ENDBRANCH   1  13
TORSDOF 20
ENDMDL
