MODEL 1
REMARK VINA RESULT:    -3.482      0.000      0.000
REMARK INTER + INTRA:          -7.226
REMARK INTER:                  -5.924
REMARK INTRA:                  -1.302
REMARK UNBOUND:                -1.302
REMARK SMILES CCCCCCCCCCCCCC(=O)[O-]
REMARK SMILES IDX 8 1 9 2 10 3 11 4 12 5 13 6 14 7 15 8 16 9 7 10 6 11 5 12
REMARK SMILES IDX 4 13 3 14 2 15 1 16
REMARK H PARENT
REMARK Flexibility Score: inf
ROOT
ATOM      1  C   UNL     1      60.348  34.163  58.520  1.00  0.00     0.000 C 
ENDROOT
BRANCH   1   2
ATOM      2  C   UNL     1      61.761  33.571  58.392  1.00  0.00     0.000 C 
BRANCH   2   3
ATOM      3  C   UNL     1      61.995  32.386  59.345  1.00  0.00     0.000 C 
BRANCH   3   4
ATOM      4  C   UNL     1      60.737  32.018  60.148  1.00  0.00     0.000 C 
BRANCH   4   5
ATOM      5  C   UNL     1      61.063  31.496  61.559  1.00  0.00     0.006 C 
BRANCH   5   6
ATOM      6  C   UNL     1      61.082  29.963  61.619  1.00  0.00     0.053 C 
BRANCH   6   7
ATOM      7  C   UNL     1      62.471  29.431  61.795  1.00  0.00     0.041 C 
ATOM      8  O   UNL     1      63.440  30.223  61.947  1.00  0.00    -0.550 OA
ATOM      9  O   UNL     1      62.701  28.062  61.764  1.00  0.00    -0.550 OA
ENDBRANCH   6   7
ENDBRANCH   5   6
ENDBRANCH   4   5
ENDBRANCH   3   4
ENDBRANCH   2   3
ENDBRANCH   1   2
BRANCH   1  10
ATOM     10  C   UNL     1      60.355  35.598  59.077  1.00  0.00     0.000 C 
BRANCH  10  11
ATOM     11  C   UNL     1      60.626  35.639  60.590  1.00  0.00    -0.000 C 
BRANCH  11  12
ATOM     12  C   UNL     1      61.406  36.894  61.015  1.00  0.00    -0.000 C 
BRANCH  12  13
ATOM     13  C   UNL     1      62.883  36.599  61.329  1.00  0.00    -0.000 C 
BRANCH  13  14
ATOM     14  C   UNL     1      63.233  35.095  61.310  1.00  0.00    -0.000 C 
BRANCH  14  15
ATOM     15  C   UNL     1      64.646  34.822  61.848  1.00  0.00    -0.003 C 
ATOM     16  C   UNL     1      65.529  36.060  61.731  1.00  0.00     0.004 C 
ENDBRANCH  14  15
ENDBRANCH  13  14
ENDBRANCH  12  13
ENDBRANCH  11  12
ENDBRANCH  10  11
ENDBRANCH   1  10
TORSDOF 12
ENDMDL
MODEL 2
REMARK VINA RESULT:    -3.471      2.756      5.252
REMARK INTER + INTRA:          -7.207
REMARK INTER:                  -5.301
REMARK INTRA:                  -1.907
REMARK UNBOUND:                -1.302
REMARK SMILES CCCCCCCCCCCCCC(=O)[O-]
REMARK SMILES IDX 8 1 9 2 10 3 11 4 12 5 13 6 14 7 15 8 16 9 7 10 6 11 5 12
REMARK SMILES IDX 4 13 3 14 2 15 1 16
REMARK H PARENT
REMARK Flexibility Score: inf
ROOT
ATOM      1  C   UNL     1      60.799  30.954  59.672  1.00  0.00     0.000 C 
ENDROOT
BRANCH   1   2
ATOM      2  C   UNL     1      60.325  32.346  59.222  1.00  0.00     0.000 C 
BRANCH   2   3
ATOM      3  C   UNL     1      61.448  33.396  59.266  1.00  0.00     0.000 C 
BRANCH   3   4
ATOM      4  C   UNL     1      61.515  34.133  60.613  1.00  0.00     0.000 C 
BRANCH   4   5
ATOM      5  C   UNL     1      62.030  35.577  60.476  1.00  0.00     0.006 C 
BRANCH   5   6
ATOM      6  C   UNL     1      63.125  35.900  61.501  1.00  0.00     0.053 C 
BRANCH   6   7
ATOM      7  C   UNL     1      64.496  35.731  60.922  1.00  0.00     0.041 C 
ATOM      8  O   UNL     1      64.646  35.585  59.679  1.00  0.00    -0.550 OA
ATOM      9  O   UNL     1      65.606  35.707  61.756  1.00  0.00    -0.550 OA
ENDBRANCH   6   7
ENDBRANCH   5   6
ENDBRANCH   4   5
ENDBRANCH   3   4
ENDBRANCH   2   3
ENDBRANCH   1   2
BRANCH   1  10
ATOM     10  C   UNL     1      60.415  30.639  61.129  1.00  0.00     0.000 C 
BRANCH  10  11
ATOM     11  C   UNL     1      61.624  30.689  62.078  1.00  0.00    -0.000 C 
BRANCH  11  12
ATOM     12  C   UNL     1      62.628  29.556  61.815  1.00  0.00    -0.000 C 
BRANCH  12  13
ATOM     13  C   UNL     1      64.028  30.074  61.445  1.00  0.00    -0.000 C 
BRANCH  13  14
ATOM     14  C   UNL     1      64.116  31.613  61.353  1.00  0.00    -0.000 C 
BRANCH  14  15
ATOM     15  C   UNL     1      64.763  32.079  60.039  1.00  0.00    -0.003 C 
ATOM     16  C   UNL     1      64.435  31.125  58.895  1.00  0.00     0.004 C 
ENDBRANCH  14  15
ENDBRANCH  13  14
ENDBRANCH  12  13
ENDBRANCH  11  12
ENDBRANCH  10  11
ENDBRANCH   1  10
TORSDOF 12
ENDMDL
MODEL 3
REMARK VINA RESULT:    -3.464      2.562      5.188
REMARK INTER + INTRA:          -7.195
REMARK INTER:                  -5.540
REMARK INTRA:                  -1.655
REMARK UNBOUND:                -1.302
REMARK SMILES CCCCCCCCCCCCCC(=O)[O-]
REMARK SMILES IDX 8 1 9 2 10 3 11 4 12 5 13 6 14 7 15 8 16 9 7 10 6 11 5 12
REMARK SMILES IDX 4 13 3 14 2 15 1 16
REMARK H PARENT
REMARK Flexibility Score: inf
ROOT
ATOM      1  C   UNL     1      61.923  29.261  61.156  1.00  0.00     0.000 C 
ENDROOT
BRANCH   1   2
ATOM      2  C   UNL     1      63.425  29.217  60.828  1.00  0.00     0.000 C 
BRANCH   2   3
ATOM      3  C   UNL     1      64.223  30.307  61.563  1.00  0.00     0.000 C 
BRANCH   3   4
ATOM      4  C   UNL     1      64.667  31.444  60.629  1.00  0.00     0.000 C 
BRANCH   4   5
ATOM      5  C   UNL     1      64.272  32.835  61.156  1.00  0.00     0.006 C 
BRANCH   5   6
ATOM      6  C   UNL     1      64.672  33.956  60.188  1.00  0.00     0.053 C 
BRANCH   6   7
ATOM      7  C   UNL     1      64.813  35.272  60.890  1.00  0.00     0.041 C 
ATOM      8  O   UNL     1      64.970  35.312  62.139  1.00  0.00    -0.550 OA
ATOM      9  O   UNL     1      64.744  36.457  60.168  1.00  0.00    -0.550 OA
ENDBRANCH   6   7
ENDBRANCH   5   6
ENDBRANCH   4   5
ENDBRANCH   3   4
ENDBRANCH   2   3
ENDBRANCH   1   2
BRANCH   1  10
ATOM     10  C   UNL     1      61.574  30.342  62.195  1.00  0.00     0.000 C 
BRANCH  10  11
ATOM     11  C   UNL     1      60.751  31.492  61.592  1.00  0.00    -0.000 C 
BRANCH  11  12
ATOM     12  C   UNL     1      60.780  31.496  60.055  1.00  0.00    -0.000 C 
BRANCH  12  13
ATOM     13  C   UNL     1      60.892  32.912  59.464  1.00  0.00    -0.000 C 
BRANCH  13  14
ATOM     14  C   UNL     1      61.123  34.010  60.525  1.00  0.00    -0.000 C 
BRANCH  14  15
ATOM     15  C   UNL     1      61.068  35.421  59.919  1.00  0.00    -0.003 C 
ATOM     16  C   UNL     1      61.292  36.487  60.987  1.00  0.00     0.004 C 
ENDBRANCH  14  15
ENDBRANCH  13  14
ENDBRANCH  12  13
ENDBRANCH  11  12
ENDBRANCH  10  11
ENDBRANCH   1  10
TORSDOF 12
ENDMDL
MODEL 4
REMARK VINA RESULT:    -3.420      1.725      2.714
REMARK INTER + INTRA:          -7.121
REMARK INTER:                  -5.591
REMARK INTRA:                  -1.530
REMARK UNBOUND:                -1.302
REMARK SMILES CCCCCCCCCCCCCC(=O)[O-]
REMARK SMILES IDX 8 1 9 2 10 3 11 4 12 5 13 6 14 7 15 8 16 9 7 10 6 11 5 12
REMARK SMILES IDX 4 13 3 14 2 15 1 16
REMARK H PARENT
REMARK Flexibility Score: inf
ROOT
ATOM      1  C   UNL     1      62.935  31.480  59.017  1.00  0.00     0.000 C 
ENDROOT
BRANCH   1   2
ATOM      2  C   UNL     1      61.490  31.414  58.494  1.00  0.00     0.000 C 
BRANCH   2   3
ATOM      3  C   UNL     1      60.450  31.678  59.595  1.00  0.00     0.000 C 
BRANCH   3   4
ATOM      4  C   UNL     1      61.095  32.049  60.940  1.00  0.00     0.000 C 
BRANCH   4   5
ATOM      5  C   UNL     1      60.897  30.965  62.014  1.00  0.00     0.006 C 
BRANCH   5   6
ATOM      6  C   UNL     1      62.129  30.063  62.161  1.00  0.00     0.053 C 
BRANCH   6   7
ATOM      7  C   UNL     1      61.877  28.686  61.626  1.00  0.00     0.041 C 
ATOM      8  O   UNL     1      62.746  27.784  61.762  1.00  0.00    -0.550 OA
ATOM      9  O   UNL     1      60.695  28.407  60.952  1.00  0.00    -0.550 OA
ENDBRANCH   6   7
ENDBRANCH   5   6
ENDBRANCH   4   5
ENDBRANCH   3   4
ENDBRANCH   2   3
ENDBRANCH   1   2
BRANCH   1  10
ATOM     10  C   UNL     1      63.806  32.477  58.230  1.00  0.00     0.000 C 
BRANCH  10  11
ATOM     11  C   UNL     1      64.395  33.578  59.126  1.00  0.00    -0.000 C 
BRANCH  11  12
ATOM     12  C   UNL     1      64.526  33.136  60.593  1.00  0.00    -0.000 C 
BRANCH  12  13
ATOM     13  C   UNL     1      64.204  34.265  61.587  1.00  0.00    -0.000 C 
BRANCH  13  14
ATOM     14  C   UNL     1      63.056  35.190  61.124  1.00  0.00    -0.000 C 
BRANCH  14  15
ATOM     15  C   UNL     1      63.291  36.653  61.532  1.00  0.00    -0.003 C 
ATOM     16  C   UNL     1      64.673  36.837  62.150  1.00  0.00     0.004 C 
ENDBRANCH  14  15
ENDBRANCH  13  14
ENDBRANCH  12  13
ENDBRANCH  11  12
ENDBRANCH  10  11
ENDBRANCH   1  10
TORSDOF 12
ENDMDL
MODEL 5
REMARK VINA RESULT:    -3.407      2.941      6.096
REMARK INTER + INTRA:          -7.099
REMARK INTER:                  -5.411
REMARK INTRA:                  -1.688
REMARK UNBOUND:                -1.302
REMARK SMILES CCCCCCCCCCCCCC(=O)[O-]
REMARK SMILES IDX 8 1 9 2 10 3 11 4 12 5 13 6 14 7 15 8 16 9 7 10 6 11 5 12
REMARK SMILES IDX 4 13 3 14 2 15 1 16
REMARK H PARENT
REMARK Flexibility Score: inf
ROOT
ATOM      1  C   UNL     1      64.368  31.528  59.870  1.00  0.00     0.000 C 
ENDROOT
BRANCH   1   2
ATOM      2  C   UNL     1      64.512  33.059  59.859  1.00  0.00     0.000 C 
BRANCH   2   3
ATOM      3  C   UNL     1      64.196  33.693  61.224  1.00  0.00     0.000 C 
BRANCH   3   4
ATOM      4  C   UNL     1      64.823  35.087  61.387  1.00  0.00     0.000 C 
BRANCH   4   5
ATOM      5  C   UNL     1      63.771  36.190  61.603  1.00  0.00     0.006 C 
BRANCH   5   6
ATOM      6  C   UNL     1      62.358  35.722  61.234  1.00  0.00     0.053 C 
BRANCH   6   7
ATOM      7  C   UNL     1      61.913  36.284  59.918  1.00  0.00     0.041 C 
ATOM      8  O   UNL     1      62.552  36.018  58.865  1.00  0.00    -0.550 OA
ATOM      9  O   UNL     1      60.809  37.125  59.858  1.00  0.00    -0.550 OA
ENDBRANCH   6   7
ENDBRANCH   5   6
ENDBRANCH   4   5
ENDBRANCH   3   4
ENDBRANCH   2   3
ENDBRANCH   1   2
BRANCH   1  10
ATOM     10  C   UNL     1      64.670  30.914  61.250  1.00  0.00     0.000 C 
BRANCH  10  11
ATOM     11  C   UNL     1      63.990  29.549  61.446  1.00  0.00    -0.000 C 
BRANCH  11  12
ATOM     12  C   UNL     1      62.491  29.583  61.109  1.00  0.00    -0.000 C 
BRANCH  12  13
ATOM     13  C   UNL     1      61.669  30.392  62.128  1.00  0.00    -0.000 C 
BRANCH  13  14
ATOM     14  C   UNL     1      60.480  31.152  61.502  1.00  0.00    -0.000 C 
BRANCH  14  15
ATOM     15  C   UNL     1      60.905  32.500  60.901  1.00  0.00    -0.003 C 
ATOM     16  C   UNL     1      60.831  32.471  59.377  1.00  0.00     0.004 C 
ENDBRANCH  14  15
ENDBRANCH  13  14
ENDBRANCH  12  13
ENDBRANCH  11  12
ENDBRANCH  10  11
ENDBRANCH   1  10
TORSDOF 12
ENDMDL
MODEL 6
REMARK VINA RESULT:    -3.385     11.487     13.619
REMARK INTER + INTRA:          -7.062
REMARK INTER:                  -5.220
REMARK INTRA:                  -1.842
REMARK UNBOUND:                -1.302
REMARK SMILES CCCCCCCCCCCCCC(=O)[O-]
REMARK SMILES IDX 8 1 9 2 10 3 11 4 12 5 13 6 14 7 15 8 16 9 7 10 6 11 5 12
REMARK SMILES IDX 4 13 3 14 2 15 1 16
REMARK H PARENT
REMARK Flexibility Score: inf
ROOT
ATOM      1  C   UNL     1      57.672  26.472  52.449  1.00  0.00     0.000 C 
ENDROOT
BRANCH   1   2
ATOM      2  C   UNL     1      57.561  25.384  51.368  1.00  0.00     0.000 C 
BRANCH   2   3
ATOM      3  C   UNL     1      58.151  25.828  50.019  1.00  0.00     0.000 C 
BRANCH   3   4
ATOM      4  C   UNL     1      59.671  25.619  49.941  1.00  0.00     0.000 C 
BRANCH   4   5
ATOM      5  C   UNL     1      60.409  26.828  49.340  1.00  0.00     0.006 C 
BRANCH   5   6
ATOM      6  C   UNL     1      59.588  28.120  49.450  1.00  0.00     0.053 C 
BRANCH   6   7
ATOM      7  C   UNL     1      60.192  29.081  50.427  1.00  0.00     0.041 C 
ATOM      8  O   UNL     1      60.049  28.900  51.666  1.00  0.00    -0.550 OA
ATOM      9  O   UNL     1      60.888  30.192  49.970  1.00  0.00    -0.550 OA
ENDBRANCH   6   7
ENDBRANCH   5   6
ENDBRANCH   4   5
ENDBRANCH   3   4
ENDBRANCH   2   3
ENDBRANCH   1   2
BRANCH   1  10
ATOM     10  C   UNL     1      56.398  27.330  52.560  1.00  0.00     0.000 C 
BRANCH  10  11
ATOM     11  C   UNL     1      56.520  28.663  51.805  1.00  0.00    -0.000 C 
BRANCH  11  12
ATOM     12  C   UNL     1      55.913  28.599  50.394  1.00  0.00    -0.000 C 
BRANCH  12  13
ATOM     13  C   UNL     1      54.401  28.886  50.383  1.00  0.00    -0.000 C 
BRANCH  13  14
ATOM     14  C   UNL     1      53.542  27.670  49.976  1.00  0.00    -0.000 C 
BRANCH  14  15
ATOM     15  C   UNL     1      54.400  26.440  49.640  1.00  0.00    -0.003 C 
ATOM     16  C   UNL     1      53.935  25.214  50.420  1.00  0.00     0.004 C 
ENDBRANCH  14  15
ENDBRANCH  13  14
ENDBRANCH  12  13
ENDBRANCH  11  12
ENDBRANCH  10  11
ENDBRANCH   1  10
TORSDOF 12
ENDMDL
MODEL 7
REMARK VINA RESULT:    -3.365     11.226     13.494
REMARK INTER + INTRA:          -7.026
REMARK INTER:                  -5.706
REMARK INTRA:                  -1.321
REMARK UNBOUND:                -1.302
REMARK SMILES CCCCCCCCCCCCCC(=O)[O-]
REMARK SMILES IDX 8 1 9 2 10 3 11 4 12 5 13 6 14 7 15 8 16 9 7 10 6 11 5 12
REMARK SMILES IDX 4 13 3 14 2 15 1 16
REMARK H PARENT
REMARK Flexibility Score: inf
ROOT
ATOM      1  C   UNL     1      57.158  29.665  52.442  1.00  0.00     0.000 C 
ENDROOT
BRANCH   1   2
ATOM      2  C   UNL     1      58.299  29.620  51.411  1.00  0.00     0.000 C 
BRANCH   2   3
ATOM      3  C   UNL     1      57.876  28.954  50.091  1.00  0.00     0.000 C 
BRANCH   3   4
ATOM      4  C   UNL     1      59.006  28.943  49.048  1.00  0.00     0.000 C 
BRANCH   4   5
ATOM      5  C   UNL     1      59.908  27.701  49.162  1.00  0.00     0.006 C 
BRANCH   5   6
ATOM      6  C   UNL     1      59.107  26.431  49.478  1.00  0.00     0.053 C 
BRANCH   6   7
ATOM      7  C   UNL     1      59.863  25.509  50.384  1.00  0.00     0.041 C 
ATOM      8  O   UNL     1      59.593  25.464  51.614  1.00  0.00    -0.550 OA
ATOM      9  O   UNL     1      60.886  24.719  49.876  1.00  0.00    -0.550 OA
ENDBRANCH   6   7
ENDBRANCH   5   6
ENDBRANCH   4   5
ENDBRANCH   3   4
ENDBRANCH   2   3
ENDBRANCH   1   2
BRANCH   1  10
ATOM     10  C   UNL     1      56.018  28.686  52.108  1.00  0.00     0.000 C 
BRANCH  10  11
ATOM     11  C   UNL     1      54.629  29.291  52.372  1.00  0.00    -0.000 C 
BRANCH  11  12
ATOM     12  C   UNL     1      53.734  29.279  51.122  1.00  0.00    -0.000 C 
BRANCH  12  13
ATOM     13  C   UNL     1      54.223  28.291  50.049  1.00  0.00    -0.000 C 
BRANCH  13  14
ATOM     14  C   UNL     1      53.231  27.143  49.765  1.00  0.00    -0.000 C 
BRANCH  14  15
ATOM     15  C   UNL     1      53.925  25.772  49.734  1.00  0.00    -0.003 C 
ATOM     16  C   UNL     1      55.442  25.924  49.716  1.00  0.00     0.004 C 
ENDBRANCH  14  15
ENDBRANCH  13  14
ENDBRANCH  12  13
ENDBRANCH  11  12
ENDBRANCH  10  11
ENDBRANCH   1  10
TORSDOF 12
ENDMDL
MODEL 8
REMARK VINA RESULT:    -3.360      3.257      6.165
REMARK INTER + INTRA:          -7.019
REMARK INTER:                  -5.128
REMARK INTRA:                  -1.891
REMARK UNBOUND:                -1.302
REMARK SMILES CCCCCCCCCCCCCC(=O)[O-]
REMARK SMILES IDX 8 1 9 2 10 3 11 4 12 5 13 6 14 7 15 8 16 9 7 10 6 11 5 12
REMARK SMILES IDX 4 13 3 14 2 15 1 16
REMARK H PARENT
REMARK Flexibility Score: inf
ROOT
ATOM      1  C   UNL     1      64.299  30.211  59.197  1.00  0.00     0.000 C 
ENDROOT
BRANCH   1   2
ATOM      2  C   UNL     1      64.966  30.803  60.451  1.00  0.00     0.000 C 
BRANCH   2   3
ATOM      3  C   UNL     1      64.503  32.240  60.745  1.00  0.00     0.000 C 
BRANCH   3   4
ATOM      4  C   UNL     1      64.176  33.027  59.466  1.00  0.00     0.000 C 
BRANCH   4   5
ATOM      5  C   UNL     1      63.651  34.445  59.758  1.00  0.00     0.006 C 
BRANCH   5   6
ATOM      6  C   UNL     1      63.467  34.695  61.261  1.00  0.00     0.053 C 
BRANCH   6   7
ATOM      7  C   UNL     1      63.759  36.117  61.627  1.00  0.00     0.041 C 
ATOM      8  O   UNL     1      63.013  37.045  61.214  1.00  0.00    -0.550 OA
ATOM      9  O   UNL     1      64.870  36.422  62.402  1.00  0.00    -0.550 OA
ENDBRANCH   6   7
ENDBRANCH   5   6
ENDBRANCH   4   5
ENDBRANCH   3   4
ENDBRANCH   2   3
ENDBRANCH   1   2
BRANCH   1  10
ATOM     10  C   UNL     1      63.323  29.068  59.528  1.00  0.00     0.000 C 
BRANCH  10  11
ATOM     11  C   UNL     1      63.421  28.618  60.995  1.00  0.00    -0.000 C 
BRANCH  11  12
ATOM     12  C   UNL     1      62.092  28.776  61.751  1.00  0.00    -0.000 C 
BRANCH  12  13
ATOM     13  C   UNL     1      61.902  30.187  62.332  1.00  0.00    -0.000 C 
BRANCH  13  14
ATOM     14  C   UNL     1      60.614  30.889  61.849  1.00  0.00    -0.000 C 
BRANCH  14  15
ATOM     15  C   UNL     1      60.910  32.021  60.853  1.00  0.00    -0.003 C 
ATOM     16  C   UNL     1      60.433  31.658  59.450  1.00  0.00     0.004 C 
ENDBRANCH  14  15
ENDBRANCH  13  14
ENDBRANCH  12  13
ENDBRANCH  11  12
ENDBRANCH  10  11
ENDBRANCH   1  10
TORSDOF 12
ENDMDL
MODEL 9
REMARK VINA RESULT:    -3.354      3.067      4.500
REMARK INTER + INTRA:          -7.008
REMARK INTER:                  -5.883
REMARK INTRA:                  -1.125
REMARK UNBOUND:                -1.302
REMARK SMILES CCCCCCCCCCCCCC(=O)[O-]
REMARK SMILES IDX 8 1 9 2 10 3 11 4 12 5 13 6 14 7 15 8 16 9 7 10 6 11 5 12
REMARK SMILES IDX 4 13 3 14 2 15 1 16
REMARK H PARENT
REMARK Flexibility Score: inf
ROOT
ATOM      1  C   UNL     1      61.971  30.323  62.035  1.00  0.00     0.000 C 
ENDROOT
BRANCH   1   2
ATOM      2  C   UNL     1      62.152  29.181  61.021  1.00  0.00     0.000 C 
BRANCH   2   3
ATOM      3  C   UNL     1      63.398  29.366  60.138  1.00  0.00     0.000 C 
BRANCH   3   4
ATOM      4  C   UNL     1      64.455  30.272  60.791  1.00  0.00     0.000 C 
BRANCH   4   5
ATOM      5  C   UNL     1      65.099  31.250  59.793  1.00  0.00     0.006 C 
BRANCH   5   6
ATOM      6  C   UNL     1      66.346  30.658  59.125  1.00  0.00     0.053 C 
BRANCH   6   7
ATOM      7  C   UNL     1      66.850  31.530  58.016  1.00  0.00     0.041 C 
ATOM      8  O   UNL     1      68.056  31.895  57.994  1.00  0.00    -0.550 OA
ATOM      9  O   UNL     1      65.982  31.965  57.023  1.00  0.00    -0.550 OA
ENDBRANCH   6   7
ENDBRANCH   5   6
ENDBRANCH   4   5
ENDBRANCH   3   4
ENDBRANCH   2   3
ENDBRANCH   1   2
BRANCH   1  10
ATOM     10  C   UNL     1      60.746  31.203  61.725  1.00  0.00     0.000 C 
BRANCH  10  11
ATOM     11  C   UNL     1      61.022  32.217  60.602  1.00  0.00    -0.000 C 
BRANCH  11  12
ATOM     12  C   UNL     1      62.205  33.145  60.923  1.00  0.00    -0.000 C 
BRANCH  12  13
ATOM     13  C   UNL     1      61.871  34.631  60.707  1.00  0.00    -0.000 C 
BRANCH  13  14
ATOM     14  C   UNL     1      62.920  35.595  61.304  1.00  0.00    -0.000 C 
BRANCH  14  15
ATOM     15  C   UNL     1      64.266  34.899  61.562  1.00  0.00    -0.003 C 
ATOM     16  C   UNL     1      65.374  35.918  61.809  1.00  0.00     0.004 C 
ENDBRANCH  14  15
ENDBRANCH  13  14
ENDBRANCH  12  13
ENDBRANCH  11  12
ENDBRANCH  10  11
ENDBRANCH   1  10
TORSDOF 12
ENDMDL
