MODEL 1
REMARK VINA RESULT:     6.078      0.000      0.000
REMARK INTER + INTRA:          15.656
REMARK INTER:                  15.315
REMARK INTRA:                   0.340
REMARK UNBOUND:                 0.340
REMARK SMILES CCCCCCCCCCCCCCCCCCCCCCCCCCCC(=O)[O-]
REMARK SMILES IDX 15 1 16 2 17 3 18 4 19 5 20 6 21 7 22 8 23 9 24 10 25 11
REMARK SMILES IDX 26 12 27 13 28 14 29 15 30 16 14 17 13 18 12 19 11 20 10 21
REMARK SMILES IDX 9 22 8 23 7 24 6 25 5 26 4 27 3 28 2 29 1 30
REMARK H PARENT
REMARK Flexibility Score: inf
ROOT
ATOM      1  C   UNL     1       1.008  59.789  -6.054  1.00  0.00     0.000 C 
ENDROOT
BRANCH   1   2
ATOM      2  C   UNL     1       2.139  60.766  -5.692  1.00  0.00     0.000 C 
BRANCH   2   3
ATOM      3  C   UNL     1       3.417  60.526  -6.515  1.00  0.00     0.000 C 
BRANCH   3   4
ATOM      4  C   UNL     1       3.519  61.457  -7.737  1.00  0.00     0.000 C 
BRANCH   4   5
ATOM      5  C   UNL     1       2.348  62.451  -7.814  1.00  0.00     0.000 C 
BRANCH   5   6
ATOM      6  C   UNL     1       2.394  63.504  -6.692  1.00  0.00     0.000 C 
BRANCH   6   7
ATOM      7  C   UNL     1       2.688  64.917  -7.221  1.00  0.00     0.000 C 
BRANCH   7   8
ATOM      8  C   UNL     1       3.110  65.892  -6.108  1.00  0.00     0.000 C 
BRANCH   8   9
ATOM      9  C   UNL     1       2.270  67.182  -6.097  1.00  0.00     0.000 C 
BRANCH   9  10
ATOM     10  C   UNL     1       0.902  67.081  -6.801  1.00  0.00     0.000 C 
BRANCH  10  11
ATOM     11  C   UNL     1       0.099  68.393  -6.861  1.00  0.00     0.000 C 
BRANCH  11  12
ATOM     12  C   UNL     1      -0.224  68.959  -5.467  1.00  0.00     0.006 C 
BRANCH  12  13
ATOM     13  C   UNL     1      -1.700  68.771  -5.093  1.00  0.00     0.053 C 
BRANCH  13  14
ATOM     14  C   UNL     1      -2.555  69.888  -5.608  1.00  0.00     0.041 C 
ATOM     15  O   UNL     1      -2.681  70.950  -4.942  1.00  0.00    -0.550 OA
ATOM     16  O   UNL     1      -3.234  69.746  -6.812  1.00  0.00    -0.550 OA
ENDBRANCH  13  14
ENDBRANCH  12  13
ENDBRANCH  11  12
ENDBRANCH  10  11
ENDBRANCH   9  10
ENDBRANCH   8   9
ENDBRANCH   7   8
ENDBRANCH   6   7
ENDBRANCH   5   6
ENDBRANCH   4   5
ENDBRANCH   3   4
ENDBRANCH   2   3
ENDBRANCH   1   2
BRANCH   1  17
ATOM     17  C   UNL     1       1.075  59.315  -7.517  1.00  0.00     0.000 C 
BRANCH  17  18
ATOM     18  C   UNL     1      -0.273  58.875  -8.125  1.00  0.00     0.000 C 
BRANCH  18  19
ATOM     19  C   UNL     1      -1.463  58.878  -7.145  1.00  0.00     0.000 C 
BRANCH  19  20
ATOM     20  C   UNL     1      -2.857  58.878  -7.807  1.00  0.00     0.000 C 
BRANCH  20  21
ATOM     21  C   UNL     1      -3.953  59.631  -7.029  1.00  0.00     0.000 C 
BRANCH  21  22
ATOM     22  C   UNL     1      -3.419  60.862  -6.279  1.00  0.00    -0.000 C 
BRANCH  22  23
ATOM     23  C   UNL     1      -3.889  60.920  -4.813  1.00  0.00    -0.000 C 
BRANCH  23  24
ATOM     24  C   UNL     1      -3.764  59.598  -4.034  1.00  0.00    -0.000 C 
BRANCH  24  25
ATOM     25  C   UNL     1      -2.402  58.912  -4.233  1.00  0.00    -0.000 C 
BRANCH  25  26
ATOM     26  C   UNL     1      -1.237  59.927  -4.239  1.00  0.00    -0.000 C 
BRANCH  26  27
ATOM     27  C   UNL     1      -1.000  60.601  -2.877  1.00  0.00    -0.000 C 
BRANCH  27  28
ATOM     28  C   UNL     1       0.491  60.726  -2.526  1.00  0.00    -0.000 C 
BRANCH  28  29
ATOM     29  C   UNL     1       0.747  60.653  -1.013  1.00  0.00    -0.003 C 
ATOM     30  C   UNL     1       0.030  59.478  -0.347  1.00  0.00     0.004 C 
ENDBRANCH  28  29
ENDBRANCH  27  28
ENDBRANCH  26  27
ENDBRANCH  25  26
ENDBRANCH  24  25
ENDBRANCH  23  24
ENDBRANCH  22  23
ENDBRANCH  21  22
ENDBRANCH  20  21
ENDBRANCH  19  20
ENDBRANCH  18  19
ENDBRANCH  17  18
ENDBRANCH   1  17
TORSDOF 26
ENDMDL
MODEL 2
REMARK VINA RESULT:     6.220      0.965      2.070
REMARK INTER + INTRA:          16.015
REMARK INTER:                  16.892
REMARK INTRA:                  -0.877
REMARK UNBOUND:                 0.340
REMARK SMILES CCCCCCCCCCCCCCCCCCCCCCCCCCCC(=O)[O-]
REMARK SMILES IDX 15 1 16 2 17 3 18 4 19 5 20 6 21 7 22 8 23 9 24 10 25 11
REMARK SMILES IDX 26 12 27 13 28 14 29 15 30 16 14 17 13 18 12 19 11 20 10 21
REMARK SMILES IDX 9 22 8 23 7 24 6 25 5 26 4 27 3 28 2 29 1 30
REMARK H PARENT
REMARK Flexibility Score: inf
ROOT
ATOM      1  C   UNL     1      -0.618  59.350  -7.313  1.00  0.00     0.000 C 
ENDROOT
BRANCH   1   2
ATOM      2  C   UNL     1       0.401  58.877  -6.263  1.00  0.00     0.000 C 
BRANCH   2   3
ATOM      3  C   UNL     1       1.413  59.971  -5.883  1.00  0.00     0.000 C 
BRANCH   3   4
ATOM      4  C   UNL     1       2.830  59.678  -6.410  1.00  0.00     0.000 C 
BRANCH   4   5
ATOM      5  C   UNL     1       3.381  60.825  -7.275  1.00  0.00     0.000 C 
BRANCH   5   6
ATOM      6  C   UNL     1       2.284  61.813  -7.711  1.00  0.00     0.000 C 
BRANCH   6   7
ATOM      7  C   UNL     1       2.303  63.115  -6.894  1.00  0.00     0.000 C 
BRANCH   7   8
ATOM      8  C   UNL     1       2.953  64.284  -7.654  1.00  0.00     0.000 C 
BRANCH   8   9
ATOM      9  C   UNL     1       2.644  65.651  -7.019  1.00  0.00     0.000 C 
BRANCH   9  10
ATOM     10  C   UNL     1       1.176  66.109  -7.128  1.00  0.00     0.000 C 
BRANCH  10  11
ATOM     11  C   UNL     1       0.860  67.457  -6.455  1.00  0.00     0.000 C 
BRANCH  11  12
ATOM     12  C   UNL     1      -0.270  68.227  -7.162  1.00  0.00     0.006 C 
BRANCH  12  13
ATOM     13  C   UNL     1      -0.439  69.647  -6.606  1.00  0.00     0.053 C 
BRANCH  13  14
ATOM     14  C   UNL     1      -1.462  69.703  -5.513  1.00  0.00     0.041 C 
ATOM     15  O   UNL     1      -1.944  70.809  -5.152  1.00  0.00    -0.550 OA
ATOM     16  O   UNL     1      -1.863  68.535  -4.875  1.00  0.00    -0.550 OA
ENDBRANCH  13  14
ENDBRANCH  12  13
ENDBRANCH  11  12
ENDBRANCH  10  11
ENDBRANCH   9  10
ENDBRANCH   8   9
ENDBRANCH   7   8
ENDBRANCH   6   7
ENDBRANCH   5   6
ENDBRANCH   4   5
ENDBRANCH   3   4
ENDBRANCH   2   3
ENDBRANCH   1   2
BRANCH   1  17
ATOM     17  C   UNL     1      -2.054  58.894  -6.998  1.00  0.00     0.000 C 
BRANCH  17  18
ATOM     18  C   UNL     1      -3.081  59.142  -8.123  1.00  0.00     0.000 C 
BRANCH  18  19
ATOM     19  C   UNL     1      -3.845  60.477  -8.027  1.00  0.00     0.000 C 
BRANCH  19  20
ATOM     20  C   UNL     1      -4.900  60.549  -6.903  1.00  0.00     0.000 C 
BRANCH  20  21
ATOM     21  C   UNL     1      -4.333  60.596  -5.471  1.00  0.00     0.000 C 
BRANCH  21  22
ATOM     22  C   UNL     1      -4.650  59.332  -4.657  1.00  0.00    -0.000 C 
BRANCH  22  23
ATOM     23  C   UNL     1      -3.702  59.139  -3.458  1.00  0.00    -0.000 C 
BRANCH  23  24
ATOM     24  C   UNL     1      -2.214  58.981  -3.821  1.00  0.00    -0.000 C 
BRANCH  24  25
ATOM     25  C   UNL     1      -1.483  60.328  -3.953  1.00  0.00    -0.000 C 
BRANCH  25  26
ATOM     26  C   UNL     1      -0.908  60.810  -2.602  1.00  0.00    -0.000 C 
BRANCH  26  27
ATOM     27  C   UNL     1       0.608  60.590  -2.464  1.00  0.00    -0.000 C 
BRANCH  27  28
ATOM     28  C   UNL     1       1.103  60.750  -1.018  1.00  0.00    -0.000 C 
BRANCH  28  29
ATOM     29  C   UNL     1       0.838  59.500  -0.165  1.00  0.00    -0.003 C 
ATOM     30  C   UNL     1      -0.645  59.297   0.144  1.00  0.00     0.004 C 
ENDBRANCH  28  29
ENDBRANCH  27  28
ENDBRANCH  26  27
ENDBRANCH  25  26
ENDBRANCH  24  25
ENDBRANCH  23  24
ENDBRANCH  22  23
ENDBRANCH  21  22
ENDBRANCH  20  21
ENDBRANCH  19  20
ENDBRANCH  18  19
ENDBRANCH  17  18
ENDBRANCH   1  17
TORSDOF 26
ENDMDL
MODEL 3
REMARK VINA RESULT:     7.273      1.868      5.440
REMARK INTER + INTRA:          18.667
REMARK INTER:                  16.763
REMARK INTRA:                   1.904
REMARK UNBOUND:                 0.340
REMARK SMILES CCCCCCCCCCCCCCCCCCCCCCCCCCCC(=O)[O-]
REMARK SMILES IDX 15 1 16 2 17 3 18 4 19 5 20 6 21 7 22 8 23 9 24 10 25 11
REMARK SMILES IDX 26 12 27 13 28 14 29 15 30 16 14 17 13 18 12 19 11 20 10 21
REMARK SMILES IDX 9 22 8 23 7 24 6 25 5 26 4 27 3 28 2 29 1 30
REMARK H PARENT
REMARK Flexibility Score: inf
ROOT
ATOM      1  C   UNL     1       2.954  65.114  -5.513  1.00  0.00     0.000 C 
ENDROOT
BRANCH   1   2
ATOM      2  C   UNL     1       3.904  66.323  -5.528  1.00  0.00     0.000 C 
BRANCH   2   3
ATOM      3  C   UNL     1       3.171  67.650  -5.788  1.00  0.00     0.000 C 
BRANCH   3   4
ATOM      4  C   UNL     1       1.672  67.577  -5.445  1.00  0.00     0.000 C 
BRANCH   4   5
ATOM      5  C   UNL     1       0.784  68.098  -6.588  1.00  0.00     0.000 C 
BRANCH   5   6
ATOM      6  C   UNL     1      -0.380  68.968  -6.080  1.00  0.00     0.000 C 
BRANCH   6   7
ATOM      7  C   UNL     1      -0.595  68.839  -4.563  1.00  0.00     0.000 C 
BRANCH   7   8
ATOM      8  C   UNL     1      -1.455  69.977  -3.986  1.00  0.00     0.000 C 
BRANCH   8   9
ATOM      9  C   UNL     1      -2.484  70.516  -4.995  1.00  0.00     0.000 C 
BRANCH   9  10
ATOM     10  C   UNL     1      -2.677  69.655  -6.260  1.00  0.00     0.000 C 
BRANCH  10  11
ATOM     11  C   UNL     1      -4.088  69.067  -6.442  1.00  0.00     0.000 C 
BRANCH  11  12
ATOM     12  C   UNL     1      -5.124  70.123  -6.866  1.00  0.00     0.006 C 
BRANCH  12  13
ATOM     13  C   UNL     1      -4.463  71.411  -7.376  1.00  0.00     0.053 C 
BRANCH  13  14
ATOM     14  C   UNL     1      -4.910  72.614  -6.604  1.00  0.00     0.041 C 
ATOM     15  O   UNL     1      -5.125  72.529  -5.365  1.00  0.00    -0.550 OA
ATOM     16  O   UNL     1      -5.113  73.824  -7.257  1.00  0.00    -0.550 OA
ENDBRANCH  13  14
ENDBRANCH  12  13
ENDBRANCH  11  12
ENDBRANCH  10  11
ENDBRANCH   9  10
ENDBRANCH   8   9
ENDBRANCH   7   8
ENDBRANCH   6   7
ENDBRANCH   5   6
ENDBRANCH   4   5
ENDBRANCH   3   4
ENDBRANCH   2   3
ENDBRANCH   1   2
BRANCH   1  17
ATOM     17  C   UNL     1       2.699  64.538  -6.918  1.00  0.00     0.000 C 
BRANCH  17  18
ATOM     18  C   UNL     1       2.083  63.124  -6.943  1.00  0.00     0.000 C 
BRANCH  18  19
ATOM     19  C   UNL     1       2.662  62.179  -8.014  1.00  0.00     0.000 C 
BRANCH  19  20
ATOM     20  C   UNL     1       3.158  60.816  -7.487  1.00  0.00     0.000 C 
BRANCH  20  21
ATOM     21  C   UNL     1       2.870  60.543  -5.999  1.00  0.00     0.000 C 
BRANCH  21  22
ATOM     22  C   UNL     1       1.978  59.311  -5.776  1.00  0.00    -0.000 C 
BRANCH  22  23
ATOM     23  C   UNL     1       0.618  59.664  -5.146  1.00  0.00    -0.000 C 
BRANCH  23  24
ATOM     24  C   UNL     1      -0.614  59.211  -5.952  1.00  0.00    -0.000 C 
BRANCH  24  25
ATOM     25  C   UNL     1      -1.900  59.951  -5.549  1.00  0.00    -0.000 C 
BRANCH  25  26
ATOM     26  C   UNL     1      -2.372  59.562  -4.130  1.00  0.00    -0.000 C 
BRANCH  26  27
ATOM     27  C   UNL     1      -3.846  59.127  -4.069  1.00  0.00    -0.000 C 
BRANCH  27  28
ATOM     28  C   UNL     1      -4.478  58.970  -5.461  1.00  0.00    -0.000 C 
BRANCH  28  29
ATOM     29  C   UNL     1      -4.725  60.320  -6.150  1.00  0.00    -0.003 C 
ATOM     30  C   UNL     1      -3.710  60.618  -7.253  1.00  0.00     0.004 C 
ENDBRANCH  28  29
ENDBRANCH  27  28
ENDBRANCH  26  27
ENDBRANCH  25  26
ENDBRANCH  24  25
ENDBRANCH  23  24
ENDBRANCH  22  23
ENDBRANCH  21  22
ENDBRANCH  20  21
ENDBRANCH  19  20
ENDBRANCH  18  19
ENDBRANCH  17  18
ENDBRANCH   1  17
TORSDOF 26
ENDMDL
MODEL 4
REMARK VINA RESULT:     7.466      1.679      4.615
REMARK INTER + INTRA:          19.153
REMARK INTER:                  18.230
REMARK INTRA:                   0.923
REMARK UNBOUND:                 0.340
REMARK SMILES CCCCCCCCCCCCCCCCCCCCCCCCCCCC(=O)[O-]
REMARK SMILES IDX 15 1 16 2 17 3 18 4 19 5 20 6 21 7 22 8 23 9 24 10 25 11
REMARK SMILES IDX 26 12 27 13 28 14 29 15 30 16 14 17 13 18 12 19 11 20 10 21
REMARK SMILES IDX 9 22 8 23 7 24 6 25 5 26 4 27 3 28 2 29 1 30
REMARK H PARENT
REMARK Flexibility Score: inf
ROOT
ATOM      1  C   UNL     1       3.064  63.777  -6.886  1.00  0.00     0.000 C 
ENDROOT
BRANCH   1   2
ATOM      2  C   UNL     1       2.738  64.911  -5.900  1.00  0.00     0.000 C 
BRANCH   2   3
ATOM      3  C   UNL     1       3.935  65.845  -5.653  1.00  0.00     0.000 C 
BRANCH   3   4
ATOM      4  C   UNL     1       3.541  67.126  -4.896  1.00  0.00     0.000 C 
BRANCH   4   5
ATOM      5  C   UNL     1       2.044  67.451  -5.034  1.00  0.00     0.000 C 
BRANCH   5   6
ATOM      6  C   UNL     1       1.731  68.254  -6.309  1.00  0.00     0.000 C 
BRANCH   6   7
ATOM      7  C   UNL     1       0.678  67.569  -7.195  1.00  0.00     0.000 C 
BRANCH   7   8
ATOM      8  C   UNL     1      -0.504  68.492  -7.536  1.00  0.00     0.000 C 
BRANCH   8   9
ATOM      9  C   UNL     1      -1.624  68.439  -6.481  1.00  0.00     0.000 C 
BRANCH   9  10
ATOM     10  C   UNL     1      -1.630  69.604  -5.471  1.00  0.00     0.000 C 
BRANCH  10  11
ATOM     11  C   UNL     1      -2.969  70.353  -5.344  1.00  0.00     0.000 C 
BRANCH  11  12
ATOM     12  C   UNL     1      -4.125  69.631  -6.059  1.00  0.00     0.006 C 
BRANCH  12  13
ATOM     13  C   UNL     1      -4.846  70.542  -7.061  1.00  0.00     0.053 C 
BRANCH  13  14
ATOM     14  C   UNL     1      -4.888  71.965  -6.596  1.00  0.00     0.041 C 
ATOM     15  O   UNL     1      -4.900  72.229  -5.364  1.00  0.00    -0.550 OA
ATOM     16  O   UNL     1      -4.941  72.999  -7.522  1.00  0.00    -0.550 OA
ENDBRANCH  13  14
ENDBRANCH  12  13
ENDBRANCH  11  12
ENDBRANCH  10  11
ENDBRANCH   9  10
ENDBRANCH   8   9
ENDBRANCH   7   8
ENDBRANCH   6   7
ENDBRANCH   5   6
ENDBRANCH   4   5
ENDBRANCH   3   4
ENDBRANCH   2   3
ENDBRANCH   1   2
BRANCH   1  17
ATOM     17  C   UNL     1       2.545  62.407  -6.411  1.00  0.00     0.000 C 
BRANCH  17  18
ATOM     18  C   UNL     1       2.776  61.243  -7.396  1.00  0.00     0.000 C 
BRANCH  18  19
ATOM     19  C   UNL     1       3.192  59.909  -6.745  1.00  0.00     0.000 C 
BRANCH  19  20
ATOM     20  C   UNL     1       2.024  58.986  -6.337  1.00  0.00     0.000 C 
BRANCH  20  21
ATOM     21  C   UNL     1       0.684  59.699  -6.074  1.00  0.00     0.000 C 
BRANCH  21  22
ATOM     22  C   UNL     1       0.591  60.300  -4.661  1.00  0.00    -0.000 C 
BRANCH  22  23
ATOM     23  C   UNL     1      -0.853  60.353  -4.129  1.00  0.00    -0.000 C 
BRANCH  23  24
ATOM     24  C   UNL     1      -1.680  59.073  -4.353  1.00  0.00    -0.000 C 
BRANCH  24  25
ATOM     25  C   UNL     1      -2.861  58.944  -3.376  1.00  0.00    -0.000 C 
BRANCH  25  26
ATOM     26  C   UNL     1      -4.218  58.875  -4.112  1.00  0.00    -0.000 C 
BRANCH  26  27
ATOM     27  C   UNL     1      -4.403  59.980  -5.166  1.00  0.00    -0.000 C 
BRANCH  27  28
ATOM     28  C   UNL     1      -3.177  60.143  -6.079  1.00  0.00    -0.000 C 
BRANCH  28  29
ATOM     29  C   UNL     1      -3.377  59.486  -7.454  1.00  0.00    -0.003 C 
ATOM     30  C   UNL     1      -4.686  59.901  -8.124  1.00  0.00     0.004 C 
ENDBRANCH  28  29
ENDBRANCH  27  28
ENDBRANCH  26  27
ENDBRANCH  25  26
ENDBRANCH  24  25
ENDBRANCH  23  24
ENDBRANCH  22  23
ENDBRANCH  21  22
ENDBRANCH  20  21
ENDBRANCH  19  20
ENDBRANCH  18  19
ENDBRANCH  17  18
ENDBRANCH   1  17
TORSDOF 26
ENDMDL
MODEL 5
REMARK VINA RESULT:     7.705      2.818      9.089
REMARK INTER + INTRA:          19.756
REMARK INTER:                  18.843
REMARK INTRA:                   0.913
REMARK UNBOUND:                 0.340
REMARK SMILES CCCCCCCCCCCCCCCCCCCCCCCCCCCC(=O)[O-]
REMARK SMILES IDX 15 1 16 2 17 3 18 4 19 5 20 6 21 7 22 8 23 9 24 10 25 11
REMARK SMILES IDX 26 12 27 13 28 14 29 15 30 16 14 17 13 18 12 19 11 20 10 21
REMARK SMILES IDX 9 22 8 23 7 24 6 25 5 26 4 27 3 28 2 29 1 30
REMARK H PARENT
REMARK Flexibility Score: inf
ROOT
ATOM      1  C   UNL     1       2.313  63.572  -7.136  1.00  0.00     0.000 C 
ENDROOT
BRANCH   1   2
ATOM      2  C   UNL     1       3.267  62.400  -7.422  1.00  0.00     0.000 C 
BRANCH   2   3
ATOM      3  C   UNL     1       2.527  61.127  -7.865  1.00  0.00     0.000 C 
BRANCH   3   4
ATOM      4  C   UNL     1       2.790  59.932  -6.930  1.00  0.00     0.000 C 
BRANCH   4   5
ATOM      5  C   UNL     1       1.488  59.312  -6.392  1.00  0.00     0.000 C 
BRANCH   5   6
ATOM      6  C   UNL     1       0.465  59.030  -7.507  1.00  0.00     0.000 C 
BRANCH   6   7
ATOM      7  C   UNL     1      -0.983  59.033  -6.994  1.00  0.00     0.000 C 
BRANCH   7   8
ATOM      8  C   UNL     1      -2.015  58.875  -8.124  1.00  0.00     0.000 C 
BRANCH   8   9
ATOM      9  C   UNL     1      -3.340  59.600  -7.827  1.00  0.00     0.000 C 
BRANCH   9  10
ATOM     10  C   UNL     1      -3.411  60.301  -6.455  1.00  0.00     0.000 C 
BRANCH  10  11
ATOM     11  C   UNL     1      -4.398  59.677  -5.453  1.00  0.00     0.000 C 
BRANCH  11  12
ATOM     12  C   UNL     1      -3.693  58.969  -4.283  1.00  0.00     0.006 C 
BRANCH  12  13
ATOM     13  C   UNL     1      -2.166  59.095  -4.365  1.00  0.00     0.053 C 
BRANCH  13  14
ATOM     14  C   UNL     1      -1.678  60.391  -3.794  1.00  0.00     0.041 C 
ATOM     15  O   UNL     1      -2.341  61.449  -3.966  1.00  0.00    -0.550 OA
ATOM     16  O   UNL     1      -0.479  60.435  -3.093  1.00  0.00    -0.550 OA
ENDBRANCH  13  14
ENDBRANCH  12  13
ENDBRANCH  11  12
ENDBRANCH  10  11
ENDBRANCH   9  10
ENDBRANCH   8   9
ENDBRANCH   7   8
ENDBRANCH   6   7
ENDBRANCH   5   6
ENDBRANCH   4   5
ENDBRANCH   3   4
ENDBRANCH   2   3
ENDBRANCH   1   2
BRANCH   1  17
ATOM     17  C   UNL     1       2.545  64.205  -5.752  1.00  0.00     0.000 C 
BRANCH  17  18
ATOM     18  C   UNL     1       3.775  65.131  -5.653  1.00  0.00     0.000 C 
BRANCH  18  19
ATOM     19  C   UNL     1       3.477  66.563  -5.168  1.00  0.00     0.000 C 
BRANCH  19  20
ATOM     20  C   UNL     1       2.726  67.455  -6.179  1.00  0.00     0.000 C 
BRANCH  20  21
ATOM     21  C   UNL     1       1.247  67.724  -5.845  1.00  0.00     0.000 C 
BRANCH  21  22
ATOM     22  C   UNL     1       0.570  68.678  -6.844  1.00  0.00    -0.000 C 
BRANCH  22  23
ATOM     23  C   UNL     1      -0.948  68.806  -6.613  1.00  0.00    -0.000 C 
BRANCH  23  24
ATOM     24  C   UNL     1      -1.431  70.210  -6.204  1.00  0.00    -0.000 C 
BRANCH  24  25
ATOM     25  C   UNL     1      -2.033  70.249  -4.789  1.00  0.00    -0.000 C 
BRANCH  25  26
ATOM     26  C   UNL     1      -3.360  69.463  -4.702  1.00  0.00    -0.000 C 
BRANCH  26  27
ATOM     27  C   UNL     1      -4.002  69.186  -6.072  1.00  0.00    -0.000 C 
BRANCH  27  28
ATOM     28  C   UNL     1      -4.730  70.412  -6.647  1.00  0.00    -0.000 C 
BRANCH  28  29
ATOM     29  C   UNL     1      -4.311  71.720  -5.959  1.00  0.00    -0.003 C 
ATOM     30  C   UNL     1      -4.656  72.960  -6.783  1.00  0.00     0.004 C 
ENDBRANCH  28  29
ENDBRANCH  27  28
ENDBRANCH  26  27
ENDBRANCH  25  26
ENDBRANCH  24  25
ENDBRANCH  23  24
ENDBRANCH  22  23
ENDBRANCH  21  22
ENDBRANCH  20  21
ENDBRANCH  19  20
ENDBRANCH  18  19
ENDBRANCH  17  18
ENDBRANCH   1  17
TORSDOF 26
ENDMDL
MODEL 6
REMARK VINA RESULT:     7.785      3.314      9.682
REMARK INTER + INTRA:          19.959
REMARK INTER:                  21.745
REMARK INTRA:                  -1.787
REMARK UNBOUND:                 0.340
REMARK SMILES CCCCCCCCCCCCCCCCCCCCCCCCCCCC(=O)[O-]
REMARK SMILES IDX 15 1 16 2 17 3 18 4 19 5 20 6 21 7 22 8 23 9 24 10 25 11
REMARK SMILES IDX 26 12 27 13 28 14 29 15 30 16 14 17 13 18 12 19 11 20 10 21
REMARK SMILES IDX 9 22 8 23 7 24 6 25 5 26 4 27 3 28 2 29 1 30
REMARK H PARENT
REMARK Flexibility Score: inf
ROOT
ATOM      1  C   UNL     1       2.891  65.420  -5.060  1.00  0.00     0.000 C 
ENDROOT
BRANCH   1   2
ATOM      2  C   UNL     1       2.905  65.184  -6.579  1.00  0.00     0.000 C 
BRANCH   2   3
ATOM      3  C   UNL     1       2.180  63.890  -6.985  1.00  0.00     0.000 C 
BRANCH   3   4
ATOM      4  C   UNL     1       3.098  62.907  -7.737  1.00  0.00     0.000 C 
BRANCH   4   5
ATOM      5  C   UNL     1       2.640  61.446  -7.583  1.00  0.00     0.000 C 
BRANCH   5   6
ATOM      6  C   UNL     1       2.811  60.923  -6.146  1.00  0.00     0.000 C 
BRANCH   6   7
ATOM      7  C   UNL     1       2.379  59.456  -5.996  1.00  0.00     0.000 C 
BRANCH   7   8
ATOM      8  C   UNL     1       0.943  59.311  -5.463  1.00  0.00     0.000 C 
BRANCH   8   9
ATOM      9  C   UNL     1       0.615  60.323  -4.350  1.00  0.00     0.000 C 
BRANCH   9  10
ATOM     10  C   UNL     1      -0.867  60.733  -4.252  1.00  0.00     0.000 C 
BRANCH  10  11
ATOM     11  C   UNL     1      -1.873  59.570  -4.312  1.00  0.00     0.000 C 
BRANCH  11  12
ATOM     12  C   UNL     1      -3.329  60.046  -4.462  1.00  0.00     0.006 C 
BRANCH  12  13
ATOM     13  C   UNL     1      -3.473  61.138  -5.531  1.00  0.00     0.053 C 
BRANCH  13  14
ATOM     14  C   UNL     1      -4.183  60.638  -6.751  1.00  0.00     0.041 C 
ATOM     15  O   UNL     1      -5.124  61.307  -7.256  1.00  0.00    -0.550 OA
ATOM     16  O   UNL     1      -3.823  59.420  -7.315  1.00  0.00    -0.550 OA
ENDBRANCH  13  14
ENDBRANCH  12  13
ENDBRANCH  11  12
ENDBRANCH  10  11
ENDBRANCH   9  10
ENDBRANCH   8   9
ENDBRANCH   7   8
ENDBRANCH   6   7
ENDBRANCH   5   6
ENDBRANCH   4   5
ENDBRANCH   3   4
ENDBRANCH   2   3
ENDBRANCH   1   2
BRANCH   1  17
ATOM     17  C   UNL     1       3.646  66.698  -4.648  1.00  0.00     0.000 C 
BRANCH  17  18
ATOM     18  C   UNL     1       2.833  68.004  -4.764  1.00  0.00     0.000 C 
BRANCH  18  19
ATOM     19  C   UNL     1       1.526  68.035  -3.948  1.00  0.00     0.000 C 
BRANCH  19  20
ATOM     20  C   UNL     1       0.374  68.840  -4.584  1.00  0.00     0.000 C 
BRANCH  20  21
ATOM     21  C   UNL     1      -0.029  68.401  -6.004  1.00  0.00     0.000 C 
BRANCH  21  22
ATOM     22  C   UNL     1      -1.415  68.918  -6.423  1.00  0.00    -0.000 C 
BRANCH  22  23
ATOM     23  C   UNL     1      -1.814  70.216  -5.696  1.00  0.00    -0.000 C 
BRANCH  23  24
ATOM     24  C   UNL     1      -3.322  70.380  -5.431  1.00  0.00    -0.000 C 
BRANCH  24  25
ATOM     25  C   UNL     1      -4.195  69.740  -6.524  1.00  0.00    -0.000 C 
BRANCH  25  26
ATOM     26  C   UNL     1      -4.891  70.801  -7.405  1.00  0.00    -0.000 C 
BRANCH  26  27
ATOM     27  C   UNL     1      -5.124  72.141  -6.687  1.00  0.00    -0.000 C 
BRANCH  27  28
ATOM     28  C   UNL     1      -4.597  73.343  -7.486  1.00  0.00    -0.000 C 
BRANCH  28  29
ATOM     29  C   UNL     1      -4.972  74.687  -6.843  1.00  0.00    -0.003 C 
ATOM     30  C   UNL     1      -4.102  75.843  -7.334  1.00  0.00     0.004 C 
ENDBRANCH  28  29
ENDBRANCH  27  28
ENDBRANCH  26  27
ENDBRANCH  25  26
ENDBRANCH  24  25
ENDBRANCH  23  24
ENDBRANCH  22  23
ENDBRANCH  21  22
ENDBRANCH  20  21
ENDBRANCH  19  20
ENDBRANCH  18  19
ENDBRANCH  17  18
ENDBRANCH   1  17
TORSDOF 26
ENDMDL
MODEL 7
REMARK VINA RESULT:     7.852      2.286      5.704
REMARK INTER + INTRA:          20.126
REMARK INTER:                  19.617
REMARK INTRA:                   0.509
REMARK UNBOUND:                 0.340
REMARK SMILES CCCCCCCCCCCCCCCCCCCCCCCCCCCC(=O)[O-]
REMARK SMILES IDX 15 1 16 2 17 3 18 4 19 5 20 6 21 7 22 8 23 9 24 10 25 11
REMARK SMILES IDX 26 12 27 13 28 14 29 15 30 16 14 17 13 18 12 19 11 20 10 21
REMARK SMILES IDX 9 22 8 23 7 24 6 25 5 26 4 27 3 28 2 29 1 30
REMARK H PARENT
REMARK Flexibility Score: inf
ROOT
ATOM      1  C   UNL     1       3.613  65.559  -5.518  1.00  0.00     0.000 C 
ENDROOT
BRANCH   1   2
ATOM      2  C   UNL     1       3.601  67.097  -5.506  1.00  0.00     0.000 C 
BRANCH   2   3
ATOM      3  C   UNL     1       2.238  67.676  -5.091  1.00  0.00     0.000 C 
BRANCH   3   4
ATOM      4  C   UNL     1       1.200  67.624  -6.228  1.00  0.00     0.000 C 
BRANCH   4   5
ATOM      5  C   UNL     1       0.640  69.014  -6.573  1.00  0.00     0.000 C 
BRANCH   5   6
ATOM      6  C   UNL     1      -0.692  68.939  -7.340  1.00  0.00     0.000 C 
BRANCH   6   7
ATOM      7  C   UNL     1      -1.897  68.716  -6.412  1.00  0.00     0.000 C 
BRANCH   7   8
ATOM      8  C   UNL     1      -3.029  69.729  -6.654  1.00  0.00     0.000 C 
BRANCH   8   9
ATOM      9  C   UNL     1      -3.163  70.756  -5.515  1.00  0.00     0.000 C 
BRANCH   9  10
ATOM     10  C   UNL     1      -2.181  70.566  -4.341  1.00  0.00     0.000 C 
BRANCH  10  11
ATOM     11  C   UNL     1      -1.600  69.147  -4.198  1.00  0.00     0.000 C 
BRANCH  11  12
ATOM     12  C   UNL     1      -0.537  69.047  -3.091  1.00  0.00     0.006 C 
BRANCH  12  13
ATOM     13  C   UNL     1      -0.578  70.249  -2.138  1.00  0.00     0.053 C 
BRANCH  13  14
ATOM     14  C   UNL     1       0.654  70.335  -1.291  1.00  0.00     0.041 C 
ATOM     15  O   UNL     1       0.919  71.394  -0.661  1.00  0.00    -0.550 OA
ATOM     16  O   UNL     1       1.525  69.254  -1.217  1.00  0.00    -0.550 OA
ENDBRANCH  13  14
ENDBRANCH  12  13
ENDBRANCH  11  12
ENDBRANCH  10  11
ENDBRANCH   9  10
ENDBRANCH   8   9
ENDBRANCH   7   8
ENDBRANCH   6   7
ENDBRANCH   5   6
ENDBRANCH   4   5
ENDBRANCH   3   4
ENDBRANCH   2   3
ENDBRANCH   1   2
BRANCH   1  17
ATOM     17  C   UNL     1       3.106  64.970  -6.847  1.00  0.00     0.000 C 
BRANCH  17  18
ATOM     18  C   UNL     1       2.460  63.573  -6.740  1.00  0.00     0.000 C 
BRANCH  18  19
ATOM     19  C   UNL     1       2.850  62.586  -7.857  1.00  0.00     0.000 C 
BRANCH  19  20
ATOM     20  C   UNL     1       2.401  61.127  -7.630  1.00  0.00     0.000 C 
BRANCH  20  21
ATOM     21  C   UNL     1       3.064  60.414  -6.436  1.00  0.00     0.000 C 
BRANCH  21  22
ATOM     22  C   UNL     1       2.048  59.740  -5.499  1.00  0.00    -0.000 C 
BRANCH  22  23
ATOM     23  C   UNL     1       0.893  59.061  -6.259  1.00  0.00    -0.000 C 
BRANCH  23  24
ATOM     24  C   UNL     1      -0.497  59.227  -5.619  1.00  0.00    -0.000 C 
BRANCH  24  25
ATOM     25  C   UNL     1      -0.538  60.333  -4.551  1.00  0.00    -0.000 C 
BRANCH  25  26
ATOM     26  C   UNL     1      -1.826  60.272  -3.701  1.00  0.00    -0.000 C 
BRANCH  26  27
ATOM     27  C   UNL     1      -2.703  59.044  -4.000  1.00  0.00    -0.000 C 
BRANCH  27  28
ATOM     28  C   UNL     1      -3.641  59.260  -5.198  1.00  0.00    -0.000 C 
BRANCH  28  29
ATOM     29  C   UNL     1      -3.938  60.746  -5.452  1.00  0.00    -0.003 C 
ATOM     30  C   UNL     1      -4.664  60.988  -6.775  1.00  0.00     0.004 C 
ENDBRANCH  28  29
ENDBRANCH  27  28
ENDBRANCH  26  27
ENDBRANCH  25  26
ENDBRANCH  24  25
ENDBRANCH  23  24
ENDBRANCH  22  23
ENDBRANCH  21  22
ENDBRANCH  20  21
ENDBRANCH  19  20
ENDBRANCH  18  19
ENDBRANCH  17  18
ENDBRANCH   1  17
TORSDOF 26
ENDMDL
MODEL 8
REMARK VINA RESULT:     7.890      1.801      5.547
REMARK INTER + INTRA:          20.223
REMARK INTER:                  20.137
REMARK INTRA:                   0.086
REMARK UNBOUND:                 0.340
REMARK SMILES CCCCCCCCCCCCCCCCCCCCCCCCCCCC(=O)[O-]
REMARK SMILES IDX 15 1 16 2 17 3 18 4 19 5 20 6 21 7 22 8 23 9 24 10 25 11
REMARK SMILES IDX 26 12 27 13 28 14 29 15 30 16 14 17 13 18 12 19 11 20 10 21
REMARK SMILES IDX 9 22 8 23 7 24 6 25 5 26 4 27 3 28 2 29 1 30
REMARK H PARENT
REMARK Flexibility Score: inf
ROOT
ATOM      1  C   UNL     1       4.280  65.819  -5.855  1.00  0.00     0.000 C 
ENDROOT
BRANCH   1   2
ATOM      2  C   UNL     1       3.926  67.140  -5.152  1.00  0.00     0.000 C 
BRANCH   2   3
ATOM      3  C   UNL     1       2.414  67.303  -4.922  1.00  0.00     0.000 C 
BRANCH   3   4
ATOM      4  C   UNL     1       1.771  68.307  -5.897  1.00  0.00     0.000 C 
BRANCH   4   5
ATOM      5  C   UNL     1       0.586  67.700  -6.666  1.00  0.00     0.000 C 
BRANCH   5   6
ATOM      6  C   UNL     1      -0.346  68.774  -7.256  1.00  0.00     0.000 C 
BRANCH   6   7
ATOM      7  C   UNL     1      -1.755  68.735  -6.644  1.00  0.00     0.000 C 
BRANCH   7   8
ATOM      8  C   UNL     1      -2.787  69.516  -7.476  1.00  0.00     0.000 C 
BRANCH   8   9
ATOM      9  C   UNL     1      -4.180  69.544  -6.822  1.00  0.00     0.000 C 
BRANCH   9  10
ATOM     10  C   UNL     1      -4.501  70.818  -6.015  1.00  0.00     0.000 C 
BRANCH  10  11
ATOM     11  C   UNL     1      -3.361  71.850  -5.942  1.00  0.00     0.000 C 
BRANCH  11  12
ATOM     12  C   UNL     1      -2.226  71.419  -4.996  1.00  0.00     0.006 C 
BRANCH  12  13
ATOM     13  C   UNL     1      -2.593  70.170  -4.183  1.00  0.00     0.053 C 
BRANCH  13  14
ATOM     14  C   UNL     1      -1.416  69.623  -3.436  1.00  0.00     0.041 C 
ATOM     15  O   UNL     1      -0.982  70.217  -2.413  1.00  0.00    -0.550 OA
ATOM     16  O   UNL     1      -0.782  68.470  -3.883  1.00  0.00    -0.550 OA
ENDBRANCH  13  14
ENDBRANCH  12  13
ENDBRANCH  11  12
ENDBRANCH  10  11
ENDBRANCH   9  10
ENDBRANCH   8   9
ENDBRANCH   7   8
ENDBRANCH   6   7
ENDBRANCH   5   6
ENDBRANCH   4   5
ENDBRANCH   3   4
ENDBRANCH   2   3
ENDBRANCH   1   2
BRANCH   1  17
ATOM     17  C   UNL     1       3.142  64.785  -5.790  1.00  0.00     0.000 C 
BRANCH  17  18
ATOM     18  C   UNL     1       2.534  64.393  -7.153  1.00  0.00     0.000 C 
BRANCH  18  19
ATOM     19  C   UNL     1       2.711  62.913  -7.546  1.00  0.00     0.000 C 
BRANCH  19  20
ATOM     20  C   UNL     1       2.647  61.911  -6.374  1.00  0.00     0.000 C 
BRANCH  20  21
ATOM     21  C   UNL     1       2.937  60.445  -6.747  1.00  0.00     0.000 C 
BRANCH  21  22
ATOM     22  C   UNL     1       2.188  59.439  -5.857  1.00  0.00    -0.000 C 
BRANCH  22  23
ATOM     23  C   UNL     1       0.911  58.890  -6.520  1.00  0.00    -0.000 C 
BRANCH  23  24
ATOM     24  C   UNL     1      -0.410  59.420  -5.932  1.00  0.00    -0.000 C 
BRANCH  24  25
ATOM     25  C   UNL     1      -0.228  60.097  -4.563  1.00  0.00    -0.000 C 
BRANCH  25  26
ATOM     26  C   UNL     1      -1.580  60.487  -3.925  1.00  0.00    -0.000 C 
BRANCH  26  27
ATOM     27  C   UNL     1      -2.571  59.316  -3.817  1.00  0.00    -0.000 C 
BRANCH  27  28
ATOM     28  C   UNL     1      -3.960  59.658  -4.377  1.00  0.00    -0.000 C 
BRANCH  28  29
ATOM     29  C   UNL     1      -3.926  60.849  -5.347  1.00  0.00    -0.003 C 
ATOM     30  C   UNL     1      -4.055  60.425  -6.810  1.00  0.00     0.004 C 
ENDBRANCH  28  29
ENDBRANCH  27  28
ENDBRANCH  26  27
ENDBRANCH  25  26
ENDBRANCH  24  25
ENDBRANCH  23  24
ENDBRANCH  22  23
ENDBRANCH  21  22
ENDBRANCH  20  21
ENDBRANCH  19  20
ENDBRANCH  18  19
ENDBRANCH  17  18
ENDBRANCH   1  17
TORSDOF 26
ENDMDL
