MODEL 1
REMARK VINA RESULT:    43.775      0.000      0.000
REMARK INTER + INTRA:          52.880
REMARK INTER:                  52.732
REMARK INTRA:                   0.148
REMARK UNBOUND:                 0.148
REMARK SMILES O=c1c(O)c(-c2ccc(O)c(O)c2)oc2cc(O)cc(O)c12
REMARK SMILES IDX 5 1 3 2 2 3 1 4 22 5 20 6 19 7 17 8 16 9 15 10 14 11 6 12
REMARK SMILES IDX 7 13 8 14 9 15 13 16 11 17 10 18 12 20 4 22 21 24 18 26
REMARK H PARENT 10 19 12 21 4 23 21 25 18 27
REMARK Flexibility Score: inf
ROOT
ATOM      1  C   UNL     1     -16.124  10.500  -9.082  1.00  0.00     0.180 A 
ATOM      2  C   UNL     1     -16.070  10.373  -7.684  1.00  0.00     0.208 A 
ATOM      3  C   UNL     1     -15.613   9.168  -7.127  1.00  0.00     0.238 A 
ATOM      4  O   UNL     1     -15.515   9.078  -5.875  1.00  0.00    -0.285 OA
ATOM      5  C   UNL     1     -15.231   8.100  -7.975  1.00  0.00     0.111 A 
ATOM      6  C   UNL     1     -14.792   6.820  -7.520  1.00  0.00     0.134 A 
ATOM      7  C   UNL     1     -14.315   5.884  -8.446  1.00  0.00     0.093 A 
ATOM      8  C   UNL     1     -14.324   6.155  -9.813  1.00  0.00     0.123 A 
ATOM      9  C   UNL     1     -14.808   7.381 -10.274  1.00  0.00     0.094 A 
ATOM     10  C   UNL     1     -15.255   8.348  -9.372  1.00  0.00     0.146 A 
ATOM     11  O   UNL     1     -15.698   9.505  -9.851  1.00  0.00    -0.452 OA
ENDROOT
BRANCH   1  12
ATOM     12  C   UNL     1     -16.619  11.731  -9.742  1.00  0.00     0.025 A 
ATOM     13  C   UNL     1     -17.485  11.624 -10.842  1.00  0.00     0.016 A 
ATOM     14  C   UNL     1     -17.980  12.772 -11.467  1.00  0.00     0.051 A 
ATOM     15  C   UNL     1     -17.629  14.042 -10.991  1.00  0.00     0.157 A 
ATOM     16  C   UNL     1     -16.286  13.008  -9.255  1.00  0.00     0.062 A 
ATOM     17  C   UNL     1     -16.783  14.160  -9.881  1.00  0.00     0.158 A 
BRANCH  15  18
ATOM     18  O   UNL     1     -18.119  15.188 -11.613  1.00  0.00    -0.504 OA
ATOM     19  H   UNL     1     -19.098  15.444 -11.559  1.00  0.00     0.293 HD
ENDBRANCH  15  18
BRANCH  17  20
ATOM     20  O   UNL     1     -16.447  15.424  -9.401  1.00  0.00    -0.504 OA
ATOM     21  H   UNL     1     -15.786  15.546  -8.643  1.00  0.00     0.293 HD
ENDBRANCH  17  20
ENDBRANCH   1  12
BRANCH   2  22
ATOM     22  O   UNL     1     -16.431  11.446  -6.865  1.00  0.00    -0.502 OA
ATOM     23  H   UNL     1     -16.718  12.343  -7.239  1.00  0.00     0.293 HD
ENDBRANCH   2  22
BRANCH   6  24
ATOM     24  O   UNL     1     -14.828   6.413  -6.183  1.00  0.00    -0.507 OA
ATOM     25  H   UNL     1     -14.196   6.736  -5.466  1.00  0.00     0.293 HD
ENDBRANCH   6  24
BRANCH   8  26
ATOM     26  O   UNL     1     -13.857   5.195 -10.707  1.00  0.00    -0.508 OA
ATOM     27  H   UNL     1     -13.700   4.235 -10.421  1.00  0.00     0.293 HD
ENDBRANCH   8  26
TORSDOF 6
ENDMDL
MODEL 2
REMARK VINA RESULT:    43.958      0.757      1.467
REMARK INTER + INTRA:          53.101
REMARK INTER:                  52.579
REMARK INTRA:                   0.522
REMARK UNBOUND:                 0.148
REMARK SMILES O=c1c(O)c(-c2ccc(O)c(O)c2)oc2cc(O)cc(O)c12
REMARK SMILES IDX 5 1 3 2 2 3 1 4 22 5 20 6 19 7 17 8 16 9 15 10 14 11 6 12
REMARK SMILES IDX 7 13 8 14 9 15 13 16 11 17 10 18 12 20 4 22 21 24 18 26
REMARK H PARENT 10 19 12 21 4 23 21 25 18 27
REMARK Flexibility Score: inf
ROOT
ATOM      1  C   UNL     1     -16.112  10.178  -9.062  1.00  0.00     0.180 A 
ATOM      2  C   UNL     1     -15.971  10.076  -7.668  1.00  0.00     0.208 A 
ATOM      3  C   UNL     1     -15.459   8.889  -7.120  1.00  0.00     0.238 A 
ATOM      4  O   UNL     1     -15.284   8.823  -5.875  1.00  0.00    -0.285 OA
ATOM      5  C   UNL     1     -15.110   7.813  -7.972  1.00  0.00     0.111 A 
ATOM      6  C   UNL     1     -14.621   6.550  -7.523  1.00  0.00     0.134 A 
ATOM      7  C   UNL     1     -14.184   5.606  -8.461  1.00  0.00     0.093 A 
ATOM      8  C   UNL     1     -14.281   5.852  -9.829  1.00  0.00     0.123 A 
ATOM      9  C   UNL     1     -14.814   7.061 -10.281  1.00  0.00     0.094 A 
ATOM     10  C   UNL     1     -15.224   8.036  -9.369  1.00  0.00     0.146 A 
ATOM     11  O   UNL     1     -15.715   9.177  -9.839  1.00  0.00    -0.452 OA
ENDROOT
BRANCH   1  12
ATOM     12  C   UNL     1     -16.668  11.388  -9.711  1.00  0.00     0.025 A 
ATOM     13  C   UNL     1     -16.840  12.559  -8.956  1.00  0.00     0.016 A 
ATOM     14  C   UNL     1     -17.343  13.719  -9.553  1.00  0.00     0.051 A 
ATOM     15  C   UNL     1     -17.666  13.727 -10.916  1.00  0.00     0.157 A 
ATOM     16  C   UNL     1     -16.975  11.408 -11.084  1.00  0.00     0.062 A 
ATOM     17  C   UNL     1     -17.478  12.571 -11.683  1.00  0.00     0.158 A 
BRANCH  15  18
ATOM     18  O   UNL     1     -18.170  14.880 -11.514  1.00  0.00    -0.504 OA
ATOM     19  H   UNL     1     -18.933  15.403 -11.100  1.00  0.00     0.293 HD
ENDBRANCH  15  18
BRANCH  17  20
ATOM     20  O   UNL     1     -17.787  12.587 -13.042  1.00  0.00    -0.504 OA
ATOM     21  H   UNL     1     -18.547  13.148 -13.407  1.00  0.00     0.293 HD
ENDBRANCH  17  20
ENDBRANCH   1  12
BRANCH   2  22
ATOM     22  O   UNL     1     -16.301  11.158  -6.846  1.00  0.00    -0.502 OA
ATOM     23  H   UNL     1     -17.191  11.226  -6.368  1.00  0.00     0.293 HD
ENDBRANCH   2  22
BRANCH   6  24
ATOM     24  O   UNL     1     -14.569   6.166  -6.180  1.00  0.00    -0.507 OA
ATOM     25  H   UNL     1     -13.831   5.616  -5.767  1.00  0.00     0.293 HD
ENDBRANCH   6  24
BRANCH   8  26
ATOM     26  O   UNL     1     -13.851   4.884 -10.734  1.00  0.00    -0.508 OA
ATOM     27  H   UNL     1     -14.480   4.482 -11.420  1.00  0.00     0.293 HD
ENDBRANCH   8  26
TORSDOF 6
ENDMDL
MODEL 3
REMARK VINA RESULT:    46.507      2.575      7.014
REMARK INTER + INTRA:          56.172
REMARK INTER:                  56.484
REMARK INTRA:                  -0.312
REMARK UNBOUND:                 0.148
REMARK SMILES O=c1c(O)c(-c2ccc(O)c(O)c2)oc2cc(O)cc(O)c12
REMARK SMILES IDX 5 1 3 2 2 3 1 4 22 5 20 6 19 7 17 8 16 9 15 10 14 11 6 12
REMARK SMILES IDX 7 13 8 14 9 15 13 16 11 17 10 18 12 20 4 22 21 24 18 26
REMARK H PARENT 10 19 12 21 4 23 21 25 18 27
REMARK Flexibility Score: inf
ROOT
ATOM      1  C   UNL     1     -16.878  12.631  -9.824  1.00  0.00     0.180 A 
ATOM      2  C   UNL     1     -16.454  13.933  -9.510  1.00  0.00     0.208 A 
ATOM      3  C   UNL     1     -16.267  14.857 -10.549  1.00  0.00     0.238 A 
ATOM      4  O   UNL     1     -15.940  16.038 -10.259  1.00  0.00    -0.285 OA
ATOM      5  C   UNL     1     -16.491  14.464 -11.891  1.00  0.00     0.111 A 
ATOM      6  C   UNL     1     -16.293  15.306 -13.027  1.00  0.00     0.134 A 
ATOM      7  C   UNL     1     -16.671  14.852 -14.297  1.00  0.00     0.093 A 
ATOM      8  C   UNL     1     -17.176  13.566 -14.481  1.00  0.00     0.123 A 
ATOM      9  C   UNL     1     -17.317  12.712 -13.385  1.00  0.00     0.094 A 
ATOM     10  C   UNL     1     -16.983  13.149 -12.102  1.00  0.00     0.146 A 
ATOM     11  O   UNL     1     -17.142  12.310 -11.085  1.00  0.00    -0.452 OA
ENDROOT
BRANCH   1  12
ATOM     12  C   UNL     1     -17.072  11.594  -8.784  1.00  0.00     0.025 A 
ATOM     13  C   UNL     1     -18.301  11.515  -8.108  1.00  0.00     0.016 A 
ATOM     14  C   UNL     1     -18.513  10.531  -7.139  1.00  0.00     0.051 A 
ATOM     15  C   UNL     1     -17.506   9.603  -6.843  1.00  0.00     0.157 A 
ATOM     16  C   UNL     1     -16.072  10.647  -8.497  1.00  0.00     0.062 A 
ATOM     17  C   UNL     1     -16.285   9.659  -7.526  1.00  0.00     0.158 A 
BRANCH  15  18
ATOM     18  O   UNL     1     -17.714   8.622  -5.875  1.00  0.00    -0.504 OA
ATOM     19  H   UNL     1     -18.352   7.850  -6.030  1.00  0.00     0.293 HD
ENDBRANCH  15  18
BRANCH  17  20
ATOM     20  O   UNL     1     -15.291   8.725  -7.239  1.00  0.00    -0.504 OA
ATOM     21  H   UNL     1     -14.866   8.667  -6.321  1.00  0.00     0.293 HD
ENDBRANCH  17  20
ENDBRANCH   1  12
BRANCH   2  22
ATOM     22  O   UNL     1     -16.260  14.307  -8.177  1.00  0.00    -0.502 OA
ATOM     23  H   UNL     1     -16.080  15.265  -7.902  1.00  0.00     0.293 HD
ENDBRANCH   2  22
BRANCH   6  24
ATOM     24  O   UNL     1     -15.710  16.575 -12.965  1.00  0.00    -0.507 OA
ATOM     25  H   UNL     1     -16.073  17.349 -12.429  1.00  0.00     0.293 HD
ENDBRANCH   6  24
BRANCH   8  26
ATOM     26  O   UNL     1     -17.526  13.142 -15.761  1.00  0.00    -0.508 OA
ATOM     27  H   UNL     1     -17.989  12.253 -15.918  1.00  0.00     0.293 HD
ENDBRANCH   8  26
TORSDOF 6
ENDMDL
MODEL 4
REMARK VINA RESULT:    46.746      1.390      6.681
REMARK INTER + INTRA:          56.459
REMARK INTER:                  55.965
REMARK INTRA:                   0.493
REMARK UNBOUND:                 0.148
REMARK SMILES O=c1c(O)c(-c2ccc(O)c(O)c2)oc2cc(O)cc(O)c12
REMARK SMILES IDX 5 1 3 2 2 3 1 4 22 5 20 6 19 7 17 8 16 9 15 10 14 11 6 12
REMARK SMILES IDX 7 13 8 14 9 15 13 16 11 17 10 18 12 20 4 22 21 24 18 26
REMARK H PARENT 10 19 12 21 4 23 21 25 18 27
REMARK Flexibility Score: inf
ROOT
ATOM      1  C   UNL     1     -15.337   8.225  -8.921  1.00  0.00     0.180 A 
ATOM      2  C   UNL     1     -15.602   8.368  -7.549  1.00  0.00     0.208 A 
ATOM      3  C   UNL     1     -16.256   9.525  -7.098  1.00  0.00     0.238 A 
ATOM      4  O   UNL     1     -16.539   9.623  -5.875  1.00  0.00    -0.285 OA
ATOM      5  C   UNL     1     -16.623  10.533  -8.023  1.00  0.00     0.111 A 
ATOM      6  C   UNL     1     -17.253  11.764  -7.672  1.00  0.00     0.134 A 
ATOM      7  C   UNL     1     -17.689  12.629  -8.684  1.00  0.00     0.093 A 
ATOM      8  C   UNL     1     -17.459  12.340 -10.027  1.00  0.00     0.123 A 
ATOM      9  C   UNL     1     -16.789  11.166 -10.380  1.00  0.00     0.094 A 
ATOM     10  C   UNL     1     -16.375  10.266  -9.395  1.00  0.00     0.146 A 
ATOM     11  O   UNL     1     -15.751   9.157  -9.772  1.00  0.00    -0.452 OA
ENDROOT
BRANCH   1  12
ATOM     12  C   UNL     1     -14.629   7.045  -9.468  1.00  0.00     0.025 A 
ATOM     13  C   UNL     1     -14.506   5.888  -8.682  1.00  0.00     0.016 A 
ATOM     14  C   UNL     1     -13.860   4.755  -9.186  1.00  0.00     0.051 A 
ATOM     15  C   UNL     1     -13.342   4.759 -10.488  1.00  0.00     0.157 A 
ATOM     16  C   UNL     1     -14.125   7.036 -10.782  1.00  0.00     0.062 A 
ATOM     17  C   UNL     1     -13.478   5.900 -11.288  1.00  0.00     0.158 A 
BRANCH  15  18
ATOM     18  O   UNL     1     -12.695   3.633 -10.993  1.00  0.00    -0.504 OA
ATOM     19  H   UNL     1     -12.977   2.696 -10.728  1.00  0.00     0.293 HD
ENDBRANCH  15  18
BRANCH  17  20
ATOM     20  O   UNL     1     -12.974   5.896 -12.588  1.00  0.00    -0.504 OA
ATOM     21  H   UNL     1     -13.427   5.378 -13.331  1.00  0.00     0.293 HD
ENDBRANCH  17  20
ENDBRANCH   1  12
BRANCH   2  22
ATOM     22  O   UNL     1     -15.251   7.351  -6.655  1.00  0.00    -0.502 OA
ATOM     23  H   UNL     1     -15.435   6.374  -6.844  1.00  0.00     0.293 HD
ENDBRANCH   2  22
BRANCH   6  24
ATOM     24  O   UNL     1     -17.449  12.193  -6.356  1.00  0.00    -0.507 OA
ATOM     25  H   UNL     1     -16.710  12.417  -5.708  1.00  0.00     0.293 HD
ENDBRANCH   6  24
BRANCH   8  26
ATOM     26  O   UNL     1     -17.892  13.231 -11.007  1.00  0.00    -0.508 OA
ATOM     27  H   UNL     1     -18.352  14.102 -10.766  1.00  0.00     0.293 HD
ENDBRANCH   8  26
TORSDOF 6
ENDMDL
