MODEL 1
REMARK VINA RESULT:    -4.009      0.000      0.000
REMARK INTER + INTRA:          -9.267
REMARK INTER:                  -7.291
REMARK INTRA:                  -1.976
REMARK UNBOUND:                -1.976
REMARK SMILES CCCCCCCCCCCCCCCC(=O)[O-]
REMARK SMILES IDX 9 1 10 2 11 3 12 4 13 5 14 6 15 7 16 8 17 9 18 10 8 11 7 12
REMARK SMILES IDX 6 13 5 14 4 15 3 16 2 17 1 18
REMARK H PARENT
REMARK Flexibility Score: inf
ROOT
ATOM      1  C   UNL     1      -7.154  16.975  -9.523  1.00  0.00     0.000 C 
ENDROOT
BRANCH   1   2
ATOM      2  C   UNL     1      -5.893  17.459 -10.262  1.00  0.00     0.000 C 
BRANCH   2   3
ATOM      3  C   UNL     1      -6.151  18.479 -11.385  1.00  0.00     0.000 C 
BRANCH   3   4
ATOM      4  C   UNL     1      -7.491  19.214 -11.231  1.00  0.00     0.000 C 
BRANCH   4   5
ATOM      5  C   UNL     1      -8.447  18.860 -12.380  1.00  0.00     0.000 C 
BRANCH   5   6
ATOM      6  C   UNL     1      -9.846  19.480 -12.215  1.00  0.00     0.006 C 
BRANCH   6   7
ATOM      7  C   UNL     1     -10.681  18.845 -11.089  1.00  0.00     0.053 C 
BRANCH   7   8
ATOM      8  C   UNL     1     -11.007  17.406 -11.356  1.00  0.00     0.041 C 
ATOM      9  O   UNL     1     -10.463  16.498 -10.674  1.00  0.00    -0.550 OA
ATOM     10  O   UNL     1     -11.938  17.069 -12.330  1.00  0.00    -0.550 OA
ENDBRANCH   7   8
ENDBRANCH   6   7
ENDBRANCH   5   6
ENDBRANCH   4   5
ENDBRANCH   3   4
ENDBRANCH   2   3
ENDBRANCH   1   2
BRANCH   1  11
ATOM     11  C   UNL     1      -6.886  16.619  -8.050  1.00  0.00     0.000 C 
BRANCH  11  12
ATOM     12  C   UNL     1      -5.383  16.409  -7.765  1.00  0.00    -0.000 C 
BRANCH  12  13
ATOM     13  C   UNL     1      -4.980  16.750  -6.321  1.00  0.00    -0.000 C 
BRANCH  13  14
ATOM     14  C   UNL     1      -4.027  17.953  -6.235  1.00  0.00    -0.000 C 
BRANCH  14  15
ATOM     15  C   UNL     1      -4.750  19.300  -6.402  1.00  0.00    -0.000 C 
BRANCH  15  16
ATOM     16  C   UNL     1      -4.636  19.890  -7.824  1.00  0.00    -0.000 C 
BRANCH  16  17
ATOM     17  C   UNL     1      -5.700  20.963  -8.094  1.00  0.00    -0.003 C 
ATOM     18  C   UNL     1      -7.108  20.400  -7.922  1.00  0.00     0.004 C 
ENDBRANCH  16  17
ENDBRANCH  15  16
ENDBRANCH  14  15
ENDBRANCH  13  14
ENDBRANCH  12  13
ENDBRANCH  11  12
ENDBRANCH   1  11
TORSDOF 14
ENDMDL
MODEL 2
REMARK VINA RESULT:    -3.759      3.332      7.198
REMARK INTER + INTRA:          -8.811
REMARK INTER:                  -7.111
REMARK INTRA:                  -1.700
REMARK UNBOUND:                -1.976
REMARK SMILES CCCCCCCCCCCCCCCC(=O)[O-]
REMARK SMILES IDX 9 1 10 2 11 3 12 4 13 5 14 6 15 7 16 8 17 9 18 10 8 11 7 12
REMARK SMILES IDX 6 13 5 14 4 15 3 16 2 17 1 18
REMARK H PARENT
REMARK Flexibility Score: inf
ROOT
ATOM      1  C   UNL     1      -7.847  19.321 -10.592  1.00  0.00     0.000 C 
ENDROOT
BRANCH   1   2
ATOM      2  C   UNL     1      -6.825  18.596  -9.698  1.00  0.00     0.000 C 
BRANCH   2   3
ATOM      3  C   UNL     1      -6.571  17.123 -10.065  1.00  0.00     0.000 C 
BRANCH   3   4
ATOM      4  C   UNL     1      -6.166  16.266  -8.857  1.00  0.00     0.000 C 
BRANCH   4   5
ATOM      5  C   UNL     1      -6.447  17.005  -7.540  1.00  0.00     0.000 C 
BRANCH   5   6
ATOM      6  C   UNL     1      -5.381  16.745  -6.461  1.00  0.00     0.006 C 
BRANCH   6   7
ATOM      7  C   UNL     1      -4.152  17.666  -6.562  1.00  0.00     0.053 C 
BRANCH   7   8
ATOM      8  C   UNL     1      -4.286  18.899  -5.720  1.00  0.00     0.041 C 
ATOM      9  O   UNL     1      -4.597  19.997  -6.252  1.00  0.00    -0.550 OA
ATOM     10  O   UNL     1      -4.104  18.829  -4.345  1.00  0.00    -0.550 OA
ENDBRANCH   7   8
ENDBRANCH   6   7
ENDBRANCH   5   6
ENDBRANCH   4   5
ENDBRANCH   3   4
ENDBRANCH   2   3
ENDBRANCH   1   2
BRANCH   1  11
ATOM     11  C   UNL     1      -7.638  19.039 -12.091  1.00  0.00     0.000 C 
BRANCH  11  12
ATOM     12  C   UNL     1      -8.614  19.841 -12.978  1.00  0.00    -0.000 C 
BRANCH  12  13
ATOM     13  C   UNL     1      -9.606  20.699 -12.176  1.00  0.00    -0.000 C 
BRANCH  13  14
ATOM     14  C   UNL     1     -11.065  20.250 -12.354  1.00  0.00    -0.000 C 
BRANCH  14  15
ATOM     15  C   UNL     1     -11.400  18.980 -11.555  1.00  0.00    -0.000 C 
BRANCH  15  16
ATOM     16  C   UNL     1     -11.654  17.741 -12.440  1.00  0.00    -0.000 C 
BRANCH  16  17
ATOM     17  C   UNL     1     -10.614  16.636 -12.207  1.00  0.00    -0.003 C 
ATOM     18  C   UNL     1     -10.201  16.568 -10.740  1.00  0.00     0.004 C 
ENDBRANCH  16  17
ENDBRANCH  15  16
ENDBRANCH  14  15
ENDBRANCH  13  14
ENDBRANCH  12  13
ENDBRANCH  11  12
ENDBRANCH   1  11
TORSDOF 14
ENDMDL
MODEL 3
REMARK VINA RESULT:    -3.667      1.565      3.164
REMARK INTER + INTRA:          -8.643
REMARK INTER:                  -6.555
REMARK INTRA:                  -2.088
REMARK UNBOUND:                -1.976
REMARK SMILES CCCCCCCCCCCCCCCC(=O)[O-]
REMARK SMILES IDX 9 1 10 2 11 3 12 4 13 5 14 6 15 7 16 8 17 9 18 10 8 11 7 12
REMARK SMILES IDX 6 13 5 14 4 15 3 16 2 17 1 18
REMARK H PARENT
REMARK Flexibility Score: inf
ROOT
ATOM      1  C   UNL     1      -6.962  19.545  -8.473  1.00  0.00     0.000 C 
ENDROOT
BRANCH   1   2
ATOM      2  C   UNL     1      -7.201  20.171  -9.859  1.00  0.00     0.000 C 
BRANCH   2   3
ATOM      3  C   UNL     1      -8.482  19.699 -10.572  1.00  0.00     0.000 C 
BRANCH   3   4
ATOM      4  C   UNL     1      -8.284  18.394 -11.357  1.00  0.00     0.000 C 
BRANCH   4   5
ATOM      5  C   UNL     1      -8.855  17.197 -10.583  1.00  0.00     0.000 C 
BRANCH   5   6
ATOM      6  C   UNL     1     -10.327  16.903 -10.924  1.00  0.00     0.006 C 
BRANCH   6   7
ATOM      7  C   UNL     1     -10.699  17.196 -12.389  1.00  0.00     0.053 C 
BRANCH   7   8
ATOM      8  C   UNL     1     -11.786  18.221 -12.512  1.00  0.00     0.041 C 
ATOM      9  O   UNL     1     -12.735  18.043 -13.321  1.00  0.00    -0.550 OA
ATOM     10  O   UNL     1     -11.773  19.354 -11.709  1.00  0.00    -0.550 OA
ENDBRANCH   7   8
ENDBRANCH   6   7
ENDBRANCH   5   6
ENDBRANCH   4   5
ENDBRANCH   3   4
ENDBRANCH   2   3
ENDBRANCH   1   2
BRANCH   1  11
ATOM     11  C   UNL     1      -5.613  19.955  -7.856  1.00  0.00     0.000 C 
BRANCH  11  12
ATOM     12  C   UNL     1      -4.907  18.773  -7.158  1.00  0.00    -0.000 C 
BRANCH  12  13
ATOM     13  C   UNL     1      -5.756  17.491  -7.114  1.00  0.00    -0.000 C 
BRANCH  13  14
ATOM     14  C   UNL     1      -5.124  16.329  -7.896  1.00  0.00    -0.000 C 
BRANCH  14  15
ATOM     15  C   UNL     1      -5.630  16.238  -9.345  1.00  0.00    -0.000 C 
BRANCH  15  16
ATOM     16  C   UNL     1      -4.519  16.426 -10.401  1.00  0.00    -0.000 C 
BRANCH  16  17
ATOM     17  C   UNL     1      -4.331  17.898 -10.792  1.00  0.00    -0.003 C 
ATOM     18  C   UNL     1      -4.776  18.149 -12.230  1.00  0.00     0.004 C 
ENDBRANCH  16  17
ENDBRANCH  15  16
ENDBRANCH  14  15
ENDBRANCH  13  14
ENDBRANCH  12  13
ENDBRANCH  11  12
ENDBRANCH   1  11
TORSDOF 14
ENDMDL
MODEL 4
REMARK VINA RESULT:    -3.666      1.456      2.194
REMARK INTER + INTRA:          -8.642
REMARK INTER:                  -6.531
REMARK INTRA:                  -2.111
REMARK UNBOUND:                -1.976
REMARK SMILES CCCCCCCCCCCCCCCC(=O)[O-]
REMARK SMILES IDX 9 1 10 2 11 3 12 4 13 5 14 6 15 7 16 8 17 9 18 10 8 11 7 12
REMARK SMILES IDX 6 13 5 14 4 15 3 16 2 17 1 18
REMARK H PARENT
REMARK Flexibility Score: inf
ROOT
ATOM      1  C   UNL     1      -4.256  16.953 -11.475  1.00  0.00     0.000 C 
ENDROOT
BRANCH   1   2
ATOM      2  C   UNL     1      -4.023  18.309 -10.784  1.00  0.00     0.000 C 
BRANCH   2   3
ATOM      3  C   UNL     1      -4.956  19.442 -11.248  1.00  0.00     0.000 C 
BRANCH   3   4
ATOM      4  C   UNL     1      -6.324  18.934 -11.725  1.00  0.00     0.000 C 
BRANCH   4   5
ATOM      5  C   UNL     1      -7.336  18.915 -10.571  1.00  0.00     0.000 C 
BRANCH   5   6
ATOM      6  C   UNL     1      -8.423  17.838 -10.738  1.00  0.00     0.006 C 
BRANCH   6   7
ATOM      7  C   UNL     1      -9.348  18.067 -11.947  1.00  0.00     0.053 C 
BRANCH   7   8
ATOM      8  C   UNL     1     -10.778  18.272 -11.548  1.00  0.00     0.041 C 
ATOM      9  O   UNL     1     -11.130  19.340 -10.983  1.00  0.00    -0.550 OA
ATOM     10  O   UNL     1     -11.729  17.301 -11.834  1.00  0.00    -0.550 OA
ENDBRANCH   7   8
ENDBRANCH   6   7
ENDBRANCH   5   6
ENDBRANCH   4   5
ENDBRANCH   3   4
ENDBRANCH   2   3
ENDBRANCH   1   2
BRANCH   1  11
ATOM     11  C   UNL     1      -4.249  15.771 -10.490  1.00  0.00     0.000 C 
BRANCH  11  12
ATOM     12  C   UNL     1      -4.486  16.223  -9.033  1.00  0.00    -0.000 C 
BRANCH  12  13
ATOM     13  C   UNL     1      -5.963  16.171  -8.608  1.00  0.00    -0.000 C 
BRANCH  13  14
ATOM     14  C   UNL     1      -6.248  16.987  -7.337  1.00  0.00    -0.000 C 
BRANCH  14  15
ATOM     15  C   UNL     1      -4.982  17.264  -6.509  1.00  0.00    -0.000 C 
BRANCH  15  16
ATOM     16  C   UNL     1      -4.621  18.762  -6.415  1.00  0.00    -0.000 C 
BRANCH  16  17
ATOM     17  C   UNL     1      -5.257  19.586  -7.543  1.00  0.00    -0.003 C 
ATOM     18  C   UNL     1      -6.109  20.722  -6.983  1.00  0.00     0.004 C 
ENDBRANCH  16  17
ENDBRANCH  15  16
ENDBRANCH  14  15
ENDBRANCH  13  14
ENDBRANCH  12  13
ENDBRANCH  11  12
ENDBRANCH   1  11
TORSDOF 14
ENDMDL
MODEL 5
REMARK VINA RESULT:    -3.627      1.379      2.514
REMARK INTER + INTRA:          -8.572
REMARK INTER:                  -6.960
REMARK INTRA:                  -1.612
REMARK UNBOUND:                -1.976
REMARK SMILES CCCCCCCCCCCCCCCC(=O)[O-]
REMARK SMILES IDX 9 1 10 2 11 3 12 4 13 5 14 6 15 7 16 8 17 9 18 10 8 11 7 12
REMARK SMILES IDX 6 13 5 14 4 15 3 16 2 17 1 18
REMARK H PARENT
REMARK Flexibility Score: inf
ROOT
ATOM      1  C   UNL     1      -5.573  16.717  -7.249  1.00  0.00     0.000 C 
ENDROOT
BRANCH   1   2
ATOM      2  C   UNL     1      -4.488  16.823  -8.336  1.00  0.00     0.000 C 
BRANCH   2   3
ATOM      3  C   UNL     1      -4.871  16.209  -9.695  1.00  0.00     0.000 C 
BRANCH   3   4
ATOM      4  C   UNL     1      -5.139  17.267 -10.775  1.00  0.00     0.000 C 
BRANCH   4   5
ATOM      5  C   UNL     1      -6.293  18.193 -10.363  1.00  0.00     0.000 C 
BRANCH   5   6
ATOM      6  C   UNL     1      -7.642  17.461 -10.240  1.00  0.00     0.006 C 
BRANCH   6   7
ATOM      7  C   UNL     1      -8.791  18.139 -11.007  1.00  0.00     0.053 C 
BRANCH   7   8
ATOM      8  C   UNL     1      -9.861  17.171 -11.414  1.00  0.00     0.041 C 
ATOM      9  O   UNL     1     -10.398  16.424 -10.554  1.00  0.00    -0.550 OA
ATOM     10  O   UNL     1     -10.293  17.120 -12.733  1.00  0.00    -0.550 OA
ENDBRANCH   7   8
ENDBRANCH   6   7
ENDBRANCH   5   6
ENDBRANCH   4   5
ENDBRANCH   3   4
ENDBRANCH   2   3
ENDBRANCH   1   2
BRANCH   1  11
ATOM     11  C   UNL     1      -4.989  16.633  -5.827  1.00  0.00     0.000 C 
BRANCH  11  12
ATOM     12  C   UNL     1      -3.969  17.757  -5.548  1.00  0.00    -0.000 C 
BRANCH  12  13
ATOM     13  C   UNL     1      -3.980  18.247  -4.090  1.00  0.00    -0.000 C 
BRANCH  13  14
ATOM     14  C   UNL     1      -4.120  19.773  -3.974  1.00  0.00    -0.000 C 
BRANCH  14  15
ATOM     15  C   UNL     1      -4.076  20.482  -5.337  1.00  0.00    -0.000 C 
BRANCH  15  16
ATOM     16  C   UNL     1      -5.441  21.047  -5.785  1.00  0.00    -0.000 C 
BRANCH  16  17
ATOM     17  C   UNL     1      -5.818  20.600  -7.204  1.00  0.00    -0.003 C 
ATOM     18  C   UNL     1      -4.583  20.491  -8.094  1.00  0.00     0.004 C 
ENDBRANCH  16  17
ENDBRANCH  15  16
ENDBRANCH  14  15
ENDBRANCH  13  14
ENDBRANCH  12  13
ENDBRANCH  11  12
ENDBRANCH   1  11
TORSDOF 14
ENDMDL
MODEL 6
REMARK VINA RESULT:    -3.623      3.062      6.185
REMARK INTER + INTRA:          -8.565
REMARK INTER:                  -6.854
REMARK INTRA:                  -1.711
REMARK UNBOUND:                -1.976
REMARK SMILES CCCCCCCCCCCCCCCC(=O)[O-]
REMARK SMILES IDX 9 1 10 2 11 3 12 4 13 5 14 6 15 7 16 8 17 9 18 10 8 11 7 12
REMARK SMILES IDX 6 13 5 14 4 15 3 16 2 17 1 18
REMARK H PARENT
REMARK Flexibility Score: inf
ROOT
ATOM      1  C   UNL     1      -6.736  19.257 -12.720  1.00  0.00     0.000 C 
ENDROOT
BRANCH   1   2
ATOM      2  C   UNL     1      -5.387  18.556 -12.478  1.00  0.00     0.000 C 
BRANCH   2   3
ATOM      3  C   UNL     1      -4.998  18.389 -10.998  1.00  0.00     0.000 C 
BRANCH   3   4
ATOM      4  C   UNL     1      -4.224  17.091 -10.725  1.00  0.00     0.000 C 
BRANCH   4   5
ATOM      5  C   UNL     1      -5.050  16.131  -9.856  1.00  0.00     0.000 C 
BRANCH   5   6
ATOM      6  C   UNL     1      -6.454  16.670  -9.525  1.00  0.00     0.006 C 
BRANCH   6   7
ATOM      7  C   UNL     1      -6.827  16.569  -8.035  1.00  0.00     0.053 C 
BRANCH   7   8
ATOM      8  C   UNL     1      -5.807  17.209  -7.142  1.00  0.00     0.041 C 
ATOM      9  O   UNL     1      -5.203  16.521  -6.278  1.00  0.00    -0.550 OA
ATOM     10  O   UNL     1      -5.497  18.555  -7.288  1.00  0.00    -0.550 OA
ENDBRANCH   7   8
ENDBRANCH   6   7
ENDBRANCH   5   6
ENDBRANCH   4   5
ENDBRANCH   3   4
ENDBRANCH   2   3
ENDBRANCH   1   2
BRANCH   1  11
ATOM     11  C   UNL     1      -7.147  20.180 -11.558  1.00  0.00     0.000 C 
BRANCH  11  12
ATOM     12  C   UNL     1      -8.324  19.602 -10.743  1.00  0.00    -0.000 C 
BRANCH  12  13
ATOM     13  C   UNL     1      -9.440  20.624 -10.469  1.00  0.00    -0.000 C 
BRANCH  13  14
ATOM     14  C   UNL     1     -10.846  20.051 -10.706  1.00  0.00    -0.000 C 
BRANCH  14  15
ATOM     15  C   UNL     1     -11.051  19.549 -12.144  1.00  0.00    -0.000 C 
BRANCH  15  16
ATOM     16  C   UNL     1     -11.572  18.097 -12.224  1.00  0.00    -0.000 C 
BRANCH  16  17
ATOM     17  C   UNL     1     -10.431  17.070 -12.242  1.00  0.00    -0.003 C 
ATOM     18  C   UNL     1     -10.188  16.493 -10.850  1.00  0.00     0.004 C 
ENDBRANCH  16  17
ENDBRANCH  15  16
ENDBRANCH  14  15
ENDBRANCH  13  14
ENDBRANCH  12  13
ENDBRANCH  11  12
ENDBRANCH   1  11
TORSDOF 14
ENDMDL
MODEL 7
REMARK VINA RESULT:    -3.596      3.954      7.067
REMARK INTER + INTRA:          -8.516
REMARK INTER:                  -6.851
REMARK INTRA:                  -1.665
REMARK UNBOUND:                -1.976
REMARK SMILES CCCCCCCCCCCCCCCC(=O)[O-]
REMARK SMILES IDX 9 1 10 2 11 3 12 4 13 5 14 6 15 7 16 8 17 9 18 10 8 11 7 12
REMARK SMILES IDX 6 13 5 14 4 15 3 16 2 17 1 18
REMARK H PARENT
REMARK Flexibility Score: inf
ROOT
ATOM      1  C   UNL     1      -6.788  16.829  -7.562  1.00  0.00     0.000 C 
ENDROOT
BRANCH   1   2
ATOM      2  C   UNL     1      -5.397  16.366  -7.093  1.00  0.00     0.000 C 
BRANCH   2   3
ATOM      3  C   UNL     1      -4.739  17.263  -6.029  1.00  0.00     0.000 C 
BRANCH   3   4
ATOM      4  C   UNL     1      -3.978  18.451  -6.634  1.00  0.00     0.000 C 
BRANCH   4   5
ATOM      5  C   UNL     1      -4.754  19.761  -6.433  1.00  0.00     0.000 C 
BRANCH   5   6
ATOM      6  C   UNL     1      -4.121  20.683  -5.375  1.00  0.00     0.006 C 
BRANCH   6   7
ATOM      7  C   UNL     1      -5.069  21.050  -4.219  1.00  0.00     0.053 C 
BRANCH   7   8
ATOM      8  C   UNL     1      -4.757  20.299  -2.959  1.00  0.00     0.041 C 
ATOM      9  O   UNL     1      -5.114  20.761  -1.844  1.00  0.00    -0.550 OA
ATOM     10  O   UNL     1      -4.107  19.073  -3.019  1.00  0.00    -0.550 OA
ENDBRANCH   7   8
ENDBRANCH   6   7
ENDBRANCH   5   6
ENDBRANCH   4   5
ENDBRANCH   3   4
ENDBRANCH   2   3
ENDBRANCH   1   2
BRANCH   1  11
ATOM     11  C   UNL     1      -7.004  16.641  -9.074  1.00  0.00     0.000 C 
BRANCH  11  12
ATOM     12  C   UNL     1      -5.936  17.375  -9.912  1.00  0.00    -0.000 C 
BRANCH  12  13
ATOM     13  C   UNL     1      -6.146  18.897  -9.975  1.00  0.00    -0.000 C 
BRANCH  13  14
ATOM     14  C   UNL     1      -7.569  19.286 -10.404  1.00  0.00    -0.000 C 
BRANCH  14  15
ATOM     15  C   UNL     1      -7.762  19.261 -11.929  1.00  0.00    -0.000 C 
BRANCH  15  16
ATOM     16  C   UNL     1      -9.028  18.502 -12.380  1.00  0.00    -0.000 C 
BRANCH  16  17
ATOM     17  C   UNL     1      -9.972  18.197 -11.208  1.00  0.00    -0.003 C 
ATOM     18  C   UNL     1     -10.192  16.694 -11.055  1.00  0.00     0.004 C 
ENDBRANCH  16  17
ENDBRANCH  15  16
ENDBRANCH  14  15
ENDBRANCH  13  14
ENDBRANCH  12  13
ENDBRANCH  11  12
ENDBRANCH   1  11
TORSDOF 14
ENDMDL
MODEL 8
REMARK VINA RESULT:    -3.571      2.188      6.340
REMARK INTER + INTRA:          -8.470
REMARK INTER:                  -7.170
REMARK INTRA:                  -1.300
REMARK UNBOUND:                -1.976
REMARK SMILES CCCCCCCCCCCCCCCC(=O)[O-]
REMARK SMILES IDX 9 1 10 2 11 3 12 4 13 5 14 6 15 7 16 8 17 9 18 10 8 11 7 12
REMARK SMILES IDX 6 13 5 14 4 15 3 16 2 17 1 18
REMARK H PARENT
REMARK Flexibility Score: inf
ROOT
ATOM      1  C   UNL     1      -6.886  19.765  -8.207  1.00  0.00     0.000 C 
ENDROOT
BRANCH   1   2
ATOM      2  C   UNL     1      -5.552  20.471  -7.899  1.00  0.00     0.000 C 
BRANCH   2   3
ATOM      3  C   UNL     1      -4.968  20.174  -6.506  1.00  0.00     0.000 C 
BRANCH   3   4
ATOM      4  C   UNL     1      -4.001  18.981  -6.505  1.00  0.00     0.000 C 
BRANCH   4   5
ATOM      5  C   UNL     1      -4.519  17.854  -5.599  1.00  0.00     0.000 C 
BRANCH   5   6
ATOM      6  C   UNL     1      -5.029  16.633  -6.385  1.00  0.00     0.006 C 
BRANCH   6   7
ATOM      7  C   UNL     1      -4.595  16.615  -7.862  1.00  0.00     0.053 C 
BRANCH   7   8
ATOM      8  C   UNL     1      -5.755  16.467  -8.800  1.00  0.00     0.041 C 
ATOM      9  O   UNL     1      -5.570  16.506 -10.045  1.00  0.00    -0.550 OA
ATOM     10  O   UNL     1      -7.033  16.248  -8.303  1.00  0.00    -0.550 OA
ENDBRANCH   7   8
ENDBRANCH   6   7
ENDBRANCH   5   6
ENDBRANCH   4   5
ENDBRANCH   3   4
ENDBRANCH   2   3
ENDBRANCH   1   2
BRANCH   1  11
ATOM     11  C   UNL     1      -8.017  20.749  -8.556  1.00  0.00     0.000 C 
BRANCH  11  12
ATOM     12  C   UNL     1      -8.242  20.862 -10.079  1.00  0.00    -0.000 C 
BRANCH  12  13
ATOM     13  C   UNL     1      -9.312  19.896 -10.614  1.00  0.00    -0.000 C 
BRANCH  13  14
ATOM     14  C   UNL     1      -8.727  18.797 -11.515  1.00  0.00    -0.000 C 
BRANCH  14  15
ATOM     15  C   UNL     1      -8.803  17.400 -10.879  1.00  0.00    -0.000 C 
BRANCH  15  16
ATOM     16  C   UNL     1     -10.226  16.802 -10.866  1.00  0.00    -0.000 C 
BRANCH  16  17
ATOM     17  C   UNL     1     -10.808  16.654 -12.279  1.00  0.00    -0.003 C 
ATOM     18  C   UNL     1     -12.107  17.442 -12.427  1.00  0.00     0.004 C 
ENDBRANCH  16  17
ENDBRANCH  15  16
ENDBRANCH  14  15
ENDBRANCH  13  14
ENDBRANCH  12  13
ENDBRANCH  11  12
ENDBRANCH   1  11
TORSDOF 14
ENDMDL
MODEL 9
REMARK VINA RESULT:    -3.538      1.243      2.964
REMARK INTER + INTRA:          -8.410
REMARK INTER:                  -6.729
REMARK INTRA:                  -1.681
REMARK UNBOUND:                -1.976
REMARK SMILES CCCCCCCCCCCCCCCC(=O)[O-]
REMARK SMILES IDX 9 1 10 2 11 3 12 4 13 5 14 6 15 7 16 8 17 9 18 10 8 11 7 12
REMARK SMILES IDX 6 13 5 14 4 15 3 16 2 17 1 18
REMARK H PARENT
REMARK Flexibility Score: inf
ROOT
ATOM      1  C   UNL     1      -6.364  20.046  -7.829  1.00  0.00     0.000 C 
ENDROOT
BRANCH   1   2
ATOM      2  C   UNL     1      -6.723  20.592  -9.223  1.00  0.00     0.000 C 
BRANCH   2   3
ATOM      3  C   UNL     1      -8.191  20.391  -9.640  1.00  0.00     0.000 C 
BRANCH   3   4
ATOM      4  C   UNL     1      -8.351  20.071 -11.134  1.00  0.00     0.000 C 
BRANCH   4   5
ATOM      5  C   UNL     1      -8.284  18.558 -11.382  1.00  0.00     0.000 C 
BRANCH   5   6
ATOM      6  C   UNL     1      -9.572  17.989 -12.005  1.00  0.00     0.006 C 
BRANCH   6   7
ATOM      7  C   UNL     1     -10.859  18.674 -11.511  1.00  0.00     0.053 C 
BRANCH   7   8
ATOM      8  C   UNL     1     -12.001  18.511 -12.468  1.00  0.00     0.041 C 
ATOM      9  O   UNL     1     -12.543  19.524 -12.984  1.00  0.00    -0.550 OA
ATOM     10  O   UNL     1     -12.443  17.242 -12.819  1.00  0.00    -0.550 OA
ENDBRANCH   7   8
ENDBRANCH   6   7
ENDBRANCH   5   6
ENDBRANCH   4   5
ENDBRANCH   3   4
ENDBRANCH   2   3
ENDBRANCH   1   2
BRANCH   1  11
ATOM     11  C   UNL     1      -4.931  20.403  -7.397  1.00  0.00     0.000 C 
BRANCH  11  12
ATOM     12  C   UNL     1      -4.545  19.746  -6.054  1.00  0.00    -0.000 C 
BRANCH  12  13
ATOM     13  C   UNL     1      -3.875  18.371  -6.215  1.00  0.00    -0.000 C 
BRANCH  13  14
ATOM     14  C   UNL     1      -4.729  17.222  -5.658  1.00  0.00    -0.000 C 
BRANCH  14  15
ATOM     15  C   UNL     1      -5.329  16.334  -6.761  1.00  0.00    -0.000 C 
BRANCH  15  16
ATOM     16  C   UNL     1      -4.724  16.589  -8.158  1.00  0.00    -0.000 C 
BRANCH  16  17
ATOM     17  C   UNL     1      -5.794  16.614  -9.259  1.00  0.00    -0.003 C 
ATOM     18  C   UNL     1      -7.197  16.512  -8.667  1.00  0.00     0.004 C 
ENDBRANCH  16  17
ENDBRANCH  15  16
ENDBRANCH  14  15
ENDBRANCH  13  14
ENDBRANCH  12  13
ENDBRANCH  11  12
ENDBRANCH   1  11
TORSDOF 14
ENDMDL
