MODEL 1
REMARK VINA RESULT:    28.384      0.000      0.000
REMARK INTER + INTRA:          33.211
REMARK INTER:                  33.362
REMARK INTRA:                  -0.151
REMARK UNBOUND:                -0.151
REMARK SMILES O=c1c(O)c(-c2ccc(O)cc2)oc2cc(O)cc(O)c12
REMARK SMILES IDX 5 1 3 2 2 3 1 4 21 5 19 6 18 7 16 8 15 9 14 10 13 11 6 12
REMARK SMILES IDX 7 13 8 14 9 15 12 16 11 17 10 18 4 20 20 22 17 24
REMARK H PARENT 10 19 4 21 20 23 17 25
REMARK Flexibility Score: inf
ROOT
ATOM      1  C   UNL     1       9.466   2.152   8.584  1.00  0.00     0.180 A 
ATOM      2  C   UNL     1       9.437   3.468   8.091  1.00  0.00     0.208 A 
ATOM      3  C   UNL     1      10.409   3.867   7.160  1.00  0.00     0.238 A 
ATOM      4  O   UNL     1      10.333   5.021   6.666  1.00  0.00    -0.285 OA
ATOM      5  C   UNL     1      11.432   2.965   6.777  1.00  0.00     0.111 A 
ATOM      6  C   UNL     1      12.496   3.276   5.876  1.00  0.00     0.134 A 
ATOM      7  C   UNL     1      13.389   2.270   5.489  1.00  0.00     0.093 A 
ATOM      8  C   UNL     1      13.297   0.981   6.019  1.00  0.00     0.123 A 
ATOM      9  C   UNL     1      12.297   0.682   6.940  1.00  0.00     0.094 A 
ATOM     10  C   UNL     1      11.367   1.653   7.317  1.00  0.00     0.146 A 
ATOM     11  O   UNL     1      10.418   1.319   8.182  1.00  0.00    -0.452 OA
ENDROOT
BRANCH   1  12
ATOM     12  C   UNL     1       8.466   1.653   9.557  1.00  0.00     0.021 A 
ATOM     13  C   UNL     1       7.124   1.525   9.162  1.00  0.00     0.016 A 
ATOM     14  C   UNL     1       6.158   1.078  10.069  1.00  0.00     0.047 A 
ATOM     15  C   UNL     1       6.520   0.770  11.386  1.00  0.00     0.115 A 
ATOM     16  C   UNL     1       8.818   1.360  10.886  1.00  0.00     0.016 A 
ATOM     17  C   UNL     1       7.850   0.915  11.792  1.00  0.00     0.047 A 
BRANCH  15  18
ATOM     18  O   UNL     1       5.567   0.323  12.300  1.00  0.00    -0.508 OA
ATOM     19  H   UNL     1       4.603   0.632  12.252  1.00  0.00     0.293 HD
ENDBRANCH  15  18
ENDBRANCH   1  12
BRANCH   2  20
ATOM     20  O   UNL     1       8.465   4.366   8.539  1.00  0.00    -0.502 OA
ATOM     21  H   UNL     1       7.582   4.060   8.931  1.00  0.00     0.293 HD
ENDBRANCH   2  20
BRANCH   6  22
ATOM     22  O   UNL     1      12.732   4.553   5.356  1.00  0.00    -0.507 OA
ATOM     23  H   UNL     1      13.629   5.009   5.329  1.00  0.00     0.293 HD
ENDBRANCH   6  22
BRANCH   8  24
ATOM     24  O   UNL     1      14.202  -0.008   5.641  1.00  0.00    -0.508 OA
ATOM     25  H   UNL     1      13.912  -0.812   5.095  1.00  0.00     0.293 HD
ENDBRANCH   8  24
TORSDOF 5
ENDMDL
MODEL 2
REMARK VINA RESULT:    29.104      4.403      7.332
REMARK INTER + INTRA:          34.057
REMARK INTER:                  34.201
REMARK INTRA:                  -0.144
REMARK UNBOUND:                -0.151
REMARK SMILES O=c1c(O)c(-c2ccc(O)cc2)oc2cc(O)cc(O)c12
REMARK SMILES IDX 5 1 3 2 2 3 1 4 21 5 19 6 18 7 16 8 15 9 14 10 13 11 6 12
REMARK SMILES IDX 7 13 8 14 9 15 12 16 11 17 10 18 4 20 20 22 17 24
REMARK H PARENT 10 19 4 21 20 23 17 25
REMARK Flexibility Score: inf
ROOT
ATOM      1  C   UNL     1      15.000   3.035   8.530  1.00  0.00     0.180 A 
ATOM      2  C   UNL     1      15.036   1.731   8.004  1.00  0.00     0.208 A 
ATOM      3  C   UNL     1      14.056   1.345   7.075  1.00  0.00     0.238 A 
ATOM      4  O   UNL     1      14.138   0.205   6.552  1.00  0.00    -0.285 OA
ATOM      5  C   UNL     1      13.021   2.247   6.727  1.00  0.00     0.111 A 
ATOM      6  C   UNL     1      11.949   1.947   5.831  1.00  0.00     0.134 A 
ATOM      7  C   UNL     1      11.041   2.953   5.479  1.00  0.00     0.093 A 
ATOM      8  C   UNL     1      11.127   4.229   6.040  1.00  0.00     0.123 A 
ATOM      9  C   UNL     1      12.135   4.516   6.956  1.00  0.00     0.094 A 
ATOM     10  C   UNL     1      13.079   3.545   7.298  1.00  0.00     0.146 A 
ATOM     11  O   UNL     1      14.036   3.867   8.160  1.00  0.00    -0.452 OA
ENDROOT
BRANCH   1  12
ATOM     12  C   UNL     1      16.007   3.519   9.503  1.00  0.00     0.021 A 
ATOM     13  C   UNL     1      17.345   3.657   9.099  1.00  0.00     0.016 A 
ATOM     14  C   UNL     1      18.317   4.091  10.005  1.00  0.00     0.047 A 
ATOM     15  C   UNL     1      17.966   4.376  11.331  1.00  0.00     0.115 A 
ATOM     16  C   UNL     1      15.665   3.788  10.840  1.00  0.00     0.016 A 
ATOM     17  C   UNL     1      16.640   4.221  11.745  1.00  0.00     0.047 A 
BRANCH  15  18
ATOM     18  O   UNL     1      18.925   4.809  12.244  1.00  0.00    -0.508 OA
ATOM     19  H   UNL     1      19.555   4.159  12.697  1.00  0.00     0.293 HD
ENDBRANCH  15  18
ENDBRANCH   1  12
BRANCH   2  20
ATOM     20  O   UNL     1      16.022   0.832   8.418  1.00  0.00    -0.502 OA
ATOM     21  H   UNL     1      15.800  -0.053   8.860  1.00  0.00     0.293 HD
ENDBRANCH   2  20
BRANCH   6  22
ATOM     22  O   UNL     1      11.719   0.681   5.282  1.00  0.00    -0.507 OA
ATOM     23  H   UNL     1      11.237   0.506   4.415  1.00  0.00     0.293 HD
ENDBRANCH   6  22
BRANCH   8  24
ATOM     24  O   UNL     1      10.208   5.219   5.698  1.00  0.00    -0.508 OA
ATOM     25  H   UNL     1       9.245   4.994   5.476  1.00  0.00     0.293 HD
ENDBRANCH   8  24
TORSDOF 5
ENDMDL
MODEL 3
REMARK VINA RESULT:    29.533      1.226      3.076
REMARK INTER + INTRA:          34.561
REMARK INTER:                  34.790
REMARK INTRA:                  -0.229
REMARK UNBOUND:                -0.151
REMARK SMILES O=c1c(O)c(-c2ccc(O)cc2)oc2cc(O)cc(O)c12
REMARK SMILES IDX 5 1 3 2 2 3 1 4 21 5 19 6 18 7 16 8 15 9 14 10 13 11 6 12
REMARK SMILES IDX 7 13 8 14 9 15 12 16 11 17 10 18 4 20 20 22 17 24
REMARK H PARENT 10 19 4 21 20 23 17 25
REMARK Flexibility Score: inf
ROOT
ATOM      1  C   UNL     1       9.427   1.476   8.733  1.00  0.00     0.180 A 
ATOM      2  C   UNL     1      10.192   0.383   8.288  1.00  0.00     0.208 A 
ATOM      3  C   UNL     1      11.213   0.604   7.351  1.00  0.00     0.238 A 
ATOM      4  O   UNL     1      11.942  -0.364   7.014  1.00  0.00    -0.285 OA
ATOM      5  C   UNL     1      11.421   1.904   6.828  1.00  0.00     0.111 A 
ATOM      6  C   UNL     1      12.398   2.236   5.840  1.00  0.00     0.134 A 
ATOM      7  C   UNL     1      12.585   3.575   5.476  1.00  0.00     0.093 A 
ATOM      8  C   UNL     1      11.787   4.586   6.016  1.00  0.00     0.123 A 
ATOM      9  C   UNL     1      10.795   4.266   6.939  1.00  0.00     0.094 A 
ATOM     10  C   UNL     1      10.610   2.945   7.351  1.00  0.00     0.146 A 
ATOM     11  O   UNL     1       9.666   2.687   8.248  1.00  0.00    -0.452 OA
ENDROOT
BRANCH   1  12
ATOM     12  C   UNL     1       8.342   1.324   9.730  1.00  0.00     0.021 A 
ATOM     13  C   UNL     1       8.670   1.121  11.080  1.00  0.00     0.016 A 
ATOM     14  C   UNL     1       7.664   0.952  12.036  1.00  0.00     0.047 A 
ATOM     15  C   UNL     1       6.317   0.967  11.650  1.00  0.00     0.115 A 
ATOM     16  C   UNL     1       6.989   1.317   9.347  1.00  0.00     0.016 A 
ATOM     17  C   UNL     1       5.984   1.146  10.305  1.00  0.00     0.047 A 
BRANCH  15  18
ATOM     18  O   UNL     1       5.305   0.800  12.593  1.00  0.00    -0.508 OA
ATOM     19  H   UNL     1       5.320   1.293  13.478  1.00  0.00     0.293 HD
ENDBRANCH  15  18
ENDBRANCH   1  12
BRANCH   2  20
ATOM     20  O   UNL     1       9.920  -0.904   8.759  1.00  0.00    -0.502 OA
ATOM     21  H   UNL     1       9.077  -1.128   9.275  1.00  0.00     0.293 HD
ENDBRANCH   2  20
BRANCH   6  22
ATOM     22  O   UNL     1      13.188   1.294   5.173  1.00  0.00    -0.507 OA
ATOM     23  H   UNL     1      13.149   1.103   4.184  1.00  0.00     0.293 HD
ENDBRANCH   6  22
BRANCH   8  24
ATOM     24  O   UNL     1      11.967   5.914   5.634  1.00  0.00    -0.508 OA
ATOM     25  H   UNL     1      12.009   6.661   6.318  1.00  0.00     0.293 HD
ENDBRANCH   8  24
TORSDOF 5
ENDMDL
MODEL 4
REMARK VINA RESULT:    30.274      4.662      6.820
REMARK INTER + INTRA:          35.432
REMARK INTER:                  35.649
REMARK INTRA:                  -0.216
REMARK UNBOUND:                -0.151
REMARK SMILES O=c1c(O)c(-c2ccc(O)cc2)oc2cc(O)cc(O)c12
REMARK SMILES IDX 5 1 3 2 2 3 1 4 21 5 19 6 18 7 16 8 15 9 14 10 13 11 6 12
REMARK SMILES IDX 7 13 8 14 9 15 12 16 11 17 10 18 4 20 20 22 17 24
REMARK H PARENT 10 19 4 21 20 23 17 25
REMARK Flexibility Score: inf
ROOT
ATOM      1  C   UNL     1      14.966   3.654   8.610  1.00  0.00     0.180 A 
ATOM      2  C   UNL     1      14.176   4.746   8.210  1.00  0.00     0.208 A 
ATOM      3  C   UNL     1      13.133   4.533   7.295  1.00  0.00     0.238 A 
ATOM      4  O   UNL     1      12.384   5.498   6.999  1.00  0.00    -0.285 OA
ATOM      5  C   UNL     1      12.927   3.242   6.749  1.00  0.00     0.111 A 
ATOM      6  C   UNL     1      11.929   2.920   5.779  1.00  0.00     0.134 A 
ATOM      7  C   UNL     1      11.749   1.587   5.390  1.00  0.00     0.093 A 
ATOM      8  C   UNL     1      12.574   0.574   5.886  1.00  0.00     0.123 A 
ATOM      9  C   UNL     1      13.586   0.886   6.789  1.00  0.00     0.094 A 
ATOM     10  C   UNL     1      13.765   2.201   7.226  1.00  0.00     0.146 A 
ATOM     11  O   UNL     1      14.729   2.450   8.105  1.00  0.00    -0.452 OA
ENDROOT
BRANCH   1  12
ATOM     12  C   UNL     1      16.075   3.798   9.582  1.00  0.00     0.021 A 
ATOM     13  C   UNL     1      15.780   4.001  10.939  1.00  0.00     0.016 A 
ATOM     14  C   UNL     1      16.810   4.163  11.872  1.00  0.00     0.047 A 
ATOM     15  C   UNL     1      18.146   4.139  11.455  1.00  0.00     0.115 A 
ATOM     16  C   UNL     1      17.419   3.795   9.167  1.00  0.00     0.016 A 
ATOM     17  C   UNL     1      18.447   3.958  10.101  1.00  0.00     0.047 A 
BRANCH  15  18
ATOM     18  O   UNL     1      19.181   4.298  12.373  1.00  0.00    -0.508 OA
ATOM     19  H   UNL     1      20.059   3.802  12.272  1.00  0.00     0.293 HD
ENDBRANCH  15  18
ENDBRANCH   1  12
BRANCH   2  20
ATOM     20  O   UNL     1      14.445   6.026   8.702  1.00  0.00    -0.502 OA
ATOM     21  H   UNL     1      15.367   6.443   8.659  1.00  0.00     0.293 HD
ENDBRANCH   2  20
BRANCH   6  22
ATOM     22  O   UNL     1      11.111   3.866   5.154  1.00  0.00    -0.507 OA
ATOM     23  H   UNL     1      11.100   4.851   5.366  1.00  0.00     0.293 HD
ENDBRANCH   6  22
BRANCH   8  24
ATOM     24  O   UNL     1      12.399  -0.747   5.479  1.00  0.00    -0.508 OA
ATOM     25  H   UNL     1      13.090  -1.460   5.684  1.00  0.00     0.293 HD
ENDBRANCH   8  24
TORSDOF 5
ENDMDL
