MODEL 1
REMARK VINA RESULT:    -2.101      0.000      0.000
REMARK INTER + INTRA:          -3.755
REMARK INTER:                  -2.777
REMARK INTRA:                  -0.978
REMARK UNBOUND:                -0.978
REMARK SMILES CC[C@@H](C=C[C@@H](C)[C@@H]1CC[C@@H]2[C@H]3CC=C4C[C@H](O)CC[C@]4(C)[C@H]3CC[C@@]21C)C(C)C
REMARK SMILES IDX 6 1 7 2 5 3 4 4 3 5 2 6 1 7 28 8 29 9 30 10 8 11 9 12 26 13
REMARK SMILES IDX 10 14 11 15 25 16 27 17 12 18 24 19 23 20 13 21 21 22 14 23
REMARK SMILES IDX 15 24 20 25 22 26 16 27 19 28 17 29 18 30
REMARK H PARENT 18 31
REMARK Flexibility Score: inf
ROOT
ATOM      1  C   UNL     1     -28.867  -1.987  18.105  1.00  0.00     0.012 C 
ATOM      2  C   UNL     1     -30.375  -2.257  17.941  1.00  0.00     0.012 C 
ENDROOT
BRANCH   1   3
ATOM      3  C   UNL     1     -28.148  -2.533  16.888  1.00  0.00    -0.028 C 
ATOM      4  C   UNL     1     -28.799  -3.014  15.811  1.00  0.00    -0.027 C 
BRANCH   4   5
ATOM      5  C   UNL     1     -28.096  -3.321  14.499  1.00  0.00     0.014 C 
BRANCH   5   6
ATOM      6  C   UNL     1     -28.631  -4.647  13.875  1.00  0.00     0.004 C 
ATOM      7  C   UNL     1     -30.060  -4.970  14.316  1.00  0.00     0.004 C 
ENDBRANCH   5   6
BRANCH   5   8
ATOM      8  C   UNL     1     -26.544  -3.325  14.695  1.00  0.00    -0.011 C 
ATOM      9  C   UNL     1     -25.911  -1.999  14.232  1.00  0.00     0.008 C 
ATOM     10  C   UNL     1     -25.866  -4.482  13.941  1.00  0.00     0.008 C 
ENDBRANCH   5   8
ENDBRANCH   4   5
ENDBRANCH   1   3
BRANCH   1  11
ATOM     11  C   UNL     1     -28.325  -2.531  19.476  1.00  0.00     0.002 C 
ATOM     12  C   UNL     1     -29.384  -3.382  20.195  1.00  0.00     0.005 C 
ATOM     13  C   UNL     1     -27.848  -1.494  20.549  1.00  0.00    -0.026 C 
ATOM     14  C   UNL     1     -29.124  -3.278  21.688  1.00  0.00     0.005 C 
ATOM     15  C   UNL     1     -27.958  -2.302  21.879  1.00  0.00    -0.001 C 
ATOM     16  C   UNL     1     -28.764  -0.237  20.571  1.00  0.00     0.007 C 
ATOM     17  C   UNL     1     -26.380  -1.084  20.275  1.00  0.00     0.012 C 
ATOM     18  C   UNL     1     -28.105  -1.489  23.208  1.00  0.00     0.000 C 
ATOM     19  C   UNL     1     -28.665   0.581  21.865  1.00  0.00     0.005 C 
ATOM     20  C   UNL     1     -29.068  -0.283  23.087  1.00  0.00     0.003 C 
ATOM     21  C   UNL     1     -26.748  -1.041  23.773  1.00  0.00     0.031 C 
ATOM     22  C   UNL     1     -29.240   0.481  24.477  1.00  0.00    -0.008 C 
ATOM     23  C   UNL     1     -26.915  -0.343  25.082  1.00  0.00    -0.027 C 
ATOM     24  C   UNL     1     -28.002   0.394  25.389  1.00  0.00    -0.065 C 
ATOM     25  C   UNL     1     -30.416  -0.193  25.257  1.00  0.00     0.014 C 
ATOM     26  C   UNL     1     -29.593   1.976  24.245  1.00  0.00     0.016 C 
ATOM     27  C   UNL     1     -28.132   0.923  26.804  1.00  0.00     0.063 C 
ATOM     28  C   UNL     1     -30.585   0.303  26.709  1.00  0.00     0.033 C 
ATOM     29  C   UNL     1     -29.280   0.201  27.521  1.00  0.00     0.118 C 
BRANCH  29  30
ATOM     30  O   UNL     1     -28.933  -1.146  27.720  1.00  0.00    -0.393 OA
ATOM     31  H   UNL     1     -29.751  -1.681  27.544  1.00  0.00     0.210 HD
ENDBRANCH  29  30
ENDBRANCH   1  11
TORSDOF 6
ENDMDL
MODEL 2
REMARK VINA RESULT:    -1.950      3.467     11.214
REMARK INTER + INTRA:          -3.555
REMARK INTER:                  -2.437
REMARK INTRA:                  -1.118
REMARK UNBOUND:                -0.978
REMARK SMILES CC[C@@H](C=C[C@@H](C)[C@@H]1CC[C@@H]2[C@H]3CC=C4C[C@H](O)CC[C@]4(C)[C@H]3CC[C@@]21C)C(C)C
REMARK SMILES IDX 6 1 7 2 5 3 4 4 3 5 2 6 1 7 28 8 29 9 30 10 8 11 9 12 26 13
REMARK SMILES IDX 10 14 11 15 25 16 27 17 12 18 24 19 23 20 13 21 21 22 14 23
REMARK SMILES IDX 15 24 20 25 22 26 16 27 19 28 17 29 18 30
REMARK H PARENT 18 31
REMARK Flexibility Score: inf
ROOT
ATOM      1  C   UNL     1     -29.269   1.244  28.730  1.00  0.00     0.012 C 
ATOM      2  C   UNL     1     -27.788   1.492  29.075  1.00  0.00     0.012 C 
ENDROOT
BRANCH   1   3
ATOM      3  C   UNL     1     -30.079   1.326  30.009  1.00  0.00    -0.028 C 
ATOM      4  C   UNL     1     -29.530   1.179  31.230  1.00  0.00    -0.027 C 
BRANCH   4   5
ATOM      5  C   UNL     1     -30.280   1.511  32.510  1.00  0.00     0.014 C 
BRANCH   5   6
ATOM      6  C   UNL     1     -31.442   2.513  32.233  1.00  0.00     0.004 C 
ATOM      7  C   UNL     1     -32.815   1.932  32.575  1.00  0.00     0.004 C 
ENDBRANCH   5   6
BRANCH   5   8
ATOM      8  C   UNL     1     -29.290   2.016  33.611  1.00  0.00    -0.011 C 
ATOM      9  C   UNL     1     -29.437   3.531  33.854  1.00  0.00     0.008 C 
ATOM     10  C   UNL     1     -27.824   1.716  33.254  1.00  0.00     0.008 C 
ENDBRANCH   5   8
ENDBRANCH   4   5
ENDBRANCH   1   3
BRANCH   1  11
ATOM     11  C   UNL     1     -29.463  -0.091  27.924  1.00  0.00     0.002 C 
ATOM     12  C   UNL     1     -28.120  -0.801  27.694  1.00  0.00     0.005 C 
ATOM     13  C   UNL     1     -30.124  -0.012  26.506  1.00  0.00    -0.026 C 
ATOM     14  C   UNL     1     -28.238  -1.607  26.411  1.00  0.00     0.005 C 
ATOM     15  C   UNL     1     -29.624  -1.321  25.821  1.00  0.00    -0.001 C 
ATOM     16  C   UNL     1     -29.652   1.250  25.729  1.00  0.00     0.007 C 
ATOM     17  C   UNL     1     -31.667  -0.015  26.638  1.00  0.00     0.012 C 
ATOM     18  C   UNL     1     -29.598  -1.355  24.258  1.00  0.00     0.000 C 
ATOM     19  C   UNL     1     -29.863   1.161  24.212  1.00  0.00     0.005 C 
ATOM     20  C   UNL     1     -29.081  -0.041  23.623  1.00  0.00     0.003 C 
ATOM     21  C   UNL     1     -30.958  -1.745  23.658  1.00  0.00     0.031 C 
ATOM     22  C   UNL     1     -29.010  -0.137  22.033  1.00  0.00    -0.008 C 
ATOM     23  C   UNL     1     -30.879  -1.851  22.172  1.00  0.00    -0.027 C 
ATOM     24  C   UNL     1     -30.052  -1.092  21.423  1.00  0.00    -0.065 C 
ATOM     25  C   UNL     1     -27.605  -0.705  21.645  1.00  0.00     0.014 C 
ATOM     26  C   UNL     1     -29.171   1.266  21.387  1.00  0.00     0.016 C 
ATOM     27  C   UNL     1     -29.944  -1.399  19.942  1.00  0.00     0.063 C 
ATOM     28  C   UNL     1     -27.445  -1.045  20.148  1.00  0.00     0.033 C 
ATOM     29  C   UNL     1     -28.557  -1.979  19.635  1.00  0.00     0.118 C 
BRANCH  29  30
ATOM     30  O   UNL     1     -28.441  -3.248  20.228  1.00  0.00    -0.393 OA
ATOM     31  H   UNL     1     -28.732  -3.910  19.547  1.00  0.00     0.210 HD
ENDBRANCH  29  30
ENDBRANCH   1  11
TORSDOF 6
ENDMDL
MODEL 3
REMARK VINA RESULT:    -1.728      1.271      2.174
REMARK INTER + INTRA:          -3.261
REMARK INTER:                  -2.353
REMARK INTRA:                  -0.908
REMARK UNBOUND:                -0.978
REMARK SMILES CC[C@@H](C=C[C@@H](C)[C@@H]1CC[C@@H]2[C@H]3CC=C4C[C@H](O)CC[C@]4(C)[C@H]3CC[C@@]21C)C(C)C
REMARK SMILES IDX 6 1 7 2 5 3 4 4 3 5 2 6 1 7 28 8 29 9 30 10 8 11 9 12 26 13
REMARK SMILES IDX 10 14 11 15 25 16 27 17 12 18 24 19 23 20 13 21 21 22 14 23
REMARK SMILES IDX 15 24 20 25 22 26 16 27 19 28 17 29 18 30
REMARK H PARENT 18 31
REMARK Flexibility Score: inf
ROOT
ATOM      1  C   UNL     1     -29.032  -2.626  18.362  1.00  0.00     0.012 C 
ATOM      2  C   UNL     1     -28.642  -4.036  18.845  1.00  0.00     0.012 C 
ENDROOT
BRANCH   1   3
ATOM      3  C   UNL     1     -28.767  -2.539  16.873  1.00  0.00    -0.028 C 
ATOM      4  C   UNL     1     -28.414  -3.607  16.132  1.00  0.00    -0.027 C 
BRANCH   4   5
ATOM      5  C   UNL     1     -28.397  -3.580  14.612  1.00  0.00     0.014 C 
BRANCH   5   6
ATOM      6  C   UNL     1     -28.968  -4.906  14.022  1.00  0.00     0.004 C 
ATOM      7  C   UNL     1     -30.493  -4.892  13.910  1.00  0.00     0.004 C 
ENDBRANCH   5   6
BRANCH   5   8
ATOM      8  C   UNL     1     -26.962  -3.248  14.085  1.00  0.00    -0.011 C 
ATOM      9  C   UNL     1     -25.872  -3.780  15.037  1.00  0.00     0.008 C 
ATOM     10  C   UNL     1     -26.749  -1.737  13.891  1.00  0.00     0.008 C 
ENDBRANCH   5   8
ENDBRANCH   4   5
ENDBRANCH   1   3
BRANCH   1  11
ATOM     11  C   UNL     1     -28.330  -1.506  19.212  1.00  0.00     0.002 C 
ATOM     12  C   UNL     1     -27.081  -2.049  19.924  1.00  0.00     0.005 C 
ATOM     13  C   UNL     1     -29.159  -0.801  20.340  1.00  0.00    -0.026 C 
ATOM     14  C   UNL     1     -26.879  -1.232  21.189  1.00  0.00     0.005 C 
ATOM     15  C   UNL     1     -28.050  -0.248  21.286  1.00  0.00    -0.001 C 
ATOM     16  C   UNL     1     -30.085  -1.809  21.079  1.00  0.00     0.007 C 
ATOM     17  C   UNL     1     -29.996   0.355  19.739  1.00  0.00     0.012 C 
ATOM     18  C   UNL     1     -28.442   0.029  22.775  1.00  0.00     0.000 C 
ATOM     19  C   UNL     1     -30.555  -1.325  22.457  1.00  0.00     0.005 C 
ATOM     20  C   UNL     1     -29.342  -1.071  23.388  1.00  0.00     0.003 C 
ATOM     21  C   UNL     1     -29.078   1.415  22.965  1.00  0.00     0.031 C 
ATOM     22  C   UNL     1     -29.668  -0.785  24.923  1.00  0.00    -0.008 C 
ATOM     23  C   UNL     1     -29.363   1.682  24.405  1.00  0.00    -0.027 C 
ATOM     24  C   UNL     1     -29.689   0.712  25.283  1.00  0.00    -0.065 C 
ATOM     25  C   UNL     1     -28.537  -1.436  25.786  1.00  0.00     0.014 C 
ATOM     26  C   UNL     1     -31.026  -1.421  25.327  1.00  0.00     0.016 C 
ATOM     27  C   UNL     1     -29.799   1.081  26.750  1.00  0.00     0.063 C 
ATOM     28  C   UNL     1     -28.598  -1.083  27.287  1.00  0.00     0.033 C 
ATOM     29  C   UNL     1     -28.647   0.437  27.532  1.00  0.00     0.118 C 
BRANCH  29  30
ATOM     30  O   UNL     1     -27.433   1.033  27.150  1.00  0.00    -0.393 OA
ATOM     31  H   UNL     1     -26.758   0.305  27.106  1.00  0.00     0.210 HD
ENDBRANCH  29  30
ENDBRANCH   1  11
TORSDOF 6
ENDMDL
MODEL 4
REMARK VINA RESULT:    -1.708      3.583     11.297
REMARK INTER + INTRA:          -3.234
REMARK INTER:                  -2.187
REMARK INTRA:                  -1.048
REMARK UNBOUND:                -0.978
REMARK SMILES CC[C@@H](C=C[C@@H](C)[C@@H]1CC[C@@H]2[C@H]3CC=C4C[C@H](O)CC[C@]4(C)[C@H]3CC[C@@]21C)C(C)C
REMARK SMILES IDX 6 1 7 2 5 3 4 4 3 5 2 6 1 7 28 8 29 9 30 10 8 11 9 12 26 13
REMARK SMILES IDX 10 14 11 15 25 16 27 17 12 18 24 19 23 20 13 21 21 22 14 23
REMARK SMILES IDX 15 24 20 25 22 26 16 27 19 28 17 29 18 30
REMARK H PARENT 18 31
REMARK Flexibility Score: inf
ROOT
ATOM      1  C   UNL     1     -29.599   0.489  29.127  1.00  0.00     0.012 C 
ATOM      2  C   UNL     1     -31.115   0.441  29.402  1.00  0.00     0.012 C 
ENDROOT
BRANCH   1   3
ATOM      3  C   UNL     1     -28.912   1.085  30.340  1.00  0.00    -0.028 C 
ATOM      4  C   UNL     1     -29.556   1.322  31.499  1.00  0.00    -0.027 C 
BRANCH   4   5
ATOM      5  C   UNL     1     -28.825   1.675  32.784  1.00  0.00     0.014 C 
BRANCH   5   6
ATOM      6  C   UNL     1     -29.794   1.644  34.005  1.00  0.00     0.004 C 
ATOM      7  C   UNL     1     -31.262   1.543  33.589  1.00  0.00     0.004 C 
ENDBRANCH   5   6
BRANCH   5   8
ATOM      8  C   UNL     1     -28.080   3.043  32.634  1.00  0.00    -0.011 C 
ATOM      9  C   UNL     1     -26.550   2.860  32.654  1.00  0.00     0.008 C 
ATOM     10  C   UNL     1     -28.470   4.041  33.738  1.00  0.00     0.008 C 
ENDBRANCH   5   8
ENDBRANCH   4   5
ENDBRANCH   1   3
BRANCH   1  11
ATOM     11  C   UNL     1     -29.276   1.221  27.775  1.00  0.00     0.002 C 
ATOM     12  C   UNL     1     -30.564   1.589  27.021  1.00  0.00     0.005 C 
ATOM     13  C   UNL     1     -28.394   0.472  26.719  1.00  0.00    -0.026 C 
ATOM     14  C   UNL     1     -30.238   1.616  25.537  1.00  0.00     0.005 C 
ATOM     15  C   UNL     1     -28.775   1.185  25.385  1.00  0.00    -0.001 C 
ATOM     16  C   UNL     1     -28.734  -1.045  26.667  1.00  0.00     0.007 C 
ATOM     17  C   UNL     1     -26.893   0.675  27.042  1.00  0.00     0.012 C 
ATOM     18  C   UNL     1     -28.546   0.398  24.053  1.00  0.00     0.000 C 
ATOM     19  C   UNL     1     -28.279  -1.741  25.378  1.00  0.00     0.005 C 
ATOM     20  C   UNL     1     -28.954  -1.093  24.143  1.00  0.00     0.003 C 
ATOM     21  C   UNL     1     -27.106   0.533  23.533  1.00  0.00     0.031 C 
ATOM     22  C   UNL     1     -28.765  -1.845  22.749  1.00  0.00    -0.008 C 
ATOM     23  C   UNL     1     -26.942  -0.158  22.221  1.00  0.00    -0.027 C 
ATOM     24  C   UNL     1     -27.636  -1.262  21.878  1.00  0.00    -0.065 C 
ATOM     25  C   UNL     1     -30.088  -1.684  21.929  1.00  0.00     0.014 C 
ATOM     26  C   UNL     1     -28.502  -3.360  22.970  1.00  0.00     0.016 C 
ATOM     27  C   UNL     1     -27.502  -1.781  20.460  1.00  0.00     0.063 C 
ATOM     28  C   UNL     1     -30.002  -2.188  20.473  1.00  0.00     0.033 C 
ATOM     29  C   UNL     1     -28.820  -1.566  19.705  1.00  0.00     0.118 C 
BRANCH  29  30
ATOM     30  O   UNL     1     -29.030  -0.190  19.516  1.00  0.00    -0.393 OA
ATOM     31  H   UNL     1     -29.833  -0.099  18.938  1.00  0.00     0.210 HD
ENDBRANCH  29  30
ENDBRANCH   1  11
TORSDOF 6
ENDMDL
MODEL 5
REMARK VINA RESULT:    -1.680      3.543     11.354
REMARK INTER + INTRA:          -3.198
REMARK INTER:                  -2.093
REMARK INTRA:                  -1.105
REMARK UNBOUND:                -0.978
REMARK SMILES CC[C@@H](C=C[C@@H](C)[C@@H]1CC[C@@H]2[C@H]3CC=C4C[C@H](O)CC[C@]4(C)[C@H]3CC[C@@]21C)C(C)C
REMARK SMILES IDX 6 1 7 2 5 3 4 4 3 5 2 6 1 7 28 8 29 9 30 10 8 11 9 12 26 13
REMARK SMILES IDX 10 14 11 15 25 16 27 17 12 18 24 19 23 20 13 21 21 22 14 23
REMARK SMILES IDX 15 24 20 25 22 26 16 27 19 28 17 29 18 30
REMARK H PARENT 18 31
REMARK Flexibility Score: inf
ROOT
ATOM      1  C   UNL     1     -29.605   0.481  29.093  1.00  0.00     0.012 C 
ATOM      2  C   UNL     1     -31.124   0.322  29.293  1.00  0.00     0.012 C 
ENDROOT
BRANCH   1   3
ATOM      3  C   UNL     1     -29.027   1.153  30.323  1.00  0.00    -0.028 C 
ATOM      4  C   UNL     1     -29.770   1.902  31.161  1.00  0.00    -0.027 C 
BRANCH   4   5
ATOM      5  C   UNL     1     -29.261   2.362  32.517  1.00  0.00     0.014 C 
BRANCH   5   6
ATOM      6  C   UNL     1     -27.912   1.664  32.873  1.00  0.00     0.004 C 
ATOM      7  C   UNL     1     -26.741   2.646  32.937  1.00  0.00     0.004 C 
ENDBRANCH   5   6
BRANCH   5   8
ATOM      8  C   UNL     1     -30.359   2.158  33.613  1.00  0.00    -0.011 C 
ATOM      9  C   UNL     1     -31.433   1.151  33.159  1.00  0.00     0.008 C 
ATOM     10  C   UNL     1     -31.052   3.479  33.992  1.00  0.00     0.008 C 
ENDBRANCH   5   8
ENDBRANCH   4   5
ENDBRANCH   1   3
BRANCH   1  11
ATOM     11  C   UNL     1     -29.269   1.206  27.740  1.00  0.00     0.002 C 
ATOM     12  C   UNL     1     -30.551   1.603  26.990  1.00  0.00     0.005 C 
ATOM     13  C   UNL     1     -28.407   0.439  26.681  1.00  0.00    -0.026 C 
ATOM     14  C   UNL     1     -30.228   1.624  25.505  1.00  0.00     0.005 C 
ATOM     15  C   UNL     1     -28.775   1.161  25.349  1.00  0.00    -0.001 C 
ATOM     16  C   UNL     1     -28.780  -1.070  26.630  1.00  0.00     0.007 C 
ATOM     17  C   UNL     1     -26.901   0.609  27.000  1.00  0.00     0.012 C 
ATOM     18  C   UNL     1     -28.568   0.370  24.016  1.00  0.00     0.000 C 
ATOM     19  C   UNL     1     -28.344  -1.775  25.339  1.00  0.00     0.005 C 
ATOM     20  C   UNL     1     -29.008  -1.111  24.105  1.00  0.00     0.003 C 
ATOM     21  C   UNL     1     -27.127   0.474  23.492  1.00  0.00     0.031 C 
ATOM     22  C   UNL     1     -28.839  -1.866  22.710  1.00  0.00    -0.008 C 
ATOM     23  C   UNL     1     -26.981  -0.219  22.179  1.00  0.00    -0.027 C 
ATOM     24  C   UNL     1     -27.700  -1.308  21.837  1.00  0.00    -0.065 C 
ATOM     25  C   UNL     1     -30.160  -1.676  21.895  1.00  0.00     0.014 C 
ATOM     26  C   UNL     1     -28.609  -3.387  22.930  1.00  0.00     0.016 C 
ATOM     27  C   UNL     1     -27.581  -1.829  20.419  1.00  0.00     0.063 C 
ATOM     28  C   UNL     1     -30.089  -2.181  20.438  1.00  0.00     0.033 C 
ATOM     29  C   UNL     1     -28.896  -1.585  19.667  1.00  0.00     0.118 C 
BRANCH  29  30
ATOM     30  O   UNL     1     -29.077  -0.204  19.480  1.00  0.00    -0.393 OA
ATOM     31  H   UNL     1     -28.618   0.033  18.632  1.00  0.00     0.210 HD
ENDBRANCH  29  30
ENDBRANCH   1  11
TORSDOF 6
ENDMDL
MODEL 6
REMARK VINA RESULT:    -1.421      1.314      1.859
REMARK INTER + INTRA:          -2.855
REMARK INTER:                  -1.936
REMARK INTRA:                  -0.919
REMARK UNBOUND:                -0.978
REMARK SMILES CC[C@@H](C=C[C@@H](C)[C@@H]1CC[C@@H]2[C@H]3CC=C4C[C@H](O)CC[C@]4(C)[C@H]3CC[C@@]21C)C(C)C
REMARK SMILES IDX 6 1 7 2 5 3 4 4 3 5 2 6 1 7 28 8 29 9 30 10 8 11 9 12 26 13
REMARK SMILES IDX 10 14 11 15 25 16 27 17 12 18 24 19 23 20 13 21 21 22 14 23
REMARK SMILES IDX 15 24 20 25 22 26 16 27 19 28 17 29 18 30
REMARK H PARENT 18 31
REMARK Flexibility Score: inf
ROOT
ATOM      1  C   UNL     1     -28.242  -1.890  18.207  1.00  0.00     0.012 C 
ATOM      2  C   UNL     1     -28.360  -0.384  17.906  1.00  0.00     0.012 C 
ENDROOT
BRANCH   1   3
ATOM      3  C   UNL     1     -28.499  -2.656  16.925  1.00  0.00    -0.028 C 
ATOM      4  C   UNL     1     -28.306  -2.120  15.704  1.00  0.00    -0.027 C 
BRANCH   4   5
ATOM      5  C   UNL     1     -28.315  -2.953  14.433  1.00  0.00     0.014 C 
BRANCH   5   6
ATOM      6  C   UNL     1     -29.040  -4.315  14.663  1.00  0.00     0.004 C 
ATOM      7  C   UNL     1     -30.462  -4.327  14.099  1.00  0.00     0.004 C 
ENDBRANCH   5   6
BRANCH   5   8
ATOM      8  C   UNL     1     -26.862  -3.124  13.878  1.00  0.00    -0.011 C 
ATOM      9  C   UNL     1     -26.195  -4.403  14.419  1.00  0.00     0.008 C 
ATOM     10  C   UNL     1     -25.966  -1.921  14.219  1.00  0.00     0.008 C 
ENDBRANCH   5   8
ENDBRANCH   4   5
ENDBRANCH   1   3
BRANCH   1  11
ATOM     11  C   UNL     1     -29.157  -2.317  19.411  1.00  0.00     0.002 C 
ATOM     12  C   UNL     1     -30.386  -1.401  19.527  1.00  0.00     0.005 C 
ATOM     13  C   UNL     1     -28.532  -2.333  20.848  1.00  0.00    -0.026 C 
ATOM     14  C   UNL     1     -30.807  -1.376  20.987  1.00  0.00     0.005 C 
ATOM     15  C   UNL     1     -29.785  -2.210  21.768  1.00  0.00    -0.001 C 
ATOM     16  C   UNL     1     -27.556  -1.140  21.057  1.00  0.00     0.007 C 
ATOM     17  C   UNL     1     -27.799  -3.675  21.093  1.00  0.00     0.012 C 
ATOM     18  C   UNL     1     -29.570  -1.646  23.211  1.00  0.00     0.000 C 
ATOM     19  C   UNL     1     -27.280  -0.813  22.530  1.00  0.00     0.005 C 
ATOM     20  C   UNL     1     -28.596  -0.444  23.262  1.00  0.00     0.003 C 
ATOM     21  C   UNL     1     -29.138  -2.733  24.207  1.00  0.00     0.031 C 
ATOM     22  C   UNL     1     -28.452   0.142  24.738  1.00  0.00    -0.008 C 
ATOM     23  C   UNL     1     -29.023  -2.182  25.589  1.00  0.00    -0.027 C 
ATOM     24  C   UNL     1     -28.657  -0.909  25.845  1.00  0.00    -0.065 C 
ATOM     25  C   UNL     1     -29.563   1.224  24.940  1.00  0.00     0.014 C 
ATOM     26  C   UNL     1     -27.066   0.816  24.932  1.00  0.00     0.016 C 
ATOM     27  C   UNL     1     -28.729  -0.418  27.277  1.00  0.00     0.063 C 
ATOM     28  C   UNL     1     -29.686   1.751  26.385  1.00  0.00     0.033 C 
ATOM     29  C   UNL     1     -29.856   0.615  27.412  1.00  0.00     0.118 C 
BRANCH  29  30
ATOM     30  O   UNL     1     -31.096  -0.022  27.236  1.00  0.00    -0.393 OA
ATOM     31  H   UNL     1     -30.997  -0.631  26.457  1.00  0.00     0.210 HD
ENDBRANCH  29  30
ENDBRANCH   1  11
TORSDOF 6
ENDMDL
MODEL 7
REMARK VINA RESULT:    -0.776      3.387     11.154
REMARK INTER + INTRA:          -2.003
REMARK INTER:                  -1.309
REMARK INTRA:                  -0.694
REMARK UNBOUND:                -0.978
REMARK SMILES CC[C@@H](C=C[C@@H](C)[C@@H]1CC[C@@H]2[C@H]3CC=C4C[C@H](O)CC[C@]4(C)[C@H]3CC[C@@]21C)C(C)C
REMARK SMILES IDX 6 1 7 2 5 3 4 4 3 5 2 6 1 7 28 8 29 9 30 10 8 11 9 12 26 13
REMARK SMILES IDX 10 14 11 15 25 16 27 17 12 18 24 19 23 20 13 21 21 22 14 23
REMARK SMILES IDX 15 24 20 25 22 26 16 27 19 28 17 29 18 30
REMARK H PARENT 18 31
REMARK Flexibility Score: inf
ROOT
ATOM      1  C   UNL     1     -29.359   0.864  28.743  1.00  0.00     0.012 C 
ATOM      2  C   UNL     1     -28.571  -0.443  28.957  1.00  0.00     0.012 C 
ENDROOT
BRANCH   1   3
ATOM      3  C   UNL     1     -30.067   1.213  30.037  1.00  0.00    -0.028 C 
ATOM      4  C   UNL     1     -29.489   1.072  31.246  1.00  0.00    -0.027 C 
BRANCH   4   5
ATOM      5  C   UNL     1     -30.091   1.654  32.514  1.00  0.00     0.014 C 
BRANCH   5   6
ATOM      6  C   UNL     1     -31.179   2.719  32.179  1.00  0.00     0.004 C 
ATOM      7  C   UNL     1     -32.584   2.277  32.592  1.00  0.00     0.004 C 
ENDBRANCH   5   6
BRANCH   5   8
ATOM      8  C   UNL     1     -28.967   2.207  33.452  1.00  0.00    -0.011 C 
ATOM      9  C   UNL     1     -29.002   3.746  33.532  1.00  0.00     0.008 C 
ATOM     10  C   UNL     1     -27.564   1.771  32.995  1.00  0.00     0.008 C 
ENDBRANCH   5   8
ENDBRANCH   4   5
ENDBRANCH   1   3
BRANCH   1  11
ATOM     11  C   UNL     1     -30.303   0.776  27.491  1.00  0.00     0.002 C 
ATOM     12  C   UNL     1     -30.932  -0.621  27.367  1.00  0.00     0.005 C 
ATOM     13  C   UNL     1     -29.692   1.066  26.078  1.00  0.00    -0.026 C 
ATOM     14  C   UNL     1     -31.214  -0.872  25.895  1.00  0.00     0.005 C 
ATOM     15  C   UNL     1     -30.682   0.338  25.119  1.00  0.00    -0.001 C 
ATOM     16  C   UNL     1     -28.253   0.489  25.952  1.00  0.00     0.007 C 
ATOM     17  C   UNL     1     -29.683   2.591  25.807  1.00  0.00     0.012 C 
ATOM     18  C   UNL     1     -30.149  -0.078  23.708  1.00  0.00     0.000 C 
ATOM     19  C   UNL     1     -27.779   0.311  24.504  1.00  0.00     0.005 C 
ATOM     20  C   UNL     1     -28.715  -0.660  23.741  1.00  0.00     0.003 C 
ATOM     21  C   UNL     1     -30.243   1.067  22.686  1.00  0.00     0.031 C 
ATOM     22  C   UNL     1     -28.232  -1.130  22.294  1.00  0.00    -0.008 C 
ATOM     23  C   UNL     1     -29.807   0.615  21.332  1.00  0.00    -0.027 C 
ATOM     24  C   UNL     1     -28.861  -0.327  21.140  1.00  0.00    -0.065 C 
ATOM     25  C   UNL     1     -28.674  -2.617  22.096  1.00  0.00     0.014 C 
ATOM     26  C   UNL     1     -26.685  -1.055  22.178  1.00  0.00     0.016 C 
ATOM     27  C   UNL     1     -28.615  -0.817  19.727  1.00  0.00     0.063 C 
ATOM     28  C   UNL     1     -28.455  -3.162  20.669  1.00  0.00     0.033 C 
ATOM     29  C   UNL     1     -29.097  -2.267  19.592  1.00  0.00     0.118 C 
BRANCH  29  30
ATOM     30  O   UNL     1     -30.498  -2.305  19.698  1.00  0.00    -0.393 OA
ATOM     31  H   UNL     1     -30.709  -2.431  20.661  1.00  0.00     0.210 HD
ENDBRANCH  29  30
ENDBRANCH   1  11
TORSDOF 6
ENDMDL
MODEL 8
REMARK VINA RESULT:    -0.508      3.388     11.061
REMARK INTER + INTRA:          -1.648
REMARK INTER:                  -1.019
REMARK INTRA:                  -0.630
REMARK UNBOUND:                -0.978
REMARK SMILES CC[C@@H](C=C[C@@H](C)[C@@H]1CC[C@@H]2[C@H]3CC=C4C[C@H](O)CC[C@]4(C)[C@H]3CC[C@@]21C)C(C)C
REMARK SMILES IDX 6 1 7 2 5 3 4 4 3 5 2 6 1 7 28 8 29 9 30 10 8 11 9 12 26 13
REMARK SMILES IDX 10 14 11 15 25 16 27 17 12 18 24 19 23 20 13 21 21 22 14 23
REMARK SMILES IDX 15 24 20 25 22 26 16 27 19 28 17 29 18 30
REMARK H PARENT 18 31
REMARK Flexibility Score: inf
ROOT
ATOM      1  C   UNL     1     -29.673   0.850  28.413  1.00  0.00     0.012 C 
ATOM      2  C   UNL     1     -30.160   2.163  27.770  1.00  0.00     0.012 C 
ENDROOT
BRANCH   1   3
ATOM      3  C   UNL     1     -29.218   1.150  29.827  1.00  0.00    -0.028 C 
ATOM      4  C   UNL     1     -30.020   1.724  30.745  1.00  0.00    -0.027 C 
BRANCH   4   5
ATOM      5  C   UNL     1     -29.658   1.793  32.220  1.00  0.00     0.014 C 
BRANCH   5   6
ATOM      6  C   UNL     1     -30.930   1.999  33.097  1.00  0.00     0.004 C 
ATOM      7  C   UNL     1     -32.136   2.472  32.285  1.00  0.00     0.004 C 
ENDBRANCH   5   6
BRANCH   5   8
ATOM      8  C   UNL     1     -28.565   2.884  32.467  1.00  0.00    -0.011 C 
ATOM      9  C   UNL     1     -27.212   2.254  32.852  1.00  0.00     0.008 C 
ATOM     10  C   UNL     1     -28.976   3.878  33.568  1.00  0.00     0.008 C 
ENDBRANCH   5   8
ENDBRANCH   4   5
ENDBRANCH   1   3
BRANCH   1  11
ATOM     11  C   UNL     1     -28.595   0.131  27.523  1.00  0.00     0.002 C 
ATOM     12  C   UNL     1     -27.671   1.151  26.838  1.00  0.00     0.005 C 
ATOM     13  C   UNL     1     -29.091  -0.802  26.366  1.00  0.00    -0.026 C 
ATOM     14  C   UNL     1     -27.177   0.527  25.543  1.00  0.00     0.005 C 
ATOM     15  C   UNL     1     -27.864  -0.836  25.404  1.00  0.00    -0.001 C 
ATOM     16  C   UNL     1     -30.348  -0.217  25.663  1.00  0.00     0.007 C 
ATOM     17  C   UNL     1     -29.395  -2.216  26.920  1.00  0.00     0.012 C 
ATOM     18  C   UNL     1     -28.132  -1.190  23.904  1.00  0.00     0.000 C 
ATOM     19  C   UNL     1     -30.605  -0.796  24.266  1.00  0.00     0.005 C 
ATOM     20  C   UNL     1     -29.402  -0.515  23.330  1.00  0.00     0.003 C 
ATOM     21  C   UNL     1     -28.170  -2.706  23.659  1.00  0.00     0.031 C 
ATOM     22  C   UNL     1     -29.605  -0.850  21.784  1.00  0.00    -0.008 C 
ATOM     23  C   UNL     1     -28.343  -3.012  22.208  1.00  0.00    -0.027 C 
ATOM     24  C   UNL     1     -29.036  -2.218  21.366  1.00  0.00    -0.065 C 
ATOM     25  C   UNL     1     -28.835   0.227  20.951  1.00  0.00     0.014 C 
ATOM     26  C   UNL     1     -31.109  -0.789  21.399  1.00  0.00     0.016 C 
ATOM     27  C   UNL     1     -29.008  -2.547  19.887  1.00  0.00     0.063 C 
ATOM     28  C   UNL     1     -28.768  -0.066  19.437  1.00  0.00     0.033 C 
ATOM     29  C   UNL     1     -28.214  -1.472  19.134  1.00  0.00     0.118 C 
BRANCH  29  30
ATOM     30  O   UNL     1     -26.860  -1.552  19.498  1.00  0.00    -0.393 OA
ATOM     31  H   UNL     1     -26.691  -2.492  19.769  1.00  0.00     0.210 HD
ENDBRANCH  29  30
ENDBRANCH   1  11
TORSDOF 6
ENDMDL
