MODEL 1
REMARK VINA RESULT:    -4.535      0.000      0.000
REMARK INTER + INTRA:         -13.188
REMARK INTER:                  -9.836
REMARK INTRA:                  -3.351
REMARK UNBOUND:                -3.351
REMARK SMILES CCCCCCCCCCCCCCCCCCCCCC(=O)[O-]
REMARK SMILES IDX 12 1 11 2 10 3 9 4 8 5 7 6 6 7 5 8 4 9 3 10 2 11 1 12 13 13
REMARK SMILES IDX 14 14 15 15 16 16 17 17 18 18 19 19 20 20 21 21 22 22 23 23
REMARK SMILES IDX 24 24
REMARK H PARENT
REMARK Flexibility Score: inf
ROOT
ATOM      1  C   UNL     1      99.216   4.532  24.395  1.00  0.00     0.000 C 
ENDROOT
BRANCH   1   2
ATOM      2  C   UNL     1      99.440   4.448  25.915  1.00  0.00     0.000 C 
BRANCH   2   3
ATOM      3  C   UNL     1     100.909   4.670  26.309  1.00  0.00     0.000 C 
BRANCH   3   4
ATOM      4  C   UNL     1     101.879   3.818  25.477  1.00  0.00    -0.000 C 
BRANCH   4   5
ATOM      5  C   UNL     1     102.834   3.028  26.385  1.00  0.00    -0.000 C 
BRANCH   5   6
ATOM      6  C   UNL     1     103.747   2.064  25.605  1.00  0.00    -0.000 C 
BRANCH   6   7
ATOM      7  C   UNL     1     103.426   1.922  24.106  1.00  0.00    -0.000 C 
BRANCH   7   8
ATOM      8  C   UNL     1     103.357   0.456  23.644  1.00  0.00    -0.000 C 
BRANCH   8   9
ATOM      9  C   UNL     1     101.916  -0.024  23.387  1.00  0.00    -0.000 C 
BRANCH   9  10
ATOM     10  C   UNL     1     100.874   1.096  23.211  1.00  0.00    -0.000 C 
BRANCH  10  11
ATOM     11  C   UNL     1      99.521   0.765  23.858  1.00  0.00    -0.003 C 
ATOM     12  C   UNL     1      99.608   0.833  25.381  1.00  0.00     0.004 C 
ENDBRANCH  10  11
ENDBRANCH   9  10
ENDBRANCH   8   9
ENDBRANCH   7   8
ENDBRANCH   6   7
ENDBRANCH   5   6
ENDBRANCH   4   5
ENDBRANCH   3   4
ENDBRANCH   2   3
ENDBRANCH   1   2
BRANCH   1  13
ATOM     13  C   UNL     1      97.833   4.010  23.964  1.00  0.00     0.000 C 
BRANCH  13  14
ATOM     14  C   UNL     1      96.888   3.637  25.122  1.00  0.00     0.000 C 
BRANCH  14  15
ATOM     15  C   UNL     1      95.685   4.590  25.242  1.00  0.00     0.000 C 
BRANCH  15  16
ATOM     16  C   UNL     1      96.081   5.981  25.763  1.00  0.00     0.000 C 
BRANCH  16  17
ATOM     17  C   UNL     1      95.764   7.107  24.765  1.00  0.00     0.000 C 
BRANCH  17  18
ATOM     18  C   UNL     1      95.124   6.542  23.488  1.00  0.00     0.000 C 
BRANCH  18  19
ATOM     19  C   UNL     1      95.663   7.207  22.211  1.00  0.00     0.000 C 
BRANCH  19  20
ATOM     20  C   UNL     1      97.197   7.324  22.212  1.00  0.00     0.006 C 
BRANCH  20  21
ATOM     21  C   UNL     1      97.840   6.517  21.076  1.00  0.00     0.053 C 
BRANCH  21  22
ATOM     22  C   UNL     1      97.974   7.327  19.823  1.00  0.00     0.041 C 
ATOM     23  O   UNL     1      98.072   8.582  19.887  1.00  0.00    -0.550 OA
ATOM     24  O   UNL     1      97.957   6.700  18.583  1.00  0.00    -0.550 OA
ENDBRANCH  21  22
ENDBRANCH  20  21
ENDBRANCH  19  20
ENDBRANCH  18  19
ENDBRANCH  17  18
ENDBRANCH  16  17
ENDBRANCH  15  16
ENDBRANCH  14  15
ENDBRANCH  13  14
ENDBRANCH   1  13
TORSDOF 20
ENDMDL
MODEL 2
REMARK VINA RESULT:    -4.471      1.496      3.113
REMARK INTER + INTRA:         -13.051
REMARK INTER:                 -10.029
REMARK INTRA:                  -3.022
REMARK UNBOUND:                -3.351
REMARK SMILES CCCCCCCCCCCCCCCCCCCCCC(=O)[O-]
REMARK SMILES IDX 12 1 11 2 10 3 9 4 8 5 7 6 6 7 5 8 4 9 3 10 2 11 1 12 13 13
REMARK SMILES IDX 14 14 15 15 16 16 17 17 18 18 19 19 20 20 21 21 22 22 23 23
REMARK SMILES IDX 24 24
REMARK H PARENT
REMARK Flexibility Score: inf
ROOT
ATOM      1  C   UNL     1      96.123   4.387  23.723  1.00  0.00     0.000 C 
ENDROOT
BRANCH   1   2
ATOM      2  C   UNL     1      96.235   2.878  24.005  1.00  0.00     0.000 C 
BRANCH   2   3
ATOM      3  C   UNL     1      96.832   2.577  25.389  1.00  0.00     0.000 C 
BRANCH   3   4
ATOM      4  C   UNL     1      98.356   2.392  25.347  1.00  0.00    -0.000 C 
BRANCH   4   5
ATOM      5  C   UNL     1      99.076   3.639  25.882  1.00  0.00    -0.000 C 
BRANCH   5   6
ATOM      6  C   UNL     1      99.958   4.326  24.823  1.00  0.00    -0.000 C 
BRANCH   6   7
ATOM      7  C   UNL     1      99.839   3.758  23.397  1.00  0.00    -0.000 C 
BRANCH   7   8
ATOM      8  C   UNL     1     100.961   2.764  23.052  1.00  0.00    -0.000 C 
BRANCH   8   9
ATOM      9  C   UNL     1     102.092   2.749  24.097  1.00  0.00    -0.000 C 
BRANCH   9  10
ATOM     10  C   UNL     1     102.320   1.396  24.797  1.00  0.00    -0.000 C 
BRANCH  10  11
ATOM     11  C   UNL     1     101.263   0.345  24.430  1.00  0.00    -0.003 C 
ATOM     12  C   UNL     1     101.855  -0.745  23.540  1.00  0.00     0.004 C 
ENDBRANCH  10  11
ENDBRANCH   9  10
ENDBRANCH   8   9
ENDBRANCH   7   8
ENDBRANCH   6   7
ENDBRANCH   5   6
ENDBRANCH   4   5
ENDBRANCH   3   4
ENDBRANCH   2   3
ENDBRANCH   1   2
BRANCH   1  13
ATOM     13  C   UNL     1      95.780   5.207  24.981  1.00  0.00     0.000 C 
BRANCH  13  14
ATOM     14  C   UNL     1      96.398   6.617  25.026  1.00  0.00     0.000 C 
BRANCH  14  15
ATOM     15  C   UNL     1      97.264   6.931  23.794  1.00  0.00     0.000 C 
BRANCH  15  16
ATOM     16  C   UNL     1      96.717   8.107  22.969  1.00  0.00     0.000 C 
BRANCH  16  17
ATOM     17  C   UNL     1      95.192   8.051  22.783  1.00  0.00     0.000 C 
BRANCH  17  18
ATOM     18  C   UNL     1      94.819   7.162  21.587  1.00  0.00     0.000 C 
BRANCH  18  19
ATOM     19  C   UNL     1      94.718   7.950  20.272  1.00  0.00     0.000 C 
BRANCH  19  20
ATOM     20  C   UNL     1      95.473   7.268  19.118  1.00  0.00     0.006 C 
BRANCH  20  21
ATOM     21  C   UNL     1      96.793   7.979  18.789  1.00  0.00     0.053 C 
BRANCH  21  22
ATOM     22  C   UNL     1      97.979   7.100  19.046  1.00  0.00     0.041 C 
ATOM     23  O   UNL     1      98.223   6.691  20.212  1.00  0.00    -0.550 OA
ATOM     24  O   UNL     1      98.832   6.759  18.003  1.00  0.00    -0.550 OA
ENDBRANCH  21  22
ENDBRANCH  20  21
ENDBRANCH  19  20
ENDBRANCH  18  19
ENDBRANCH  17  18
ENDBRANCH  16  17
ENDBRANCH  15  16
ENDBRANCH  14  15
ENDBRANCH  13  14
ENDBRANCH   1  13
TORSDOF 20
ENDMDL
MODEL 3
REMARK VINA RESULT:    -4.456      3.136      7.881
REMARK INTER + INTRA:         -13.017
REMARK INTER:                  -9.607
REMARK INTRA:                  -3.410
REMARK UNBOUND:                -3.351
REMARK SMILES CCCCCCCCCCCCCCCCCCCCCC(=O)[O-]
REMARK SMILES IDX 12 1 11 2 10 3 9 4 8 5 7 6 6 7 5 8 4 9 3 10 2 11 1 12 13 13
REMARK SMILES IDX 14 14 15 15 16 16 17 17 18 18 19 19 20 20 21 21 22 22 23 23
REMARK SMILES IDX 24 24
REMARK H PARENT
REMARK Flexibility Score: inf
ROOT
ATOM      1  C   UNL     1      99.877   4.503  25.632  1.00  0.00     0.000 C 
ENDROOT
BRANCH   1   2
ATOM      2  C   UNL     1      99.030   3.431  26.342  1.00  0.00     0.000 C 
BRANCH   2   3
ATOM      3  C   UNL     1      97.922   2.862  25.442  1.00  0.00     0.000 C 
BRANCH   3   4
ATOM      4  C   UNL     1      97.834   3.580  24.087  1.00  0.00    -0.000 C 
BRANCH   4   5
ATOM      5  C   UNL     1      96.446   4.207  23.887  1.00  0.00    -0.000 C 
BRANCH   5   6
ATOM      6  C   UNL     1      95.713   4.485  25.212  1.00  0.00    -0.000 C 
BRANCH   6   7
ATOM      7  C   UNL     1      95.552   5.972  25.576  1.00  0.00    -0.000 C 
BRANCH   7   8
ATOM      8  C   UNL     1      96.890   6.729  25.615  1.00  0.00    -0.000 C 
BRANCH   8   9
ATOM      9  C   UNL     1      96.855   8.053  24.829  1.00  0.00    -0.000 C 
BRANCH   9  10
ATOM     10  C   UNL     1      96.721   7.904  23.301  1.00  0.00    -0.000 C 
BRANCH  10  11
ATOM     11  C   UNL     1      95.340   8.322  22.776  1.00  0.00    -0.003 C 
ATOM     12  C   UNL     1      94.602   7.136  22.161  1.00  0.00     0.004 C 
ENDBRANCH  10  11
ENDBRANCH   9  10
ENDBRANCH   8   9
ENDBRANCH   7   8
ENDBRANCH   6   7
ENDBRANCH   5   6
ENDBRANCH   4   5
ENDBRANCH   3   4
ENDBRANCH   2   3
ENDBRANCH   1   2
BRANCH   1  13
ATOM     13  C   UNL     1     101.258   4.702  26.283  1.00  0.00     0.000 C 
BRANCH  13  14
ATOM     14  C   UNL     1     101.699   3.573  27.233  1.00  0.00     0.000 C 
BRANCH  14  15
ATOM     15  C   UNL     1     103.096   3.021  26.898  1.00  0.00     0.000 C 
BRANCH  15  16
ATOM     16  C   UNL     1     103.709   3.676  25.650  1.00  0.00     0.000 C 
BRANCH  16  17
ATOM     17  C   UNL     1     104.470   2.679  24.762  1.00  0.00     0.000 C 
BRANCH  17  18
ATOM     18  C   UNL     1     103.614   1.435  24.479  1.00  0.00     0.000 C 
BRANCH  18  19
ATOM     19  C   UNL     1     102.685   1.617  23.268  1.00  0.00     0.000 C 
BRANCH  19  20
ATOM     20  C   UNL     1     101.197   1.607  23.661  1.00  0.00     0.006 C 
BRANCH  20  21
ATOM     21  C   UNL     1     100.920   0.683  24.855  1.00  0.00     0.053 C 
BRANCH  21  22
ATOM     22  C   UNL     1     100.408  -0.655  24.417  1.00  0.00     0.041 C 
ATOM     23  O   UNL     1     100.223  -1.569  25.264  1.00  0.00    -0.550 OA
ATOM     24  O   UNL     1     100.168  -0.903  23.072  1.00  0.00    -0.550 OA
ENDBRANCH  21  22
ENDBRANCH  20  21
ENDBRANCH  19  20
ENDBRANCH  18  19
ENDBRANCH  17  18
ENDBRANCH  16  17
ENDBRANCH  15  16
ENDBRANCH  14  15
ENDBRANCH  13  14
ENDBRANCH   1  13
TORSDOF 20
ENDMDL
MODEL 4
REMARK VINA RESULT:    -4.432      1.033      2.719
REMARK INTER + INTRA:         -12.965
REMARK INTER:                  -9.733
REMARK INTRA:                  -3.232
REMARK UNBOUND:                -3.351
REMARK SMILES CCCCCCCCCCCCCCCCCCCCCC(=O)[O-]
REMARK SMILES IDX 12 1 11 2 10 3 9 4 8 5 7 6 6 7 5 8 4 9 3 10 2 11 1 12 13 13
REMARK SMILES IDX 14 14 15 15 16 16 17 17 18 18 19 19 20 20 21 21 22 22 23 23
REMARK SMILES IDX 24 24
REMARK H PARENT
REMARK Flexibility Score: inf
ROOT
ATOM      1  C   UNL     1      97.136   3.683  23.812  1.00  0.00     0.000 C 
ENDROOT
BRANCH   1   2
ATOM      2  C   UNL     1      98.548   3.273  24.266  1.00  0.00     0.000 C 
BRANCH   2   3
ATOM      3  C   UNL     1      99.654   3.967  23.457  1.00  0.00     0.000 C 
BRANCH   3   4
ATOM      4  C   UNL     1     100.736   2.989  22.976  1.00  0.00    -0.000 C 
BRANCH   4   5
ATOM      5  C   UNL     1     100.654   1.659  23.740  1.00  0.00    -0.000 C 
BRANCH   5   6
ATOM      6  C   UNL     1     101.996   0.906  23.785  1.00  0.00    -0.000 C 
BRANCH   6   7
ATOM      7  C   UNL     1     103.248   1.797  23.872  1.00  0.00    -0.000 C 
BRANCH   7   8
ATOM      8  C   UNL     1     103.819   1.894  25.297  1.00  0.00    -0.000 C 
BRANCH   8   9
ATOM      9  C   UNL     1     103.554   3.259  25.958  1.00  0.00    -0.000 C 
BRANCH   9  10
ATOM     10  C   UNL     1     102.146   3.433  26.559  1.00  0.00    -0.000 C 
BRANCH  10  11
ATOM     11  C   UNL     1     101.682   4.896  26.585  1.00  0.00    -0.003 C 
ATOM     12  C   UNL     1     100.241   5.008  27.079  1.00  0.00     0.004 C 
ENDBRANCH  10  11
ENDBRANCH   9  10
ENDBRANCH   8   9
ENDBRANCH   7   8
ENDBRANCH   6   7
ENDBRANCH   5   6
ENDBRANCH   4   5
ENDBRANCH   3   4
ENDBRANCH   2   3
ENDBRANCH   1   2
BRANCH   1  13
ATOM     13  C   UNL     1      96.092   3.587  24.940  1.00  0.00     0.000 C 
BRANCH  13  14
ATOM     14  C   UNL     1      95.600   4.940  25.488  1.00  0.00     0.000 C 
BRANCH  14  15
ATOM     15  C   UNL     1      96.654   5.655  26.350  1.00  0.00     0.000 C 
BRANCH  15  16
ATOM     16  C   UNL     1      97.263   6.879  25.648  1.00  0.00     0.000 C 
BRANCH  16  17
ATOM     17  C   UNL     1      96.201   7.857  25.119  1.00  0.00     0.000 C 
BRANCH  17  18
ATOM     18  C   UNL     1      96.375   8.090  23.610  1.00  0.00     0.000 C 
BRANCH  18  19
ATOM     19  C   UNL     1      95.237   7.474  22.781  1.00  0.00     0.000 C 
BRANCH  19  20
ATOM     20  C   UNL     1      95.739   6.401  21.800  1.00  0.00     0.006 C 
BRANCH  20  21
ATOM     21  C   UNL     1      97.195   6.638  21.375  1.00  0.00     0.053 C 
BRANCH  21  22
ATOM     22  C   UNL     1      97.283   7.342  20.055  1.00  0.00     0.041 C 
ATOM     23  O   UNL     1      97.650   6.713  19.027  1.00  0.00    -0.550 OA
ATOM     24  O   UNL     1      96.992   8.697  19.968  1.00  0.00    -0.550 OA
ENDBRANCH  21  22
ENDBRANCH  20  21
ENDBRANCH  19  20
ENDBRANCH  18  19
ENDBRANCH  17  18
ENDBRANCH  16  17
ENDBRANCH  15  16
ENDBRANCH  14  15
ENDBRANCH  13  14
ENDBRANCH   1  13
TORSDOF 20
ENDMDL
MODEL 5
REMARK VINA RESULT:    -4.414      1.759      5.905
REMARK INTER + INTRA:         -12.925
REMARK INTER:                  -9.530
REMARK INTRA:                  -3.396
REMARK UNBOUND:                -3.351
REMARK SMILES CCCCCCCCCCCCCCCCCCCCCC(=O)[O-]
REMARK SMILES IDX 12 1 11 2 10 3 9 4 8 5 7 6 6 7 5 8 4 9 3 10 2 11 1 12 13 13
REMARK SMILES IDX 14 14 15 15 16 16 17 17 18 18 19 19 20 20 21 21 22 22 23 23
REMARK SMILES IDX 24 24
REMARK H PARENT
REMARK Flexibility Score: inf
ROOT
ATOM      1  C   UNL     1     101.597  -0.335  22.997  1.00  0.00     0.000 C 
ENDROOT
BRANCH   1   2
ATOM      2  C   UNL     1     100.784  -1.131  24.032  1.00  0.00     0.000 C 
BRANCH   2   3
ATOM      3  C   UNL     1      99.848  -0.239  24.862  1.00  0.00     0.000 C 
BRANCH   3   4
ATOM      4  C   UNL     1      98.819   0.503  23.996  1.00  0.00    -0.000 C 
BRANCH   4   5
ATOM      5  C   UNL     1      98.120   1.609  24.800  1.00  0.00    -0.000 C 
BRANCH   5   6
ATOM      6  C   UNL     1      96.667   1.854  24.351  1.00  0.00    -0.000 C 
BRANCH   6   7
ATOM      7  C   UNL     1      96.348   3.296  23.916  1.00  0.00    -0.000 C 
BRANCH   7   8
ATOM      8  C   UNL     1      95.815   4.166  25.067  1.00  0.00    -0.000 C 
BRANCH   8   9
ATOM      9  C   UNL     1      96.879   4.459  26.141  1.00  0.00    -0.000 C 
BRANCH   9  10
ATOM     10  C   UNL     1      97.250   5.945  26.307  1.00  0.00    -0.000 C 
BRANCH  10  11
ATOM     11  C   UNL     1      98.689   6.153  26.802  1.00  0.00    -0.003 C 
ATOM     12  C   UNL     1      99.189   4.930  27.568  1.00  0.00     0.004 C 
ENDBRANCH  10  11
ENDBRANCH   9  10
ENDBRANCH   8   9
ENDBRANCH   7   8
ENDBRANCH   6   7
ENDBRANCH   5   6
ENDBRANCH   4   5
ENDBRANCH   3   4
ENDBRANCH   2   3
ENDBRANCH   1   2
BRANCH   1  13
ATOM     13  C   UNL     1     103.043  -0.063  23.451  1.00  0.00     0.000 C 
BRANCH  13  14
ATOM     14  C   UNL     1     103.385   1.421  23.680  1.00  0.00     0.000 C 
BRANCH  14  15
ATOM     15  C   UNL     1     103.156   1.870  25.134  1.00  0.00     0.000 C 
BRANCH  15  16
ATOM     16  C   UNL     1     101.930   2.785  25.285  1.00  0.00     0.000 C 
BRANCH  16  17
ATOM     17  C   UNL     1     101.347   3.234  23.936  1.00  0.00     0.000 C 
BRANCH  17  18
ATOM     18  C   UNL     1     100.147   4.171  24.143  1.00  0.00     0.000 C 
BRANCH  18  19
ATOM     19  C   UNL     1      99.471   4.570  22.821  1.00  0.00     0.000 C 
BRANCH  19  20
ATOM     20  C   UNL     1      98.755   5.929  22.913  1.00  0.00     0.006 C 
BRANCH  20  21
ATOM     21  C   UNL     1      97.657   6.078  21.851  1.00  0.00     0.053 C 
BRANCH  21  22
ATOM     22  C   UNL     1      96.481   6.847  22.370  1.00  0.00     0.041 C 
ATOM     23  O   UNL     1      95.336   6.661  21.878  1.00  0.00    -0.550 OA
ATOM     24  O   UNL     1      96.654   7.792  23.374  1.00  0.00    -0.550 OA
ENDBRANCH  21  22
ENDBRANCH  20  21
ENDBRANCH  19  20
ENDBRANCH  18  19
ENDBRANCH  17  18
ENDBRANCH  16  17
ENDBRANCH  15  16
ENDBRANCH  14  15
ENDBRANCH  13  14
ENDBRANCH   1  13
TORSDOF 20
ENDMDL
MODEL 6
REMARK VINA RESULT:    -4.355      2.954      7.559
REMARK INTER + INTRA:         -12.799
REMARK INTER:                  -9.491
REMARK INTRA:                  -3.308
REMARK UNBOUND:                -3.351
REMARK SMILES CCCCCCCCCCCCCCCCCCCCCC(=O)[O-]
REMARK SMILES IDX 12 1 11 2 10 3 9 4 8 5 7 6 6 7 5 8 4 9 3 10 2 11 1 12 13 13
REMARK SMILES IDX 14 14 15 15 16 16 17 17 18 18 19 19 20 20 21 21 22 22 23 23
REMARK SMILES IDX 24 24
REMARK H PARENT
REMARK Flexibility Score: inf
ROOT
ATOM      1  C   UNL     1      98.770   3.563  23.633  1.00  0.00     0.000 C 
ENDROOT
BRANCH   1   2
ATOM      2  C   UNL     1      98.335   2.425  24.573  1.00  0.00     0.000 C 
BRANCH   2   3
ATOM      3  C   UNL     1      96.809   2.338  24.730  1.00  0.00     0.000 C 
BRANCH   3   4
ATOM      4  C   UNL     1      96.095   3.619  24.275  1.00  0.00    -0.000 C 
BRANCH   4   5
ATOM      5  C   UNL     1      95.761   4.518  25.474  1.00  0.00    -0.000 C 
BRANCH   5   6
ATOM      6  C   UNL     1      95.530   5.988  25.080  1.00  0.00    -0.000 C 
BRANCH   6   7
ATOM      7  C   UNL     1      96.747   6.915  25.251  1.00  0.00    -0.000 C 
BRANCH   7   8
ATOM      8  C   UNL     1      97.141   7.636  23.951  1.00  0.00    -0.000 C 
BRANCH   8   9
ATOM      9  C   UNL     1      96.205   7.305  22.774  1.00  0.00    -0.000 C 
BRANCH   9  10
ATOM     10  C   UNL     1      96.745   6.259  21.781  1.00  0.00    -0.000 C 
BRANCH  10  11
ATOM     11  C   UNL     1      98.012   6.723  21.049  1.00  0.00    -0.003 C 
ATOM     12  C   UNL     1      97.783   8.059  20.345  1.00  0.00     0.004 C 
ENDBRANCH  10  11
ENDBRANCH   9  10
ENDBRANCH   8   9
ENDBRANCH   7   8
ENDBRANCH   6   7
ENDBRANCH   5   6
ENDBRANCH   4   5
ENDBRANCH   3   4
ENDBRANCH   2   3
ENDBRANCH   1   2
BRANCH   1  13
ATOM     13  C   UNL     1      99.665   4.605  24.328  1.00  0.00     0.000 C 
BRANCH  13  14
ATOM     14  C   UNL     1      99.525   4.664  25.861  1.00  0.00     0.000 C 
BRANCH  14  15
ATOM     15  C   UNL     1     100.882   4.639  26.587  1.00  0.00     0.000 C 
BRANCH  15  16
ATOM     16  C   UNL     1     101.465   3.221  26.705  1.00  0.00     0.000 C 
BRANCH  16  17
ATOM     17  C   UNL     1     103.002   3.202  26.694  1.00  0.00     0.000 C 
BRANCH  17  18
ATOM     18  C   UNL     1     103.529   2.309  25.560  1.00  0.00     0.000 C 
BRANCH  18  19
ATOM     19  C   UNL     1     102.671   2.398  24.288  1.00  0.00     0.000 C 
BRANCH  19  20
ATOM     20  C   UNL     1     102.320   1.013  23.717  1.00  0.00     0.006 C 
BRANCH  20  21
ATOM     21  C   UNL     1     101.252   0.295  24.554  1.00  0.00     0.053 C 
BRANCH  21  22
ATOM     22  C   UNL     1     100.562  -0.781  23.772  1.00  0.00     0.041 C 
ATOM     23  O   UNL     1     100.924  -1.982  23.894  1.00  0.00    -0.550 OA
ATOM     24  O   UNL     1      99.543  -0.455  22.886  1.00  0.00    -0.550 OA
ENDBRANCH  21  22
ENDBRANCH  20  21
ENDBRANCH  19  20
ENDBRANCH  18  19
ENDBRANCH  17  18
ENDBRANCH  16  17
ENDBRANCH  15  16
ENDBRANCH  14  15
ENDBRANCH  13  14
ENDBRANCH   1  13
TORSDOF 20
ENDMDL
MODEL 7
REMARK VINA RESULT:    -4.355      1.183      2.348
REMARK INTER + INTRA:         -12.799
REMARK INTER:                  -9.494
REMARK INTRA:                  -3.305
REMARK UNBOUND:                -3.351
REMARK SMILES CCCCCCCCCCCCCCCCCCCCCC(=O)[O-]
REMARK SMILES IDX 12 1 11 2 10 3 9 4 8 5 7 6 6 7 5 8 4 9 3 10 2 11 1 12 13 13
REMARK SMILES IDX 14 14 15 15 16 16 17 17 18 18 19 19 20 20 21 21 22 22 23 23
REMARK SMILES IDX 24 24
REMARK H PARENT
REMARK Flexibility Score: inf
ROOT
ATOM      1  C   UNL     1      96.970   3.641  23.680  1.00  0.00     0.000 C 
ENDROOT
BRANCH   1   2
ATOM      2  C   UNL     1      98.426   3.297  24.040  1.00  0.00     0.000 C 
BRANCH   2   3
ATOM      3  C   UNL     1      98.530   2.381  25.270  1.00  0.00     0.000 C 
BRANCH   3   4
ATOM      4  C   UNL     1      99.358   3.004  26.403  1.00  0.00    -0.000 C 
BRANCH   4   5
ATOM      5  C   UNL     1      99.922   4.370  25.983  1.00  0.00    -0.000 C 
BRANCH   5   6
ATOM      6  C   UNL     1     101.338   4.631  26.529  1.00  0.00    -0.000 C 
BRANCH   6   7
ATOM      7  C   UNL     1     102.314   3.445  26.421  1.00  0.00    -0.000 C 
BRANCH   7   8
ATOM      8  C   UNL     1     102.857   3.242  24.996  1.00  0.00    -0.000 C 
BRANCH   8   9
ATOM      9  C   UNL     1     103.092   1.761  24.649  1.00  0.00    -0.000 C 
BRANCH   9  10
ATOM     10  C   UNL     1     101.825   0.885  24.622  1.00  0.00    -0.000 C 
BRANCH  10  11
ATOM     11  C   UNL     1     101.226   0.737  23.216  1.00  0.00    -0.003 C 
ATOM     12  C   UNL     1     100.132  -0.327  23.193  1.00  0.00     0.004 C 
ENDBRANCH  10  11
ENDBRANCH   9  10
ENDBRANCH   8   9
ENDBRANCH   7   8
ENDBRANCH   6   7
ENDBRANCH   5   6
ENDBRANCH   4   5
ENDBRANCH   3   4
ENDBRANCH   2   3
ENDBRANCH   1   2
BRANCH   1  13
ATOM     13  C   UNL     1      96.030   3.621  24.899  1.00  0.00     0.000 C 
BRANCH  13  14
ATOM     14  C   UNL     1      95.520   5.003  25.350  1.00  0.00     0.000 C 
BRANCH  14  15
ATOM     15  C   UNL     1      96.522   5.746  26.250  1.00  0.00     0.000 C 
BRANCH  15  16
ATOM     16  C   UNL     1      97.212   6.915  25.529  1.00  0.00     0.000 C 
BRANCH  16  17
ATOM     17  C   UNL     1      96.223   7.984  25.037  1.00  0.00     0.000 C 
BRANCH  17  18
ATOM     18  C   UNL     1      96.413   8.255  23.536  1.00  0.00     0.000 C 
BRANCH  18  19
ATOM     19  C   UNL     1      95.090   8.206  22.754  1.00  0.00     0.000 C 
BRANCH  19  20
ATOM     20  C   UNL     1      95.002   6.983  21.825  1.00  0.00     0.006 C 
BRANCH  20  21
ATOM     21  C   UNL     1      96.387   6.477  21.399  1.00  0.00     0.053 C 
BRANCH  21  22
ATOM     22  C   UNL     1      96.839   7.104  20.115  1.00  0.00     0.041 C 
ATOM     23  O   UNL     1      96.069   7.132  19.119  1.00  0.00    -0.550 OA
ATOM     24  O   UNL     1      98.122   7.627  20.009  1.00  0.00    -0.550 OA
ENDBRANCH  21  22
ENDBRANCH  20  21
ENDBRANCH  19  20
ENDBRANCH  18  19
ENDBRANCH  17  18
ENDBRANCH  16  17
ENDBRANCH  15  16
ENDBRANCH  14  15
ENDBRANCH  13  14
ENDBRANCH   1  13
TORSDOF 20
ENDMDL
MODEL 8
REMARK VINA RESULT:    -4.335      1.736      2.760
REMARK INTER + INTRA:         -12.756
REMARK INTER:                  -9.762
REMARK INTRA:                  -2.994
REMARK UNBOUND:                -3.351
REMARK SMILES CCCCCCCCCCCCCCCCCCCCCC(=O)[O-]
REMARK SMILES IDX 12 1 11 2 10 3 9 4 8 5 7 6 6 7 5 8 4 9 3 10 2 11 1 12 13 13
REMARK SMILES IDX 14 14 15 15 16 16 17 17 18 18 19 19 20 20 21 21 22 22 23 23
REMARK SMILES IDX 24 24
REMARK H PARENT
REMARK Flexibility Score: inf
ROOT
ATOM      1  C   UNL     1     101.244   4.713  26.372  1.00  0.00     0.000 C 
ENDROOT
BRANCH   1   2
ATOM      2  C   UNL     1     101.783   3.559  27.237  1.00  0.00     0.000 C 
BRANCH   2   3
ATOM      3  C   UNL     1     103.102   2.983  26.699  1.00  0.00     0.000 C 
BRANCH   3   4
ATOM      4  C   UNL     1     103.741   3.875  25.623  1.00  0.00    -0.000 C 
BRANCH   4   5
ATOM      5  C   UNL     1     104.743   3.079  24.774  1.00  0.00    -0.000 C 
BRANCH   5   6
ATOM      6  C   UNL     1     104.495   1.560  24.815  1.00  0.00    -0.000 C 
BRANCH   6   7
ATOM      7  C   UNL     1     104.210   0.902  23.453  1.00  0.00    -0.000 C 
BRANCH   7   8
ATOM      8  C   UNL     1     102.862   0.162  23.414  1.00  0.00    -0.000 C 
BRANCH   8   9
ATOM      9  C   UNL     1     101.702   0.996  23.988  1.00  0.00    -0.000 C 
BRANCH   9  10
ATOM     10  C   UNL     1     101.296   2.220  23.145  1.00  0.00    -0.000 C 
BRANCH  10  11
ATOM     11  C   UNL     1      99.934   2.803  23.550  1.00  0.00    -0.003 C 
ATOM     12  C   UNL     1      99.717   4.180  22.927  1.00  0.00     0.004 C 
ENDBRANCH  10  11
ENDBRANCH   9  10
ENDBRANCH   8   9
ENDBRANCH   7   8
ENDBRANCH   6   7
ENDBRANCH   5   6
ENDBRANCH   4   5
ENDBRANCH   3   4
ENDBRANCH   2   3
ENDBRANCH   1   2
BRANCH   1  13
ATOM     13  C   UNL     1      99.737   4.957  26.571  1.00  0.00     0.000 C 
BRANCH  13  14
ATOM     14  C   UNL     1      98.926   3.717  26.993  1.00  0.00     0.000 C 
BRANCH  14  15
ATOM     15  C   UNL     1      97.417   3.873  26.737  1.00  0.00     0.000 C 
BRANCH  15  16
ATOM     16  C   UNL     1      96.911   2.966  25.605  1.00  0.00     0.000 C 
BRANCH  16  17
ATOM     17  C   UNL     1      96.306   3.753  24.431  1.00  0.00     0.000 C 
BRANCH  17  18
ATOM     18  C   UNL     1      96.470   5.265  24.643  1.00  0.00     0.000 C 
BRANCH  18  19
ATOM     19  C   UNL     1      95.389   6.086  23.923  1.00  0.00     0.000 C 
BRANCH  19  20
ATOM     20  C   UNL     1      95.730   6.339  22.444  1.00  0.00     0.006 C 
BRANCH  20  21
ATOM     21  C   UNL     1      94.650   7.166  21.734  1.00  0.00     0.053 C 
BRANCH  21  22
ATOM     22  C   UNL     1      95.093   8.578  21.499  1.00  0.00     0.041 C 
ATOM     23  O   UNL     1      95.886   8.844  20.557  1.00  0.00    -0.550 OA
ATOM     24  O   UNL     1      94.658   9.594  22.341  1.00  0.00    -0.550 OA
ENDBRANCH  21  22
ENDBRANCH  20  21
ENDBRANCH  19  20
ENDBRANCH  18  19
ENDBRANCH  17  18
ENDBRANCH  16  17
ENDBRANCH  15  16
ENDBRANCH  14  15
ENDBRANCH  13  14
ENDBRANCH   1  13
TORSDOF 20
ENDMDL
MODEL 9
REMARK VINA RESULT:    -4.275      2.837      7.360
REMARK INTER + INTRA:         -12.625
REMARK INTER:                  -9.592
REMARK INTRA:                  -3.033
REMARK UNBOUND:                -3.351
REMARK SMILES CCCCCCCCCCCCCCCCCCCCCC(=O)[O-]
REMARK SMILES IDX 12 1 11 2 10 3 9 4 8 5 7 6 6 7 5 8 4 9 3 10 2 11 1 12 13 13
REMARK SMILES IDX 14 14 15 15 16 16 17 17 18 18 19 19 20 20 21 21 22 22 23 23
REMARK SMILES IDX 24 24
REMARK H PARENT
REMARK Flexibility Score: inf
ROOT
ATOM      1  C   UNL     1     101.641   5.634  27.371  1.00  0.00     0.000 C 
ENDROOT
BRANCH   1   2
ATOM      2  C   UNL     1     100.366   4.772  27.395  1.00  0.00     0.000 C 
BRANCH   2   3
ATOM      3  C   UNL     1      99.319   5.237  26.371  1.00  0.00     0.000 C 
BRANCH   3   4
ATOM      4  C   UNL     1      97.879   5.051  26.873  1.00  0.00    -0.000 C 
BRANCH   4   5
ATOM      5  C   UNL     1      97.300   3.711  26.397  1.00  0.00    -0.000 C 
BRANCH   5   6
ATOM      6  C   UNL     1      96.209   3.873  25.322  1.00  0.00    -0.000 C 
BRANCH   6   7
ATOM      7  C   UNL     1      95.486   5.233  25.319  1.00  0.00    -0.000 C 
BRANCH   7   8
ATOM      8  C   UNL     1      95.523   5.929  23.948  1.00  0.00    -0.000 C 
BRANCH   8   9
ATOM      9  C   UNL     1      96.511   5.270  22.967  1.00  0.00    -0.000 C 
BRANCH   9  10
ATOM     10  C   UNL     1      97.941   5.842  22.995  1.00  0.00    -0.000 C 
BRANCH  10  11
ATOM     11  C   UNL     1      98.414   6.344  21.623  1.00  0.00    -0.003 C 
ATOM     12  C   UNL     1      97.231   6.741  20.744  1.00  0.00     0.004 C 
ENDBRANCH  10  11
ENDBRANCH   9  10
ENDBRANCH   8   9
ENDBRANCH   7   8
ENDBRANCH   6   7
ENDBRANCH   5   6
ENDBRANCH   4   5
ENDBRANCH   3   4
ENDBRANCH   2   3
ENDBRANCH   1   2
BRANCH   1  13
ATOM     13  C   UNL     1     102.864   4.877  26.821  1.00  0.00     0.000 C 
BRANCH  13  14
ATOM     14  C   UNL     1     103.005   3.424  27.311  1.00  0.00     0.000 C 
BRANCH  14  15
ATOM     15  C   UNL     1     104.101   2.644  26.564  1.00  0.00     0.000 C 
BRANCH  15  16
ATOM     16  C   UNL     1     104.438   3.259  25.197  1.00  0.00     0.000 C 
BRANCH  16  17
ATOM     17  C   UNL     1     104.340   2.248  24.043  1.00  0.00     0.000 C 
BRANCH  17  18
ATOM     18  C   UNL     1     103.076   1.386  24.178  1.00  0.00     0.000 C 
BRANCH  18  19
ATOM     19  C   UNL     1     101.925   1.880  23.287  1.00  0.00     0.000 C 
BRANCH  19  20
ATOM     20  C   UNL     1     100.860   2.658  24.080  1.00  0.00     0.006 C 
BRANCH  20  21
ATOM     21  C   UNL     1     100.262   1.823  25.220  1.00  0.00     0.053 C 
BRANCH  21  22
ATOM     22  C   UNL     1      99.391   0.718  24.705  1.00  0.00     0.041 C 
ATOM     23  O   UNL     1      99.808  -0.471  24.709  1.00  0.00    -0.550 OA
ATOM     24  O   UNL     1      98.133   1.004  24.191  1.00  0.00    -0.550 OA
ENDBRANCH  21  22
ENDBRANCH  20  21
ENDBRANCH  19  20
ENDBRANCH  18  19
ENDBRANCH  17  18
ENDBRANCH  16  17
ENDBRANCH  15  16
ENDBRANCH  14  15
ENDBRANCH  13  14
ENDBRANCH   1  13
TORSDOF 20
ENDMDL
