MODEL 1
REMARK VINA RESULT:    -4.559      0.000      0.000
REMARK INTER + INTRA:         -13.433
REMARK INTER:                 -10.423
REMARK INTRA:                  -3.010
REMARK UNBOUND:                -3.010
REMARK SMILES CCCCCCCCCCCCCCCCCCCCCCCC(=O)[O-]
REMARK SMILES IDX 13 1 14 2 15 3 16 4 17 5 18 6 19 7 20 8 21 9 22 10 23 11
REMARK SMILES IDX 24 12 25 13 26 14 12 15 11 16 10 17 9 18 8 19 7 20 6 21 5 22
REMARK SMILES IDX 4 23 3 24 2 25 1 26
REMARK H PARENT
REMARK Flexibility Score: inf
ROOT
ATOM      1  C   UNL     1      85.832 317.501 203.364  1.00  0.00     0.000 C 
ENDROOT
BRANCH   1   2
ATOM      2  C   UNL     1      84.598 317.486 202.445  1.00  0.00     0.000 C 
BRANCH   2   3
ATOM      3  C   UNL     1      84.477 316.181 201.639  1.00  0.00     0.000 C 
BRANCH   3   4
ATOM      4  C   UNL     1      84.603 314.887 202.468  1.00  0.00     0.000 C 
BRANCH   4   5
ATOM      5  C   UNL     1      85.732 313.935 202.026  1.00  0.00     0.000 C 
BRANCH   5   6
ATOM      6  C   UNL     1      86.857 314.597 201.205  1.00  0.00     0.000 C 
BRANCH   6   7
ATOM      7  C   UNL     1      86.884 314.209 199.713  1.00  0.00     0.000 C 
BRANCH   7   8
ATOM      8  C   UNL     1      88.262 313.766 199.182  1.00  0.00     0.000 C 
BRANCH   8   9
ATOM      9  C   UNL     1      89.400 314.786 199.391  1.00  0.00     0.000 C 
BRANCH   9  10
ATOM     10  C   UNL     1      89.912 315.461 198.105  1.00  0.00     0.006 C 
BRANCH  10  11
ATOM     11  C   UNL     1      90.722 316.733 198.385  1.00  0.00     0.053 C 
BRANCH  11  12
ATOM     12  C   UNL     1      92.149 316.542 197.976  1.00  0.00     0.041 C 
ATOM     13  O   UNL     1      92.483 316.660 196.768  1.00  0.00    -0.550 OA
ATOM     14  O   UNL     1      93.119 316.281 198.936  1.00  0.00    -0.550 OA
ENDBRANCH  11  12
ENDBRANCH  10  11
ENDBRANCH   9  10
ENDBRANCH   8   9
ENDBRANCH   7   8
ENDBRANCH   6   7
ENDBRANCH   5   6
ENDBRANCH   4   5
ENDBRANCH   3   4
ENDBRANCH   2   3
ENDBRANCH   1   2
BRANCH   1  15
ATOM     15  C   UNL     1      85.609 318.318 204.649  1.00  0.00     0.000 C 
BRANCH  15  16
ATOM     16  C   UNL     1      85.101 317.513 205.861  1.00  0.00     0.000 C 
BRANCH  16  17
ATOM     17  C   UNL     1      85.096 315.984 205.643  1.00  0.00     0.000 C 
BRANCH  17  18
ATOM     18  C   UNL     1      86.242 315.283 206.396  1.00  0.00    -0.000 C 
BRANCH  18  19
ATOM     19  C   UNL     1      87.490 315.079 205.524  1.00  0.00    -0.000 C 
BRANCH  19  20
ATOM     20  C   UNL     1      88.767 315.629 206.177  1.00  0.00    -0.000 C 
BRANCH  20  21
ATOM     21  C   UNL     1      89.722 316.198 205.118  1.00  0.00    -0.000 C 
BRANCH  21  22
ATOM     22  C   UNL     1      89.137 316.149 203.695  1.00  0.00    -0.000 C 
BRANCH  22  23
ATOM     23  C   UNL     1      90.180 316.056 202.563  1.00  0.00    -0.000 C 
BRANCH  23  24
ATOM     24  C   UNL     1      91.486 316.840 202.808  1.00  0.00    -0.000 C 
BRANCH  24  25
ATOM     25  C   UNL     1      91.779 317.943 201.776  1.00  0.00    -0.003 C 
ATOM     26  C   UNL     1      92.571 319.110 202.364  1.00  0.00     0.004 C 
ENDBRANCH  24  25
ENDBRANCH  23  24
ENDBRANCH  22  23
ENDBRANCH  21  22
ENDBRANCH  20  21
ENDBRANCH  19  20
ENDBRANCH  18  19
ENDBRANCH  17  18
ENDBRANCH  16  17
ENDBRANCH  15  16
ENDBRANCH   1  15
TORSDOF 22
ENDMDL
MODEL 2
REMARK VINA RESULT:    -4.505      1.766      4.224
REMARK INTER + INTRA:         -13.309
REMARK INTER:                  -9.694
REMARK INTRA:                  -3.615
REMARK UNBOUND:                -3.010
REMARK SMILES CCCCCCCCCCCCCCCCCCCCCCCC(=O)[O-]
REMARK SMILES IDX 13 1 14 2 15 3 16 4 17 5 18 6 19 7 20 8 21 9 22 10 23 11
REMARK SMILES IDX 24 12 25 13 26 14 12 15 11 16 10 17 9 18 8 19 7 20 6 21 5 22
REMARK SMILES IDX 4 23 3 24 2 25 1 26
REMARK H PARENT
REMARK Flexibility Score: inf
ROOT
ATOM      1  C   UNL     1      85.608 315.553 201.340  1.00  0.00     0.000 C 
ENDROOT
BRANCH   1   2
ATOM      2  C   UNL     1      85.864 314.121 201.839  1.00  0.00     0.000 C 
BRANCH   2   3
ATOM      3  C   UNL     1      87.031 313.438 201.105  1.00  0.00     0.000 C 
BRANCH   3   4
ATOM      4  C   UNL     1      87.383 314.045 199.732  1.00  0.00     0.000 C 
BRANCH   4   5
ATOM      5  C   UNL     1      88.871 314.398 199.536  1.00  0.00     0.000 C 
BRANCH   5   6
ATOM      6  C   UNL     1      89.227 314.966 198.148  1.00  0.00     0.000 C 
BRANCH   6   7
ATOM      7  C   UNL     1      90.657 315.530 198.026  1.00  0.00     0.000 C 
BRANCH   7   8
ATOM      8  C   UNL     1      91.349 315.841 199.368  1.00  0.00     0.000 C 
BRANCH   8   9
ATOM      9  C   UNL     1      91.323 317.325 199.787  1.00  0.00     0.000 C 
BRANCH   9  10
ATOM     10  C   UNL     1      92.488 317.766 200.690  1.00  0.00     0.006 C 
BRANCH  10  11
ATOM     11  C   UNL     1      92.023 318.585 201.902  1.00  0.00     0.053 C 
BRANCH  11  12
ATOM     12  C   UNL     1      93.063 319.594 202.278  1.00  0.00     0.041 C 
ATOM     13  O   UNL     1      92.869 320.371 203.251  1.00  0.00    -0.550 OA
ATOM     14  O   UNL     1      94.266 319.645 201.585  1.00  0.00    -0.550 OA
ENDBRANCH  11  12
ENDBRANCH  10  11
ENDBRANCH   9  10
ENDBRANCH   8   9
ENDBRANCH   7   8
ENDBRANCH   6   7
ENDBRANCH   5   6
ENDBRANCH   4   5
ENDBRANCH   3   4
ENDBRANCH   2   3
ENDBRANCH   1   2
BRANCH   1  15
ATOM     15  C   UNL     1      84.265 316.124 201.825  1.00  0.00     0.000 C 
BRANCH  15  16
ATOM     16  C   UNL     1      84.355 317.463 202.585  1.00  0.00     0.000 C 
BRANCH  16  17
ATOM     17  C   UNL     1      85.777 317.817 203.070  1.00  0.00     0.000 C 
BRANCH  17  18
ATOM     18  C   UNL     1      85.791 318.307 204.530  1.00  0.00    -0.000 C 
BRANCH  18  19
ATOM     19  C   UNL     1      84.802 317.544 205.424  1.00  0.00    -0.000 C 
BRANCH  19  20
ATOM     20  C   UNL     1      85.436 316.318 206.098  1.00  0.00    -0.000 C 
BRANCH  20  21
ATOM     21  C   UNL     1      84.979 315.021 205.414  1.00  0.00    -0.000 C 
BRANCH  21  22
ATOM     22  C   UNL     1      85.979 313.865 205.592  1.00  0.00    -0.000 C 
BRANCH  22  23
ATOM     23  C   UNL     1      87.439 314.296 205.838  1.00  0.00    -0.000 C 
BRANCH  23  24
ATOM     24  C   UNL     1      88.303 314.443 204.569  1.00  0.00    -0.000 C 
BRANCH  24  25
ATOM     25  C   UNL     1      88.794 315.873 204.285  1.00  0.00    -0.003 C 
ATOM     26  C   UNL     1      89.145 316.100 202.815  1.00  0.00     0.004 C 
ENDBRANCH  24  25
ENDBRANCH  23  24
ENDBRANCH  22  23
ENDBRANCH  21  22
ENDBRANCH  20  21
ENDBRANCH  19  20
ENDBRANCH  18  19
ENDBRANCH  17  18
ENDBRANCH  16  17
ENDBRANCH  15  16
ENDBRANCH   1  15
TORSDOF 22
ENDMDL
MODEL 3
REMARK VINA RESULT:    -4.503     11.128     17.214
REMARK INTER + INTRA:         -13.306
REMARK INTER:                 -11.242
REMARK INTRA:                  -2.064
REMARK UNBOUND:                -3.010
REMARK SMILES CCCCCCCCCCCCCCCCCCCCCCCC(=O)[O-]
REMARK SMILES IDX 13 1 14 2 15 3 16 4 17 5 18 6 19 7 20 8 21 9 22 10 23 11
REMARK SMILES IDX 24 12 25 13 26 14 12 15 11 16 10 17 9 18 8 19 7 20 6 21 5 22
REMARK SMILES IDX 4 23 3 24 2 25 1 26
REMARK H PARENT
REMARK Flexibility Score: inf
ROOT
ATOM      1  C   UNL     1     100.456 315.737 188.967  1.00  0.00     0.000 C 
ENDROOT
BRANCH   1   2
ATOM      2  C   UNL     1     100.256 317.245 189.193  1.00  0.00     0.000 C 
BRANCH   2   3
ATOM      3  C   UNL     1      99.188 317.847 188.262  1.00  0.00     0.000 C 
BRANCH   3   4
ATOM      4  C   UNL     1      97.900 318.318 188.966  1.00  0.00     0.000 C 
BRANCH   4   5
ATOM      5  C   UNL     1      96.828 317.229 189.165  1.00  0.00     0.000 C 
BRANCH   5   6
ATOM      6  C   UNL     1      95.811 317.516 190.288  1.00  0.00     0.000 C 
BRANCH   6   7
ATOM      7  C   UNL     1      94.477 316.754 190.163  1.00  0.00     0.000 C 
BRANCH   7   8
ATOM      8  C   UNL     1      93.292 317.390 190.916  1.00  0.00     0.000 C 
BRANCH   8   9
ATOM      9  C   UNL     1      93.494 318.864 191.324  1.00  0.00     0.000 C 
BRANCH   9  10
ATOM     10  C   UNL     1      93.535 319.118 192.842  1.00  0.00     0.006 C 
BRANCH  10  11
ATOM     11  C   UNL     1      94.026 317.901 193.635  1.00  0.00     0.053 C 
BRANCH  11  12
ATOM     12  C   UNL     1      95.420 318.131 194.131  1.00  0.00     0.041 C 
ATOM     13  O   UNL     1      96.340 317.325 193.831  1.00  0.00    -0.550 OA
ATOM     14  O   UNL     1      95.713 319.260 194.885  1.00  0.00    -0.550 OA
ENDBRANCH  11  12
ENDBRANCH  10  11
ENDBRANCH   9  10
ENDBRANCH   8   9
ENDBRANCH   7   8
ENDBRANCH   6   7
ENDBRANCH   5   6
ENDBRANCH   4   5
ENDBRANCH   3   4
ENDBRANCH   2   3
ENDBRANCH   1   2
BRANCH   1  15
ATOM     15  C   UNL     1     100.807 315.392 187.509  1.00  0.00     0.000 C 
BRANCH  15  16
ATOM     16  C   UNL     1     101.606 314.088 187.315  1.00  0.00     0.000 C 
BRANCH  16  17
ATOM     17  C   UNL     1     103.074 314.308 186.892  1.00  0.00     0.000 C 
BRANCH  17  18
ATOM     18  C   UNL     1     104.069 313.871 187.984  1.00  0.00    -0.000 C 
BRANCH  18  19
ATOM     19  C   UNL     1     103.563 312.676 188.806  1.00  0.00    -0.000 C 
BRANCH  19  20
ATOM     20  C   UNL     1     103.985 312.749 190.281  1.00  0.00    -0.000 C 
BRANCH  20  21
ATOM     21  C   UNL     1     103.415 314.007 190.951  1.00  0.00    -0.000 C 
BRANCH  21  22
ATOM     22  C   UNL     1     102.036 313.772 191.594  1.00  0.00    -0.000 C 
BRANCH  22  23
ATOM     23  C   UNL     1     101.393 312.406 191.278  1.00  0.00    -0.000 C 
BRANCH  23  24
ATOM     24  C   UNL     1     100.625 311.756 192.448  1.00  0.00    -0.000 C 
BRANCH  24  25
ATOM     25  C   UNL     1      99.865 312.745 193.349  1.00  0.00    -0.003 C 
ATOM     26  C   UNL     1      98.402 312.356 193.556  1.00  0.00     0.004 C 
ENDBRANCH  24  25
ENDBRANCH  23  24
ENDBRANCH  22  23
ENDBRANCH  21  22
ENDBRANCH  20  21
ENDBRANCH  19  20
ENDBRANCH  18  19
ENDBRANCH  17  18
ENDBRANCH  16  17
ENDBRANCH  15  16
ENDBRANCH   1  15
TORSDOF 22
ENDMDL
MODEL 4
REMARK VINA RESULT:    -4.503      1.047      2.559
REMARK INTER + INTRA:         -13.305
REMARK INTER:                 -10.377
REMARK INTRA:                  -2.929
REMARK UNBOUND:                -3.010
REMARK SMILES CCCCCCCCCCCCCCCCCCCCCCCC(=O)[O-]
REMARK SMILES IDX 13 1 14 2 15 3 16 4 17 5 18 6 19 7 20 8 21 9 22 10 23 11
REMARK SMILES IDX 24 12 25 13 26 14 12 15 11 16 10 17 9 18 8 19 7 20 6 21 5 22
REMARK SMILES IDX 4 23 3 24 2 25 1 26
REMARK H PARENT
REMARK Flexibility Score: inf
ROOT
ATOM      1  C   UNL     1      84.344 316.017 201.590  1.00  0.00     0.000 C 
ENDROOT
BRANCH   1   2
ATOM      2  C   UNL     1      84.735 314.825 202.481  1.00  0.00     0.000 C 
BRANCH   2   3
ATOM      3  C   UNL     1      85.820 313.940 201.842  1.00  0.00     0.000 C 
BRANCH   3   4
ATOM      4  C   UNL     1      86.482 314.528 200.580  1.00  0.00     0.000 C 
BRANCH   4   5
ATOM      5  C   UNL     1      87.863 313.938 200.231  1.00  0.00     0.000 C 
BRANCH   5   6
ATOM      6  C   UNL     1      88.377 314.278 198.818  1.00  0.00     0.000 C 
BRANCH   6   7
ATOM      7  C   UNL     1      89.885 314.589 198.735  1.00  0.00     0.000 C 
BRANCH   7   8
ATOM      8  C   UNL     1      90.239 315.901 198.008  1.00  0.00     0.000 C 
BRANCH   8   9
ATOM      9  C   UNL     1      91.044 316.915 198.845  1.00  0.00     0.000 C 
BRANCH   9  10
ATOM     10  C   UNL     1      92.492 317.142 198.376  1.00  0.00     0.006 C 
BRANCH  10  11
ATOM     11  C   UNL     1      92.789 316.480 197.024  1.00  0.00     0.053 C 
BRANCH  11  12
ATOM     12  C   UNL     1      93.559 317.414 196.144  1.00  0.00     0.041 C 
ATOM     13  O   UNL     1      93.731 318.613 196.490  1.00  0.00    -0.550 OA
ATOM     14  O   UNL     1      94.128 316.950 194.965  1.00  0.00    -0.550 OA
ENDBRANCH  11  12
ENDBRANCH  10  11
ENDBRANCH   9  10
ENDBRANCH   8   9
ENDBRANCH   7   8
ENDBRANCH   6   7
ENDBRANCH   5   6
ENDBRANCH   4   5
ENDBRANCH   3   4
ENDBRANCH   2   3
ENDBRANCH   1   2
BRANCH   1  15
ATOM     15  C   UNL     1      84.496 317.371 202.302  1.00  0.00     0.000 C 
BRANCH  15  16
ATOM     16  C   UNL     1      85.755 317.514 203.181  1.00  0.00     0.000 C 
BRANCH  16  17
ATOM     17  C   UNL     1      85.521 318.295 204.492  1.00  0.00     0.000 C 
BRANCH  17  18
ATOM     18  C   UNL     1      85.025 317.386 205.633  1.00  0.00    -0.000 C 
BRANCH  18  19
ATOM     19  C   UNL     1      85.543 315.945 205.513  1.00  0.00    -0.000 C 
BRANCH  19  20
ATOM     20  C   UNL     1      86.862 315.723 206.269  1.00  0.00    -0.000 C 
BRANCH  20  21
ATOM     21  C   UNL     1      87.897 315.031 205.371  1.00  0.00    -0.000 C 
BRANCH  21  22
ATOM     22  C   UNL     1      88.847 316.022 204.675  1.00  0.00    -0.000 C 
BRANCH  22  23
ATOM     23  C   UNL     1      88.786 316.014 203.134  1.00  0.00    -0.000 C 
BRANCH  23  24
ATOM     24  C   UNL     1      90.152 315.920 202.424  1.00  0.00    -0.000 C 
BRANCH  24  25
ATOM     25  C   UNL     1      91.297 316.671 203.126  1.00  0.00    -0.003 C 
ATOM     26  C   UNL     1      91.935 317.742 202.243  1.00  0.00     0.004 C 
ENDBRANCH  24  25
ENDBRANCH  23  24
ENDBRANCH  22  23
ENDBRANCH  21  22
ENDBRANCH  20  21
ENDBRANCH  19  20
ENDBRANCH  18  19
ENDBRANCH  17  18
ENDBRANCH  16  17
ENDBRANCH  15  16
ENDBRANCH   1  15
TORSDOF 22
ENDMDL
MODEL 5
REMARK VINA RESULT:    -4.484     11.438     16.545
REMARK INTER + INTRA:         -13.261
REMARK INTER:                 -10.354
REMARK INTRA:                  -2.908
REMARK UNBOUND:                -3.010
REMARK SMILES CCCCCCCCCCCCCCCCCCCCCCCC(=O)[O-]
REMARK SMILES IDX 13 1 14 2 15 3 16 4 17 5 18 6 19 7 20 8 21 9 22 10 23 11
REMARK SMILES IDX 24 12 25 13 26 14 12 15 11 16 10 17 9 18 8 19 7 20 6 21 5 22
REMARK SMILES IDX 4 23 3 24 2 25 1 26
REMARK H PARENT
REMARK Flexibility Score: inf
ROOT
ATOM      1  C   UNL     1      97.705 318.082 188.630  1.00  0.00     0.000 C 
ENDROOT
BRANCH   1   2
ATOM      2  C   UNL     1      96.920 317.471 189.803  1.00  0.00     0.000 C 
BRANCH   2   3
ATOM      3  C   UNL     1      97.598 317.718 191.162  1.00  0.00     0.000 C 
BRANCH   3   4
ATOM      4  C   UNL     1      97.335 316.637 192.229  1.00  0.00     0.000 C 
BRANCH   4   5
ATOM      5  C   UNL     1      95.862 316.485 192.656  1.00  0.00     0.000 C 
BRANCH   5   6
ATOM      6  C   UNL     1      95.413 317.426 193.791  1.00  0.00     0.000 C 
BRANCH   6   7
ATOM      7  C   UNL     1      94.043 318.099 193.571  1.00  0.00     0.000 C 
BRANCH   7   8
ATOM      8  C   UNL     1      93.973 319.049 192.359  1.00  0.00     0.000 C 
BRANCH   8   9
ATOM      9  C   UNL     1      92.951 318.649 191.275  1.00  0.00     0.000 C 
BRANCH   9  10
ATOM     10  C   UNL     1      93.441 317.577 190.284  1.00  0.00     0.006 C 
BRANCH  10  11
ATOM     11  C   UNL     1      92.538 316.337 190.256  1.00  0.00     0.053 C 
BRANCH  11  12
ATOM     12  C   UNL     1      91.682 316.345 189.028  1.00  0.00     0.041 C 
ATOM     13  O   UNL     1      91.235 317.431 188.574  1.00  0.00    -0.550 OA
ATOM     14  O   UNL     1      91.416 315.157 188.358  1.00  0.00    -0.550 OA
ENDBRANCH  11  12
ENDBRANCH  10  11
ENDBRANCH   9  10
ENDBRANCH   8   9
ENDBRANCH   7   8
ENDBRANCH   6   7
ENDBRANCH   5   6
ENDBRANCH   4   5
ENDBRANCH   3   4
ENDBRANCH   2   3
ENDBRANCH   1   2
BRANCH   1  15
ATOM     15  C   UNL     1      99.038 318.712 189.068  1.00  0.00     0.000 C 
BRANCH  15  16
ATOM     16  C   UNL     1     100.297 318.110 188.413  1.00  0.00     0.000 C 
BRANCH  16  17
ATOM     17  C   UNL     1     100.058 316.749 187.724  1.00  0.00     0.000 C 
BRANCH  17  18
ATOM     18  C   UNL     1     100.880 315.617 188.367  1.00  0.00    -0.000 C 
BRANCH  18  19
ATOM     19  C   UNL     1     100.658 315.505 189.883  1.00  0.00    -0.000 C 
BRANCH  19  20
ATOM     20  C   UNL     1      99.743 314.332 190.263  1.00  0.00    -0.000 C 
BRANCH  20  21
ATOM     21  C   UNL     1     100.485 313.325 191.154  1.00  0.00    -0.000 C 
BRANCH  21  22
ATOM     22  C   UNL     1     101.950 313.718 191.411  1.00  0.00    -0.000 C 
BRANCH  22  23
ATOM     23  C   UNL     1     102.996 312.691 190.933  1.00  0.00    -0.000 C 
BRANCH  23  24
ATOM     24  C   UNL     1     104.118 313.263 190.042  1.00  0.00    -0.000 C 
BRANCH  24  25
ATOM     25  C   UNL     1     103.953 312.983 188.538  1.00  0.00    -0.003 C 
ATOM     26  C   UNL     1     103.997 314.253 187.690  1.00  0.00     0.004 C 
ENDBRANCH  24  25
ENDBRANCH  23  24
ENDBRANCH  22  23
ENDBRANCH  21  22
ENDBRANCH  20  21
ENDBRANCH  19  20
ENDBRANCH  18  19
ENDBRANCH  17  18
ENDBRANCH  16  17
ENDBRANCH  15  16
ENDBRANCH   1  15
TORSDOF 22
ENDMDL
MODEL 6
REMARK VINA RESULT:    -4.464      2.277      5.058
REMARK INTER + INTRA:         -13.215
REMARK INTER:                  -9.711
REMARK INTRA:                  -3.504
REMARK UNBOUND:                -3.010
REMARK SMILES CCCCCCCCCCCCCCCCCCCCCCCC(=O)[O-]
REMARK SMILES IDX 13 1 14 2 15 3 16 4 17 5 18 6 19 7 20 8 21 9 22 10 23 11
REMARK SMILES IDX 24 12 25 13 26 14 12 15 11 16 10 17 9 18 8 19 7 20 6 21 5 22
REMARK SMILES IDX 4 23 3 24 2 25 1 26
REMARK H PARENT
REMARK Flexibility Score: inf
ROOT
ATOM      1  C   UNL     1      85.919 317.406 203.069  1.00  0.00     0.000 C 
ENDROOT
BRANCH   1   2
ATOM      2  C   UNL     1      85.735 318.240 204.348  1.00  0.00     0.000 C 
BRANCH   2   3
ATOM      3  C   UNL     1      84.850 317.536 205.392  1.00  0.00     0.000 C 
BRANCH   3   4
ATOM      4  C   UNL     1      85.598 316.585 206.347  1.00  0.00     0.000 C 
BRANCH   4   5
ATOM      5  C   UNL     1      85.511 315.090 205.982  1.00  0.00     0.000 C 
BRANCH   5   6
ATOM      6  C   UNL     1      86.863 314.415 205.678  1.00  0.00     0.000 C 
BRANCH   6   7
ATOM      7  C   UNL     1      87.995 315.383 205.279  1.00  0.00     0.000 C 
BRANCH   7   8
ATOM      8  C   UNL     1      88.823 314.944 204.054  1.00  0.00     0.000 C 
BRANCH   8   9
ATOM      9  C   UNL     1      89.136 316.065 203.043  1.00  0.00     0.000 C 
BRANCH   9  10
ATOM     10  C   UNL     1      90.629 316.417 202.904  1.00  0.00     0.006 C 
BRANCH  10  11
ATOM     11  C   UNL     1      91.480 315.859 204.052  1.00  0.00     0.053 C 
BRANCH  11  12
ATOM     12  C   UNL     1      91.762 316.931 205.059  1.00  0.00     0.041 C 
ATOM     13  O   UNL     1      92.628 317.813 204.819  1.00  0.00    -0.550 OA
ATOM     14  O   UNL     1      91.036 316.983 206.242  1.00  0.00    -0.550 OA
ENDBRANCH  11  12
ENDBRANCH  10  11
ENDBRANCH   9  10
ENDBRANCH   8   9
ENDBRANCH   7   8
ENDBRANCH   6   7
ENDBRANCH   5   6
ENDBRANCH   4   5
ENDBRANCH   3   4
ENDBRANCH   2   3
ENDBRANCH   1   2
BRANCH   1  15
ATOM     15  C   UNL     1      84.601 317.175 202.312  1.00  0.00     0.000 C 
BRANCH  15  16
ATOM     16  C   UNL     1      84.477 315.810 201.607  1.00  0.00     0.000 C 
BRANCH  16  17
ATOM     17  C   UNL     1      84.961 314.616 202.459  1.00  0.00     0.000 C 
BRANCH  17  18
ATOM     18  C   UNL     1      86.078 313.817 201.763  1.00  0.00    -0.000 C 
BRANCH  18  19
ATOM     19  C   UNL     1      86.663 314.547 200.544  1.00  0.00    -0.000 C 
BRANCH  19  20
ATOM     20  C   UNL     1      88.103 314.117 200.230  1.00  0.00    -0.000 C 
BRANCH  20  21
ATOM     21  C   UNL     1      88.387 314.214 198.723  1.00  0.00    -0.000 C 
BRANCH  21  22
ATOM     22  C   UNL     1      89.853 314.560 198.410  1.00  0.00    -0.000 C 
BRANCH  22  23
ATOM     23  C   UNL     1      90.126 316.052 198.129  1.00  0.00    -0.000 C 
BRANCH  23  24
ATOM     24  C   UNL     1      90.979 316.774 199.192  1.00  0.00    -0.000 C 
BRANCH  24  25
ATOM     25  C   UNL     1      92.397 317.154 198.732  1.00  0.00    -0.003 C 
ATOM     26  C   UNL     1      92.631 316.888 197.246  1.00  0.00     0.004 C 
ENDBRANCH  24  25
ENDBRANCH  23  24
ENDBRANCH  22  23
ENDBRANCH  21  22
ENDBRANCH  20  21
ENDBRANCH  19  20
ENDBRANCH  18  19
ENDBRANCH  17  18
ENDBRANCH  16  17
ENDBRANCH  15  16
ENDBRANCH   1  15
TORSDOF 22
ENDMDL
MODEL 7
REMARK VINA RESULT:    -4.442     10.920     14.096
REMARK INTER + INTRA:         -13.165
REMARK INTER:                  -9.857
REMARK INTRA:                  -3.308
REMARK UNBOUND:                -3.010
REMARK SMILES CCCCCCCCCCCCCCCCCCCCCCCC(=O)[O-]
REMARK SMILES IDX 13 1 14 2 15 3 16 4 17 5 18 6 19 7 20 8 21 9 22 10 23 11
REMARK SMILES IDX 24 12 25 13 26 14 12 15 11 16 10 17 9 18 8 19 7 20 6 21 5 22
REMARK SMILES IDX 4 23 3 24 2 25 1 26
REMARK H PARENT
REMARK Flexibility Score: inf
ROOT
ATOM      1  C   UNL     1      87.486 308.690 189.980  1.00  0.00     0.000 C 
ENDROOT
BRANCH   1   2
ATOM      2  C   UNL     1      88.214 307.411 189.532  1.00  0.00     0.000 C 
BRANCH   2   3
ATOM      3  C   UNL     1      89.737 307.605 189.420  1.00  0.00     0.000 C 
BRANCH   3   4
ATOM      4  C   UNL     1      90.489 307.659 190.764  1.00  0.00     0.000 C 
BRANCH   4   5
ATOM      5  C   UNL     1      91.631 308.691 190.833  1.00  0.00     0.000 C 
BRANCH   5   6
ATOM      6  C   UNL     1      92.800 308.435 189.860  1.00  0.00     0.000 C 
BRANCH   6   7
ATOM      7  C   UNL     1      94.163 308.187 190.536  1.00  0.00     0.000 C 
BRANCH   7   8
ATOM      8  C   UNL     1      94.439 306.721 190.924  1.00  0.00     0.000 C 
BRANCH   8   9
ATOM      9  C   UNL     1      94.741 306.488 192.418  1.00  0.00     0.000 C 
BRANCH   9  10
ATOM     10  C   UNL     1      93.788 307.202 193.394  1.00  0.00     0.006 C 
BRANCH  10  11
ATOM     11  C   UNL     1      93.262 306.275 194.497  1.00  0.00     0.053 C 
BRANCH  11  12
ATOM     12  C   UNL     1      91.988 306.815 195.068  1.00  0.00     0.041 C 
ATOM     13  O   UNL     1      91.784 306.776 196.310  1.00  0.00    -0.550 OA
ATOM     14  O   UNL     1      91.046 307.404 194.233  1.00  0.00    -0.550 OA
ENDBRANCH  11  12
ENDBRANCH  10  11
ENDBRANCH   9  10
ENDBRANCH   8   9
ENDBRANCH   7   8
ENDBRANCH   6   7
ENDBRANCH   5   6
ENDBRANCH   4   5
ENDBRANCH   3   4
ENDBRANCH   2   3
ENDBRANCH   1   2
BRANCH   1  15
ATOM     15  C   UNL     1      87.157 309.631 188.808  1.00  0.00     0.000 C 
BRANCH  15  16
ATOM     16  C   UNL     1      85.928 310.537 189.018  1.00  0.00     0.000 C 
BRANCH  16  17
ATOM     17  C   UNL     1      86.216 312.042 188.826  1.00  0.00     0.000 C 
BRANCH  17  18
ATOM     18  C   UNL     1      84.980 312.915 189.113  1.00  0.00    -0.000 C 
BRANCH  18  19
ATOM     19  C   UNL     1      84.010 312.264 190.111  1.00  0.00    -0.000 C 
BRANCH  19  20
ATOM     20  C   UNL     1      84.261 312.709 191.559  1.00  0.00    -0.000 C 
BRANCH  20  21
ATOM     21  C   UNL     1      84.750 311.532 192.416  1.00  0.00    -0.000 C 
BRANCH  21  22
ATOM     22  C   UNL     1      86.223 311.670 192.840  1.00  0.00    -0.000 C 
BRANCH  22  23
ATOM     23  C   UNL     1      86.822 313.081 192.672  1.00  0.00    -0.000 C 
BRANCH  23  24
ATOM     24  C   UNL     1      88.051 313.165 191.744  1.00  0.00    -0.000 C 
BRANCH  24  25
ATOM     25  C   UNL     1      88.814 311.841 191.561  1.00  0.00    -0.003 C 
ATOM     26  C   UNL     1      89.750 311.857 190.354  1.00  0.00     0.004 C 
ENDBRANCH  24  25
ENDBRANCH  23  24
ENDBRANCH  22  23
ENDBRANCH  21  22
ENDBRANCH  20  21
ENDBRANCH  19  20
ENDBRANCH  18  19
ENDBRANCH  17  18
ENDBRANCH  16  17
ENDBRANCH  15  16
ENDBRANCH   1  15
TORSDOF 22
ENDMDL
MODEL 8
REMARK VINA RESULT:    -4.426     10.550     14.012
REMARK INTER + INTRA:         -13.129
REMARK INTER:                 -10.434
REMARK INTRA:                  -2.694
REMARK UNBOUND:                -3.010
REMARK SMILES CCCCCCCCCCCCCCCCCCCCCCCC(=O)[O-]
REMARK SMILES IDX 13 1 14 2 15 3 16 4 17 5 18 6 19 7 20 8 21 9 22 10 23 11
REMARK SMILES IDX 24 12 25 13 26 14 12 15 11 16 10 17 9 18 8 19 7 20 6 21 5 22
REMARK SMILES IDX 4 23 3 24 2 25 1 26
REMARK H PARENT
REMARK Flexibility Score: inf
ROOT
ATOM      1  C   UNL     1      87.635 308.630 188.706  1.00  0.00     0.000 C 
ENDROOT
BRANCH   1   2
ATOM      2  C   UNL     1      86.769 309.590 189.539  1.00  0.00     0.000 C 
BRANCH   2   3
ATOM      3  C   UNL     1      86.541 310.941 188.838  1.00  0.00     0.000 C 
BRANCH   3   4
ATOM      4  C   UNL     1      85.125 311.149 188.266  1.00  0.00     0.000 C 
BRANCH   4   5
ATOM      5  C   UNL     1      84.020 311.364 189.319  1.00  0.00     0.000 C 
BRANCH   5   6
ATOM      6  C   UNL     1      83.877 312.812 189.826  1.00  0.00     0.000 C 
BRANCH   6   7
ATOM      7  C   UNL     1      83.905 312.967 191.360  1.00  0.00     0.000 C 
BRANCH   7   8
ATOM      8  C   UNL     1      84.907 312.049 192.087  1.00  0.00     0.000 C 
BRANCH   8   9
ATOM      9  C   UNL     1      86.296 312.668 192.341  1.00  0.00     0.000 C 
BRANCH   9  10
ATOM     10  C   UNL     1      87.324 311.719 192.983  1.00  0.00     0.006 C 
BRANCH  10  11
ATOM     11  C   UNL     1      86.773 310.304 193.197  1.00  0.00     0.053 C 
BRANCH  11  12
ATOM     12  C   UNL     1      86.591 310.031 194.657  1.00  0.00     0.041 C 
ATOM     13  O   UNL     1      85.711 310.651 195.312  1.00  0.00    -0.550 OA
ATOM     14  O   UNL     1      87.359 309.059 195.285  1.00  0.00    -0.550 OA
ENDBRANCH  11  12
ENDBRANCH  10  11
ENDBRANCH   9  10
ENDBRANCH   8   9
ENDBRANCH   7   8
ENDBRANCH   6   7
ENDBRANCH   5   6
ENDBRANCH   4   5
ENDBRANCH   3   4
ENDBRANCH   2   3
ENDBRANCH   1   2
BRANCH   1  15
ATOM     15  C   UNL     1      88.238 307.489 189.544  1.00  0.00     0.000 C 
BRANCH  15  16
ATOM     16  C   UNL     1      88.434 307.805 191.040  1.00  0.00     0.000 C 
BRANCH  16  17
ATOM     17  C   UNL     1      89.848 307.485 191.570  1.00  0.00     0.000 C 
BRANCH  17  18
ATOM     18  C   UNL     1      90.869 308.580 191.208  1.00  0.00    -0.000 C 
BRANCH  18  19
ATOM     19  C   UNL     1      92.079 308.034 190.436  1.00  0.00    -0.000 C 
BRANCH  19  20
ATOM     20  C   UNL     1      93.288 308.980 190.480  1.00  0.00    -0.000 C 
BRANCH  20  21
ATOM     21  C   UNL     1      94.588 308.197 190.712  1.00  0.00    -0.000 C 
BRANCH  21  22
ATOM     22  C   UNL     1      94.346 306.707 191.012  1.00  0.00    -0.000 C 
BRANCH  22  23
ATOM     23  C   UNL     1      94.682 306.267 192.452  1.00  0.00    -0.000 C 
BRANCH  23  24
ATOM     24  C   UNL     1      94.297 307.276 193.553  1.00  0.00    -0.000 C 
BRANCH  24  25
ATOM     25  C   UNL     1      93.644 306.651 194.799  1.00  0.00    -0.003 C 
ATOM     26  C   UNL     1      92.117 306.710 194.762  1.00  0.00     0.004 C 
ENDBRANCH  24  25
ENDBRANCH  23  24
ENDBRANCH  22  23
ENDBRANCH  21  22
ENDBRANCH  20  21
ENDBRANCH  19  20
ENDBRANCH  18  19
ENDBRANCH  17  18
ENDBRANCH  16  17
ENDBRANCH  15  16
ENDBRANCH   1  15
TORSDOF 22
ENDMDL
MODEL 9
REMARK VINA RESULT:    -4.419      2.041      5.627
REMARK INTER + INTRA:         -13.112
REMARK INTER:                  -8.708
REMARK INTRA:                  -4.404
REMARK UNBOUND:                -3.010
REMARK SMILES CCCCCCCCCCCCCCCCCCCCCCCC(=O)[O-]
REMARK SMILES IDX 13 1 14 2 15 3 16 4 17 5 18 6 19 7 20 8 21 9 22 10 23 11
REMARK SMILES IDX 24 12 25 13 26 14 12 15 11 16 10 17 9 18 8 19 7 20 6 21 5 22
REMARK SMILES IDX 4 23 3 24 2 25 1 26
REMARK H PARENT
REMARK Flexibility Score: inf
ROOT
ATOM      1  C   UNL     1      85.830 313.959 202.267  1.00  0.00     0.000 C 
ENDROOT
BRANCH   1   2
ATOM      2  C   UNL     1      87.025 314.291 203.178  1.00  0.00     0.000 C 
BRANCH   2   3
ATOM      3  C   UNL     1      88.115 313.206 203.142  1.00  0.00     0.000 C 
BRANCH   3   4
ATOM      4  C   UNL     1      88.841 312.965 204.481  1.00  0.00     0.000 C 
BRANCH   4   5
ATOM      5  C   UNL     1      88.232 313.695 205.694  1.00  0.00     0.000 C 
BRANCH   5   6
ATOM      6  C   UNL     1      89.198 314.640 206.436  1.00  0.00     0.000 C 
BRANCH   6   7
ATOM      7  C   UNL     1      89.291 316.063 205.849  1.00  0.00     0.000 C 
BRANCH   7   8
ATOM      8  C   UNL     1      90.693 316.471 205.355  1.00  0.00     0.000 C 
BRANCH   8   9
ATOM      9  C   UNL     1      91.154 315.781 204.055  1.00  0.00     0.000 C 
BRANCH   9  10
ATOM     10  C   UNL     1      90.957 316.610 202.773  1.00  0.00     0.006 C 
BRANCH  10  11
ATOM     11  C   UNL     1      90.225 315.834 201.670  1.00  0.00     0.053 C 
BRANCH  11  12
ATOM     12  C   UNL     1      90.971 315.940 200.377  1.00  0.00     0.041 C 
ATOM     13  O   UNL     1      92.229 315.869 200.363  1.00  0.00    -0.550 OA
ATOM     14  O   UNL     1      90.276 316.067 199.181  1.00  0.00    -0.550 OA
ENDBRANCH  11  12
ENDBRANCH  10  11
ENDBRANCH   9  10
ENDBRANCH   8   9
ENDBRANCH   7   8
ENDBRANCH   6   7
ENDBRANCH   5   6
ENDBRANCH   4   5
ENDBRANCH   3   4
ENDBRANCH   2   3
ENDBRANCH   1   2
BRANCH   1  15
ATOM     15  C   UNL     1      84.660 314.944 202.435  1.00  0.00     0.000 C 
BRANCH  15  16
ATOM     16  C   UNL     1      84.856 316.319 201.767  1.00  0.00     0.000 C 
BRANCH  16  17
ATOM     17  C   UNL     1      84.562 317.517 202.696  1.00  0.00     0.000 C 
BRANCH  17  18
ATOM     18  C   UNL     1      85.638 317.690 203.784  1.00  0.00    -0.000 C 
BRANCH  18  19
ATOM     19  C   UNL     1      85.071 317.572 205.206  1.00  0.00    -0.000 C 
BRANCH  19  20
ATOM     20  C   UNL     1      85.678 316.400 205.992  1.00  0.00    -0.000 C 
BRANCH  20  21
ATOM     21  C   UNL     1      84.765 315.168 205.930  1.00  0.00    -0.000 C 
BRANCH  21  22
ATOM     22  C   UNL     1      85.051 314.152 207.050  1.00  0.00    -0.000 C 
BRANCH  22  23
ATOM     23  C   UNL     1      84.482 312.738 206.811  1.00  0.00    -0.000 C 
BRANCH  23  24
ATOM     24  C   UNL     1      84.299 312.346 205.331  1.00  0.00    -0.000 C 
BRANCH  24  25
ATOM     25  C   UNL     1      85.319 311.322 204.804  1.00  0.00    -0.003 C 
ATOM     26  C   UNL     1      86.110 310.642 205.920  1.00  0.00     0.004 C 
ENDBRANCH  24  25
ENDBRANCH  23  24
ENDBRANCH  22  23
ENDBRANCH  21  22
ENDBRANCH  20  21
ENDBRANCH  19  20
ENDBRANCH  18  19
ENDBRANCH  17  18
ENDBRANCH  16  17
ENDBRANCH  15  16
ENDBRANCH   1  15
TORSDOF 22
ENDMDL
