MODEL 1
REMARK VINA RESULT:    -5.478      0.000      0.000
REMARK INTER + INTRA:          -6.912
REMARK INTER:                  -6.599
REMARK INTRA:                  -0.313
REMARK UNBOUND:                -0.313
REMARK SMILES O=c1c(O)c(-c2ccc(O)c(O)c2)oc2cc(O)cc(O)c12
REMARK SMILES IDX 5 1 3 2 2 3 1 4 22 5 20 6 19 7 17 8 16 9 15 10 14 11 6 12
REMARK SMILES IDX 7 13 8 14 9 15 13 16 11 17 10 18 12 20 4 22 21 24 18 26
REMARK H PARENT 10 19 12 21 4 23 21 25 18 27
REMARK Flexibility Score: inf
ROOT
ATOM      1  C   UNL     1     -13.315 105.494  23.798  1.00  0.00     0.180 A 
ATOM      2  C   UNL     1     -14.329 106.235  23.166  1.00  0.00     0.208 A 
ATOM      3  C   UNL     1     -15.175 105.587  22.252  1.00  0.00     0.238 A 
ATOM      4  O   UNL     1     -16.047 106.267  21.649  1.00  0.00    -0.285 OA
ATOM      5  C   UNL     1     -15.008 104.206  21.993  1.00  0.00     0.111 A 
ATOM      6  C   UNL     1     -15.833 103.440  21.115  1.00  0.00     0.134 A 
ATOM      7  C   UNL     1     -15.495 102.111  20.835  1.00  0.00     0.093 A 
ATOM      8  C   UNL     1     -14.398 101.500  21.450  1.00  0.00     0.123 A 
ATOM      9  C   UNL     1     -13.622 102.223  22.353  1.00  0.00     0.094 A 
ATOM     10  C   UNL     1     -13.913 103.561  22.625  1.00  0.00     0.146 A 
ATOM     11  O   UNL     1     -13.141 104.216  23.484  1.00  0.00    -0.452 OA
ENDROOT
BRANCH   1  12
ATOM     12  C   UNL     1     -12.399 106.101  24.792  1.00  0.00     0.025 A 
ATOM     13  C   UNL     1     -11.143 106.609  24.414  1.00  0.00     0.016 A 
ATOM     14  C   UNL     1     -10.307 107.199  25.365  1.00  0.00     0.051 A 
ATOM     15  C   UNL     1     -10.715 107.302  26.701  1.00  0.00     0.157 A 
ATOM     16  C   UNL     1     -12.813 106.226  26.128  1.00  0.00     0.062 A 
ATOM     17  C   UNL     1     -11.975 106.815  27.082  1.00  0.00     0.158 A 
BRANCH  15  18
ATOM     18  O   UNL     1      -9.875 107.889  27.647  1.00  0.00    -0.504 OA
ATOM     19  H   UNL     1      -8.905 108.094  27.441  1.00  0.00     0.293 HD
ENDBRANCH  15  18
BRANCH  17  20
ATOM     20  O   UNL     1     -12.415 106.909  28.402  1.00  0.00    -0.504 OA
ATOM     21  H   UNL     1     -12.988 106.191  28.831  1.00  0.00     0.293 HD
ENDBRANCH  17  20
ENDBRANCH   1  12
BRANCH   2  22
ATOM     22  O   UNL     1     -14.463 107.603  23.420  1.00  0.00    -0.502 OA
ATOM     23  H   UNL     1     -13.753 108.276  23.162  1.00  0.00     0.293 HD
ENDBRANCH   2  22
BRANCH   6  24
ATOM     24  O   UNL     1     -17.001 103.925  20.522  1.00  0.00    -0.507 OA
ATOM     25  H   UNL     1     -17.029 104.571  19.748  1.00  0.00     0.293 HD
ENDBRANCH   6  24
BRANCH   8  26
ATOM     26  O   UNL     1     -14.078 100.173  21.177  1.00  0.00    -0.508 OA
ATOM     27  H   UNL     1     -14.329  99.737  20.296  1.00  0.00     0.293 HD
ENDBRANCH   8  26
TORSDOF 6
ENDMDL
MODEL 2
REMARK VINA RESULT:    -5.401     11.655     13.579
REMARK INTER + INTRA:          -6.819
REMARK INTER:                  -6.487
REMARK INTRA:                  -0.331
REMARK UNBOUND:                -0.313
REMARK SMILES O=c1c(O)c(-c2ccc(O)c(O)c2)oc2cc(O)cc(O)c12
REMARK SMILES IDX 5 1 3 2 2 3 1 4 22 5 20 6 19 7 17 8 16 9 15 10 14 11 6 12
REMARK SMILES IDX 7 13 8 14 9 15 13 16 11 17 10 18 12 20 4 22 21 24 18 26
REMARK H PARENT 10 19 12 21 4 23 21 25 18 27
REMARK Flexibility Score: inf
ROOT
ATOM      1  C   UNL     1     -24.746 102.221  27.964  1.00  0.00     0.180 A 
ATOM      2  C   UNL     1     -25.245 102.473  26.675  1.00  0.00     0.208 A 
ATOM      3  C   UNL     1     -25.219 103.787  26.180  1.00  0.00     0.238 A 
ATOM      4  O   UNL     1     -25.717 104.016  25.046  1.00  0.00    -0.285 OA
ATOM      5  C   UNL     1     -24.679 104.828  26.973  1.00  0.00     0.111 A 
ATOM      6  C   UNL     1     -24.566 106.189  26.556  1.00  0.00     0.134 A 
ATOM      7  C   UNL     1     -24.137 107.157  27.472  1.00  0.00     0.093 A 
ATOM      8  C   UNL     1     -23.756 106.805  28.769  1.00  0.00     0.123 A 
ATOM      9  C   UNL     1     -23.807 105.471  29.166  1.00  0.00     0.094 A 
ATOM     10  C   UNL     1     -24.265 104.487  28.287  1.00  0.00     0.146 A 
ATOM     11  O   UNL     1     -24.308 103.229  28.710  1.00  0.00    -0.452 OA
ENDROOT
BRANCH   1  12
ATOM     12  C   UNL     1     -24.717 100.859  28.546  1.00  0.00     0.025 A 
ATOM     13  C   UNL     1     -23.645  99.982  28.302  1.00  0.00     0.016 A 
ATOM     14  C   UNL     1     -23.628  98.711  28.881  1.00  0.00     0.051 A 
ATOM     15  C   UNL     1     -24.671  98.301  29.721  1.00  0.00     0.157 A 
ATOM     16  C   UNL     1     -25.750 100.452  29.406  1.00  0.00     0.062 A 
ATOM     17  C   UNL     1     -25.735  99.178  29.986  1.00  0.00     0.158 A 
BRANCH  15  18
ATOM     18  O   UNL     1     -24.651  97.031  30.295  1.00  0.00    -0.504 OA
ATOM     19  H   UNL     1     -24.961  96.212  29.785  1.00  0.00     0.293 HD
ENDBRANCH  15  18
BRANCH  17  20
ATOM     20  O   UNL     1     -26.786  98.804  30.824  1.00  0.00    -0.504 OA
ATOM     21  H   UNL     1     -26.915  97.847  31.130  1.00  0.00     0.293 HD
ENDBRANCH  17  20
ENDBRANCH   1  12
BRANCH   2  22
ATOM     22  O   UNL     1     -25.793 101.434  25.917  1.00  0.00    -0.502 OA
ATOM     23  H   UNL     1     -26.595 101.567  25.313  1.00  0.00     0.293 HD
ENDBRANCH   2  22
BRANCH   6  24
ATOM     24  O   UNL     1     -24.833 106.632  25.258  1.00  0.00    -0.507 OA
ATOM     25  H   UNL     1     -25.072 107.580  25.011  1.00  0.00     0.293 HD
ENDBRANCH   6  24
BRANCH   8  26
ATOM     26  O   UNL     1     -23.316 107.773  29.668  1.00  0.00    -0.508 OA
ATOM     27  H   UNL     1     -22.810 107.524  30.511  1.00  0.00     0.293 HD
ENDBRANCH   8  26
TORSDOF 6
ENDMDL
MODEL 3
REMARK VINA RESULT:    -5.294     12.088     14.133
REMARK INTER + INTRA:          -6.690
REMARK INTER:                  -6.413
REMARK INTRA:                  -0.277
REMARK UNBOUND:                -0.313
REMARK SMILES O=c1c(O)c(-c2ccc(O)c(O)c2)oc2cc(O)cc(O)c12
REMARK SMILES IDX 5 1 3 2 2 3 1 4 22 5 20 6 19 7 17 8 16 9 15 10 14 11 6 12
REMARK SMILES IDX 7 13 8 14 9 15 13 16 11 17 10 18 12 20 4 22 21 24 18 26
REMARK H PARENT 10 19 12 21 4 23 21 25 18 27
REMARK Flexibility Score: inf
ROOT
ATOM      1  C   UNL     1     -24.309 101.306  29.448  1.00  0.00     0.180 A 
ATOM      2  C   UNL     1     -25.336 102.244  29.648  1.00  0.00     0.208 A 
ATOM      3  C   UNL     1     -25.004 103.528  30.111  1.00  0.00     0.238 A 
ATOM      4  O   UNL     1     -25.933 104.347  30.339  1.00  0.00    -0.285 OA
ATOM      5  C   UNL     1     -23.650 103.861  30.354  1.00  0.00     0.111 A 
ATOM      6  C   UNL     1     -23.197 105.144  30.787  1.00  0.00     0.134 A 
ATOM      7  C   UNL     1     -21.848 105.322  31.120  1.00  0.00     0.093 A 
ATOM      8  C   UNL     1     -20.925 104.283  30.975  1.00  0.00     0.123 A 
ATOM      9  C   UNL     1     -21.349 103.045  30.497  1.00  0.00     0.094 A 
ATOM     10  C   UNL     1     -22.693 102.826  30.190  1.00  0.00     0.146 A 
ATOM     11  O   UNL     1     -23.056 101.628  29.748  1.00  0.00    -0.452 OA
ENDROOT
BRANCH   1  12
ATOM     12  C   UNL     1     -24.577  99.941  28.938  1.00  0.00     0.025 A 
ATOM     13  C   UNL     1     -24.287  99.587  27.608  1.00  0.00     0.016 A 
ATOM     14  C   UNL     1     -24.525  98.287  27.156  1.00  0.00     0.051 A 
ATOM     15  C   UNL     1     -25.043  97.319  28.026  1.00  0.00     0.157 A 
ATOM     16  C   UNL     1     -25.074  98.962  29.812  1.00  0.00     0.062 A 
ATOM     17  C   UNL     1     -25.315  97.659  29.361  1.00  0.00     0.158 A 
BRANCH  15  18
ATOM     18  O   UNL     1     -25.281  96.023  27.571  1.00  0.00    -0.504 OA
ATOM     19  H   UNL     1     -26.089  95.800  27.002  1.00  0.00     0.293 HD
ENDBRANCH  15  18
BRANCH  17  20
ATOM     20  O   UNL     1     -25.824  96.716  30.255  1.00  0.00    -0.504 OA
ATOM     21  H   UNL     1     -25.278  96.363  31.033  1.00  0.00     0.293 HD
ENDBRANCH  17  20
ENDBRANCH   1  12
BRANCH   2  22
ATOM     22  O   UNL     1     -26.668 101.888  29.423  1.00  0.00    -0.502 OA
ATOM     23  H   UNL     1     -27.087 101.061  29.831  1.00  0.00     0.293 HD
ENDBRANCH   2  22
BRANCH   6  24
ATOM     24  O   UNL     1     -24.016 106.272  30.877  1.00  0.00    -0.507 OA
ATOM     25  H   UNL     1     -24.959 106.328  30.522  1.00  0.00     0.293 HD
ENDBRANCH   6  24
BRANCH   8  26
ATOM     26  O   UNL     1     -19.584 104.474  31.295  1.00  0.00    -0.508 OA
ATOM     27  H   UNL     1     -18.846 104.280  30.627  1.00  0.00     0.293 HD
ENDBRANCH   8  26
TORSDOF 6
ENDMDL
MODEL 4
REMARK VINA RESULT:    -5.278     12.415     14.547
REMARK INTER + INTRA:          -6.671
REMARK INTER:                  -6.502
REMARK INTRA:                  -0.169
REMARK UNBOUND:                -0.313
REMARK SMILES O=c1c(O)c(-c2ccc(O)c(O)c2)oc2cc(O)cc(O)c12
REMARK SMILES IDX 5 1 3 2 2 3 1 4 22 5 20 6 19 7 17 8 16 9 15 10 14 11 6 12
REMARK SMILES IDX 7 13 8 14 9 15 13 16 11 17 10 18 12 20 4 22 21 24 18 26
REMARK H PARENT 10 19 12 21 4 23 21 25 18 27
REMARK Flexibility Score: inf
ROOT
ATOM      1  C   UNL     1     -24.056 100.059  28.997  1.00  0.00     0.180 A 
ATOM      2  C   UNL     1     -22.713 100.427  28.816  1.00  0.00     0.208 A 
ATOM      3  C   UNL     1     -22.311 101.728  29.157  1.00  0.00     0.238 A 
ATOM      4  O   UNL     1     -21.118 102.069  28.942  1.00  0.00    -0.285 OA
ATOM      5  C   UNL     1     -23.254 102.639  29.691  1.00  0.00     0.111 A 
ATOM      6  C   UNL     1     -22.949 103.970  30.108  1.00  0.00     0.134 A 
ATOM      7  C   UNL     1     -23.986 104.826  30.498  1.00  0.00     0.093 A 
ATOM      8  C   UNL     1     -25.310 104.379  30.548  1.00  0.00     0.123 A 
ATOM      9  C   UNL     1     -25.609 103.065  30.199  1.00  0.00     0.094 A 
ATOM     10  C   UNL     1     -24.601 102.198  29.771  1.00  0.00     0.146 A 
ATOM     11  O   UNL     1     -24.931 100.956  29.437  1.00  0.00    -0.452 OA
ENDROOT
BRANCH   1  12
ATOM     12  C   UNL     1     -24.550  98.698  28.683  1.00  0.00     0.025 A 
ATOM     13  C   UNL     1     -24.560  98.210  27.364  1.00  0.00     0.016 A 
ATOM     14  C   UNL     1     -25.007  96.914  27.095  1.00  0.00     0.051 A 
ATOM     15  C   UNL     1     -25.438  96.083  28.137  1.00  0.00     0.157 A 
ATOM     16  C   UNL     1     -24.962  97.854  29.726  1.00  0.00     0.062 A 
ATOM     17  C   UNL     1     -25.412  96.556  29.459  1.00  0.00     0.158 A 
BRANCH  15  18
ATOM     18  O   UNL     1     -25.886  94.791  27.863  1.00  0.00    -0.504 OA
ATOM     19  H   UNL     1     -26.430  94.582  27.035  1.00  0.00     0.293 HD
ENDBRANCH  15  18
BRANCH  17  20
ATOM     20  O   UNL     1     -25.828  95.751  30.520  1.00  0.00    -0.504 OA
ATOM     21  H   UNL     1     -25.262  95.622  31.351  1.00  0.00     0.293 HD
ENDBRANCH  17  20
ENDBRANCH   1  12
BRANCH   2  22
ATOM     22  O   UNL     1     -21.802  99.519  28.267  1.00  0.00    -0.502 OA
ATOM     23  H   UNL     1     -20.991  99.188  28.775  1.00  0.00     0.293 HD
ENDBRANCH   2  22
BRANCH   6  24
ATOM     24  O   UNL     1     -21.653 104.486  30.185  1.00  0.00    -0.507 OA
ATOM     25  H   UNL     1     -21.189 104.990  29.444  1.00  0.00     0.293 HD
ENDBRANCH   6  24
BRANCH   8  26
ATOM     26  O   UNL     1     -26.333 105.233  30.952  1.00  0.00    -0.508 OA
ATOM     27  H   UNL     1     -26.384 105.589  31.900  1.00  0.00     0.293 HD
ENDBRANCH   8  26
TORSDOF 6
ENDMDL
MODEL 5
REMARK VINA RESULT:    -5.264     13.167     15.630
REMARK INTER + INTRA:          -6.654
REMARK INTER:                  -6.374
REMARK INTRA:                  -0.280
REMARK UNBOUND:                -0.313
REMARK SMILES O=c1c(O)c(-c2ccc(O)c(O)c2)oc2cc(O)cc(O)c12
REMARK SMILES IDX 5 1 3 2 2 3 1 4 22 5 20 6 19 7 17 8 16 9 15 10 14 11 6 12
REMARK SMILES IDX 7 13 8 14 9 15 13 16 11 17 10 18 12 20 4 22 21 24 18 26
REMARK H PARENT 10 19 12 21 4 23 21 25 18 27
REMARK Flexibility Score: inf
ROOT
ATOM      1  C   UNL     1     -24.602  97.637  28.552  1.00  0.00     0.180 A 
ATOM      2  C   UNL     1     -23.229  97.778  28.290  1.00  0.00     0.208 A 
ATOM      3  C   UNL     1     -22.621  99.027  28.496  1.00  0.00     0.238 A 
ATOM      4  O   UNL     1     -21.403  99.161  28.210  1.00  0.00    -0.285 OA
ATOM      5  C   UNL     1     -23.391 100.114  28.977  1.00  0.00     0.111 A 
ATOM      6  C   UNL     1     -22.870 101.413  29.259  1.00  0.00     0.134 A 
ATOM      7  C   UNL     1     -23.748 102.447  29.605  1.00  0.00     0.093 A 
ATOM      8  C   UNL     1     -25.119 102.215  29.742  1.00  0.00     0.123 A 
ATOM      9  C   UNL     1     -25.628 100.937  29.526  1.00  0.00     0.094 A 
ATOM     10  C   UNL     1     -24.783  99.893  29.144  1.00  0.00     0.146 A 
ATOM     11  O   UNL     1     -25.311  98.692  28.937  1.00  0.00    -0.452 OA
ENDROOT
BRANCH   1  12
ATOM     12  C   UNL     1     -25.308  96.346  28.381  1.00  0.00     0.025 A 
ATOM     13  C   UNL     1     -25.672  95.874  27.107  1.00  0.00     0.016 A 
ATOM     14  C   UNL     1     -26.315  94.642  26.969  1.00  0.00     0.051 A 
ATOM     15  C   UNL     1     -26.594  93.858  28.096  1.00  0.00     0.157 A 
ATOM     16  C   UNL     1     -25.570  95.547  29.505  1.00  0.00     0.062 A 
ATOM     17  C   UNL     1     -26.216  94.313  29.370  1.00  0.00     0.158 A 
BRANCH  15  18
ATOM     18  O   UNL     1     -27.238  92.630  27.954  1.00  0.00    -0.504 OA
ATOM     19  H   UNL     1     -26.720  91.760  27.910  1.00  0.00     0.293 HD
ENDBRANCH  15  18
BRANCH  17  20
ATOM     20  O   UNL     1     -26.472  93.553  30.511  1.00  0.00    -0.504 OA
ATOM     21  H   UNL     1     -26.225  93.877  31.440  1.00  0.00     0.293 HD
ENDBRANCH  17  20
ENDBRANCH   1  12
BRANCH   2  22
ATOM     22  O   UNL     1     -22.492  96.698  27.796  1.00  0.00    -0.502 OA
ATOM     23  H   UNL     1     -22.888  96.012  27.166  1.00  0.00     0.293 HD
ENDBRANCH   2  22
BRANCH   6  24
ATOM     24  O   UNL     1     -21.509 101.728  29.243  1.00  0.00    -0.507 OA
ATOM     25  H   UNL     1     -21.097 102.474  28.702  1.00  0.00     0.293 HD
ENDBRANCH   6  24
BRANCH   8  26
ATOM     26  O   UNL     1     -25.982 103.247  30.102  1.00  0.00    -0.508 OA
ATOM     27  H   UNL     1     -25.719 104.220  29.996  1.00  0.00     0.293 HD
ENDBRANCH   8  26
TORSDOF 6
ENDMDL
MODEL 6
REMARK VINA RESULT:    -5.253     12.541     13.559
REMARK INTER + INTRA:          -6.641
REMARK INTER:                  -6.416
REMARK INTRA:                  -0.225
REMARK UNBOUND:                -0.313
REMARK SMILES O=c1c(O)c(-c2ccc(O)c(O)c2)oc2cc(O)cc(O)c12
REMARK SMILES IDX 5 1 3 2 2 3 1 4 22 5 20 6 19 7 17 8 16 9 15 10 14 11 6 12
REMARK SMILES IDX 7 13 8 14 9 15 13 16 11 17 10 18 12 20 4 22 21 24 18 26
REMARK H PARENT 10 19 12 21 4 23 21 25 18 27
REMARK Flexibility Score: inf
ROOT
ATOM      1  C   UNL     1     -24.407 100.795  28.925  1.00  0.00     0.180 A 
ATOM      2  C   UNL     1     -24.147 100.550  27.566  1.00  0.00     0.208 A 
ATOM      3  C   UNL     1     -24.364  99.261  27.052  1.00  0.00     0.238 A 
ATOM      4  O   UNL     1     -24.078  99.035  25.847  1.00  0.00    -0.285 OA
ATOM      5  C   UNL     1     -24.854  98.239  27.900  1.00  0.00     0.111 A 
ATOM      6  C   UNL     1     -25.148  96.907  27.476  1.00  0.00     0.134 A 
ATOM      7  C   UNL     1     -25.503  95.944  28.428  1.00  0.00     0.093 A 
ATOM      8  C   UNL     1     -25.638  96.279  29.778  1.00  0.00     0.123 A 
ATOM      9  C   UNL     1     -25.410  97.589  30.191  1.00  0.00     0.094 A 
ATOM     10  C   UNL     1     -25.019  98.564  29.271  1.00  0.00     0.146 A 
ATOM     11  O   UNL     1     -24.802  99.799  29.709  1.00  0.00    -0.452 OA
ENDROOT
BRANCH   1  12
ATOM     12  C   UNL     1     -24.225 102.133  29.533  1.00  0.00     0.025 A 
ATOM     13  C   UNL     1     -22.944 102.674  29.741  1.00  0.00     0.016 A 
ATOM     14  C   UNL     1     -22.797 103.949  30.294  1.00  0.00     0.051 A 
ATOM     15  C   UNL     1     -23.925 104.706  30.635  1.00  0.00     0.157 A 
ATOM     16  C   UNL     1     -25.352 102.905  29.857  1.00  0.00     0.062 A 
ATOM     17  C   UNL     1     -25.208 104.181  30.412  1.00  0.00     0.158 A 
BRANCH  15  18
ATOM     18  O   UNL     1     -23.774 105.976  31.189  1.00  0.00    -0.504 OA
ATOM     19  H   UNL     1     -23.302 106.118  32.074  1.00  0.00     0.293 HD
ENDBRANCH  15  18
BRANCH  17  20
ATOM     20  O   UNL     1     -26.352 104.912  30.734  1.00  0.00    -0.504 OA
ATOM     21  H   UNL     1     -26.864 105.445  30.040  1.00  0.00     0.293 HD
ENDBRANCH  17  20
ENDBRANCH   1  12
BRANCH   2  22
ATOM     22  O   UNL     1     -23.643 101.568  26.751  1.00  0.00    -0.502 OA
ATOM     23  H   UNL     1     -23.142 102.366  27.123  1.00  0.00     0.293 HD
ENDBRANCH   2  22
BRANCH   6  24
ATOM     24  O   UNL     1     -25.134  96.492  26.143  1.00  0.00    -0.507 OA
ATOM     25  H   UNL     1     -25.905  96.043  25.671  1.00  0.00     0.293 HD
ENDBRANCH   6  24
BRANCH   8  26
ATOM     26  O   UNL     1     -26.007  95.317  30.715  1.00  0.00    -0.508 OA
ATOM     27  H   UNL     1     -25.517  95.219  31.597  1.00  0.00     0.293 HD
ENDBRANCH   8  26
TORSDOF 6
ENDMDL
MODEL 7
REMARK VINA RESULT:    -5.228     13.368     14.862
REMARK INTER + INTRA:          -6.611
REMARK INTER:                  -6.428
REMARK INTRA:                  -0.183
REMARK UNBOUND:                -0.313
REMARK SMILES O=c1c(O)c(-c2ccc(O)c(O)c2)oc2cc(O)cc(O)c12
REMARK SMILES IDX 5 1 3 2 2 3 1 4 22 5 20 6 19 7 17 8 16 9 15 10 14 11 6 12
REMARK SMILES IDX 7 13 8 14 9 15 13 16 11 17 10 18 12 20 4 22 21 24 18 26
REMARK H PARENT 10 19 12 21 4 23 21 25 18 27
REMARK Flexibility Score: inf
ROOT
ATOM      1  C   UNL     1     -24.866  98.070  28.161  1.00  0.00     0.180 A 
ATOM      2  C   UNL     1     -24.696  97.712  26.813  1.00  0.00     0.208 A 
ATOM      3  C   UNL     1     -25.035  96.411  26.406  1.00  0.00     0.238 A 
ATOM      4  O   UNL     1     -24.830  96.079  25.209  1.00  0.00    -0.285 OA
ATOM      5  C   UNL     1     -25.555  95.491  27.349  1.00  0.00     0.111 A 
ATOM      6  C   UNL     1     -25.969  94.161  27.038  1.00  0.00     0.134 A 
ATOM      7  C   UNL     1     -26.345  93.296  28.074  1.00  0.00     0.093 A 
ATOM      8  C   UNL     1     -26.384  93.734  29.401  1.00  0.00     0.123 A 
ATOM      9  C   UNL     1     -26.038  95.048  29.705  1.00  0.00     0.094 A 
ATOM     10  C   UNL     1     -25.624  95.923  28.699  1.00  0.00     0.146 A 
ATOM     11  O   UNL     1     -25.293  97.165  29.034  1.00  0.00    -0.452 OA
ENDROOT
BRANCH   1  12
ATOM     12  C   UNL     1     -24.554  99.429  28.661  1.00  0.00     0.025 A 
ATOM     13  C   UNL     1     -23.233  99.912  28.690  1.00  0.00     0.016 A 
ATOM     14  C   UNL     1     -22.965 101.206  29.142  1.00  0.00     0.051 A 
ATOM     15  C   UNL     1     -24.010 102.040  29.560  1.00  0.00     0.157 A 
ATOM     16  C   UNL     1     -25.599 100.277  29.059  1.00  0.00     0.062 A 
ATOM     17  C   UNL     1     -25.333 101.573  29.514  1.00  0.00     0.158 A 
BRANCH  15  18
ATOM     18  O   UNL     1     -23.737 103.331  30.012  1.00  0.00    -0.504 OA
ATOM     19  H   UNL     1     -24.359 104.106  29.813  1.00  0.00     0.293 HD
ENDBRANCH  15  18
BRANCH  17  20
ATOM     20  O   UNL     1     -26.397 102.382  29.915  1.00  0.00    -0.504 OA
ATOM     21  H   UNL     1     -26.291 103.380  30.054  1.00  0.00     0.293 HD
ENDBRANCH  17  20
ENDBRANCH   1  12
BRANCH   2  22
ATOM     22  O   UNL     1     -24.161  98.628  25.903  1.00  0.00    -0.502 OA
ATOM     23  H   UNL     1     -24.741  99.207  25.309  1.00  0.00     0.293 HD
ENDBRANCH   2  22
BRANCH   6  24
ATOM     24  O   UNL     1     -26.056  93.653  25.740  1.00  0.00    -0.507 OA
ATOM     25  H   UNL     1     -26.852  93.159  25.366  1.00  0.00     0.293 HD
ENDBRANCH   6  24
BRANCH   8  26
ATOM     26  O   UNL     1     -26.774  92.871  30.422  1.00  0.00    -0.508 OA
ATOM     27  H   UNL     1     -26.726  91.865  30.314  1.00  0.00     0.293 HD
ENDBRANCH   8  26
TORSDOF 6
ENDMDL
MODEL 8
REMARK VINA RESULT:    -5.194     11.838     13.804
REMARK INTER + INTRA:          -6.569
REMARK INTER:                  -6.234
REMARK INTRA:                  -0.335
REMARK UNBOUND:                -0.313
REMARK SMILES O=c1c(O)c(-c2ccc(O)c(O)c2)oc2cc(O)cc(O)c12
REMARK SMILES IDX 5 1 3 2 2 3 1 4 22 5 20 6 19 7 17 8 16 9 15 10 14 11 6 12
REMARK SMILES IDX 7 13 8 14 9 15 13 16 11 17 10 18 12 20 4 22 21 24 18 26
REMARK H PARENT 10 19 12 21 4 23 21 25 18 27
REMARK Flexibility Score: inf
ROOT
ATOM      1  C   UNL     1     -24.092 102.794  29.419  1.00  0.00     0.180 A 
ATOM      2  C   UNL     1     -24.548 103.649  28.401  1.00  0.00     0.208 A 
ATOM      3  C   UNL     1     -24.312 105.028  28.513  1.00  0.00     0.238 A 
ATOM      4  O   UNL     1     -24.769 105.795  27.626  1.00  0.00    -0.285 OA
ATOM      5  C   UNL     1     -23.608 105.533  29.633  1.00  0.00     0.111 A 
ATOM      6  C   UNL     1     -23.277 106.908  29.830  1.00  0.00     0.134 A 
ATOM      7  C   UNL     1     -22.694 107.312  31.037  1.00  0.00     0.093 A 
ATOM      8  C   UNL     1     -22.370 106.381  32.028  1.00  0.00     0.123 A 
ATOM      9  C   UNL     1     -22.635 105.030  31.820  1.00  0.00     0.094 A 
ATOM     10  C   UNL     1     -23.250 104.601  30.642  1.00  0.00     0.146 A 
ATOM     11  O   UNL     1     -23.494 103.305  30.489  1.00  0.00    -0.452 OA
ENDROOT
BRANCH   1  12
ATOM     12  C   UNL     1     -24.283 101.326  29.360  1.00  0.00     0.025 A 
ATOM     13  C   UNL     1     -23.334 100.490  28.744  1.00  0.00     0.016 A 
ATOM     14  C   UNL     1     -23.523  99.106  28.722  1.00  0.00     0.051 A 
ATOM     15  C   UNL     1     -24.652  98.536  29.324  1.00  0.00     0.157 A 
ATOM     16  C   UNL     1     -25.401 100.748  29.980  1.00  0.00     0.062 A 
ATOM     17  C   UNL     1     -25.593  99.362  29.959  1.00  0.00     0.158 A 
BRANCH  15  18
ATOM     18  O   UNL     1     -24.837  97.154  29.297  1.00  0.00    -0.504 OA
ATOM     19  H   UNL     1     -25.344  96.701  28.547  1.00  0.00     0.293 HD
ENDBRANCH  15  18
BRANCH  17  20
ATOM     20  O   UNL     1     -26.724  98.825  30.574  1.00  0.00    -0.504 OA
ATOM     21  H   UNL     1     -27.505  99.403  30.863  1.00  0.00     0.293 HD
ENDBRANCH  17  20
ENDBRANCH   1  12
BRANCH   2  22
ATOM     22  O   UNL     1     -25.260 103.132  27.314  1.00  0.00    -0.502 OA
ATOM     23  H   UNL     1     -24.949 102.319  26.798  1.00  0.00     0.293 HD
ENDBRANCH   2  22
BRANCH   6  24
ATOM     24  O   UNL     1     -23.473 107.903  28.868  1.00  0.00    -0.507 OA
ATOM     25  H   UNL     1     -22.803 108.157  28.158  1.00  0.00     0.293 HD
ENDBRANCH   6  24
BRANCH   8  26
ATOM     26  O   UNL     1     -21.776 106.790  33.219  1.00  0.00    -0.508 OA
ATOM     27  H   UNL     1     -22.179 107.525  33.789  1.00  0.00     0.293 HD
ENDBRANCH   8  26
TORSDOF 6
ENDMDL
MODEL 9
REMARK VINA RESULT:    -5.171     11.453     13.525
REMARK INTER + INTRA:          -6.542
REMARK INTER:                  -6.238
REMARK INTRA:                  -0.304
REMARK UNBOUND:                -0.313
REMARK SMILES O=c1c(O)c(-c2ccc(O)c(O)c2)oc2cc(O)cc(O)c12
REMARK SMILES IDX 5 1 3 2 2 3 1 4 22 5 20 6 19 7 17 8 16 9 15 10 14 11 6 12
REMARK SMILES IDX 7 13 8 14 9 15 13 16 11 17 10 18 12 20 4 22 21 24 18 26
REMARK H PARENT 10 19 12 21 4 23 21 25 18 27
REMARK Flexibility Score: inf
ROOT
ATOM      1  C   UNL     1     -24.539 105.125  28.096  1.00  0.00     0.180 A 
ATOM      2  C   UNL     1     -23.266 105.717  28.046  1.00  0.00     0.208 A 
ATOM      3  C   UNL     1     -23.160 107.076  27.706  1.00  0.00     0.238 A 
ATOM      4  O   UNL     1     -22.013 107.587  27.610  1.00  0.00    -0.285 OA
ATOM      5  C   UNL     1     -24.329 107.828  27.436  1.00  0.00     0.111 A 
ATOM      6  C   UNL     1     -24.341 109.220  27.121  1.00  0.00     0.134 A 
ATOM      7  C   UNL     1     -25.544 109.831  26.745  1.00  0.00     0.093 A 
ATOM      8  C   UNL     1     -26.745 109.115  26.734  1.00  0.00     0.123 A 
ATOM      9  C   UNL     1     -26.750 107.771  27.098  1.00  0.00     0.094 A 
ATOM     10  C   UNL     1     -25.562 107.125  27.443  1.00  0.00     0.146 A 
ATOM     11  O   UNL     1     -25.611 105.839  27.772  1.00  0.00    -0.452 OA
ENDROOT
BRANCH   1  12
ATOM     12  C   UNL     1     -24.733 103.705  28.470  1.00  0.00     0.025 A 
ATOM     13  C   UNL     1     -24.695 103.290  29.813  1.00  0.00     0.016 A 
ATOM     14  C   UNL     1     -24.906 101.950  30.144  1.00  0.00     0.051 A 
ATOM     15  C   UNL     1     -25.170 101.007  29.143  1.00  0.00     0.157 A 
ATOM     16  C   UNL     1     -25.020 102.760  27.472  1.00  0.00     0.062 A 
ATOM     17  C   UNL     1     -25.230 101.416  27.801  1.00  0.00     0.158 A 
BRANCH  15  18
ATOM     18  O   UNL     1     -25.377  99.669  29.477  1.00  0.00    -0.504 OA
ATOM     19  H   UNL     1     -25.325  98.934  28.782  1.00  0.00     0.293 HD
ENDBRANCH  15  18
BRANCH  17  20
ATOM     20  O   UNL     1     -25.499 100.503  26.781  1.00  0.00    -0.504 OA
ATOM     21  H   UNL     1     -24.840  99.778  26.520  1.00  0.00     0.293 HD
ENDBRANCH  17  20
ENDBRANCH   1  12
BRANCH   2  22
ATOM     22  O   UNL     1     -22.123 104.952  28.294  1.00  0.00    -0.502 OA
ATOM     23  H   UNL     1     -21.475 105.169  29.042  1.00  0.00     0.293 HD
ENDBRANCH   2  22
BRANCH   6  24
ATOM     24  O   UNL     1     -23.217 110.046  27.190  1.00  0.00    -0.507 OA
ATOM     25  H   UNL     1     -22.664 110.198  28.020  1.00  0.00     0.293 HD
ENDBRANCH   6  24
BRANCH   8  26
ATOM     26  O   UNL     1     -27.938 109.736  26.374  1.00  0.00    -0.508 OA
ATOM     27  H   UNL     1     -28.831 109.417  26.732  1.00  0.00     0.293 HD
ENDBRANCH   8  26
TORSDOF 6
ENDMDL
