MODEL 1
REMARK VINA RESULT:    -4.522      0.000      0.000
REMARK INTER + INTRA:         -10.511
REMARK INTER:                  -8.487
REMARK INTRA:                  -2.024
REMARK UNBOUND:                -2.024
REMARK SMILES CCCCCCCCC=CCCCCCCCC(=O)[O-]
REMARK SMILES IDX 10 1 9 2 11 3 12 4 13 5 14 6 15 7 16 8 17 9 18 10 19 11
REMARK SMILES IDX 20 12 8 13 7 14 6 15 5 16 4 17 3 18 2 19 1 20
REMARK H PARENT
REMARK Flexibility Score: inf
ROOT
ATOM      1  C   UNL     1       7.285  -7.074 -18.426  1.00  0.00    -0.031 C 
ATOM      2  C   UNL     1       6.899  -5.922 -17.848  1.00  0.00    -0.031 C 
ENDROOT
BRANCH   1   3
ATOM      3  C   UNL     1       8.244  -8.051 -17.788  1.00  0.00     0.027 C 
BRANCH   3   4
ATOM      4  C   UNL     1       7.584  -8.874 -16.670  1.00  0.00     0.004 C 
BRANCH   4   5
ATOM      5  C   UNL     1       6.284  -9.582 -17.097  1.00  0.00     0.000 C 
BRANCH   5   6
ATOM      6  C   UNL     1       6.541 -10.817 -17.976  1.00  0.00     0.000 C 
BRANCH   6   7
ATOM      7  C   UNL     1       6.282 -10.502 -19.454  1.00  0.00     0.000 C 
BRANCH   7   8
ATOM      8  C   UNL     1       4.887 -10.979 -19.883  1.00  0.00     0.006 C 
BRANCH   8   9
ATOM      9  C   UNL     1       4.408 -12.185 -19.066  1.00  0.00     0.053 C 
BRANCH   9  10
ATOM     10  C   UNL     1       2.919 -12.191 -18.909  1.00  0.00     0.041 C 
ATOM     11  O   UNL     1       2.287 -11.107 -18.801  1.00  0.00    -0.550 OA
ATOM     12  O   UNL     1       2.231 -13.397 -18.853  1.00  0.00    -0.550 OA
ENDBRANCH   9  10
ENDBRANCH   8   9
ENDBRANCH   7   8
ENDBRANCH   6   7
ENDBRANCH   5   6
ENDBRANCH   4   5
ENDBRANCH   3   4
ENDBRANCH   1   3
BRANCH   2  13
ATOM     13  C   UNL     1       7.399  -5.431 -16.512  1.00  0.00     0.027 C 
BRANCH  13  14
ATOM     14  C   UNL     1       6.246  -5.308 -15.509  1.00  0.00     0.004 C 
BRANCH  14  15
ATOM     15  C   UNL     1       4.890  -5.330 -16.223  1.00  0.00     0.000 C 
BRANCH  15  16
ATOM     16  C   UNL     1       3.850  -6.111 -15.406  1.00  0.00     0.000 C 
BRANCH  16  17
ATOM     17  C   UNL     1       4.269  -7.568 -15.152  1.00  0.00    -0.000 C 
BRANCH  17  18
ATOM     18  C   UNL     1       4.234  -7.944 -13.663  1.00  0.00    -0.000 C 
BRANCH  18  19
ATOM     19  C   UNL     1       5.495  -8.720 -13.264  1.00  0.00    -0.003 C 
ATOM     20  C   UNL     1       6.740  -7.846 -13.380  1.00  0.00     0.004 C 
ENDBRANCH  18  19
ENDBRANCH  17  18
ENDBRANCH  16  17
ENDBRANCH  15  16
ENDBRANCH  14  15
ENDBRANCH  13  14
ENDBRANCH   2  13
TORSDOF 15
ENDMDL
MODEL 2
REMARK VINA RESULT:    -4.389      2.344      5.931
REMARK INTER + INTRA:         -10.263
REMARK INTER:                  -8.160
REMARK INTRA:                  -2.103
REMARK UNBOUND:                -2.024
REMARK SMILES CCCCCCCCC=CCCCCCCCC(=O)[O-]
REMARK SMILES IDX 10 1 9 2 11 3 12 4 13 5 14 6 15 7 16 8 17 9 18 10 19 11
REMARK SMILES IDX 20 12 8 13 7 14 6 15 5 16 4 17 3 18 2 19 1 20
REMARK H PARENT
REMARK Flexibility Score: inf
ROOT
ATOM      1  C   UNL     1       7.480  -6.508 -17.764  1.00  0.00    -0.031 C 
ATOM      2  C   UNL     1       7.638  -7.839 -17.880  1.00  0.00    -0.031 C 
ENDROOT
BRANCH   1   3
ATOM      3  C   UNL     1       6.138  -5.836 -17.599  1.00  0.00     0.027 C 
BRANCH   3   4
ATOM      4  C   UNL     1       6.009  -5.108 -16.250  1.00  0.00     0.004 C 
BRANCH   4   5
ATOM      5  C   UNL     1       7.159  -5.404 -15.268  1.00  0.00     0.000 C 
BRANCH   5   6
ATOM      6  C   UNL     1       6.711  -6.250 -14.066  1.00  0.00     0.000 C 
BRANCH   6   7
ATOM      7  C   UNL     1       7.170  -7.705 -14.218  1.00  0.00     0.000 C 
BRANCH   7   8
ATOM      8  C   UNL     1       5.982  -8.672 -14.117  1.00  0.00     0.006 C 
BRANCH   8   9
ATOM      9  C   UNL     1       4.657  -8.009 -14.514  1.00  0.00     0.053 C 
BRANCH   9  10
ATOM     10  C   UNL     1       3.650  -8.079 -13.408  1.00  0.00     0.041 C 
ATOM     11  O   UNL     1       3.241  -9.195 -12.990  1.00  0.00    -0.550 OA
ATOM     12  O   UNL     1       3.140  -6.909 -12.858  1.00  0.00    -0.550 OA
ENDBRANCH   9  10
ENDBRANCH   8   9
ENDBRANCH   7   8
ENDBRANCH   6   7
ENDBRANCH   5   6
ENDBRANCH   4   5
ENDBRANCH   3   4
ENDBRANCH   1   3
BRANCH   2  13
ATOM     13  C   UNL     1       6.503  -8.833 -17.903  1.00  0.00     0.027 C 
BRANCH  13  14
ATOM     14  C   UNL     1       6.915 -10.149 -17.234  1.00  0.00     0.004 C 
BRANCH  14  15
ATOM     15  C   UNL     1       6.538 -11.352 -18.107  1.00  0.00     0.000 C 
BRANCH  15  16
ATOM     16  C   UNL     1       6.128 -10.902 -19.517  1.00  0.00     0.000 C 
BRANCH  16  17
ATOM     17  C   UNL     1       4.666 -11.245 -19.847  1.00  0.00    -0.000 C 
BRANCH  17  18
ATOM     18  C   UNL     1       3.834 -11.557 -18.594  1.00  0.00    -0.000 C 
BRANCH  18  19
ATOM     19  C   UNL     1       2.414 -11.992 -18.973  1.00  0.00    -0.003 C 
ATOM     20  C   UNL     1       2.213 -13.486 -18.735  1.00  0.00     0.004 C 
ENDBRANCH  18  19
ENDBRANCH  17  18
ENDBRANCH  16  17
ENDBRANCH  15  16
ENDBRANCH  14  15
ENDBRANCH  13  14
ENDBRANCH   2  13
TORSDOF 15
ENDMDL
MODEL 3
REMARK VINA RESULT:    -4.338      0.775      1.803
REMARK INTER + INTRA:         -10.166
REMARK INTER:                  -8.164
REMARK INTRA:                  -2.002
REMARK UNBOUND:                -2.024
REMARK SMILES CCCCCCCCC=CCCCCCCCC(=O)[O-]
REMARK SMILES IDX 10 1 9 2 11 3 12 4 13 5 14 6 15 7 16 8 17 9 18 10 19 11
REMARK SMILES IDX 20 12 8 13 7 14 6 15 5 16 4 17 3 18 2 19 1 20
REMARK H PARENT
REMARK Flexibility Score: inf
ROOT
ATOM      1  C   UNL     1       6.330  -6.335 -18.004  1.00  0.00    -0.031 C 
ATOM      2  C   UNL     1       6.214  -5.569 -16.905  1.00  0.00    -0.031 C 
ENDROOT
BRANCH   1   3
ATOM      3  C   UNL     1       7.643  -6.887 -18.506  1.00  0.00     0.027 C 
BRANCH   3   4
ATOM      4  C   UNL     1       7.925  -8.301 -17.973  1.00  0.00     0.004 C 
BRANCH   4   5
ATOM      5  C   UNL     1       6.663  -9.069 -17.535  1.00  0.00     0.000 C 
BRANCH   5   6
ATOM      6  C   UNL     1       6.603 -10.492 -18.111  1.00  0.00     0.000 C 
BRANCH   6   7
ATOM      7  C   UNL     1       6.309 -10.463 -19.616  1.00  0.00     0.000 C 
BRANCH   7   8
ATOM      8  C   UNL     1       4.949 -11.105 -19.925  1.00  0.00     0.006 C 
BRANCH   8   9
ATOM      9  C   UNL     1       4.389 -11.884 -18.729  1.00  0.00     0.053 C 
BRANCH   9  10
ATOM     10  C   UNL     1       2.911 -12.094 -18.847  1.00  0.00     0.041 C 
ATOM     11  O   UNL     1       2.131 -11.106 -18.901  1.00  0.00    -0.550 OA
ATOM     12  O   UNL     1       2.391 -13.382 -18.870  1.00  0.00    -0.550 OA
ENDBRANCH   9  10
ENDBRANCH   8   9
ENDBRANCH   7   8
ENDBRANCH   6   7
ENDBRANCH   5   6
ENDBRANCH   4   5
ENDBRANCH   3   4
ENDBRANCH   1   3
BRANCH   2  13
ATOM     13  C   UNL     1       7.375  -5.124 -16.051  1.00  0.00     0.027 C 
BRANCH  13  14
ATOM     14  C   UNL     1       7.243  -5.666 -14.623  1.00  0.00     0.004 C 
BRANCH  14  15
ATOM     15  C   UNL     1       7.240  -7.199 -14.614  1.00  0.00     0.000 C 
BRANCH  15  16
ATOM     16  C   UNL     1       6.616  -7.740 -13.319  1.00  0.00     0.000 C 
BRANCH  16  17
ATOM     17  C   UNL     1       5.344  -8.566 -13.575  1.00  0.00    -0.000 C 
BRANCH  17  18
ATOM     18  C   UNL     1       4.593  -8.120 -14.839  1.00  0.00    -0.000 C 
BRANCH  18  19
ATOM     19  C   UNL     1       3.626  -6.972 -14.525  1.00  0.00    -0.003 C 
ATOM     20  C   UNL     1       3.145  -7.036 -13.079  1.00  0.00     0.004 C 
ENDBRANCH  18  19
ENDBRANCH  17  18
ENDBRANCH  16  17
ENDBRANCH  15  16
ENDBRANCH  14  15
ENDBRANCH  13  14
ENDBRANCH   2  13
TORSDOF 15
ENDMDL
MODEL 4
REMARK VINA RESULT:    -4.305      2.653      6.083
REMARK INTER + INTRA:         -10.104
REMARK INTER:                  -8.206
REMARK INTRA:                  -1.898
REMARK UNBOUND:                -2.024
REMARK SMILES CCCCCCCCC=CCCCCCCCC(=O)[O-]
REMARK SMILES IDX 10 1 9 2 11 3 12 4 13 5 14 6 15 7 16 8 17 9 18 10 19 11
REMARK SMILES IDX 20 12 8 13 7 14 6 15 5 16 4 17 3 18 2 19 1 20
REMARK H PARENT
REMARK Flexibility Score: inf
ROOT
ATOM      1  C   UNL     1       7.204  -6.031 -17.818  1.00  0.00    -0.031 C 
ATOM      2  C   UNL     1       7.331  -7.277 -18.309  1.00  0.00    -0.031 C 
ENDROOT
BRANCH   1   3
ATOM      3  C   UNL     1       7.500  -5.663 -16.383  1.00  0.00     0.027 C 
BRANCH   3   4
ATOM      4  C   UNL     1       6.275  -5.072 -15.666  1.00  0.00     0.004 C 
BRANCH   4   5
ATOM      5  C   UNL     1       4.947  -5.281 -16.419  1.00  0.00     0.000 C 
BRANCH   5   6
ATOM      6  C   UNL     1       3.840  -5.856 -15.522  1.00  0.00     0.000 C 
BRANCH   6   7
ATOM      7  C   UNL     1       4.025  -7.365 -15.321  1.00  0.00     0.000 C 
BRANCH   7   8
ATOM      8  C   UNL     1       4.130  -7.714 -13.829  1.00  0.00     0.006 C 
BRANCH   8   9
ATOM      9  C   UNL     1       5.319  -8.635 -13.530  1.00  0.00     0.053 C 
BRANCH   9  10
ATOM     10  C   UNL     1       6.603  -7.869 -13.437  1.00  0.00     0.041 C 
ATOM     11  O   UNL     1       6.655  -6.793 -12.783  1.00  0.00    -0.550 OA
ATOM     12  O   UNL     1       7.736  -8.329 -14.096  1.00  0.00    -0.550 OA
ENDBRANCH   9  10
ENDBRANCH   8   9
ENDBRANCH   7   8
ENDBRANCH   6   7
ENDBRANCH   5   6
ENDBRANCH   4   5
ENDBRANCH   3   4
ENDBRANCH   1   3
BRANCH   2  13
ATOM     13  C   UNL     1       7.742  -8.477 -17.493  1.00  0.00     0.027 C 
BRANCH  13  14
ATOM     14  C   UNL     1       6.526  -9.339 -17.136  1.00  0.00     0.004 C 
BRANCH  14  15
ATOM     15  C   UNL     1       6.564 -10.679 -17.879  1.00  0.00     0.000 C 
BRANCH  15  16
ATOM     16  C   UNL     1       6.411 -10.473 -19.393  1.00  0.00     0.000 C 
BRANCH  16  17
ATOM     17  C   UNL     1       5.018 -10.873 -19.907  1.00  0.00    -0.000 C 
BRANCH  17  18
ATOM     18  C   UNL     1       4.382 -12.000 -19.079  1.00  0.00    -0.000 C 
BRANCH  18  19
ATOM     19  C   UNL     1       2.865 -11.811 -18.970  1.00  0.00    -0.003 C 
ATOM     20  C   UNL     1       2.146 -13.155 -18.892  1.00  0.00     0.004 C 
ENDBRANCH  18  19
ENDBRANCH  17  18
ENDBRANCH  16  17
ENDBRANCH  15  16
ENDBRANCH  14  15
ENDBRANCH  13  14
ENDBRANCH   2  13
TORSDOF 15
ENDMDL
MODEL 5
REMARK VINA RESULT:    -4.257      0.780      2.870
REMARK INTER + INTRA:         -10.014
REMARK INTER:                  -7.992
REMARK INTRA:                  -2.022
REMARK UNBOUND:                -2.024
REMARK SMILES CCCCCCCCC=CCCCCCCCC(=O)[O-]
REMARK SMILES IDX 10 1 9 2 11 3 12 4 13 5 14 6 15 7 16 8 17 9 18 10 19 11
REMARK SMILES IDX 20 12 8 13 7 14 6 15 5 16 4 17 3 18 2 19 1 20
REMARK H PARENT
REMARK Flexibility Score: inf
ROOT
ATOM      1  C   UNL     1       7.393  -8.076 -14.470  1.00  0.00    -0.031 C 
ATOM      2  C   UNL     1       6.503  -8.044 -13.462  1.00  0.00    -0.031 C 
ENDROOT
BRANCH   1   3
ATOM      3  C   UNL     1       7.174  -8.839 -15.756  1.00  0.00     0.027 C 
BRANCH   3   4
ATOM      4  C   UNL     1       8.201  -8.467 -16.838  1.00  0.00     0.004 C 
BRANCH   4   5
ATOM      5  C   UNL     1       7.648  -8.532 -18.275  1.00  0.00     0.000 C 
BRANCH   5   6
ATOM      6  C   UNL     1       6.319  -9.296 -18.366  1.00  0.00     0.000 C 
BRANCH   6   7
ATOM      7  C   UNL     1       6.425 -10.467 -19.350  1.00  0.00     0.000 C 
BRANCH   7   8
ATOM      8  C   UNL     1       5.034 -10.968 -19.763  1.00  0.00     0.006 C 
BRANCH   8   9
ATOM      9  C   UNL     1       4.492 -12.036 -18.805  1.00  0.00     0.053 C 
BRANCH   9  10
ATOM     10  C   UNL     1       2.996 -12.110 -18.847  1.00  0.00     0.041 C 
ATOM     11  O   UNL     1       2.306 -11.057 -18.815  1.00  0.00    -0.550 OA
ATOM     12  O   UNL     1       2.363 -13.346 -18.892  1.00  0.00    -0.550 OA
ENDBRANCH   9  10
ENDBRANCH   8   9
ENDBRANCH   7   8
ENDBRANCH   6   7
ENDBRANCH   5   6
ENDBRANCH   4   5
ENDBRANCH   3   4
ENDBRANCH   1   3
BRANCH   2  13
ATOM     13  C   UNL     1       5.193  -8.792 -13.457  1.00  0.00     0.027 C 
BRANCH  13  14
ATOM     14  C   UNL     1       4.012  -7.829 -13.621  1.00  0.00     0.004 C 
BRANCH  14  15
ATOM     15  C   UNL     1       3.875  -7.368 -15.076  1.00  0.00     0.000 C 
BRANCH  15  16
ATOM     16  C   UNL     1       3.513  -5.878 -15.151  1.00  0.00     0.000 C 
BRANCH  16  17
ATOM     17  C   UNL     1       4.333  -5.121 -16.208  1.00  0.00    -0.000 C 
BRANCH  17  18
ATOM     18  C   UNL     1       5.425  -5.993 -16.846  1.00  0.00    -0.000 C 
BRANCH  18  19
ATOM     19  C   UNL     1       6.736  -5.211 -16.988  1.00  0.00    -0.003 C 
ATOM     20  C   UNL     1       7.442  -5.068 -15.643  1.00  0.00     0.004 C 
ENDBRANCH  18  19
ENDBRANCH  17  18
ENDBRANCH  16  17
ENDBRANCH  15  16
ENDBRANCH  14  15
ENDBRANCH  13  14
ENDBRANCH   2  13
TORSDOF 15
ENDMDL
MODEL 6
REMARK VINA RESULT:    -4.120      1.145      2.629
REMARK INTER + INTRA:          -9.757
REMARK INTER:                  -7.632
REMARK INTRA:                  -2.125
REMARK UNBOUND:                -2.024
REMARK SMILES CCCCCCCCC=CCCCCCCCC(=O)[O-]
REMARK SMILES IDX 10 1 9 2 11 3 12 4 13 5 14 6 15 7 16 8 17 9 18 10 19 11
REMARK SMILES IDX 20 12 8 13 7 14 6 15 5 16 4 17 3 18 2 19 1 20
REMARK H PARENT
REMARK Flexibility Score: inf
ROOT
ATOM      1  C   UNL     1       6.015  -5.555 -17.438  1.00  0.00    -0.031 C 
ATOM      2  C   UNL     1       5.748  -5.293 -16.145  1.00  0.00    -0.031 C 
ENDROOT
BRANCH   1   3
ATOM      3  C   UNL     1       7.404  -5.819 -17.970  1.00  0.00     0.027 C 
BRANCH   3   4
ATOM      4  C   UNL     1       7.482  -7.126 -18.776  1.00  0.00     0.004 C 
BRANCH   4   5
ATOM      5  C   UNL     1       8.284  -8.244 -18.081  1.00  0.00     0.000 C 
BRANCH   5   6
ATOM      6  C   UNL     1       7.554  -8.829 -16.862  1.00  0.00     0.000 C 
BRANCH   6   7
ATOM      7  C   UNL     1       6.242  -9.503 -17.280  1.00  0.00     0.000 C 
BRANCH   7   8
ATOM      8  C   UNL     1       6.473 -10.973 -17.659  1.00  0.00     0.006 C 
BRANCH   8   9
ATOM      9  C   UNL     1       6.252 -11.229 -19.155  1.00  0.00     0.053 C 
BRANCH   9  10
ATOM     10  C   UNL     1       4.802 -11.144 -19.523  1.00  0.00     0.041 C 
ATOM     11  O   UNL     1       4.432 -10.425 -20.489  1.00  0.00    -0.550 OA
ATOM     12  O   UNL     1       3.855 -11.838 -18.780  1.00  0.00    -0.550 OA
ENDBRANCH   9  10
ENDBRANCH   8   9
ENDBRANCH   7   8
ENDBRANCH   6   7
ENDBRANCH   5   6
ENDBRANCH   4   5
ENDBRANCH   3   4
ENDBRANCH   1   3
BRANCH   2  13
ATOM     13  C   UNL     1       6.795  -5.188 -15.064  1.00  0.00     0.027 C 
BRANCH  13  14
ATOM     14  C   UNL     1       7.273  -6.578 -14.628  1.00  0.00     0.004 C 
BRANCH  14  15
ATOM     15  C   UNL     1       6.543  -7.037 -13.361  1.00  0.00     0.000 C 
BRANCH  15  16
ATOM     16  C   UNL     1       6.073  -8.494 -13.494  1.00  0.00     0.000 C 
BRANCH  16  17
ATOM     17  C   UNL     1       4.542  -8.621 -13.537  1.00  0.00    -0.000 C 
BRANCH  17  18
ATOM     18  C   UNL     1       3.929  -7.967 -14.785  1.00  0.00    -0.000 C 
BRANCH  18  19
ATOM     19  C   UNL     1       3.170  -6.687 -14.416  1.00  0.00    -0.003 C 
ATOM     20  C   UNL     1       2.825  -6.659 -12.930  1.00  0.00     0.004 C 
ENDBRANCH  18  19
ENDBRANCH  17  18
ENDBRANCH  16  17
ENDBRANCH  15  16
ENDBRANCH  14  15
ENDBRANCH  13  14
ENDBRANCH   2  13
TORSDOF 15
ENDMDL
MODEL 7
REMARK VINA RESULT:    -3.996      2.416      5.717
REMARK INTER + INTRA:          -9.525
REMARK INTER:                  -7.761
REMARK INTRA:                  -1.764
REMARK UNBOUND:                -2.024
REMARK SMILES CCCCCCCCC=CCCCCCCCC(=O)[O-]
REMARK SMILES IDX 10 1 9 2 11 3 12 4 13 5 14 6 15 7 16 8 17 9 18 10 19 11
REMARK SMILES IDX 20 12 8 13 7 14 6 15 5 16 4 17 3 18 2 19 1 20
REMARK H PARENT
REMARK Flexibility Score: inf
ROOT
ATOM      1  C   UNL     1       6.541  -5.560 -17.213  1.00  0.00    -0.031 C 
ATOM      2  C   UNL     1       6.430  -6.622 -18.031  1.00  0.00    -0.031 C 
ENDROOT
BRANCH   1   3
ATOM      3  C   UNL     1       7.820  -5.176 -16.508  1.00  0.00     0.027 C 
BRANCH   3   4
ATOM      4  C   UNL     1       7.620  -4.984 -14.996  1.00  0.00     0.004 C 
BRANCH   4   5
ATOM      5  C   UNL     1       6.623  -5.976 -14.366  1.00  0.00     0.000 C 
BRANCH   5   6
ATOM      6  C   UNL     1       7.220  -7.378 -14.174  1.00  0.00     0.000 C 
BRANCH   6   7
ATOM      7  C   UNL     1       6.379  -8.204 -13.193  1.00  0.00     0.000 C 
BRANCH   7   8
ATOM      8  C   UNL     1       5.200  -8.878 -13.910  1.00  0.00     0.006 C 
BRANCH   8   9
ATOM      9  C   UNL     1       3.863  -8.611 -13.207  1.00  0.00     0.053 C 
BRANCH   9  10
ATOM     10  C   UNL     1       3.307  -7.268 -13.566  1.00  0.00     0.041 C 
ATOM     11  O   UNL     1       2.654  -6.602 -12.718  1.00  0.00    -0.550 OA
ATOM     12  O   UNL     1       3.484  -6.762 -14.848  1.00  0.00    -0.550 OA
ENDBRANCH   9  10
ENDBRANCH   8   9
ENDBRANCH   7   8
ENDBRANCH   6   7
ENDBRANCH   5   6
ENDBRANCH   4   5
ENDBRANCH   3   4
ENDBRANCH   1   3
BRANCH   2  13
ATOM     13  C   UNL     1       7.547  -7.592 -18.323  1.00  0.00     0.027 C 
BRANCH  13  14
ATOM     14  C   UNL     1       7.631  -8.672 -17.238  1.00  0.00     0.004 C 
BRANCH  14  15
ATOM     15  C   UNL     1       6.389  -9.570 -17.257  1.00  0.00     0.000 C 
BRANCH  15  16
ATOM     16  C   UNL     1       6.659 -10.868 -18.032  1.00  0.00     0.000 C 
BRANCH  16  17
ATOM     17  C   UNL     1       6.399 -10.722 -19.540  1.00  0.00    -0.000 C 
BRANCH  17  18
ATOM     18  C   UNL     1       4.905 -10.787 -19.892  1.00  0.00    -0.000 C 
BRANCH  18  19
ATOM     19  C   UNL     1       4.208 -11.914 -19.121  1.00  0.00    -0.003 C 
ATOM     20  C   UNL     1       2.759 -11.555 -18.809  1.00  0.00     0.004 C 
ENDBRANCH  18  19
ENDBRANCH  17  18
ENDBRANCH  16  17
ENDBRANCH  15  16
ENDBRANCH  14  15
ENDBRANCH  13  14
ENDBRANCH   2  13
TORSDOF 15
ENDMDL
MODEL 8
REMARK VINA RESULT:    -3.813      1.335      2.506
REMARK INTER + INTRA:          -9.181
REMARK INTER:                  -7.071
REMARK INTRA:                  -2.110
REMARK UNBOUND:                -2.024
REMARK SMILES CCCCCCCCC=CCCCCCCCC(=O)[O-]
REMARK SMILES IDX 10 1 9 2 11 3 12 4 13 5 14 6 15 7 16 8 17 9 18 10 19 11
REMARK SMILES IDX 20 12 8 13 7 14 6 15 5 16 4 17 3 18 2 19 1 20
REMARK H PARENT
REMARK Flexibility Score: inf
ROOT
ATOM      1  C   UNL     1       7.109  -5.647 -17.052  1.00  0.00    -0.031 C 
ATOM      2  C   UNL     1       6.104  -5.150 -16.310  1.00  0.00    -0.031 C 
ENDROOT
BRANCH   1   3
ATOM      3  C   UNL     1       6.902  -6.556 -18.241  1.00  0.00     0.027 C 
BRANCH   3   4
ATOM      4  C   UNL     1       8.150  -6.642 -19.136  1.00  0.00     0.004 C 
BRANCH   4   5
ATOM      5  C   UNL     1       8.693  -8.072 -19.318  1.00  0.00     0.000 C 
BRANCH   5   6
ATOM      6  C   UNL     1       7.597  -9.143 -19.206  1.00  0.00     0.000 C 
BRANCH   6   7
ATOM      7  C   UNL     1       7.809 -10.255 -20.240  1.00  0.00     0.000 C 
BRANCH   7   8
ATOM      8  C   UNL     1       6.482 -10.947 -20.585  1.00  0.00     0.006 C 
BRANCH   8   9
ATOM      9  C   UNL     1       5.314 -10.418 -19.744  1.00  0.00     0.053 C 
BRANCH   9  10
ATOM     10  C   UNL     1       4.873 -11.416 -18.718  1.00  0.00     0.041 C 
ATOM     11  O   UNL     1       5.687 -11.845 -17.857  1.00  0.00    -0.550 OA
ATOM     12  O   UNL     1       3.569 -11.894 -18.729  1.00  0.00    -0.550 OA
ENDBRANCH   9  10
ENDBRANCH   8   9
ENDBRANCH   7   8
ENDBRANCH   6   7
ENDBRANCH   5   6
ENDBRANCH   4   5
ENDBRANCH   3   4
ENDBRANCH   1   3
BRANCH   2  13
ATOM     13  C   UNL     1       4.645  -5.462 -16.533  1.00  0.00     0.027 C 
BRANCH  13  14
ATOM     14  C   UNL     1       3.950  -5.803 -15.210  1.00  0.00     0.004 C 
BRANCH  14  15
ATOM     15  C   UNL     1       3.821  -7.321 -15.031  1.00  0.00     0.000 C 
BRANCH  15  16
ATOM     16  C   UNL     1       4.186  -7.739 -13.600  1.00  0.00     0.000 C 
BRANCH  16  17
ATOM     17  C   UNL     1       5.489  -8.553 -13.535  1.00  0.00    -0.000 C 
BRANCH  17  18
ATOM     18  C   UNL     1       6.740  -7.683 -13.730  1.00  0.00    -0.000 C 
BRANCH  18  19
ATOM     19  C   UNL     1       7.638  -8.255 -14.833  1.00  0.00    -0.003 C 
ATOM     20  C   UNL     1       6.827  -9.062 -15.841  1.00  0.00     0.004 C 
ENDBRANCH  18  19
ENDBRANCH  17  18
ENDBRANCH  16  17
ENDBRANCH  15  16
ENDBRANCH  14  15
ENDBRANCH  13  14
ENDBRANCH   2  13
TORSDOF 15
ENDMDL
MODEL 9
REMARK VINA RESULT:    -3.793      2.975      6.397
REMARK INTER + INTRA:          -9.143
REMARK INTER:                  -7.408
REMARK INTRA:                  -1.735
REMARK UNBOUND:                -2.024
REMARK SMILES CCCCCCCCC=CCCCCCCCC(=O)[O-]
REMARK SMILES IDX 10 1 9 2 11 3 12 4 13 5 14 6 15 7 16 8 17 9 18 10 19 11
REMARK SMILES IDX 20 12 8 13 7 14 6 15 5 16 4 17 3 18 2 19 1 20
REMARK H PARENT
REMARK Flexibility Score: inf
ROOT
ATOM      1  C   UNL     1       7.672  -8.345 -14.944  1.00  0.00    -0.031 C 
ATOM      2  C   UNL     1       7.648  -8.682 -16.246  1.00  0.00    -0.031 C 
ENDROOT
BRANCH   1   3
ATOM      3  C   UNL     1       6.549  -8.648 -13.980  1.00  0.00     0.027 C 
BRANCH   3   4
ATOM      4  C   UNL     1       5.925  -7.373 -13.388  1.00  0.00     0.004 C 
BRANCH   4   5
ATOM      5  C   UNL     1       4.391  -7.309 -13.516  1.00  0.00     0.000 C 
BRANCH   5   6
ATOM      6  C   UNL     1       3.917  -7.284 -14.978  1.00  0.00     0.000 C 
BRANCH   6   7
ATOM      7  C   UNL     1       3.335  -5.913 -15.343  1.00  0.00     0.000 C 
BRANCH   7   8
ATOM      8  C   UNL     1       4.380  -5.042 -16.055  1.00  0.00     0.006 C 
BRANCH   8   9
ATOM      9  C   UNL     1       5.399  -5.880 -16.837  1.00  0.00     0.053 C 
BRANCH   9  10
ATOM     10  C   UNL     1       6.800  -5.395 -16.617  1.00  0.00     0.041 C 
ATOM     11  O   UNL     1       7.626  -5.387 -17.568  1.00  0.00    -0.550 OA
ATOM     12  O   UNL     1       7.201  -4.978 -15.354  1.00  0.00    -0.550 OA
ENDBRANCH   9  10
ENDBRANCH   8   9
ENDBRANCH   7   8
ENDBRANCH   6   7
ENDBRANCH   5   6
ENDBRANCH   4   5
ENDBRANCH   3   4
ENDBRANCH   1   3
BRANCH   2  13
ATOM     13  C   UNL     1       6.489  -9.366 -16.928  1.00  0.00     0.027 C 
BRANCH  13  14
ATOM     14  C   UNL     1       6.538  -9.144 -18.444  1.00  0.00     0.004 C 
BRANCH  14  15
ATOM     15  C   UNL     1       7.143 -10.358 -19.158  1.00  0.00     0.000 C 
BRANCH  15  16
ATOM     16  C   UNL     1       6.212 -10.863 -20.270  1.00  0.00     0.000 C 
BRANCH  16  17
ATOM     17  C   UNL     1       4.725 -10.690 -19.920  1.00  0.00    -0.000 C 
BRANCH  17  18
ATOM     18  C   UNL     1       4.258 -11.658 -18.822  1.00  0.00    -0.000 C 
BRANCH  18  19
ATOM     19  C   UNL     1       2.731 -11.798 -18.828  1.00  0.00    -0.003 C 
ATOM     20  C   UNL     1       2.313 -13.265 -18.867  1.00  0.00     0.004 C 
ENDBRANCH  18  19
ENDBRANCH  17  18
ENDBRANCH  16  17
ENDBRANCH  15  16
ENDBRANCH  14  15
ENDBRANCH  13  14
ENDBRANCH   2  13
TORSDOF 15
ENDMDL
