MODEL 1
REMARK VINA RESULT:    -7.475      0.000      0.000
REMARK INTER + INTRA:          -9.083
REMARK INTER:                  -8.786
REMARK INTRA:                  -0.297
REMARK UNBOUND:                -0.297
REMARK SMILES O=c1cc(-c2ccc(O)c(O)c2)oc2cc(O)cc(O)c12
REMARK SMILES IDX 4 1 3 2 2 3 1 4 21 5 19 6 18 7 16 8 15 9 14 10 13 11 5 12
REMARK SMILES IDX 6 13 7 14 8 15 12 16 10 17 9 18 11 20 20 22 17 24
REMARK H PARENT 9 19 11 21 20 23 17 25
REMARK Flexibility Score: inf
ROOT
ATOM      1  C   UNL     1      18.134  22.565  39.698  1.00  0.00     0.138 A 
ATOM      2  C   UNL     1      17.919  23.686  38.885  1.00  0.00     0.100 A 
ATOM      3  C   UNL     1      16.796  24.487  39.098  1.00  0.00     0.197 A 
ATOM      4  O   UNL     1      16.662  25.521  38.393  1.00  0.00    -0.289 OA
ATOM      5  C   UNL     1      15.869  24.144  40.111  1.00  0.00     0.107 A 
ATOM      6  C   UNL     1      14.669  24.864  40.392  1.00  0.00     0.134 A 
ATOM      7  C   UNL     1      13.887  24.499  41.495  1.00  0.00     0.093 A 
ATOM      8  C   UNL     1      14.229  23.406  42.290  1.00  0.00     0.123 A 
ATOM      9  C   UNL     1      15.372  22.662  41.992  1.00  0.00     0.094 A 
ATOM     10  C   UNL     1      16.190  23.022  40.919  1.00  0.00     0.146 A 
ATOM     11  O   UNL     1      17.278  22.296  40.679  1.00  0.00    -0.456 OA
ENDROOT
BRANCH   1  12
ATOM     12  C   UNL     1      19.311  21.679  39.515  1.00  0.00     0.021 A 
ATOM     13  C   UNL     1      19.480  20.570  40.362  1.00  0.00     0.016 A 
ATOM     14  C   UNL     1      20.574  19.716  40.205  1.00  0.00     0.051 A 
ATOM     15  C   UNL     1      21.513  19.947  39.196  1.00  0.00     0.157 A 
ATOM     16  C   UNL     1      20.252  21.899  38.490  1.00  0.00     0.062 A 
ATOM     17  C   UNL     1      21.351  21.041  38.332  1.00  0.00     0.158 A 
BRANCH  15  18
ATOM     18  O   UNL     1      22.596  19.078  39.065  1.00  0.00    -0.504 OA
ATOM     19  H   UNL     1      23.385  19.103  39.699  1.00  0.00     0.293 HD
ENDBRANCH  15  18
BRANCH  17  20
ATOM     20  O   UNL     1      22.277  21.271  37.315  1.00  0.00    -0.504 OA
ATOM     21  H   UNL     1      22.553  22.209  37.050  1.00  0.00     0.293 HD
ENDBRANCH  17  20
ENDBRANCH   1  12
BRANCH   6  22
ATOM     22  O   UNL     1      14.191  25.920  39.610  1.00  0.00    -0.507 OA
ATOM     23  H   UNL     1      13.471  25.838  38.908  1.00  0.00     0.293 HD
ENDBRANCH   6  22
BRANCH   8  24
ATOM     24  O   UNL     1      13.419  23.062  43.370  1.00  0.00    -0.508 OA
ATOM     25  H   UNL     1      12.565  22.532  43.246  1.00  0.00     0.293 HD
ENDBRANCH   8  24
TORSDOF 5
ENDMDL
MODEL 2
REMARK VINA RESULT:    -7.370      2.102      3.568
REMARK INTER + INTRA:          -8.959
REMARK INTER:                  -8.656
REMARK INTRA:                  -0.303
REMARK UNBOUND:                -0.297
REMARK SMILES O=c1cc(-c2ccc(O)c(O)c2)oc2cc(O)cc(O)c12
REMARK SMILES IDX 4 1 3 2 2 3 1 4 21 5 19 6 18 7 16 8 15 9 14 10 13 11 5 12
REMARK SMILES IDX 6 13 7 14 8 15 12 16 10 17 9 18 11 20 20 22 17 24
REMARK H PARENT 9 19 11 21 20 23 17 25
REMARK Flexibility Score: inf
ROOT
ATOM      1  C   UNL     1      15.565  23.187  41.047  1.00  0.00     0.138 A 
ATOM      2  C   UNL     1      14.943  24.376  40.645  1.00  0.00     0.100 A 
ATOM      3  C   UNL     1      13.940  24.933  41.440  1.00  0.00     0.197 A 
ATOM      4  O   UNL     1      13.443  26.033  41.085  1.00  0.00    -0.289 OA
ATOM      5  C   UNL     1      13.539  24.276  42.628  1.00  0.00     0.107 A 
ATOM      6  C   UNL     1      12.501  24.729  43.496  1.00  0.00     0.134 A 
ATOM      7  C   UNL     1      12.270  24.061  44.705  1.00  0.00     0.093 A 
ATOM      8  C   UNL     1      12.999  22.922  45.048  1.00  0.00     0.123 A 
ATOM      9  C   UNL     1      13.980  22.439  44.182  1.00  0.00     0.094 A 
ATOM     10  C   UNL     1      14.256  23.104  42.985  1.00  0.00     0.146 A 
ATOM     11  O   UNL     1      15.209  22.619  42.194  1.00  0.00    -0.456 OA
ENDROOT
BRANCH   1  12
ATOM     12  C   UNL     1      16.637  22.551  40.238  1.00  0.00     0.021 A 
ATOM     13  C   UNL     1      17.529  23.362  39.514  1.00  0.00     0.016 A 
ATOM     14  C   UNL     1      18.550  22.790  38.752  1.00  0.00     0.051 A 
ATOM     15  C   UNL     1      18.706  21.401  38.707  1.00  0.00     0.157 A 
ATOM     16  C   UNL     1      16.807  21.154  40.201  1.00  0.00     0.062 A 
ATOM     17  C   UNL     1      17.834  20.579  39.437  1.00  0.00     0.158 A 
BRANCH  15  18
ATOM     18  O   UNL     1      19.735  20.860  37.937  1.00  0.00    -0.504 OA
ATOM     19  H   UNL     1      19.749  20.937  36.926  1.00  0.00     0.293 HD
ENDBRANCH  15  18
BRANCH  17  20
ATOM     20  O   UNL     1      17.991  19.194  39.405  1.00  0.00    -0.504 OA
ATOM     21  H   UNL     1      17.258  18.584  39.062  1.00  0.00     0.293 HD
ENDBRANCH  17  20
ENDBRANCH   1  12
BRANCH   6  22
ATOM     22  O   UNL     1      11.657  25.806  43.208  1.00  0.00    -0.507 OA
ATOM     23  H   UNL     1      11.215  26.393  43.899  1.00  0.00     0.293 HD
ENDBRANCH   6  22
BRANCH   8  24
ATOM     24  O   UNL     1      12.732  22.274  46.252  1.00  0.00    -0.508 OA
ATOM     25  H   UNL     1      12.937  22.707  47.145  1.00  0.00     0.293 HD
ENDBRANCH   8  24
TORSDOF 5
ENDMDL
MODEL 3
REMARK VINA RESULT:    -7.202      2.000      7.274
REMARK INTER + INTRA:          -8.762
REMARK INTER:                  -8.445
REMARK INTRA:                  -0.317
REMARK UNBOUND:                -0.297
REMARK SMILES O=c1cc(-c2ccc(O)c(O)c2)oc2cc(O)cc(O)c12
REMARK SMILES IDX 4 1 3 2 2 3 1 4 21 5 19 6 18 7 16 8 15 9 14 10 13 11 5 12
REMARK SMILES IDX 6 13 7 14 8 15 12 16 10 17 9 18 11 20 20 22 17 24
REMARK H PARENT 9 19 11 21 20 23 17 25
REMARK Flexibility Score: inf
ROOT
ATOM      1  C   UNL     1      14.928  23.477  41.698  1.00  0.00     0.138 A 
ATOM      2  C   UNL     1      14.971  24.450  40.691  1.00  0.00     0.100 A 
ATOM      3  C   UNL     1      15.966  24.389  39.714  1.00  0.00     0.197 A 
ATOM      4  O   UNL     1      15.943  25.239  38.788  1.00  0.00    -0.289 OA
ATOM      5  C   UNL     1      16.940  23.363  39.767  1.00  0.00     0.107 A 
ATOM      6  C   UNL     1      18.024  23.224  38.850  1.00  0.00     0.134 A 
ATOM      7  C   UNL     1      18.859  22.102  38.931  1.00  0.00     0.093 A 
ATOM      8  C   UNL     1      18.686  21.148  39.933  1.00  0.00     0.123 A 
ATOM      9  C   UNL     1      17.662  21.301  40.868  1.00  0.00     0.094 A 
ATOM     10  C   UNL     1      16.792  22.391  40.792  1.00  0.00     0.146 A 
ATOM     11  O   UNL     1      15.821  22.493  41.694  1.00  0.00    -0.456 OA
ENDROOT
BRANCH   1  12
ATOM     12  C   UNL     1      13.891  23.496  42.762  1.00  0.00     0.021 A 
ATOM     13  C   UNL     1      12.834  24.420  42.680  1.00  0.00     0.016 A 
ATOM     14  C   UNL     1      11.841  24.452  43.662  1.00  0.00     0.051 A 
ATOM     15  C   UNL     1      11.881  23.560  44.737  1.00  0.00     0.157 A 
ATOM     16  C   UNL     1      13.918  22.590  43.839  1.00  0.00     0.062 A 
ATOM     17  C   UNL     1      12.921  22.622  44.826  1.00  0.00     0.158 A 
BRANCH  15  18
ATOM     18  O   UNL     1      10.876  23.619  45.703  1.00  0.00    -0.504 OA
ATOM     19  H   UNL     1      10.552  24.497  46.090  1.00  0.00     0.293 HD
ENDBRANCH  15  18
BRANCH  17  20
ATOM     20  O   UNL     1      12.960  21.722  45.890  1.00  0.00    -0.504 OA
ATOM     21  H   UNL     1      12.225  21.040  46.036  1.00  0.00     0.293 HD
ENDBRANCH  17  20
ENDBRANCH   1  12
BRANCH   6  22
ATOM     22  O   UNL     1      18.338  24.164  37.863  1.00  0.00    -0.507 OA
ATOM     23  H   UNL     1      18.916  24.978  38.006  1.00  0.00     0.293 HD
ENDBRANCH   6  22
BRANCH   8  24
ATOM     24  O   UNL     1      19.545  20.052  39.993  1.00  0.00    -0.508 OA
ATOM     25  H   UNL     1      20.366  20.054  40.587  1.00  0.00     0.293 HD
ENDBRANCH   8  24
TORSDOF 5
ENDMDL
MODEL 4
REMARK VINA RESULT:    -7.190      2.466      7.626
REMARK INTER + INTRA:          -8.748
REMARK INTER:                  -8.442
REMARK INTRA:                  -0.306
REMARK UNBOUND:                -0.297
REMARK SMILES O=c1cc(-c2ccc(O)c(O)c2)oc2cc(O)cc(O)c12
REMARK SMILES IDX 4 1 3 2 2 3 1 4 21 5 19 6 18 7 16 8 15 9 14 10 13 11 5 12
REMARK SMILES IDX 6 13 7 14 8 15 12 16 10 17 9 18 11 20 20 22 17 24
REMARK H PARENT 9 19 11 21 20 23 17 25
REMARK Flexibility Score: inf
ROOT
ATOM      1  C   UNL     1      14.020  23.542  42.660  1.00  0.00     0.138 A 
ATOM      2  C   UNL     1      13.759  24.622  41.806  1.00  0.00     0.100 A 
ATOM      3  C   UNL     1      14.547  24.809  40.670  1.00  0.00     0.197 A 
ATOM      4  O   UNL     1      14.250  25.750  39.890  1.00  0.00    -0.289 OA
ATOM      5  C   UNL     1      15.621  23.925  40.406  1.00  0.00     0.107 A 
ATOM      6  C   UNL     1      16.515  24.041  39.300  1.00  0.00     0.134 A 
ATOM      7  C   UNL     1      17.469  23.041  39.075  1.00  0.00     0.093 A 
ATOM      8  C   UNL     1      17.600  21.962  39.949  1.00  0.00     0.123 A 
ATOM      9  C   UNL     1      16.766  21.866  41.064  1.00  0.00     0.094 A 
ATOM     10  C   UNL     1      15.782  22.830  41.295  1.00  0.00     0.146 A 
ATOM     11  O   UNL     1      14.999  22.694  42.360  1.00  0.00    -0.456 OA
ENDROOT
BRANCH   1  12
ATOM     12  C   UNL     1      13.213  23.297  43.883  1.00  0.00     0.021 A 
ATOM     13  C   UNL     1      12.628  24.385  44.554  1.00  0.00     0.016 A 
ATOM     14  C   UNL     1      11.857  24.182  45.701  1.00  0.00     0.051 A 
ATOM     15  C   UNL     1      11.649  22.890  46.193  1.00  0.00     0.157 A 
ATOM     16  C   UNL     1      12.988  21.997  44.375  1.00  0.00     0.062 A 
ATOM     17  C   UNL     1      12.213  21.792  45.526  1.00  0.00     0.158 A 
BRANCH  15  18
ATOM     18  O   UNL     1      10.876  22.719  47.341  1.00  0.00    -0.504 OA
ATOM     19  H   UNL     1      10.323  23.471  47.735  1.00  0.00     0.293 HD
ENDBRANCH  15  18
BRANCH  17  20
ATOM     20  O   UNL     1      12.000  20.500  46.005  1.00  0.00    -0.504 OA
ATOM     21  H   UNL     1      12.769  19.860  46.170  1.00  0.00     0.293 HD
ENDBRANCH  17  20
ENDBRANCH   1  12
BRANCH   6  22
ATOM     22  O   UNL     1      16.526  25.123  38.414  1.00  0.00    -0.507 OA
ATOM     23  H   UNL     1      15.954  25.196  37.586  1.00  0.00     0.293 HD
ENDBRANCH   6  22
BRANCH   8  24
ATOM     24  O   UNL     1      18.571  20.993  39.703  1.00  0.00    -0.508 OA
ATOM     25  H   UNL     1      19.559  21.192  39.811  1.00  0.00     0.293 HD
ENDBRANCH   8  24
TORSDOF 5
ENDMDL
MODEL 5
REMARK VINA RESULT:    -7.004      0.814      1.590
REMARK INTER + INTRA:          -8.529
REMARK INTER:                  -8.212
REMARK INTRA:                  -0.317
REMARK UNBOUND:                -0.297
REMARK SMILES O=c1cc(-c2ccc(O)c(O)c2)oc2cc(O)cc(O)c12
REMARK SMILES IDX 4 1 3 2 2 3 1 4 21 5 19 6 18 7 16 8 15 9 14 10 13 11 5 12
REMARK SMILES IDX 6 13 7 14 8 15 12 16 10 17 9 18 11 20 20 22 17 24
REMARK H PARENT 9 19 11 21 20 23 17 25
REMARK Flexibility Score: inf
ROOT
ATOM      1  C   UNL     1      17.766  22.638  39.928  1.00  0.00     0.138 A 
ATOM      2  C   UNL     1      17.587  23.757  39.104  1.00  0.00     0.100 A 
ATOM      3  C   UNL     1      16.493  24.598  39.310  1.00  0.00     0.197 A 
ATOM      4  O   UNL     1      16.393  25.628  38.595  1.00  0.00    -0.289 OA
ATOM      5  C   UNL     1      15.557  24.297  40.328  1.00  0.00     0.107 A 
ATOM      6  C   UNL     1      14.382  25.060  40.604  1.00  0.00     0.134 A 
ATOM      7  C   UNL     1      13.591  24.733  41.712  1.00  0.00     0.093 A 
ATOM      8  C   UNL     1      13.897  23.637  42.517  1.00  0.00     0.123 A 
ATOM      9  C   UNL     1      15.013  22.852  42.226  1.00  0.00     0.094 A 
ATOM     10  C   UNL     1      15.841  23.173  41.148  1.00  0.00     0.146 A 
ATOM     11  O   UNL     1      16.903  22.408  40.913  1.00  0.00    -0.456 OA
ENDROOT
BRANCH   1  12
ATOM     12  C   UNL     1      18.912  21.710  39.752  1.00  0.00     0.021 A 
ATOM     13  C   UNL     1      19.948  22.052  38.864  1.00  0.00     0.016 A 
ATOM     14  C   UNL     1      21.041  21.201  38.687  1.00  0.00     0.051 A 
ATOM     15  C   UNL     1      21.125  20.000  39.397  1.00  0.00     0.157 A 
ATOM     16  C   UNL     1      19.008  20.506  40.476  1.00  0.00     0.062 A 
ATOM     17  C   UNL     1      20.107  19.651  40.298  1.00  0.00     0.158 A 
BRANCH  15  18
ATOM     18  O   UNL     1      22.228  19.170  39.197  1.00  0.00    -0.504 OA
ATOM     19  H   UNL     1      23.160  19.432  39.499  1.00  0.00     0.293 HD
ENDBRANCH  15  18
BRANCH  17  20
ATOM     20  O   UNL     1      20.190  18.460  41.018  1.00  0.00    -0.504 OA
ATOM     21  H   UNL     1      20.772  17.691  40.707  1.00  0.00     0.293 HD
ENDBRANCH  17  20
ENDBRANCH   1  12
BRANCH   6  22
ATOM     22  O   UNL     1      13.939  26.124  39.812  1.00  0.00    -0.507 OA
ATOM     23  H   UNL     1      13.011  26.518  39.844  1.00  0.00     0.293 HD
ENDBRANCH   6  22
BRANCH   8  24
ATOM     24  O   UNL     1      13.078  23.333  43.603  1.00  0.00    -0.508 OA
ATOM     25  H   UNL     1      12.071  23.280  43.509  1.00  0.00     0.293 HD
ENDBRANCH   8  24
TORSDOF 5
ENDMDL
MODEL 6
REMARK VINA RESULT:    -6.972      1.881      7.410
REMARK INTER + INTRA:          -8.492
REMARK INTER:                  -8.224
REMARK INTRA:                  -0.268
REMARK UNBOUND:                -0.297
REMARK SMILES O=c1cc(-c2ccc(O)c(O)c2)oc2cc(O)cc(O)c12
REMARK SMILES IDX 4 1 3 2 2 3 1 4 21 5 19 6 18 7 16 8 15 9 14 10 13 11 5 12
REMARK SMILES IDX 6 13 7 14 8 15 12 16 10 17 9 18 11 20 20 22 17 24
REMARK H PARENT 9 19 11 21 20 23 17 25
REMARK Flexibility Score: inf
ROOT
ATOM      1  C   UNL     1      16.700  22.237  41.159  1.00  0.00     0.138 A 
ATOM      2  C   UNL     1      16.805  20.842  41.075  1.00  0.00     0.100 A 
ATOM      3  C   UNL     1      17.965  20.267  40.556  1.00  0.00     0.197 A 
ATOM      4  O   UNL     1      18.055  19.012  40.551  1.00  0.00    -0.289 OA
ATOM      5  C   UNL     1      19.013  21.097  40.089  1.00  0.00     0.107 A 
ATOM      6  C   UNL     1      20.224  20.623  39.502  1.00  0.00     0.134 A 
ATOM      7  C   UNL     1      21.240  21.534  39.183  1.00  0.00     0.093 A 
ATOM      8  C   UNL     1      21.064  22.903  39.374  1.00  0.00     0.123 A 
ATOM      9  C   UNL     1      19.862  23.383  39.897  1.00  0.00     0.094 A 
ATOM     10  C   UNL     1      18.844  22.497  40.256  1.00  0.00     0.146 A 
ATOM     11  O   UNL     1      17.720  22.993  40.765  1.00  0.00    -0.456 OA
ENDROOT
BRANCH   1  12
ATOM     12  C   UNL     1      15.488  22.901  41.703  1.00  0.00     0.021 A 
ATOM     13  C   UNL     1      14.781  23.813  40.901  1.00  0.00     0.016 A 
ATOM     14  C   UNL     1      13.633  24.444  41.386  1.00  0.00     0.051 A 
ATOM     15  C   UNL     1      13.166  24.170  42.675  1.00  0.00     0.157 A 
ATOM     16  C   UNL     1      15.005  22.617  42.995  1.00  0.00     0.062 A 
ATOM     17  C   UNL     1      13.852  23.250  43.483  1.00  0.00     0.158 A 
BRANCH  15  18
ATOM     18  O   UNL     1      12.018  24.817  43.131  1.00  0.00    -0.504 OA
ATOM     19  H   UNL     1      11.703  24.740  44.091  1.00  0.00     0.293 HD
ENDBRANCH  15  18
BRANCH  17  20
ATOM     20  O   UNL     1      13.385  22.963  44.764  1.00  0.00    -0.504 OA
ATOM     21  H   UNL     1      12.410  22.748  44.939  1.00  0.00     0.293 HD
ENDBRANCH  17  20
ENDBRANCH   1  12
BRANCH   6  22
ATOM     22  O   UNL     1      20.469  19.282  39.191  1.00  0.00    -0.507 OA
ATOM     23  H   UNL     1      20.365  18.874  38.274  1.00  0.00     0.293 HD
ENDBRANCH   6  22
BRANCH   8  24
ATOM     24  O   UNL     1      22.090  23.782  39.031  1.00  0.00    -0.508 OA
ATOM     25  H   UNL     1      22.205  24.118  38.082  1.00  0.00     0.293 HD
ENDBRANCH   8  24
TORSDOF 5
ENDMDL
MODEL 7
REMARK VINA RESULT:    -6.652      1.629      7.300
REMARK INTER + INTRA:          -8.115
REMARK INTER:                  -7.818
REMARK INTRA:                  -0.297
REMARK UNBOUND:                -0.297
REMARK SMILES O=c1cc(-c2ccc(O)c(O)c2)oc2cc(O)cc(O)c12
REMARK SMILES IDX 4 1 3 2 2 3 1 4 21 5 19 6 18 7 16 8 15 9 14 10 13 11 5 12
REMARK SMILES IDX 6 13 7 14 8 15 12 16 10 17 9 18 11 20 20 22 17 24
REMARK H PARENT 9 19 11 21 20 23 17 25
REMARK Flexibility Score: inf
ROOT
ATOM      1  C   UNL     1      16.604  22.297  41.106  1.00  0.00     0.138 A 
ATOM      2  C   UNL     1      16.612  20.899  41.202  1.00  0.00     0.100 A 
ATOM      3  C   UNL     1      17.723  20.183  40.755  1.00  0.00     0.197 A 
ATOM      4  O   UNL     1      17.728  18.934  40.911  1.00  0.00    -0.289 OA
ATOM      5  C   UNL     1      18.819  20.871  40.181  1.00  0.00     0.107 A 
ATOM      6  C   UNL     1      19.988  20.243  39.655  1.00  0.00     0.134 A 
ATOM      7  C   UNL     1      21.059  21.033  39.218  1.00  0.00     0.093 A 
ATOM      8  C   UNL     1      20.979  22.425  39.232  1.00  0.00     0.123 A 
ATOM      9  C   UNL     1      19.820  23.049  39.694  1.00  0.00     0.094 A 
ATOM     10  C   UNL     1      18.749  22.289  40.168  1.00  0.00     0.146 A 
ATOM     11  O   UNL     1      17.668  22.923  40.614  1.00  0.00    -0.456 OA
ENDROOT
BRANCH   1  12
ATOM     12  C   UNL     1      15.448  23.107  41.565  1.00  0.00     0.021 A 
ATOM     13  C   UNL     1      14.783  22.752  42.752  1.00  0.00     0.016 A 
ATOM     14  C   UNL     1      13.698  23.502  43.211  1.00  0.00     0.051 A 
ATOM     15  C   UNL     1      13.262  24.624  42.499  1.00  0.00     0.157 A 
ATOM     16  C   UNL     1      15.014  24.246  40.860  1.00  0.00     0.062 A 
ATOM     17  C   UNL     1      13.925  25.001  41.320  1.00  0.00     0.158 A 
BRANCH  15  18
ATOM     18  O   UNL     1      12.175  25.352  42.981  1.00  0.00    -0.504 OA
ATOM     19  H   UNL     1      11.452  25.709  42.368  1.00  0.00     0.293 HD
ENDBRANCH  15  18
BRANCH  17  20
ATOM     20  O   UNL     1      13.503  26.125  40.612  1.00  0.00    -0.504 OA
ATOM     21  H   UNL     1      13.902  26.367  39.712  1.00  0.00     0.293 HD
ENDBRANCH  17  20
ENDBRANCH   1  12
BRANCH   6  22
ATOM     22  O   UNL     1      20.136  18.860  39.518  1.00  0.00    -0.507 OA
ATOM     23  H   UNL     1      19.575  18.276  38.916  1.00  0.00     0.293 HD
ENDBRANCH   6  22
BRANCH   8  24
ATOM     24  O   UNL     1      22.059  23.179  38.775  1.00  0.00    -0.508 OA
ATOM     25  H   UNL     1      22.837  22.749  38.289  1.00  0.00     0.293 HD
ENDBRANCH   8  24
TORSDOF 5
ENDMDL
MODEL 8
REMARK VINA RESULT:    -6.412     13.842     16.939
REMARK INTER + INTRA:          -7.834
REMARK INTER:                  -7.532
REMARK INTRA:                  -0.301
REMARK UNBOUND:                -0.297
REMARK SMILES O=c1cc(-c2ccc(O)c(O)c2)oc2cc(O)cc(O)c12
REMARK SMILES IDX 4 1 3 2 2 3 1 4 21 5 19 6 18 7 16 8 15 9 14 10 13 11 5 12
REMARK SMILES IDX 6 13 7 14 8 15 12 16 10 17 9 18 11 20 20 22 17 24
REMARK H PARENT 9 19 11 21 20 23 17 25
REMARK Flexibility Score: inf
ROOT
ATOM      1  C   UNL     1      29.572  10.822  37.393  1.00  0.00     0.138 A 
ATOM      2  C   UNL     1      30.562  11.747  37.038  1.00  0.00     0.100 A 
ATOM      3  C   UNL     1      30.228  12.845  36.245  1.00  0.00     0.197 A 
ATOM      4  O   UNL     1      31.124  13.692  35.994  1.00  0.00    -0.289 OA
ATOM      5  C   UNL     1      28.899  12.999  35.780  1.00  0.00     0.107 A 
ATOM      6  C   UNL     1      28.452  14.057  34.933  1.00  0.00     0.134 A 
ATOM      7  C   UNL     1      27.089  14.171  34.632  1.00  0.00     0.093 A 
ATOM      8  C   UNL     1      26.168  13.233  35.098  1.00  0.00     0.123 A 
ATOM      9  C   UNL     1      26.602  12.164  35.883  1.00  0.00     0.094 A 
ATOM     10  C   UNL     1      27.950  12.043  36.228  1.00  0.00     0.146 A 
ATOM     11  O   UNL     1      28.321  11.018  36.990  1.00  0.00    -0.456 OA
ENDROOT
BRANCH   1  12
ATOM     12  C   UNL     1      29.873   9.635  38.235  1.00  0.00     0.021 A 
ATOM     13  C   UNL     1      30.829   9.741  39.261  1.00  0.00     0.016 A 
ATOM     14  C   UNL     1      31.124   8.643  40.072  1.00  0.00     0.051 A 
ATOM     15  C   UNL     1      30.467   7.424  39.880  1.00  0.00     0.157 A 
ATOM     16  C   UNL     1      29.203   8.410  38.055  1.00  0.00     0.062 A 
ATOM     17  C   UNL     1      29.499   7.307  38.869  1.00  0.00     0.158 A 
BRANCH  15  18
ATOM     18  O   UNL     1      30.785   6.345  40.704  1.00  0.00    -0.504 OA
ATOM     19  H   UNL     1      30.252   6.131  41.539  1.00  0.00     0.293 HD
ENDBRANCH  15  18
BRANCH  17  20
ATOM     20  O   UNL     1      28.832   6.098  38.680  1.00  0.00    -0.504 OA
ATOM     21  H   UNL     1      28.173   5.742  39.364  1.00  0.00     0.293 HD
ENDBRANCH  17  20
ENDBRANCH   1  12
BRANCH   6  22
ATOM     22  O   UNL     1      29.302  14.998  34.345  1.00  0.00    -0.507 OA
ATOM     23  H   UNL     1      30.236  15.209  34.661  1.00  0.00     0.293 HD
ENDBRANCH   6  22
BRANCH   8  24
ATOM     24  O   UNL     1      24.822  13.370  34.766  1.00  0.00    -0.508 OA
ATOM     25  H   UNL     1      24.531  13.708  33.856  1.00  0.00     0.293 HD
ENDBRANCH   8  24
TORSDOF 5
ENDMDL
MODEL 9
REMARK VINA RESULT:    -5.884     15.978     17.983
REMARK INTER + INTRA:          -7.213
REMARK INTER:                  -6.899
REMARK INTRA:                  -0.314
REMARK UNBOUND:                -0.297
REMARK SMILES O=c1cc(-c2ccc(O)c(O)c2)oc2cc(O)cc(O)c12
REMARK SMILES IDX 4 1 3 2 2 3 1 4 21 5 19 6 18 7 16 8 15 9 14 10 13 11 5 12
REMARK SMILES IDX 6 13 7 14 8 15 12 16 10 17 9 18 11 20 20 22 17 24
REMARK H PARENT 9 19 11 21 20 23 17 25
REMARK Flexibility Score: inf
ROOT
ATOM      1  C   UNL     1      30.575  10.914  39.743  1.00  0.00     0.138 A 
ATOM      2  C   UNL     1      30.825   9.740  39.020  1.00  0.00     0.100 A 
ATOM      3  C   UNL     1      30.837   9.779  37.625  1.00  0.00     0.197 A 
ATOM      4  O   UNL     1      31.125   8.723  37.004  1.00  0.00    -0.289 OA
ATOM      5  C   UNL     1      30.565  10.994  36.952  1.00  0.00     0.107 A 
ATOM      6  C   UNL     1      30.509  11.144  35.534  1.00  0.00     0.134 A 
ATOM      7  C   UNL     1      30.348  12.420  34.980  1.00  0.00     0.093 A 
ATOM      8  C   UNL     1      30.179  13.541  35.792  1.00  0.00     0.123 A 
ATOM      9  C   UNL     1      30.177  13.399  37.180  1.00  0.00     0.094 A 
ATOM     10  C   UNL     1      30.371  12.145  37.762  1.00  0.00     0.146 A 
ATOM     11  O   UNL     1      30.378  12.054  39.089  1.00  0.00    -0.456 OA
ENDROOT
BRANCH   1  12
ATOM     12  C   UNL     1      30.551  10.929  41.228  1.00  0.00     0.021 A 
ATOM     13  C   UNL     1      31.119   9.857  41.939  1.00  0.00     0.016 A 
ATOM     14  C   UNL     1      31.117   9.851  43.336  1.00  0.00     0.051 A 
ATOM     15  C   UNL     1      30.558  10.917  44.047  1.00  0.00     0.157 A 
ATOM     16  C   UNL     1      30.002  12.007  41.949  1.00  0.00     0.062 A 
ATOM     17  C   UNL     1      30.001  12.001  43.352  1.00  0.00     0.158 A 
BRANCH  15  18
ATOM     18  O   UNL     1      30.570  10.881  45.441  1.00  0.00    -0.504 OA
ATOM     19  H   UNL     1      30.117  11.594  46.001  1.00  0.00     0.293 HD
ENDBRANCH  15  18
BRANCH  17  20
ATOM     20  O   UNL     1      29.452  13.073  44.055  1.00  0.00    -0.504 OA
ATOM     21  H   UNL     1      30.027  13.835  44.396  1.00  0.00     0.293 HD
ENDBRANCH  17  20
ENDBRANCH   1  12
BRANCH   6  22
ATOM     22  O   UNL     1      30.582  10.078  34.633  1.00  0.00    -0.507 OA
ATOM     23  H   UNL     1      30.880  10.154  33.672  1.00  0.00     0.293 HD
ENDBRANCH   6  22
BRANCH   8  24
ATOM     24  O   UNL     1      30.005  14.793  35.206  1.00  0.00    -0.508 OA
ATOM     25  H   UNL     1      29.813  14.894  34.216  1.00  0.00     0.293 HD
ENDBRANCH   8  24
TORSDOF 5
ENDMDL
