MODEL 1
REMARK VINA RESULT:    -4.421      0.000      0.000
REMARK INTER + INTRA:          -7.441
REMARK INTER:                  -7.006
REMARK INTRA:                  -0.435
REMARK UNBOUND:                -0.435
REMARK SMILES CCCCCCCCCCCC(=O)[O-]
REMARK SMILES IDX 7 1 8 2 9 3 10 4 11 5 12 6 13 7 14 8 6 9 5 10 4 11 3 12 2 13
REMARK SMILES IDX 1 14
REMARK H PARENT
REMARK Flexibility Score: inf
ROOT
ATOM      1  C   UNL     1      12.081   0.913  67.207  1.00  0.00     0.000 C 
ENDROOT
BRANCH   1   2
ATOM      2  C   UNL     1      10.582   1.212  67.386  1.00  0.00     0.000 C 
BRANCH   2   3
ATOM      3  C   UNL     1      10.264   2.713  67.216  1.00  0.00     0.000 C 
BRANCH   3   4
ATOM      4  C   UNL     1       8.886   3.117  67.769  1.00  0.00     0.006 C 
BRANCH   4   5
ATOM      5  C   UNL     1       8.077   1.922  68.286  1.00  0.00     0.053 C 
BRANCH   5   6
ATOM      6  C   UNL     1       6.673   2.336  68.593  1.00  0.00     0.041 C 
ATOM      7  O   UNL     1       5.991   2.952  67.733  1.00  0.00    -0.550 OA
ATOM      8  O   UNL     1       6.133   2.084  69.849  1.00  0.00    -0.550 OA
ENDBRANCH   5   6
ENDBRANCH   4   5
ENDBRANCH   3   4
ENDBRANCH   2   3
ENDBRANCH   1   2
BRANCH   1   9
ATOM      9  C   UNL     1      12.350  -0.183  66.165  1.00  0.00     0.000 C 
BRANCH   9  10
ATOM     10  C   UNL     1      11.605  -1.492  66.476  1.00  0.00    -0.000 C 
BRANCH  10  11
ATOM     11  C   UNL     1      11.600  -2.465  65.287  1.00  0.00    -0.000 C 
BRANCH  11  12
ATOM     12  C   UNL     1      10.911  -1.881  64.044  1.00  0.00    -0.000 C 
BRANCH  12  13
ATOM     13  C   UNL     1       9.871  -2.858  63.484  1.00  0.00    -0.003 C 
ATOM     14  C   UNL     1      10.157  -3.189  62.021  1.00  0.00     0.004 C 
ENDBRANCH  12  13
ENDBRANCH  11  12
ENDBRANCH  10  11
ENDBRANCH   9  10
ENDBRANCH   1   9
TORSDOF 10
ENDMDL
MODEL 2
REMARK VINA RESULT:    -4.377      1.999      2.759
REMARK INTER + INTRA:          -7.372
REMARK INTER:                  -6.838
REMARK INTRA:                  -0.534
REMARK UNBOUND:                -0.435
REMARK SMILES CCCCCCCCCCCC(=O)[O-]
REMARK SMILES IDX 7 1 8 2 9 3 10 4 11 5 12 6 13 7 14 8 6 9 5 10 4 11 3 12 2 13
REMARK SMILES IDX 1 14
REMARK H PARENT
REMARK Flexibility Score: inf
ROOT
ATOM      1  C   UNL     1      12.937  -0.403  65.491  1.00  0.00     0.000 C 
ENDROOT
BRANCH   1   2
ATOM      2  C   UNL     1      13.125   1.124  65.451  1.00  0.00     0.000 C 
BRANCH   2   3
ATOM      3  C   UNL     1      12.181   1.799  64.433  1.00  0.00     0.000 C 
BRANCH   3   4
ATOM      4  C   UNL     1      11.383   2.976  65.019  1.00  0.00     0.006 C 
BRANCH   4   5
ATOM      5  C   UNL     1      10.005   2.560  65.545  1.00  0.00     0.053 C 
BRANCH   5   6
ATOM      6  C   UNL     1       9.925   2.768  67.024  1.00  0.00     0.041 C 
ATOM      7  O   UNL     1       8.807   2.903  67.585  1.00  0.00    -0.550 OA
ATOM      8  O   UNL     1      11.089   2.863  67.776  1.00  0.00    -0.550 OA
ENDBRANCH   5   6
ENDBRANCH   4   5
ENDBRANCH   3   4
ENDBRANCH   2   3
ENDBRANCH   1   2
BRANCH   1   9
ATOM      9  C   UNL     1      11.660  -0.827  66.233  1.00  0.00     0.000 C 
BRANCH   9  10
ATOM     10  C   UNL     1      11.555  -2.351  66.408  1.00  0.00    -0.000 C 
BRANCH  10  11
ATOM     11  C   UNL     1      11.292  -3.080  65.081  1.00  0.00    -0.000 C 
BRANCH  11  12
ATOM     12  C   UNL     1      10.641  -2.175  64.024  1.00  0.00    -0.000 C 
BRANCH  12  13
ATOM     13  C   UNL     1       9.696  -2.977  63.122  1.00  0.00    -0.003 C 
ATOM     14  C   UNL     1      10.336  -3.258  61.765  1.00  0.00     0.004 C 
ENDBRANCH  12  13
ENDBRANCH  11  12
ENDBRANCH  10  11
ENDBRANCH   9  10
ENDBRANCH   1   9
TORSDOF 10
ENDMDL
MODEL 3
REMARK VINA RESULT:    -4.230     10.339     12.351
REMARK INTER + INTRA:          -7.139
REMARK INTER:                  -6.668
REMARK INTRA:                  -0.470
REMARK UNBOUND:                -0.435
REMARK SMILES CCCCCCCCCCCC(=O)[O-]
REMARK SMILES IDX 7 1 8 2 9 3 10 4 11 5 12 6 13 7 14 8 6 9 5 10 4 11 3 12 2 13
REMARK SMILES IDX 1 14
REMARK H PARENT
REMARK Flexibility Score: inf
ROOT
ATOM      1  C   UNL     1       2.817   0.527  57.346  1.00  0.00     0.000 C 
ENDROOT
BRANCH   1   2
ATOM      2  C   UNL     1       1.623   1.310  57.920  1.00  0.00     0.000 C 
BRANCH   2   3
ATOM      3  C   UNL     1       0.376   0.418  58.100  1.00  0.00     0.000 C 
BRANCH   3   4
ATOM      4  C   UNL     1       0.337  -0.787  57.143  1.00  0.00     0.006 C 
BRANCH   4   5
ATOM      5  C   UNL     1      -0.244  -2.047  57.793  1.00  0.00     0.053 C 
BRANCH   5   6
ATOM      6  C   UNL     1      -1.696  -1.856  58.096  1.00  0.00     0.041 C 
ATOM      7  O   UNL     1      -2.476  -1.418  57.210  1.00  0.00    -0.550 OA
ATOM      8  O   UNL     1      -2.180  -2.115  59.373  1.00  0.00    -0.550 OA
ENDBRANCH   5   6
ENDBRANCH   4   5
ENDBRANCH   3   4
ENDBRANCH   2   3
ENDBRANCH   1   2
BRANCH   1   9
ATOM      9  C   UNL     1       4.172   1.144  57.724  1.00  0.00     0.000 C 
BRANCH   9  10
ATOM     10  C   UNL     1       4.608   2.255  56.754  1.00  0.00    -0.000 C 
BRANCH  10  11
ATOM     11  C   UNL     1       6.032   2.760  57.037  1.00  0.00    -0.000 C 
BRANCH  11  12
ATOM     12  C   UNL     1       6.704   2.020  58.204  1.00  0.00    -0.000 C 
BRANCH  12  13
ATOM     13  C   UNL     1       8.067   2.639  58.534  1.00  0.00    -0.003 C 
ATOM     14  C   UNL     1       9.032   2.507  57.358  1.00  0.00     0.004 C 
ENDBRANCH  12  13
ENDBRANCH  11  12
ENDBRANCH  10  11
ENDBRANCH   9  10
ENDBRANCH   1   9
TORSDOF 10
ENDMDL
MODEL 4
REMARK VINA RESULT:    -3.761     16.074     17.687
REMARK INTER + INTRA:          -6.396
REMARK INTER:                  -4.810
REMARK INTRA:                  -1.585
REMARK UNBOUND:                -0.435
REMARK SMILES CCCCCCCCCCCC(=O)[O-]
REMARK SMILES IDX 7 1 8 2 9 3 10 4 11 5 12 6 13 7 14 8 6 9 5 10 4 11 3 12 2 13
REMARK SMILES IDX 1 14
REMARK H PARENT
REMARK Flexibility Score: inf
ROOT
ATOM      1  C   UNL     1       5.555 -16.525  62.468  1.00  0.00     0.000 C 
ENDROOT
BRANCH   1   2
ATOM      2  C   UNL     1       6.268 -16.382  61.111  1.00  0.00     0.000 C 
BRANCH   2   3
ATOM      3  C   UNL     1       6.372 -14.908  60.662  1.00  0.00     0.000 C 
BRANCH   3   4
ATOM      4  C   UNL     1       7.749 -14.536  60.087  1.00  0.00     0.006 C 
BRANCH   4   5
ATOM      5  C   UNL     1       8.630 -15.759  59.808  1.00  0.00     0.053 C 
BRANCH   5   6
ATOM      6  C   UNL     1       9.533 -15.498  58.645  1.00  0.00     0.041 C 
ATOM      7  O   UNL     1      10.780 -15.442  58.810  1.00  0.00    -0.550 OA
ATOM      8  O   UNL     1       8.995 -15.267  57.384  1.00  0.00    -0.550 OA
ENDBRANCH   5   6
ENDBRANCH   4   5
ENDBRANCH   3   4
ENDBRANCH   2   3
ENDBRANCH   1   2
BRANCH   1   9
ATOM      9  C   UNL     1       5.473 -15.200  63.240  1.00  0.00     0.000 C 
BRANCH   9  10
ATOM     10  C   UNL     1       5.820 -15.360  64.730  1.00  0.00    -0.000 C 
BRANCH  10  11
ATOM     11  C   UNL     1       7.331 -15.262  64.997  1.00  0.00    -0.000 C 
BRANCH  11  12
ATOM     12  C   UNL     1       8.053 -14.349  63.995  1.00  0.00    -0.000 C 
BRANCH  12  13
ATOM     13  C   UNL     1       9.286 -15.046  63.408  1.00  0.00    -0.003 C 
ATOM     14  C   UNL     1       9.163 -16.564  63.512  1.00  0.00     0.004 C 
ENDBRANCH  12  13
ENDBRANCH  11  12
ENDBRANCH  10  11
ENDBRANCH   9  10
ENDBRANCH   1   9
TORSDOF 10
ENDMDL
MODEL 5
REMARK VINA RESULT:    -3.748      5.170      7.207
REMARK INTER + INTRA:          -6.375
REMARK INTER:                  -5.058
REMARK INTRA:                  -1.317
REMARK UNBOUND:                -0.435
REMARK SMILES CCCCCCCCCCCC(=O)[O-]
REMARK SMILES IDX 7 1 8 2 9 3 10 4 11 5 12 6 13 7 14 8 6 9 5 10 4 11 3 12 2 13
REMARK SMILES IDX 1 14
REMARK H PARENT
REMARK Flexibility Score: inf
ROOT
ATOM      1  C   UNL     1       1.801  -0.524  66.217  1.00  0.00     0.000 C 
ENDROOT
BRANCH   1   2
ATOM      2  C   UNL     1       2.187   0.450  67.343  1.00  0.00     0.000 C 
BRANCH   2   3
ATOM      3  C   UNL     1       3.621   0.996  67.173  1.00  0.00     0.000 C 
BRANCH   3   4
ATOM      4  C   UNL     1       4.218   1.575  68.468  1.00  0.00     0.006 C 
BRANCH   4   5
ATOM      5  C   UNL     1       5.358   2.566  68.209  1.00  0.00     0.053 C 
BRANCH   5   6
ATOM      6  C   UNL     1       6.681   1.918  68.467  1.00  0.00     0.041 C 
ATOM      7  O   UNL     1       7.749   2.541  68.231  1.00  0.00    -0.550 OA
ATOM      8  O   UNL     1       6.736   0.606  68.923  1.00  0.00    -0.550 OA
ENDBRANCH   5   6
ENDBRANCH   4   5
ENDBRANCH   3   4
ENDBRANCH   2   3
ENDBRANCH   1   2
BRANCH   1   9
ATOM      9  C   UNL     1       3.017  -1.044  65.435  1.00  0.00     0.000 C 
BRANCH   9  10
ATOM     10  C   UNL     1       3.041  -2.578  65.328  1.00  0.00    -0.000 C 
BRANCH  10  11
ATOM     11  C   UNL     1       3.015  -3.266  66.702  1.00  0.00    -0.000 C 
BRANCH  11  12
ATOM     12  C   UNL     1       4.381  -3.239  67.405  1.00  0.00    -0.000 C 
BRANCH  12  13
ATOM     13  C   UNL     1       4.322  -2.398  68.685  1.00  0.00    -0.003 C 
ATOM     14  C   UNL     1       2.982  -2.567  69.396  1.00  0.00     0.004 C 
ENDBRANCH  12  13
ENDBRANCH  11  12
ENDBRANCH  10  11
ENDBRANCH   9  10
ENDBRANCH   1   9
TORSDOF 10
ENDMDL
MODEL 6
REMARK VINA RESULT:    -3.720     17.210     18.689
REMARK INTER + INTRA:          -6.329
REMARK INTER:                  -5.168
REMARK INTRA:                  -1.162
REMARK UNBOUND:                -0.435
REMARK SMILES CCCCCCCCCCCC(=O)[O-]
REMARK SMILES IDX 7 1 8 2 9 3 10 4 11 5 12 6 13 7 14 8 6 9 5 10 4 11 3 12 2 13
REMARK SMILES IDX 1 14
REMARK H PARENT
REMARK Flexibility Score: inf
ROOT
ATOM      1  C   UNL     1      -3.705 -10.835  66.636  1.00  0.00     0.000 C 
ENDROOT
BRANCH   1   2
ATOM      2  C   UNL     1      -3.603 -10.942  65.104  1.00  0.00     0.000 C 
BRANCH   2   3
ATOM      3  C   UNL     1      -4.893 -10.466  64.401  1.00  0.00     0.000 C 
BRANCH   3   4
ATOM      4  C   UNL     1      -5.884  -9.761  65.345  1.00  0.00     0.006 C 
BRANCH   4   5
ATOM      5  C   UNL     1      -6.385  -8.422  64.792  1.00  0.00     0.053 C 
BRANCH   5   6
ATOM      6  C   UNL     1      -5.365  -7.351  65.014  1.00  0.00     0.041 C 
ATOM      7  O   UNL     1      -4.650  -7.361  66.050  1.00  0.00    -0.550 OA
ATOM      8  O   UNL     1      -5.238  -6.312  64.100  1.00  0.00    -0.550 OA
ENDBRANCH   5   6
ENDBRANCH   4   5
ENDBRANCH   3   4
ENDBRANCH   2   3
ENDBRANCH   1   2
BRANCH   1   9
ATOM      9  C   UNL     1      -4.240 -12.119  67.288  1.00  0.00     0.000 C 
BRANCH   9  10
ATOM     10  C   UNL     1      -3.697 -13.394  66.619  1.00  0.00    -0.000 C 
BRANCH  10  11
ATOM     11  C   UNL     1      -4.809 -14.395  66.268  1.00  0.00    -0.000 C 
BRANCH  11  12
ATOM     12  C   UNL     1      -5.454 -14.112  64.902  1.00  0.00    -0.000 C 
BRANCH  12  13
ATOM     13  C   UNL     1      -4.483 -14.436  63.760  1.00  0.00    -0.003 C 
ATOM     14  C   UNL     1      -5.025 -13.947  62.420  1.00  0.00     0.004 C 
ENDBRANCH  12  13
ENDBRANCH  11  12
ENDBRANCH  10  11
ENDBRANCH   9  10
ENDBRANCH   1   9
TORSDOF 10
ENDMDL
MODEL 7
REMARK VINA RESULT:    -3.720     17.852     19.543
REMARK INTER + INTRA:          -6.329
REMARK INTER:                  -5.072
REMARK INTRA:                  -1.258
REMARK UNBOUND:                -0.435
REMARK SMILES CCCCCCCCCCCC(=O)[O-]
REMARK SMILES IDX 7 1 8 2 9 3 10 4 11 5 12 6 13 7 14 8 6 9 5 10 4 11 3 12 2 13
REMARK SMILES IDX 1 14
REMARK H PARENT
REMARK Flexibility Score: inf
ROOT
ATOM      1  C   UNL     1      -4.587 -14.097  68.591  1.00  0.00     0.000 C 
ENDROOT
BRANCH   1   2
ATOM      2  C   UNL     1      -3.609 -13.022  68.087  1.00  0.00     0.000 C 
BRANCH   2   3
ATOM      3  C   UNL     1      -4.094 -11.594  68.417  1.00  0.00     0.000 C 
BRANCH   3   4
ATOM      4  C   UNL     1      -3.909 -10.598  67.258  1.00  0.00     0.006 C 
BRANCH   4   5
ATOM      5  C   UNL     1      -3.463 -11.273  65.957  1.00  0.00     0.053 C 
BRANCH   5   6
ATOM      6  C   UNL     1      -3.873 -10.452  64.776  1.00  0.00     0.041 C 
ATOM      7  O   UNL     1      -5.048 -10.523  64.330  1.00  0.00    -0.550 OA
ATOM      8  O   UNL     1      -2.941  -9.643  64.135  1.00  0.00    -0.550 OA
ENDBRANCH   5   6
ENDBRANCH   4   5
ENDBRANCH   3   4
ENDBRANCH   2   3
ENDBRANCH   1   2
BRANCH   1   9
ATOM      9  C   UNL     1      -5.313 -14.824  67.448  1.00  0.00     0.000 C 
BRANCH   9  10
ATOM     10  C   UNL     1      -6.193 -13.881  66.611  1.00  0.00    -0.000 C 
BRANCH  10  11
ATOM     11  C   UNL     1      -5.960 -14.043  65.100  1.00  0.00    -0.000 C 
BRANCH  11  12
ATOM     12  C   UNL     1      -4.525 -14.478  64.764  1.00  0.00    -0.000 C 
BRANCH  12  13
ATOM     13  C   UNL     1      -4.063 -13.862  63.438  1.00  0.00    -0.003 C 
ATOM     14  C   UNL     1      -5.173 -13.906  62.392  1.00  0.00     0.004 C 
ENDBRANCH  12  13
ENDBRANCH  11  12
ENDBRANCH  10  11
ENDBRANCH   9  10
ENDBRANCH   1   9
TORSDOF 10
ENDMDL
MODEL 8
REMARK VINA RESULT:    -3.694     15.898     17.606
REMARK INTER + INTRA:          -6.289
REMARK INTER:                  -5.441
REMARK INTRA:                  -0.848
REMARK UNBOUND:                -0.435
REMARK SMILES CCCCCCCCCCCC(=O)[O-]
REMARK SMILES IDX 7 1 8 2 9 3 10 4 11 5 12 6 13 7 14 8 6 9 5 10 4 11 3 12 2 13
REMARK SMILES IDX 1 14
REMARK H PARENT
REMARK Flexibility Score: inf
ROOT
ATOM      1  C   UNL     1      -4.704 -10.536  65.605  1.00  0.00     0.000 C 
ENDROOT
BRANCH   1   2
ATOM      2  C   UNL     1      -3.545 -10.798  64.626  1.00  0.00     0.000 C 
BRANCH   2   3
ATOM      3  C   UNL     1      -3.009  -9.493  63.999  1.00  0.00     0.000 C 
BRANCH   3   4
ATOM      4  C   UNL     1      -3.356  -8.232  64.810  1.00  0.00     0.006 C 
BRANCH   4   5
ATOM      5  C   UNL     1      -3.004  -6.934  64.074  1.00  0.00     0.053 C 
BRANCH   5   6
ATOM      6  C   UNL     1      -2.444  -5.928  65.028  1.00  0.00     0.041 C 
ATOM      7  O   UNL     1      -1.917  -6.302  66.107  1.00  0.00    -0.550 OA
ATOM      8  O   UNL     1      -2.549  -4.571  64.747  1.00  0.00    -0.550 OA
ENDBRANCH   5   6
ENDBRANCH   4   5
ENDBRANCH   3   4
ENDBRANCH   2   3
ENDBRANCH   1   2
BRANCH   1   9
ATOM      9  C   UNL     1      -4.864 -11.650  66.651  1.00  0.00     0.000 C 
BRANCH   9  10
ATOM     10  C   UNL     1      -3.771 -12.727  66.540  1.00  0.00    -0.000 C 
BRANCH  10  11
ATOM     11  C   UNL     1      -4.345 -14.122  66.245  1.00  0.00    -0.000 C 
BRANCH  11  12
ATOM     12  C   UNL     1      -4.163 -14.542  64.778  1.00  0.00    -0.000 C 
BRANCH  12  13
ATOM     13  C   UNL     1      -5.313 -14.017  63.911  1.00  0.00    -0.003 C 
ATOM     14  C   UNL     1      -4.931 -14.012  62.433  1.00  0.00     0.004 C 
ENDBRANCH  12  13
ENDBRANCH  11  12
ENDBRANCH  10  11
ENDBRANCH   9  10
ENDBRANCH   1   9
TORSDOF 10
ENDMDL
