MODEL 1
REMARK VINA RESULT:    -7.731      0.000      0.000
REMARK INTER + INTRA:         -12.819
REMARK INTER:                 -11.346
REMARK INTRA:                  -1.473
REMARK UNBOUND:                -1.473
REMARK SMILES O=c1c(O[C@@H]2O[C@@H](CO)[C@H](O)[C@H](O)[C@@H]2O)c(-c2ccc(O)c(O)c2)oc2cc(O)cc(O)c12
REMARK SMILES IDX 4 1 3 2 16 3 25 4 2 5 26 6 1 7 33 8 27 9 31 10 28 11 30 12
REMARK SMILES IDX 17 13 18 14 19 15 20 16 24 17 22 18 21 19 23 21 32 23 29 25
REMARK SMILES IDX 5 27 14 28 6 29 12 30 7 31 10 32 15 33 13 35 8 37 9 38 11 40
REMARK H PARENT 21 20 23 22 32 24 29 26 15 34 13 36 9 39 11 41
REMARK Flexibility Score: inf
ROOT
ATOM      1  O   UNL     1      53.233  -7.038  81.087  1.00  0.00    -0.454 OA
ENDROOT
BRANCH   1   2
ATOM      2  C   UNL     1      52.893  -5.784  81.629  1.00  0.00     0.214 A 
ATOM      3  C   UNL     1      51.544  -5.366  81.588  1.00  0.00     0.180 A 
ATOM      4  O   UNL     1      51.202  -4.167  82.047  1.00  0.00    -0.452 OA
ATOM      5  C   UNL     1      53.845  -4.910  82.191  1.00  0.00     0.239 A 
ATOM      6  C   UNL     1      52.070  -3.306  82.561  1.00  0.00     0.146 A 
ATOM      7  O   UNL     1      55.057  -5.247  82.246  1.00  0.00    -0.285 OA
ATOM      8  C   UNL     1      53.438  -3.645  82.671  1.00  0.00     0.111 A 
ATOM      9  C   UNL     1      51.612  -2.058  82.993  1.00  0.00     0.094 A 
ATOM     10  C   UNL     1      54.333  -2.705  83.238  1.00  0.00     0.134 A 
ATOM     11  C   UNL     1      52.499  -1.132  83.540  1.00  0.00     0.123 A 
ATOM     12  C   UNL     1      53.854  -1.457  83.666  1.00  0.00     0.093 A 
BRANCH   3  13
ATOM     13  C   UNL     1      50.468  -6.254  81.098  1.00  0.00     0.025 A 
ATOM     14  C   UNL     1      49.883  -7.231  81.918  1.00  0.00     0.016 A 
ATOM     15  C   UNL     1      48.820  -8.004  81.445  1.00  0.00     0.051 A 
ATOM     16  C   UNL     1      48.351  -7.846  80.136  1.00  0.00     0.157 A 
ATOM     17  C   UNL     1      50.022  -6.117  79.773  1.00  0.00     0.062 A 
ATOM     18  C   UNL     1      48.969  -6.899  79.285  1.00  0.00     0.158 A 
BRANCH  16  19
ATOM     19  O   UNL     1      47.285  -8.647  79.723  1.00  0.00    -0.504 OA
ATOM     20  H   UNL     1      46.331  -8.518  80.029  1.00  0.00     0.293 HD
ENDBRANCH  16  19
BRANCH  18  21
ATOM     21  O   UNL     1      48.565  -6.691  77.966  1.00  0.00    -0.504 OA
ATOM     22  H   UNL     1      47.727  -6.196  77.702  1.00  0.00     0.293 HD
ENDBRANCH  18  21
ENDBRANCH   3  13
BRANCH  10  23
ATOM     23  O   UNL     1      55.692  -2.998  83.376  1.00  0.00    -0.507 OA
ATOM     24  H   UNL     1      56.329  -2.362  83.843  1.00  0.00     0.293 HD
ENDBRANCH  10  23
BRANCH  11  25
ATOM     25  O   UNL     1      52.026   0.112  83.954  1.00  0.00    -0.508 OA
ATOM     26  H   UNL     1      52.236   0.957  83.437  1.00  0.00     0.293 HD
ENDBRANCH  11  25
ENDBRANCH   1   2
BRANCH   1  27
ATOM     27  C   UNL     1      53.359  -8.271  81.805  1.00  0.00     0.339 C 
ATOM     28  C   UNL     1      53.109  -9.468  80.870  1.00  0.00     0.214 C 
ATOM     29  O   UNL     1      54.616  -8.406  82.446  1.00  0.00    -0.332 OA
ATOM     30  C   UNL     1      54.257  -9.666  79.854  1.00  0.00     0.180 C 
ATOM     31  C   UNL     1      55.686  -8.341  81.519  1.00  0.00     0.179 C 
ATOM     32  C   UNL     1      55.643  -9.538  80.532  1.00  0.00     0.177 C 
BRANCH  28  33
ATOM     33  O   UNL     1      51.878  -9.316  80.217  1.00  0.00    -0.384 OA
ATOM     34  H   UNL     1      51.176  -9.372  80.916  1.00  0.00     0.211 HD
ENDBRANCH  28  33
BRANCH  30  35
ATOM     35  O   UNL     1      54.142  -8.823  78.732  1.00  0.00    -0.387 OA
ATOM     36  H   UNL     1      54.324  -7.897  79.031  1.00  0.00     0.211 HD
ENDBRANCH  30  35
BRANCH  31  37
ATOM     37  C   UNL     1      57.006  -8.350  82.311  1.00  0.00     0.191 C 
BRANCH  37  38
ATOM     38  O   UNL     1      57.981  -7.561  81.680  1.00  0.00    -0.394 OA
ATOM     39  H   UNL     1      58.558  -7.186  82.397  1.00  0.00     0.210 HD
ENDBRANCH  37  38
ENDBRANCH  31  37
BRANCH  32  40
ATOM     40  O   UNL     1      56.643  -9.380  79.560  1.00  0.00    -0.387 OA
ATOM     41  H   UNL     1      56.481  -8.493  79.140  1.00  0.00     0.211 HD
ENDBRANCH  32  40
ENDBRANCH   1  27
TORSDOF 12
ENDMDL
MODEL 2
REMARK VINA RESULT:    -6.992     10.177     14.077
REMARK INTER + INTRA:         -11.735
REMARK INTER:                  -9.634
REMARK INTRA:                  -2.101
REMARK UNBOUND:                -1.473
REMARK SMILES O=c1c(O[C@@H]2O[C@@H](CO)[C@H](O)[C@H](O)[C@@H]2O)c(-c2ccc(O)c(O)c2)oc2cc(O)cc(O)c12
REMARK SMILES IDX 4 1 3 2 16 3 25 4 2 5 26 6 1 7 33 8 27 9 31 10 28 11 30 12
REMARK SMILES IDX 17 13 18 14 19 15 20 16 24 17 22 18 21 19 23 21 32 23 29 25
REMARK SMILES IDX 5 27 14 28 6 29 12 30 7 31 10 32 15 33 13 35 8 37 9 38 11 40
REMARK H PARENT 21 20 23 22 32 24 29 26 15 34 13 36 9 39 11 41
REMARK Flexibility Score: inf
ROOT
ATOM      1  O   UNL     1      55.317   5.971  81.332  1.00  0.00    -0.454 OA
ENDROOT
BRANCH   1   2
ATOM      2  C   UNL     1      54.498   5.314  80.394  1.00  0.00     0.214 A 
ATOM      3  C   UNL     1      54.813   5.420  79.021  1.00  0.00     0.180 A 
ATOM      4  O   UNL     1      54.029   4.852  78.110  1.00  0.00    -0.452 OA
ATOM      5  C   UNL     1      53.356   4.572  80.761  1.00  0.00     0.239 A 
ATOM      6  C   UNL     1      52.934   4.167  78.412  1.00  0.00     0.146 A 
ATOM      7  O   UNL     1      53.044   4.454  81.975  1.00  0.00    -0.285 OA
ATOM      8  C   UNL     1      52.553   3.981  79.761  1.00  0.00     0.111 A 
ATOM      9  C   UNL     1      52.163   3.631  77.377  1.00  0.00     0.094 A 
ATOM     10  C   UNL     1      51.385   3.232  80.045  1.00  0.00     0.134 A 
ATOM     11  C   UNL     1      51.009   2.902  77.662  1.00  0.00     0.123 A 
ATOM     12  C   UNL     1      50.624   2.701  78.992  1.00  0.00     0.093 A 
BRANCH   3  13
ATOM     13  C   UNL     1      56.038   6.103  78.553  1.00  0.00     0.025 A 
ATOM     14  C   UNL     1      55.984   7.278  77.788  1.00  0.00     0.016 A 
ATOM     15  C   UNL     1      57.160   7.936  77.422  1.00  0.00     0.051 A 
ATOM     16  C   UNL     1      58.408   7.412  77.775  1.00  0.00     0.157 A 
ATOM     17  C   UNL     1      57.290   5.556  78.879  1.00  0.00     0.062 A 
ATOM     18  C   UNL     1      58.474   6.199  78.502  1.00  0.00     0.158 A 
BRANCH  16  19
ATOM     19  O   UNL     1      59.548   8.116  77.382  1.00  0.00    -0.504 OA
ATOM     20  H   UNL     1      59.523   8.986  76.866  1.00  0.00     0.293 HD
ENDBRANCH  16  19
BRANCH  18  21
ATOM     21  O   UNL     1      59.681   5.611  78.883  1.00  0.00    -0.504 OA
ATOM     22  H   UNL     1      60.416   5.360  78.240  1.00  0.00     0.293 HD
ENDBRANCH  18  21
ENDBRANCH   3  13
BRANCH  10  23
ATOM     23  O   UNL     1      50.973   3.014  81.362  1.00  0.00    -0.507 OA
ATOM     24  H   UNL     1      50.178   3.503  81.759  1.00  0.00     0.293 HD
ENDBRANCH  10  23
BRANCH  11  25
ATOM     25  O   UNL     1      50.246   2.385  76.616  1.00  0.00    -0.508 OA
ATOM     26  H   UNL     1      49.831   2.987  75.916  1.00  0.00     0.293 HD
ENDBRANCH  11  25
ENDBRANCH   1   2
BRANCH   1  27
ATOM     27  C   UNL     1      55.152   7.309  81.816  1.00  0.00     0.339 C 
ATOM     28  C   UNL     1      55.019   7.316  83.349  1.00  0.00     0.214 C 
ATOM     29  O   UNL     1      56.204   8.170  81.413  1.00  0.00    -0.332 OA
ATOM     30  C   UNL     1      56.351   6.970  84.054  1.00  0.00     0.180 C 
ATOM     31  C   UNL     1      57.463   7.706  81.865  1.00  0.00     0.179 C 
ATOM     32  C   UNL     1      57.542   7.724  83.415  1.00  0.00     0.177 C 
BRANCH  28  33
ATOM     33  O   UNL     1      53.998   6.441  83.744  1.00  0.00    -0.384 OA
ATOM     34  H   UNL     1      54.003   6.424  84.736  1.00  0.00     0.211 HD
ENDBRANCH  28  33
BRANCH  30  35
ATOM     35  O   UNL     1      56.585   5.583  84.125  1.00  0.00    -0.387 OA
ATOM     36  H   UNL     1      55.712   5.126  84.035  1.00  0.00     0.211 HD
ENDBRANCH  30  35
BRANCH  31  37
ATOM     37  C   UNL     1      58.552   8.615  81.265  1.00  0.00     0.191 C 
BRANCH  37  38
ATOM     38  O   UNL     1      59.759   7.917  81.098  1.00  0.00    -0.394 OA
ATOM     39  H   UNL     1      59.526   6.959  80.975  1.00  0.00     0.210 HD
ENDBRANCH  37  38
ENDBRANCH  31  37
BRANCH  32  40
ATOM     40  O   UNL     1      58.755   7.150  83.829  1.00  0.00    -0.387 OA
ATOM     41  H   UNL     1      59.411   7.342  83.105  1.00  0.00     0.211 HD
ENDBRANCH  32  40
ENDBRANCH   1  27
TORSDOF 12
ENDMDL
MODEL 3
REMARK VINA RESULT:    -6.924      9.553     13.092
REMARK INTER + INTRA:         -11.635
REMARK INTER:                  -9.682
REMARK INTRA:                  -1.953
REMARK UNBOUND:                -1.473
REMARK SMILES O=c1c(O[C@@H]2O[C@@H](CO)[C@H](O)[C@H](O)[C@@H]2O)c(-c2ccc(O)c(O)c2)oc2cc(O)cc(O)c12
REMARK SMILES IDX 4 1 3 2 16 3 25 4 2 5 26 6 1 7 33 8 27 9 31 10 28 11 30 12
REMARK SMILES IDX 17 13 18 14 19 15 20 16 24 17 22 18 21 19 23 21 32 23 29 25
REMARK SMILES IDX 5 27 14 28 6 29 12 30 7 31 10 32 15 33 13 35 8 37 9 38 11 40
REMARK H PARENT 21 20 23 22 32 24 29 26 15 34 13 36 9 39 11 41
REMARK Flexibility Score: inf
ROOT
ATOM      1  O   UNL     1      54.908   5.789  81.283  1.00  0.00    -0.454 OA
ENDROOT
BRANCH   1   2
ATOM      2  C   UNL     1      55.604   6.401  80.223  1.00  0.00     0.214 A 
ATOM      3  C   UNL     1      55.344   5.978  78.901  1.00  0.00     0.180 A 
ATOM      4  O   UNL     1      56.023   6.501  77.885  1.00  0.00    -0.452 OA
ATOM      5  C   UNL     1      56.576   7.403  80.423  1.00  0.00     0.239 A 
ATOM      6  C   UNL     1      56.960   7.428  78.032  1.00  0.00     0.146 A 
ATOM      7  O   UNL     1      56.836   7.806  81.586  1.00  0.00    -0.285 OA
ATOM      8  C   UNL     1      57.271   7.936  79.315  1.00  0.00     0.111 A 
ATOM      9  C   UNL     1      57.635   7.896  76.901  1.00  0.00     0.094 A 
ATOM     10  C   UNL     1      58.269   8.935  79.432  1.00  0.00     0.134 A 
ATOM     11  C   UNL     1      58.622   8.872  77.023  1.00  0.00     0.123 A 
ATOM     12  C   UNL     1      58.935   9.392  78.284  1.00  0.00     0.093 A 
BRANCH   3  13
ATOM     13  C   UNL     1      54.281   4.997  78.592  1.00  0.00     0.025 A 
ATOM     14  C   UNL     1      52.930   5.367  78.518  1.00  0.00     0.016 A 
ATOM     15  C   UNL     1      51.960   4.431  78.155  1.00  0.00     0.051 A 
ATOM     16  C   UNL     1      52.315   3.101  77.900  1.00  0.00     0.157 A 
ATOM     17  C   UNL     1      54.635   3.656  78.370  1.00  0.00     0.062 A 
ATOM     18  C   UNL     1      53.669   2.706  78.021  1.00  0.00     0.158 A 
BRANCH  16  19
ATOM     19  O   UNL     1      51.301   2.212  77.539  1.00  0.00    -0.504 OA
ATOM     20  H   UNL     1      50.578   1.894  78.171  1.00  0.00     0.293 HD
ENDBRANCH  16  19
BRANCH  18  21
ATOM     21  O   UNL     1      54.098   1.399  77.792  1.00  0.00    -0.504 OA
ATOM     22  H   UNL     1      54.937   1.000  78.185  1.00  0.00     0.293 HD
ENDBRANCH  18  21
ENDBRANCH   3  13
BRANCH  10  23
ATOM     23  O   UNL     1      58.606   9.474  80.676  1.00  0.00    -0.507 OA
ATOM     24  H   UNL     1      58.120   9.202  81.523  1.00  0.00     0.293 HD
ENDBRANCH  10  23
BRANCH  11  25
ATOM     25  O   UNL     1      59.293   9.317  75.885  1.00  0.00    -0.508 OA
ATOM     26  H   UNL     1      58.800   9.754  75.117  1.00  0.00     0.293 HD
ENDBRANCH  11  25
ENDBRANCH   1   2
BRANCH   1  27
ATOM     27  C   UNL     1      55.225   4.536  81.898  1.00  0.00     0.339 C 
ATOM     28  C   UNL     1      55.389   4.707  83.419  1.00  0.00     0.214 C 
ATOM     29  O   UNL     1      54.265   3.530  81.621  1.00  0.00    -0.332 OA
ATOM     30  C   UNL     1      54.042   4.986  84.125  1.00  0.00     0.180 C 
ATOM     31  C   UNL     1      52.972   3.906  82.061  1.00  0.00     0.179 C 
ATOM     32  C   UNL     1      52.926   4.047  83.606  1.00  0.00     0.177 C 
BRANCH  28  33
ATOM     33  O   UNL     1      56.318   5.722  83.688  1.00  0.00    -0.384 OA
ATOM     34  H   UNL     1      56.539   5.659  84.653  1.00  0.00     0.211 HD
ENDBRANCH  28  33
BRANCH  30  35
ATOM     35  O   UNL     1      53.662   6.340  84.058  1.00  0.00    -0.387 OA
ATOM     36  H   UNL     1      53.480   6.555  83.109  1.00  0.00     0.211 HD
ENDBRANCH  30  35
BRANCH  31  37
ATOM     37  C   UNL     1      51.975   2.829  81.594  1.00  0.00     0.191 C 
BRANCH  37  38
ATOM     38  O   UNL     1      50.705   3.381  81.360  1.00  0.00    -0.394 OA
ATOM     39  H   UNL     1      50.386   3.016  80.493  1.00  0.00     0.210 HD
ENDBRANCH  37  38
ENDBRANCH  31  37
BRANCH  32  40
ATOM     40  O   UNL     1      51.667   4.532  83.995  1.00  0.00    -0.387 OA
ATOM     41  H   UNL     1      51.004   3.865  83.671  1.00  0.00     0.211 HD
ENDBRANCH  32  40
ENDBRANCH   1  27
TORSDOF 12
ENDMDL
MODEL 4
REMARK VINA RESULT:    -6.887      7.401     11.412
REMARK INTER + INTRA:         -11.581
REMARK INTER:                 -11.130
REMARK INTRA:                  -0.452
REMARK UNBOUND:                -1.473
REMARK SMILES O=c1c(O[C@@H]2O[C@@H](CO)[C@H](O)[C@H](O)[C@@H]2O)c(-c2ccc(O)c(O)c2)oc2cc(O)cc(O)c12
REMARK SMILES IDX 4 1 3 2 16 3 25 4 2 5 26 6 1 7 33 8 27 9 31 10 28 11 30 12
REMARK SMILES IDX 17 13 18 14 19 15 20 16 24 17 22 18 21 19 23 21 32 23 29 25
REMARK SMILES IDX 5 27 14 28 6 29 12 30 7 31 10 32 15 33 13 35 8 37 9 38 11 40
REMARK H PARENT 21 20 23 22 32 24 29 26 15 34 13 36 9 39 11 41
REMARK Flexibility Score: inf
ROOT
ATOM      1  O   UNL     1      54.310   3.576  81.698  1.00  0.00    -0.454 OA
ENDROOT
BRANCH   1   2
ATOM      2  C   UNL     1      55.046   4.361  80.790  1.00  0.00     0.214 A 
ATOM      3  C   UNL     1      54.520   4.587  79.500  1.00  0.00     0.180 A 
ATOM      4  O   UNL     1      55.216   5.281  78.606  1.00  0.00    -0.452 OA
ATOM      5  C   UNL     1      56.306   4.913  81.103  1.00  0.00     0.239 A 
ATOM      6  C   UNL     1      56.412   5.797  78.851  1.00  0.00     0.146 A 
ATOM      7  O   UNL     1      56.808   4.734  82.242  1.00  0.00    -0.285 OA
ATOM      8  C   UNL     1      57.010   5.649  80.124  1.00  0.00     0.111 A 
ATOM      9  C   UNL     1      57.074   6.490  77.833  1.00  0.00     0.094 A 
ATOM     10  C   UNL     1      58.284   6.225  80.353  1.00  0.00     0.134 A 
ATOM     11  C   UNL     1      58.332   7.047  78.062  1.00  0.00     0.123 A 
ATOM     12  C   UNL     1      58.932   6.918  79.319  1.00  0.00     0.093 A 
BRANCH   3  13
ATOM     13  C   UNL     1      53.170   4.120  79.116  1.00  0.00     0.025 A 
ATOM     14  C   UNL     1      52.928   3.479  77.892  1.00  0.00     0.016 A 
ATOM     15  C   UNL     1      51.656   2.988  77.592  1.00  0.00     0.051 A 
ATOM     16  C   UNL     1      50.595   3.165  78.487  1.00  0.00     0.157 A 
ATOM     17  C   UNL     1      52.099   4.330  80.001  1.00  0.00     0.062 A 
ATOM     18  C   UNL     1      50.817   3.857  79.702  1.00  0.00     0.158 A 
BRANCH  16  19
ATOM     19  O   UNL     1      49.347   2.651  78.131  1.00  0.00    -0.504 OA
ATOM     20  H   UNL     1      48.572   3.217  77.813  1.00  0.00     0.293 HD
ENDBRANCH  16  19
BRANCH  18  21
ATOM     21  O   UNL     1      49.808   4.080  80.639  1.00  0.00    -0.504 OA
ATOM     22  H   UNL     1      49.669   3.521  81.466  1.00  0.00     0.293 HD
ENDBRANCH  18  21
ENDBRANCH   3  13
BRANCH  10  23
ATOM     23  O   UNL     1      58.911   6.113  81.597  1.00  0.00    -0.507 OA
ATOM     24  H   UNL     1      59.071   6.921  82.188  1.00  0.00     0.293 HD
ENDBRANCH  10  23
BRANCH  11  25
ATOM     25  O   UNL     1      58.981   7.724  77.031  1.00  0.00    -0.508 OA
ATOM     26  H   UNL     1      58.506   8.424  76.476  1.00  0.00     0.293 HD
ENDBRANCH  11  25
ENDBRANCH   1   2
BRANCH   1  27
ATOM     27  C   UNL     1      54.682   3.258  83.044  1.00  0.00     0.339 C 
ATOM     28  C   UNL     1      53.842   4.075  84.043  1.00  0.00     0.214 C 
ATOM     29  O   UNL     1      54.571   1.874  83.331  1.00  0.00    -0.332 OA
ATOM     30  C   UNL     1      52.368   3.611  84.086  1.00  0.00     0.180 C 
ATOM     31  C   UNL     1      53.251   1.402  83.131  1.00  0.00     0.179 C 
ATOM     32  C   UNL     1      52.262   2.067  84.125  1.00  0.00     0.177 C 
BRANCH  28  33
ATOM     33  O   UNL     1      53.932   5.440  83.737  1.00  0.00    -0.384 OA
ATOM     34  H   UNL     1      54.895   5.641  83.606  1.00  0.00     0.211 HD
ENDBRANCH  28  33
BRANCH  30  35
ATOM     35  O   UNL     1      51.593   4.164  83.049  1.00  0.00    -0.387 OA
ATOM     36  H   UNL     1      50.764   3.629  82.974  1.00  0.00     0.211 HD
ENDBRANCH  30  35
BRANCH  31  37
ATOM     37  C   UNL     1      53.254  -0.126  83.324  1.00  0.00     0.191 C 
BRANCH  37  38
ATOM     38  O   UNL     1      52.010  -0.683  82.986  1.00  0.00    -0.394 OA
ATOM     39  H   UNL     1      52.109  -1.670  83.045  1.00  0.00     0.210 HD
ENDBRANCH  37  38
ENDBRANCH  31  37
BRANCH  32  40
ATOM     40  O   UNL     1      50.951   1.665  83.822  1.00  0.00    -0.387 OA
ATOM     41  H   UNL     1      50.940   1.479  82.844  1.00  0.00     0.211 HD
ENDBRANCH  32  40
ENDBRANCH   1  27
TORSDOF 12
ENDMDL
MODEL 5
REMARK VINA RESULT:    -6.876      8.586     12.252
REMARK INTER + INTRA:         -11.564
REMARK INTER:                 -10.329
REMARK INTRA:                  -1.235
REMARK UNBOUND:                -1.473
REMARK SMILES O=c1c(O[C@@H]2O[C@@H](CO)[C@H](O)[C@H](O)[C@@H]2O)c(-c2ccc(O)c(O)c2)oc2cc(O)cc(O)c12
REMARK SMILES IDX 4 1 3 2 16 3 25 4 2 5 26 6 1 7 33 8 27 9 31 10 28 11 30 12
REMARK SMILES IDX 17 13 18 14 19 15 20 16 24 17 22 18 21 19 23 21 32 23 29 25
REMARK SMILES IDX 5 27 14 28 6 29 12 30 7 31 10 32 15 33 13 35 8 37 9 38 11 40
REMARK H PARENT 21 20 23 22 32 24 29 26 15 34 13 36 9 39 11 41
REMARK Flexibility Score: inf
ROOT
ATOM      1  O   UNL     1      54.733   3.791  79.279  1.00  0.00    -0.454 OA
ENDROOT
BRANCH   1   2
ATOM      2  C   UNL     1      55.685   4.536  80.000  1.00  0.00     0.214 A 
ATOM      3  C   UNL     1      55.574   4.607  81.406  1.00  0.00     0.180 A 
ATOM      4  O   UNL     1      56.428   5.344  82.108  1.00  0.00    -0.452 OA
ATOM      5  C   UNL     1      56.735   5.243  79.378  1.00  0.00     0.239 A 
ATOM      6  C   UNL     1      57.414   6.042  81.560  1.00  0.00     0.146 A 
ATOM      7  O   UNL     1      56.867   5.204  78.127  1.00  0.00    -0.285 OA
ATOM      8  C   UNL     1      57.624   6.011  80.162  1.00  0.00     0.111 A 
ATOM      9  C   UNL     1      58.243   6.807  82.385  1.00  0.00     0.094 A 
ATOM     10  C   UNL     1      58.695   6.759  79.614  1.00  0.00     0.134 A 
ATOM     11  C   UNL     1      59.290   7.549  81.839  1.00  0.00     0.123 A 
ATOM     12  C   UNL     1      59.517   7.521  80.459  1.00  0.00     0.093 A 
BRANCH   3  13
ATOM     13  C   UNL     1      54.559   3.828  82.148  1.00  0.00     0.025 A 
ATOM     14  C   UNL     1      53.462   4.444  82.769  1.00  0.00     0.016 A 
ATOM     15  C   UNL     1      52.484   3.673  83.401  1.00  0.00     0.051 A 
ATOM     16  C   UNL     1      52.605   2.280  83.461  1.00  0.00     0.157 A 
ATOM     17  C   UNL     1      54.700   2.434  82.237  1.00  0.00     0.062 A 
ATOM     18  C   UNL     1      53.734   1.654  82.882  1.00  0.00     0.158 A 
BRANCH  16  19
ATOM     19  O   UNL     1      51.594   1.564  84.105  1.00  0.00    -0.504 OA
ATOM     20  H   UNL     1      51.365   1.667  85.084  1.00  0.00     0.293 HD
ENDBRANCH  16  19
BRANCH  18  21
ATOM     21  O   UNL     1      53.929   0.272  82.910  1.00  0.00    -0.504 OA
ATOM     22  H   UNL     1      53.497  -0.348  83.577  1.00  0.00     0.293 HD
ENDBRANCH  18  21
ENDBRANCH   3  13
BRANCH  10  23
ATOM     23  O   UNL     1      58.947   6.753  78.240  1.00  0.00    -0.507 OA
ATOM     24  H   UNL     1      58.362   6.236  77.593  1.00  0.00     0.293 HD
ENDBRANCH  10  23
BRANCH  11  25
ATOM     25  O   UNL     1      60.099   8.316  82.676  1.00  0.00    -0.508 OA
ATOM     26  H   UNL     1      60.880   7.909  83.176  1.00  0.00     0.293 HD
ENDBRANCH  11  25
ENDBRANCH   1   2
BRANCH   1  27
ATOM     27  C   UNL     1      53.983   4.239  78.144  1.00  0.00     0.339 C 
ATOM     28  C   UNL     1      52.822   3.273  77.849  1.00  0.00     0.214 C 
ATOM     29  O   UNL     1      53.492   5.560  78.298  1.00  0.00    -0.332 OA
ATOM     30  C   UNL     1      51.708   3.353  78.918  1.00  0.00     0.180 C 
ATOM     31  C   UNL     1      52.655   5.677  79.435  1.00  0.00     0.179 C 
ATOM     32  C   UNL     1      51.371   4.821  79.276  1.00  0.00     0.177 C 
BRANCH  28  33
ATOM     33  O   UNL     1      53.309   1.964  77.725  1.00  0.00    -0.384 OA
ATOM     34  H   UNL     1      53.322   1.577  78.638  1.00  0.00     0.211 HD
ENDBRANCH  28  33
BRANCH  30  35
ATOM     35  O   UNL     1      51.996   2.586  80.063  1.00  0.00    -0.387 OA
ATOM     36  H   UNL     1      51.540   1.713  79.964  1.00  0.00     0.211 HD
ENDBRANCH  30  35
BRANCH  31  37
ATOM     37  C   UNL     1      52.287   7.163  79.607  1.00  0.00     0.191 C 
BRANCH  37  38
ATOM     38  O   UNL     1      51.079   7.464  78.958  1.00  0.00    -0.394 OA
ATOM     39  H   UNL     1      50.353   7.341  79.625  1.00  0.00     0.210 HD
ENDBRANCH  37  38
ENDBRANCH  31  37
BRANCH  32  40
ATOM     40  O   UNL     1      50.625   4.869  80.464  1.00  0.00    -0.387 OA
ATOM     41  H   UNL     1      51.184   4.426  81.158  1.00  0.00     0.211 HD
ENDBRANCH  32  40
ENDBRANCH   1  27
TORSDOF 12
ENDMDL
MODEL 6
REMARK VINA RESULT:    -6.649      8.763     12.650
REMARK INTER + INTRA:         -11.231
REMARK INTER:                  -9.350
REMARK INTRA:                  -1.882
REMARK UNBOUND:                -1.473
REMARK SMILES O=c1c(O[C@@H]2O[C@@H](CO)[C@H](O)[C@H](O)[C@@H]2O)c(-c2ccc(O)c(O)c2)oc2cc(O)cc(O)c12
REMARK SMILES IDX 4 1 3 2 16 3 25 4 2 5 26 6 1 7 33 8 27 9 31 10 28 11 30 12
REMARK SMILES IDX 17 13 18 14 19 15 20 16 24 17 22 18 21 19 23 21 32 23 29 25
REMARK SMILES IDX 5 27 14 28 6 29 12 30 7 31 10 32 15 33 13 35 8 37 9 38 11 40
REMARK H PARENT 21 20 23 22 32 24 29 26 15 34 13 36 9 39 11 41
REMARK Flexibility Score: inf
ROOT
ATOM      1  O   UNL     1      54.953   5.356  80.107  1.00  0.00    -0.454 OA
ENDROOT
BRANCH   1   2
ATOM      2  C   UNL     1      54.732   6.181  78.988  1.00  0.00     0.214 A 
ATOM      3  C   UNL     1      53.710   5.835  78.077  1.00  0.00     0.180 A 
ATOM      4  O   UNL     1      53.512   6.567  76.985  1.00  0.00    -0.452 OA
ATOM      5  C   UNL     1      55.506   7.328  78.719  1.00  0.00     0.239 A 
ATOM      6  C   UNL     1      54.232   7.639  76.683  1.00  0.00     0.146 A 
ATOM      7  O   UNL     1      56.425   7.669  79.508  1.00  0.00    -0.285 OA
ATOM      8  C   UNL     1      55.259   8.081  77.549  1.00  0.00     0.111 A 
ATOM      9  C   UNL     1      53.960   8.326  75.497  1.00  0.00     0.094 A 
ATOM     10  C   UNL     1      55.998   9.238  77.200  1.00  0.00     0.134 A 
ATOM     11  C   UNL     1      54.697   9.459  75.154  1.00  0.00     0.123 A 
ATOM     12  C   UNL     1      55.710   9.915  76.005  1.00  0.00     0.093 A 
BRANCH   3  13
ATOM     13  C   UNL     1      52.795   4.700  78.325  1.00  0.00     0.025 A 
ATOM     14  C   UNL     1      52.898   3.496  77.613  1.00  0.00     0.016 A 
ATOM     15  C   UNL     1      52.064   2.420  77.921  1.00  0.00     0.051 A 
ATOM     16  C   UNL     1      51.085   2.540  78.915  1.00  0.00     0.157 A 
ATOM     17  C   UNL     1      51.791   4.835  79.298  1.00  0.00     0.062 A 
ATOM     18  C   UNL     1      50.939   3.768  79.603  1.00  0.00     0.158 A 
BRANCH  16  19
ATOM     19  O   UNL     1      50.283   1.428  79.179  1.00  0.00    -0.504 OA
ATOM     20  H   UNL     1      49.927   0.807  78.465  1.00  0.00     0.293 HD
ENDBRANCH  16  19
BRANCH  18  21
ATOM     21  O   UNL     1      49.982   3.966  80.599  1.00  0.00    -0.504 OA
ATOM     22  H   UNL     1      50.170   3.901  81.587  1.00  0.00     0.293 HD
ENDBRANCH  18  21
ENDBRANCH   3  13
BRANCH  10  23
ATOM     23  O   UNL     1      57.016   9.719  78.027  1.00  0.00    -0.507 OA
ATOM     24  H   UNL     1      56.834  10.400  78.756  1.00  0.00     0.293 HD
ENDBRANCH  10  23
BRANCH  11  25
ATOM     25  O   UNL     1      54.420  10.124  73.960  1.00  0.00    -0.508 OA
ATOM     26  H   UNL     1      54.892  10.984  73.711  1.00  0.00     0.293 HD
ENDBRANCH  11  25
ENDBRANCH   1   2
BRANCH   1  27
ATOM     27  C   UNL     1      55.675   4.119  80.123  1.00  0.00     0.339 C 
ATOM     28  C   UNL     1      56.901   4.221  81.047  1.00  0.00     0.214 C 
ATOM     29  O   UNL     1      54.868   3.017  80.503  1.00  0.00    -0.332 OA
ATOM     30  C   UNL     1      56.505   4.285  82.540  1.00  0.00     0.180 C 
ATOM     31  C   UNL     1      54.307   3.200  81.791  1.00  0.00     0.179 C 
ATOM     32  C   UNL     1      55.411   3.244  82.881  1.00  0.00     0.177 C 
BRANCH  28  33
ATOM     33  O   UNL     1      57.681   5.328  80.685  1.00  0.00    -0.384 OA
ATOM     34  H   UNL     1      57.250   5.733  79.889  1.00  0.00     0.211 HD
ENDBRANCH  28  33
BRANCH  30  35
ATOM     35  O   UNL     1      56.141   5.582  82.952  1.00  0.00    -0.387 OA
ATOM     36  H   UNL     1      55.800   6.065  82.159  1.00  0.00     0.211 HD
ENDBRANCH  30  35
BRANCH  31  37
ATOM     37  C   UNL     1      53.338   2.034  82.060  1.00  0.00     0.191 C 
BRANCH  37  38
ATOM     38  O   UNL     1      54.008   0.938  82.627  1.00  0.00    -0.394 OA
ATOM     39  H   UNL     1      54.023   1.084  83.610  1.00  0.00     0.210 HD
ENDBRANCH  37  38
ENDBRANCH  31  37
BRANCH  32  40
ATOM     40  O   UNL     1      54.831   3.541  84.124  1.00  0.00    -0.387 OA
ATOM     41  H   UNL     1      54.677   2.665  84.571  1.00  0.00     0.211 HD
ENDBRANCH  32  40
ENDBRANCH   1  27
TORSDOF 12
ENDMDL
MODEL 7
REMARK VINA RESULT:    -6.634      9.173     13.509
REMARK INTER + INTRA:         -11.210
REMARK INTER:                  -9.178
REMARK INTRA:                  -2.032
REMARK UNBOUND:                -1.473
REMARK SMILES O=c1c(O[C@@H]2O[C@@H](CO)[C@H](O)[C@H](O)[C@@H]2O)c(-c2ccc(O)c(O)c2)oc2cc(O)cc(O)c12
REMARK SMILES IDX 4 1 3 2 16 3 25 4 2 5 26 6 1 7 33 8 27 9 31 10 28 11 30 12
REMARK SMILES IDX 17 13 18 14 19 15 20 16 24 17 22 18 21 19 23 21 32 23 29 25
REMARK SMILES IDX 5 27 14 28 6 29 12 30 7 31 10 32 15 33 13 35 8 37 9 38 11 40
REMARK H PARENT 21 20 23 22 32 24 29 26 15 34 13 36 9 39 11 41
REMARK Flexibility Score: inf
ROOT
ATOM      1  O   UNL     1      56.508   5.776  80.264  1.00  0.00    -0.454 OA
ENDROOT
BRANCH   1   2
ATOM      2  C   UNL     1      55.446   5.007  80.778  1.00  0.00     0.214 A 
ATOM      3  C   UNL     1      54.162   5.149  80.208  1.00  0.00     0.180 A 
ATOM      4  O   UNL     1      53.131   4.474  80.705  1.00  0.00    -0.452 OA
ATOM      5  C   UNL     1      55.601   4.116  81.860  1.00  0.00     0.239 A 
ATOM      6  C   UNL     1      53.229   3.645  81.736  1.00  0.00     0.146 A 
ATOM      7  O   UNL     1      56.730   3.962  82.394  1.00  0.00    -0.285 OA
ATOM      8  C   UNL     1      54.479   3.415  82.355  1.00  0.00     0.111 A 
ATOM      9  C   UNL     1      52.078   3.002  82.200  1.00  0.00     0.094 A 
ATOM     10  C   UNL     1      54.547   2.512  83.445  1.00  0.00     0.134 A 
ATOM     11  C   UNL     1      52.150   2.122  83.279  1.00  0.00     0.123 A 
ATOM     12  C   UNL     1      53.380   1.875  83.896  1.00  0.00     0.093 A 
BRANCH   3  13
ATOM     13  C   UNL     1      53.927   5.993  79.016  1.00  0.00     0.025 A 
ATOM     14  C   UNL     1      54.385   5.621  77.743  1.00  0.00     0.016 A 
ATOM     15  C   UNL     1      54.085   6.406  76.628  1.00  0.00     0.051 A 
ATOM     16  C   UNL     1      53.361   7.596  76.769  1.00  0.00     0.157 A 
ATOM     17  C   UNL     1      53.231   7.204  79.165  1.00  0.00     0.062 A 
ATOM     18  C   UNL     1      52.940   8.006  78.056  1.00  0.00     0.158 A 
BRANCH  16  19
ATOM     19  O   UNL     1      53.092   8.336  75.617  1.00  0.00    -0.504 OA
ATOM     20  H   UNL     1      53.735   8.430  74.842  1.00  0.00     0.293 HD
ENDBRANCH  16  19
BRANCH  18  21
ATOM     21  O   UNL     1      52.223   9.182  78.277  1.00  0.00    -0.504 OA
ATOM     22  H   UNL     1      52.645  10.070  78.497  1.00  0.00     0.293 HD
ENDBRANCH  18  21
ENDBRANCH   3  13
BRANCH  10  23
ATOM     23  O   UNL     1      55.761   2.245  84.084  1.00  0.00    -0.507 OA
ATOM     24  H   UNL     1      55.936   1.360  84.546  1.00  0.00     0.293 HD
ENDBRANCH  10  23
BRANCH  11  25
ATOM     25  O   UNL     1      50.989   1.499  83.736  1.00  0.00    -0.508 OA
ATOM     26  H   UNL     1      50.070   1.840  83.482  1.00  0.00     0.293 HD
ENDBRANCH  11  25
ENDBRANCH   1   2
BRANCH   1  27
ATOM     27  C   UNL     1      56.950   7.049  80.749  1.00  0.00     0.339 C 
ATOM     28  C   UNL     1      58.468   7.034  81.000  1.00  0.00     0.214 C 
ATOM     29  O   UNL     1      56.609   8.116  79.880  1.00  0.00    -0.332 OA
ATOM     30  C   UNL     1      59.278   6.986  79.683  1.00  0.00     0.180 C 
ATOM     31  C   UNL     1      57.163   7.936  78.589  1.00  0.00     0.179 C 
ATOM     32  C   UNL     1      58.714   7.977  78.636  1.00  0.00     0.177 C 
BRANCH  28  33
ATOM     33  O   UNL     1      58.804   5.961  81.837  1.00  0.00    -0.384 OA
ATOM     34  H   UNL     1      59.791   5.873  81.807  1.00  0.00     0.211 HD
ENDBRANCH  28  33
BRANCH  30  35
ATOM     35  O   UNL     1      59.395   5.683  79.163  1.00  0.00    -0.387 OA
ATOM     36  H   UNL     1      58.971   5.063  79.807  1.00  0.00     0.211 HD
ENDBRANCH  30  35
BRANCH  31  37
ATOM     37  C   UNL     1      56.628   9.056  77.678  1.00  0.00     0.191 C 
BRANCH  37  38
ATOM     38  O   UNL     1      57.616  10.022  77.427  1.00  0.00    -0.394 OA
ATOM     39  H   UNL     1      58.121  10.146  78.274  1.00  0.00     0.210 HD
ENDBRANCH  37  38
ENDBRANCH  31  37
BRANCH  32  40
ATOM     40  O   UNL     1      59.230   7.681  77.364  1.00  0.00    -0.387 OA
ATOM     41  H   UNL     1      60.085   8.184  77.290  1.00  0.00     0.211 HD
ENDBRANCH  32  40
ENDBRANCH   1  27
TORSDOF 12
ENDMDL
MODEL 8
REMARK VINA RESULT:    -6.559      9.452     14.700
REMARK INTER + INTRA:         -11.099
REMARK INTER:                  -9.682
REMARK INTRA:                  -1.417
REMARK UNBOUND:                -1.473
REMARK SMILES O=c1c(O[C@@H]2O[C@@H](CO)[C@H](O)[C@H](O)[C@@H]2O)c(-c2ccc(O)c(O)c2)oc2cc(O)cc(O)c12
REMARK SMILES IDX 4 1 3 2 16 3 25 4 2 5 26 6 1 7 33 8 27 9 31 10 28 11 30 12
REMARK SMILES IDX 17 13 18 14 19 15 20 16 24 17 22 18 21 19 23 21 32 23 29 25
REMARK SMILES IDX 5 27 14 28 6 29 12 30 7 31 10 32 15 33 13 35 8 37 9 38 11 40
REMARK H PARENT 21 20 23 22 32 24 29 26 15 34 13 36 9 39 11 41
REMARK Flexibility Score: inf
ROOT
ATOM      1  O   UNL     1      54.220   6.704  78.516  1.00  0.00    -0.454 OA
ENDROOT
BRANCH   1   2
ATOM      2  C   UNL     1      54.034   5.790  79.571  1.00  0.00     0.214 A 
ATOM      3  C   UNL     1      55.168   5.276  80.237  1.00  0.00     0.180 A 
ATOM      4  O   UNL     1      55.024   4.373  81.202  1.00  0.00    -0.452 OA
ATOM      5  C   UNL     1      52.760   5.341  79.978  1.00  0.00     0.239 A 
ATOM      6  C   UNL     1      53.848   3.908  81.599  1.00  0.00     0.146 A 
ATOM      7  O   UNL     1      51.726   5.777  79.409  1.00  0.00    -0.285 OA
ATOM      8  C   UNL     1      52.653   4.384  81.012  1.00  0.00     0.111 A 
ATOM      9  C   UNL     1      53.806   2.940  82.606  1.00  0.00     0.094 A 
ATOM     10  C   UNL     1      51.414   3.874  81.471  1.00  0.00     0.134 A 
ATOM     11  C   UNL     1      52.584   2.434  83.047  1.00  0.00     0.123 A 
ATOM     12  C   UNL     1      51.392   2.902  82.484  1.00  0.00     0.093 A 
BRANCH   3  13
ATOM     13  C   UNL     1      56.534   5.756  79.935  1.00  0.00     0.025 A 
ATOM     14  C   UNL     1      57.359   5.104  79.006  1.00  0.00     0.016 A 
ATOM     15  C   UNL     1      58.616   5.624  78.692  1.00  0.00     0.051 A 
ATOM     16  C   UNL     1      59.088   6.778  79.329  1.00  0.00     0.157 A 
ATOM     17  C   UNL     1      57.019   6.893  80.600  1.00  0.00     0.062 A 
ATOM     18  C   UNL     1      58.284   7.412  80.305  1.00  0.00     0.158 A 
BRANCH  16  19
ATOM     19  O   UNL     1      60.352   7.250  78.971  1.00  0.00    -0.504 OA
ATOM     20  H   UNL     1      60.920   7.844  79.560  1.00  0.00     0.293 HD
ENDBRANCH  16  19
BRANCH  18  21
ATOM     21  O   UNL     1      58.690   8.559  80.989  1.00  0.00    -0.504 OA
ATOM     22  H   UNL     1      58.403   9.495  80.746  1.00  0.00     0.293 HD
ENDBRANCH  18  21
ENDBRANCH   3  13
BRANCH  10  23
ATOM     23  O   UNL     1      50.206   4.320  80.928  1.00  0.00    -0.507 OA
ATOM     24  H   UNL     1      49.782   5.195  81.217  1.00  0.00     0.293 HD
ENDBRANCH  10  23
BRANCH  11  25
ATOM     25  O   UNL     1      52.563   1.460  84.045  1.00  0.00    -0.508 OA
ATOM     26  H   UNL     1      52.062   1.602  84.913  1.00  0.00     0.293 HD
ENDBRANCH  11  25
ENDBRANCH   1   2
BRANCH   1  27
ATOM     27  C   UNL     1      54.535   8.095  78.641  1.00  0.00     0.339 C 
ATOM     28  C   UNL     1      55.228   8.608  77.366  1.00  0.00     0.214 C 
ATOM     29  O   UNL     1      53.398   8.890  78.932  1.00  0.00    -0.332 OA
ATOM     30  C   UNL     1      54.258   8.690  76.165  1.00  0.00     0.180 C 
ATOM     31  C   UNL     1      52.403   8.767  77.932  1.00  0.00     0.179 C 
ATOM     32  C   UNL     1      52.905   9.322  76.572  1.00  0.00     0.177 C 
BRANCH  28  33
ATOM     33  O   UNL     1      56.335   7.801  77.066  1.00  0.00    -0.384 OA
ATOM     34  H   UNL     1      56.223   6.961  77.582  1.00  0.00     0.211 HD
ENDBRANCH  28  33
BRANCH  30  35
ATOM     35  O   UNL     1      54.086   7.450  75.519  1.00  0.00    -0.387 OA
ATOM     36  H   UNL     1      54.439   7.538  74.599  1.00  0.00     0.211 HD
ENDBRANCH  30  35
BRANCH  31  37
ATOM     37  C   UNL     1      51.157   9.544  78.398  1.00  0.00     0.191 C 
BRANCH  37  38
ATOM     38  O   UNL     1      50.035   9.214  77.621  1.00  0.00    -0.394 OA
ATOM     39  H   UNL     1      49.408   8.720  78.214  1.00  0.00     0.210 HD
ENDBRANCH  37  38
ENDBRANCH  31  37
BRANCH  32  40
ATOM     40  O   UNL     1      51.940   9.078  75.582  1.00  0.00    -0.387 OA
ATOM     41  H   UNL     1      52.072   9.781  74.890  1.00  0.00     0.211 HD
ENDBRANCH  32  40
ENDBRANCH   1  27
TORSDOF 12
ENDMDL
MODEL 9
REMARK VINA RESULT:    -6.391      7.671     11.823
REMARK INTER + INTRA:         -10.852
REMARK INTER:                 -10.097
REMARK INTRA:                  -0.756
REMARK UNBOUND:                -1.473
REMARK SMILES O=c1c(O[C@@H]2O[C@@H](CO)[C@H](O)[C@H](O)[C@@H]2O)c(-c2ccc(O)c(O)c2)oc2cc(O)cc(O)c12
REMARK SMILES IDX 4 1 3 2 16 3 25 4 2 5 26 6 1 7 33 8 27 9 31 10 28 11 30 12
REMARK SMILES IDX 17 13 18 14 19 15 20 16 24 17 22 18 21 19 23 21 32 23 29 25
REMARK SMILES IDX 5 27 14 28 6 29 12 30 7 31 10 32 15 33 13 35 8 37 9 38 11 40
REMARK H PARENT 21 20 23 22 32 24 29 26 15 34 13 36 9 39 11 41
REMARK Flexibility Score: inf
ROOT
ATOM      1  O   UNL     1      55.106   3.781  82.189  1.00  0.00    -0.454 OA
ENDROOT
BRANCH   1   2
ATOM      2  C   UNL     1      55.894   4.759  81.554  1.00  0.00     0.214 A 
ATOM      3  C   UNL     1      55.668   5.037  80.188  1.00  0.00     0.180 A 
ATOM      4  O   UNL     1      56.430   5.919  79.550  1.00  0.00    -0.452 OA
ATOM      5  C   UNL     1      56.923   5.460  82.216  1.00  0.00     0.239 A 
ATOM      6  C   UNL     1      57.423   6.581  80.129  1.00  0.00     0.146 A 
ATOM      7  O   UNL     1      57.155   5.241  83.433  1.00  0.00    -0.285 OA
ATOM      8  C   UNL     1      57.707   6.393  81.501  1.00  0.00     0.111 A 
ATOM      9  C   UNL     1      58.182   7.470  79.363  1.00  0.00     0.094 A 
ATOM     10  C   UNL     1      58.766   7.128  82.088  1.00  0.00     0.134 A 
ATOM     11  C   UNL     1      59.230   8.184  79.944  1.00  0.00     0.123 A 
ATOM     12  C   UNL     1      59.518   8.016  81.302  1.00  0.00     0.093 A 
BRANCH   3  13
ATOM     13  C   UNL     1      54.555   4.414  79.440  1.00  0.00     0.025 A 
ATOM     14  C   UNL     1      53.323   5.063  79.269  1.00  0.00     0.016 A 
ATOM     15  C   UNL     1      52.318   4.477  78.497  1.00  0.00     0.051 A 
ATOM     16  C   UNL     1      52.508   3.217  77.919  1.00  0.00     0.157 A 
ATOM     17  C   UNL     1      54.735   3.134  78.890  1.00  0.00     0.062 A 
ATOM     18  C   UNL     1      53.728   2.531  78.129  1.00  0.00     0.158 A 
BRANCH  16  19
ATOM     19  O   UNL     1      51.466   2.684  77.157  1.00  0.00    -0.504 OA
ATOM     20  H   UNL     1      51.269   2.954  76.203  1.00  0.00     0.293 HD
ENDBRANCH  16  19
BRANCH  18  21
ATOM     21  O   UNL     1      53.987   1.269  77.594  1.00  0.00    -0.504 OA
ATOM     22  H   UNL     1      54.729   0.663  77.906  1.00  0.00     0.293 HD
ENDBRANCH  18  21
ENDBRANCH   3  13
BRANCH  10  23
ATOM     23  O   UNL     1      59.080   6.983  83.442  1.00  0.00    -0.507 OA
ATOM     24  H   UNL     1      59.366   6.090  83.829  1.00  0.00     0.293 HD
ENDBRANCH  10  23
BRANCH  11  25
ATOM     25  O   UNL     1      59.985   9.056  79.160  1.00  0.00    -0.508 OA
ATOM     26  H   UNL     1      60.068  10.038  79.392  1.00  0.00     0.293 HD
ENDBRANCH  11  25
ENDBRANCH   1   2
BRANCH   1  27
ATOM     27  C   UNL     1      54.944   3.602  83.601  1.00  0.00     0.339 C 
ATOM     28  C   UNL     1      53.782   4.465  84.125  1.00  0.00     0.214 C 
ATOM     29  O   UNL     1      54.748   2.246  83.964  1.00  0.00    -0.332 OA
ATOM     30  C   UNL     1      52.406   3.938  83.659  1.00  0.00     0.180 C 
ATOM     31  C   UNL     1      53.605   1.696  83.332  1.00  0.00     0.179 C 
ATOM     32  C   UNL     1      52.308   2.400  83.811  1.00  0.00     0.177 C 
BRANCH  28  33
ATOM     33  O   UNL     1      53.967   5.800  83.739  1.00  0.00    -0.384 OA
ATOM     34  H   UNL     1      53.138   6.286  83.986  1.00  0.00     0.211 HD
ENDBRANCH  28  33
BRANCH  30  35
ATOM     35  O   UNL     1      52.074   4.359  82.356  1.00  0.00    -0.387 OA
ATOM     36  H   UNL     1      52.136   5.346  82.334  1.00  0.00     0.211 HD
ENDBRANCH  30  35
BRANCH  31  37
ATOM     37  C   UNL     1      53.551   0.194  83.665  1.00  0.00     0.191 C 
BRANCH  37  38
ATOM     38  O   UNL     1      52.579  -0.462  82.892  1.00  0.00    -0.394 OA
ATOM     39  H   UNL     1      52.882  -0.417  81.947  1.00  0.00     0.210 HD
ENDBRANCH  37  38
ENDBRANCH  31  37
BRANCH  32  40
ATOM     40  O   UNL     1      51.213   1.911  83.080  1.00  0.00    -0.387 OA
ATOM     41  H   UNL     1      51.579   1.607  82.207  1.00  0.00     0.211 HD
ENDBRANCH  32  40
ENDBRANCH   1  27
TORSDOF 12
ENDMDL
