MODEL 1
REMARK VINA RESULT:    -3.839      0.000      0.000
REMARK INTER + INTRA:          -5.530
REMARK INTER:                  -4.736
REMARK INTRA:                  -0.794
REMARK UNBOUND:                -0.794
REMARK SMILES C=CC(=C)CCC=C(C)C
REMARK SMILES IDX 5 1 6 2 7 3 9 4 8 5 10 6 3 7 4 8 2 9 1 10
REMARK H PARENT
REMARK Flexibility Score: inf
ROOT
ATOM      1  C   UNL     1     173.746 173.326 174.401  1.00  0.00     0.039 C 
ENDROOT
BRANCH   1   2
ATOM      2  C   UNL     1     174.033 172.467 175.637  1.00  0.00     0.032 C 
BRANCH   2   3
ATOM      3  C   UNL     1     175.353 172.849 176.260  1.00  0.00    -0.028 C 
ATOM      4  C   UNL     1     176.852 173.843 177.961  1.00  0.00     0.039 C 
ATOM      5  C   UNL     1     175.480 173.542 177.414  1.00  0.00    -0.080 C 
ATOM      6  C   UNL     1     174.285 174.072 178.166  1.00  0.00     0.039 C 
ENDBRANCH   2   3
ENDBRANCH   1   2
BRANCH   1   7
ATOM      7  C   UNL     1     172.861 174.500 174.757  1.00  0.00    -0.055 C 
ATOM      8  C   UNL     1     171.574 174.280 175.044  1.00  0.00     0.012 C 
BRANCH   7   9
ATOM      9  C   UNL     1     173.384 175.889 174.844  1.00  0.00    -0.005 C 
ATOM     10  C   UNL     1     173.132 176.720 175.856  1.00  0.00     0.009 C 
ENDBRANCH   7   9
ENDBRANCH   1   7
TORSDOF 4
ENDMDL
MODEL 2
REMARK VINA RESULT:    -3.828      1.778      3.164
REMARK INTER + INTRA:          -5.516
REMARK INTER:                  -4.695
REMARK INTRA:                  -0.822
REMARK UNBOUND:                -0.794
REMARK SMILES C=CC(=C)CCC=C(C)C
REMARK SMILES IDX 5 1 6 2 7 3 9 4 8 5 10 6 3 7 4 8 2 9 1 10
REMARK H PARENT
REMARK Flexibility Score: inf
ROOT
ATOM      1  C   UNL     1     176.376 172.465 176.499  1.00  0.00     0.039 C 
ENDROOT
BRANCH   1   2
ATOM      2  C   UNL     1     176.842 173.518 177.510  1.00  0.00     0.032 C 
BRANCH   2   3
ATOM      3  C   UNL     1     176.095 173.378 178.813  1.00  0.00    -0.028 C 
ATOM      4  C   UNL     1     174.374 173.923 180.506  1.00  0.00     0.039 C 
ATOM      5  C   UNL     1     175.069 174.173 179.193  1.00  0.00    -0.080 C 
ATOM      6  C   UNL     1     174.613 175.345 178.361  1.00  0.00     0.039 C 
ENDBRANCH   2   3
ENDBRANCH   1   2
BRANCH   1   7
ATOM      7  C   UNL     1     175.264 173.010 175.630  1.00  0.00    -0.055 C 
ATOM      8  C   UNL     1     175.535 174.004 174.777  1.00  0.00     0.012 C 
BRANCH   7   9
ATOM      9  C   UNL     1     173.888 172.448 175.657  1.00  0.00    -0.005 C 
ATOM     10  C   UNL     1     172.790 173.172 175.871  1.00  0.00     0.009 C 
ENDBRANCH   7   9
ENDBRANCH   1   7
TORSDOF 4
ENDMDL
MODEL 3
REMARK VINA RESULT:    -3.820      7.902      9.066
REMARK INTER + INTRA:          -5.506
REMARK INTER:                  -4.703
REMARK INTRA:                  -0.803
REMARK UNBOUND:                -0.794
REMARK SMILES C=CC(=C)CCC=C(C)C
REMARK SMILES IDX 5 1 6 2 7 3 9 4 8 5 10 6 3 7 4 8 2 9 1 10
REMARK H PARENT
REMARK Flexibility Score: inf
ROOT
ATOM      1  C   UNL     1     178.361 182.002 176.318  1.00  0.00     0.039 C 
ENDROOT
BRANCH   1   2
ATOM      2  C   UNL     1     177.751 180.994 177.298  1.00  0.00     0.032 C 
BRANCH   2   3
ATOM      3  C   UNL     1     178.419 181.088 178.648  1.00  0.00    -0.028 C 
ATOM      4  C   UNL     1     180.059 180.505 180.408  1.00  0.00     0.039 C 
ATOM      5  C   UNL     1     179.447 180.305 179.046  1.00  0.00    -0.080 C 
ATOM      6  C   UNL     1     179.987 179.191 178.183  1.00  0.00     0.039 C 
ENDBRANCH   2   3
ENDBRANCH   1   2
BRANCH   1   7
ATOM      7  C   UNL     1     179.325 181.317 175.374  1.00  0.00    -0.055 C 
ATOM      8  C   UNL     1     178.913 180.243 174.692  1.00  0.00     0.012 C 
BRANCH   7   9
ATOM      9  C   UNL     1     180.703 181.824 175.142  1.00  0.00    -0.005 C 
ATOM     10  C   UNL     1     181.669 181.809 176.061  1.00  0.00     0.009 C 
ENDBRANCH   7   9
ENDBRANCH   1   7
TORSDOF 4
ENDMDL
MODEL 4
REMARK VINA RESULT:    -3.788      5.571      7.325
REMARK INTER + INTRA:          -5.467
REMARK INTER:                  -4.810
REMARK INTRA:                  -0.657
REMARK UNBOUND:                -0.794
REMARK SMILES C=CC(=C)CCC=C(C)C
REMARK SMILES IDX 5 1 6 2 7 3 9 4 8 5 10 6 3 7 4 8 2 9 1 10
REMARK H PARENT
REMARK Flexibility Score: inf
ROOT
ATOM      1  C   UNL     1     181.984 174.961 175.953  1.00  0.00     0.039 C 
ENDROOT
BRANCH   1   2
ATOM      2  C   UNL     1     180.980 175.942 176.568  1.00  0.00     0.032 C 
BRANCH   2   3
ATOM      3  C   UNL     1     180.876 175.737 178.059  1.00  0.00    -0.028 C 
ATOM      4  C   UNL     1     179.922 174.839 180.160  1.00  0.00     0.039 C 
ATOM      5  C   UNL     1     179.913 175.003 178.662  1.00  0.00    -0.080 C 
ATOM      6  C   UNL     1     178.787 174.366 177.886  1.00  0.00     0.039 C 
ENDBRANCH   2   3
ENDBRANCH   1   2
BRANCH   1   7
ATOM      7  C   UNL     1     181.279 173.953 175.073  1.00  0.00    -0.055 C 
ATOM      8  C   UNL     1     180.903 174.315 173.842  1.00  0.00     0.012 C 
BRANCH   7   9
ATOM      9  C   UNL     1     181.029 172.555 175.513  1.00  0.00    -0.005 C 
ATOM     10  C   UNL     1     179.990 171.821 175.114  1.00  0.00     0.009 C 
ENDBRANCH   7   9
ENDBRANCH   1   7
TORSDOF 4
ENDMDL
MODEL 5
REMARK VINA RESULT:    -3.778      7.743      9.511
REMARK INTER + INTRA:          -5.455
REMARK INTER:                  -4.653
REMARK INTRA:                  -0.802
REMARK UNBOUND:                -0.794
REMARK SMILES C=CC(=C)CCC=C(C)C
REMARK SMILES IDX 5 1 6 2 7 3 9 4 8 5 10 6 3 7 4 8 2 9 1 10
REMARK H PARENT
REMARK Flexibility Score: inf
ROOT
ATOM      1  C   UNL     1     180.643 181.018 174.403  1.00  0.00     0.039 C 
ENDROOT
BRANCH   1   2
ATOM      2  C   UNL     1     180.359 181.915 175.613  1.00  0.00     0.032 C 
BRANCH   2   3
ATOM      3  C   UNL     1     179.051 181.539 176.263  1.00  0.00    -0.028 C 
ATOM      4  C   UNL     1     177.584 180.588 178.016  1.00  0.00     0.039 C 
ATOM      5  C   UNL     1     178.945 180.888 177.444  1.00  0.00    -0.080 C 
ATOM      6  C   UNL     1     180.155 180.403 178.202  1.00  0.00     0.039 C 
ENDBRANCH   2   3
ENDBRANCH   1   2
BRANCH   1   7
ATOM      7  C   UNL     1     181.511 179.843 174.799  1.00  0.00    -0.055 C 
ATOM      8  C   UNL     1     182.804 180.053 175.067  1.00  0.00     0.012 C 
BRANCH   7   9
ATOM      9  C   UNL     1     180.965 178.469 174.946  1.00  0.00    -0.005 C 
ATOM     10  C   UNL     1     181.190 177.685 176.001  1.00  0.00     0.009 C 
ENDBRANCH   7   9
ENDBRANCH   1   7
TORSDOF 4
ENDMDL
MODEL 6
REMARK VINA RESULT:    -3.774      6.090      7.049
REMARK INTER + INTRA:          -5.449
REMARK INTER:                  -5.161
REMARK INTRA:                  -0.289
REMARK UNBOUND:                -0.794
REMARK SMILES C=CC(=C)CCC=C(C)C
REMARK SMILES IDX 5 1 6 2 7 3 9 4 8 5 10 6 3 7 4 8 2 9 1 10
REMARK H PARENT
REMARK Flexibility Score: inf
ROOT
ATOM      1  C   UNL     1     179.808 174.280 171.460  1.00  0.00     0.039 C 
ENDROOT
BRANCH   1   2
ATOM      2  C   UNL     1     179.381 173.939 172.892  1.00  0.00     0.032 C 
BRANCH   2   3
ATOM      3  C   UNL     1     180.567 173.957 173.823  1.00  0.00    -0.028 C 
ATOM      4  C   UNL     1     182.004 173.163 175.676  1.00  0.00     0.039 C 
ATOM      5  C   UNL     1     180.766 173.068 174.823  1.00  0.00    -0.080 C 
ATOM      6  C   UNL     1     179.759 171.995 175.152  1.00  0.00     0.039 C 
ENDBRANCH   2   3
ENDBRANCH   1   2
BRANCH   1   7
ATOM      7  C   UNL     1     179.031 173.455 170.457  1.00  0.00    -0.055 C 
ATOM      8  C   UNL     1     179.575 173.203 169.262  1.00  0.00     0.012 C 
BRANCH   7   9
ATOM      9  C   UNL     1     177.699 172.875 170.771  1.00  0.00    -0.005 C 
ATOM     10  C   UNL     1     176.796 172.535 169.851  1.00  0.00     0.009 C 
ENDBRANCH   7   9
ENDBRANCH   1   7
TORSDOF 4
ENDMDL
MODEL 7
REMARK VINA RESULT:    -3.742      5.483      7.069
REMARK INTER + INTRA:          -5.411
REMARK INTER:                  -4.721
REMARK INTRA:                  -0.690
REMARK UNBOUND:                -0.794
REMARK SMILES C=CC(=C)CCC=C(C)C
REMARK SMILES IDX 5 1 6 2 7 3 9 4 8 5 10 6 3 7 4 8 2 9 1 10
REMARK H PARENT
REMARK Flexibility Score: inf
ROOT
ATOM      1  C   UNL     1     179.550 173.018 175.755  1.00  0.00     0.039 C 
ENDROOT
BRANCH   1   2
ATOM      2  C   UNL     1     179.034 174.295 176.428  1.00  0.00     0.032 C 
BRANCH   2   3
ATOM      3  C   UNL     1     179.399 174.313 177.891  1.00  0.00    -0.028 C 
ATOM      4  C   UNL     1     180.595 175.084 179.917  1.00  0.00     0.039 C 
ATOM      5  C   UNL     1     180.331 175.130 178.434  1.00  0.00    -0.080 C 
ATOM      6  C   UNL     1     181.161 176.068 177.595  1.00  0.00     0.039 C 
ENDBRANCH   2   3
ENDBRANCH   1   2
BRANCH   1   7
ATOM      7  C   UNL     1     180.981 173.195 175.296  1.00  0.00    -0.055 C 
ATOM      8  C   UNL     1     181.952 172.527 175.926  1.00  0.00     0.012 C 
BRANCH   7   9
ATOM      9  C   UNL     1     181.341 174.051 174.135  1.00  0.00    -0.005 C 
ATOM     10  C   UNL     1     180.563 174.227 173.067  1.00  0.00     0.009 C 
ENDBRANCH   7   9
ENDBRANCH   1   7
TORSDOF 4
ENDMDL
MODEL 8
REMARK VINA RESULT:    -3.738      4.827      6.782
REMARK INTER + INTRA:          -5.405
REMARK INTER:                  -4.697
REMARK INTRA:                  -0.709
REMARK UNBOUND:                -0.794
REMARK SMILES C=CC(=C)CCC=C(C)C
REMARK SMILES IDX 5 1 6 2 7 3 9 4 8 5 10 6 3 7 4 8 2 9 1 10
REMARK H PARENT
REMARK Flexibility Score: inf
ROOT
ATOM      1  C   UNL     1     181.425 173.586 174.405  1.00  0.00     0.039 C 
ENDROOT
BRANCH   1   2
ATOM      2  C   UNL     1     181.846 173.758 175.868  1.00  0.00     0.032 C 
BRANCH   2   3
ATOM      3  C   UNL     1     181.559 175.159 176.347  1.00  0.00    -0.028 C 
ATOM      4  C   UNL     1     180.691 176.893 177.887  1.00  0.00     0.039 C 
ATOM      5  C   UNL     1     180.896 175.454 177.489  1.00  0.00    -0.080 C 
ATOM      6  C   UNL     1     180.306 174.383 178.373  1.00  0.00     0.039 C 
ENDBRANCH   2   3
ENDBRANCH   1   2
BRANCH   1   7
ATOM      7  C   UNL     1     179.951 173.260 174.305  1.00  0.00    -0.055 C 
ATOM      8  C   UNL     1     179.270 173.657 173.225  1.00  0.00     0.012 C 
BRANCH   7   9
ATOM      9  C   UNL     1     179.242 172.472 175.346  1.00  0.00    -0.005 C 
ATOM     10  C   UNL     1     178.109 172.858 175.933  1.00  0.00     0.009 C 
ENDBRANCH   7   9
ENDBRANCH   1   7
TORSDOF 4
ENDMDL
MODEL 9
REMARK VINA RESULT:    -3.708      4.563      5.755
REMARK INTER + INTRA:          -5.368
REMARK INTER:                  -4.597
REMARK INTRA:                  -0.771
REMARK UNBOUND:                -0.794
REMARK SMILES C=CC(=C)CCC=C(C)C
REMARK SMILES IDX 5 1 6 2 7 3 9 4 8 5 10 6 3 7 4 8 2 9 1 10
REMARK H PARENT
REMARK Flexibility Score: inf
ROOT
ATOM      1  C   UNL     1     172.400 178.548 176.366  1.00  0.00     0.039 C 
ENDROOT
BRANCH   1   2
ATOM      2  C   UNL     1     173.338 177.815 177.331  1.00  0.00     0.032 C 
BRANCH   2   3
ATOM      3  C   UNL     1     173.306 178.455 178.697  1.00  0.00    -0.028 C 
ATOM      4  C   UNL     1     174.034 179.993 180.495  1.00  0.00     0.039 C 
ATOM      5  C   UNL     1     174.178 179.400 179.117  1.00  0.00    -0.080 C 
ATOM      6  C   UNL     1     175.333 179.861 178.264  1.00  0.00     0.039 C 
ENDBRANCH   2   3
ENDBRANCH   1   2
BRANCH   1   7
ATOM      7  C   UNL     1     173.191 179.338 175.345  1.00  0.00    -0.055 C 
ATOM      8  C   UNL     1     174.127 178.712 174.625  1.00  0.00     0.012 C 
BRANCH   7   9
ATOM      9  C   UNL     1     172.930 180.777 175.082  1.00  0.00    -0.005 C 
ATOM     10  C   UNL     1     172.501 181.639 176.004  1.00  0.00     0.009 C 
ENDBRANCH   7   9
ENDBRANCH   1   7
TORSDOF 4
ENDMDL
