MODEL 1
REMARK VINA RESULT:    -6.120      0.000      0.000
REMARK INTER + INTRA:         -13.050
REMARK INTER:                 -10.055
REMARK INTRA:                  -2.995
REMARK UNBOUND:                -2.995
REMARK SMILES C[C@H]1O[C@@H](OC[C@@H]2O[C@H](Oc3c(-c4ccc(O)c(O)c4)oc4cc(O)cc(O)c4c3=O)[C@@H](O)[C@H](O)[C@@H]2O)[C@H](O)[C@@H](O)[C@@H]1O
REMARK SMILES IDX 7 1 36 2 34 3 32 4 9 5 8 6 6 7 5 8 4 9 1 10 2 11 42 12 3 13
REMARK SMILES IDX 40 14 38 15 43 16 41 18 39 20 37 22 35 24 10 26 11 27 12 28
REMARK SMILES IDX 30 29 21 30 29 31 31 32 22 33 27 34 23 35 26 36 24 37 13 38
REMARK SMILES IDX 20 39 14 40 18 41 15 42 16 43 19 44 17 46 28 48 25 50 33 52
REMARK H PARENT 43 17 41 19 39 21 37 23 35 25 19 45 17 47 28 49 25 51 33 53
REMARK Flexibility Score: inf
ROOT
ATOM      1  C   UNL     1       1.624 -10.940  16.712  1.00  0.00     0.180 C 
ATOM      2  C   UNL     1       0.565 -10.494  17.757  1.00  0.00     0.177 C 
ATOM      3  C   UNL     1      -0.679  -9.941  17.060  1.00  0.00     0.180 C 
ATOM      4  C   UNL     1      -1.200 -10.991  16.060  1.00  0.00     0.214 C 
ATOM      5  C   UNL     1      -0.081 -11.493  15.116  1.00  0.00     0.339 C 
ATOM      6  O   UNL     1       1.112 -11.893  15.786  1.00  0.00    -0.332 OA
ENDROOT
BRANCH   1   7
ATOM      7  C   UNL     1       2.477  -9.827  16.011  1.00  0.00     0.198 C 
BRANCH   7   8
ATOM      8  O   UNL     1       3.867 -10.093  16.042  1.00  0.00    -0.347 OA
BRANCH   8   9
ATOM      9  C   UNL     1       4.647  -8.936  16.276  1.00  0.00     0.281 C 
ATOM     10  C   UNL     1       6.147 -11.609  16.951  1.00  0.00     0.041 C 
ATOM     11  C   UNL     1       6.561 -10.118  17.116  1.00  0.00     0.150 C 
ATOM     12  C   UNL     1       6.372  -9.558  18.541  1.00  0.00     0.174 C 
ATOM     13  O   UNL     1       6.027  -9.251  16.116  1.00  0.00    -0.344 OA
ATOM     14  C   UNL     1       4.904  -9.178  18.820  1.00  0.00     0.179 C 
ATOM     15  C   UNL     1       4.344  -8.312  17.660  1.00  0.00     0.202 C 
BRANCH  12  16
ATOM     16  O   UNL     1       7.191  -8.421  18.687  1.00  0.00    -0.388 OA
ATOM     17  H   UNL     1       7.145  -8.151  19.638  1.00  0.00     0.211 HD
ENDBRANCH  12  16
BRANCH  14  18
ATOM     18  O   UNL     1       4.147 -10.334  19.105  1.00  0.00    -0.387 OA
ATOM     19  H   UNL     1       4.743 -11.046  19.460  1.00  0.00     0.211 HD
ENDBRANCH  14  18
BRANCH  15  20
ATOM     20  O   UNL     1       4.911  -7.024  17.692  1.00  0.00    -0.385 OA
ATOM     21  H   UNL     1       4.921  -6.684  16.758  1.00  0.00     0.211 HD
ENDBRANCH  15  20
ENDBRANCH   8   9
ENDBRANCH   7   8
ENDBRANCH   1   7
BRANCH   2  22
ATOM     22  O   UNL     1       1.111  -9.606  18.703  1.00  0.00    -0.387 OA
ATOM     23  H   UNL     1       1.390  -8.780  18.225  1.00  0.00     0.211 HD
ENDBRANCH   2  22
BRANCH   3  24
ATOM     24  O   UNL     1      -0.360  -8.745  16.414  1.00  0.00    -0.387 OA
ATOM     25  H   UNL     1      -1.066  -8.597  15.729  1.00  0.00     0.211 HD
ENDBRANCH   3  24
BRANCH   5  26
ATOM     26  O   UNL     1       0.182 -10.492  14.140  1.00  0.00    -0.454 OA
BRANCH  26  27
ATOM     27  C   UNL     1      -0.083 -10.636  12.773  1.00  0.00     0.214 A 
ATOM     28  C   UNL     1       1.000 -10.706  11.893  1.00  0.00     0.180 A 
ATOM     29  C   UNL     1      -1.387 -10.702  12.261  1.00  0.00     0.239 A 
ATOM     30  O   UNL     1       0.795 -10.788  10.581  1.00  0.00    -0.452 OA
ATOM     31  C   UNL     1      -1.574 -10.823  10.867  1.00  0.00     0.111 A 
ATOM     32  O   UNL     1      -2.375 -10.657  13.043  1.00  0.00    -0.285 OA
ATOM     33  C   UNL     1      -0.423 -10.854  10.050  1.00  0.00     0.146 A 
ATOM     34  C   UNL     1      -2.848 -10.931  10.267  1.00  0.00     0.134 A 
ATOM     35  C   UNL     1      -0.551 -10.964   8.662  1.00  0.00     0.094 A 
ATOM     36  C   UNL     1      -2.955 -11.090   8.878  1.00  0.00     0.093 A 
ATOM     37  C   UNL     1      -1.816 -11.089   8.076  1.00  0.00     0.123 A 
BRANCH  28  38
ATOM     38  C   UNL     1       2.370 -10.637  12.428  1.00  0.00     0.025 A 
ATOM     39  C   UNL     1       3.047  -9.410  12.440  1.00  0.00     0.062 A 
ATOM     40  C   UNL     1       3.058 -11.817  12.751  1.00  0.00     0.016 A 
ATOM     41  C   UNL     1       4.416  -9.352  12.707  1.00  0.00     0.158 A 
ATOM     42  C   UNL     1       4.440 -11.775  12.976  1.00  0.00     0.051 A 
ATOM     43  C   UNL     1       5.126 -10.552  12.973  1.00  0.00     0.157 A 
BRANCH  41  44
ATOM     44  O   UNL     1       5.041  -8.102  12.624  1.00  0.00    -0.504 OA
ATOM     45  H   UNL     1       5.973  -7.958  12.260  1.00  0.00     0.293 HD
ENDBRANCH  41  44
BRANCH  43  46
ATOM     46  O   UNL     1       6.501 -10.569  13.186  1.00  0.00    -0.504 OA
ATOM     47  H   UNL     1       7.065  -9.742  13.298  1.00  0.00     0.293 HD
ENDBRANCH  43  46
ENDBRANCH  28  38
BRANCH  34  48
ATOM     48  O   UNL     1      -4.006 -10.907  11.044  1.00  0.00    -0.507 OA
ATOM     49  H   UNL     1      -4.073 -10.325  11.870  1.00  0.00     0.293 HD
ENDBRANCH  34  48
BRANCH  37  50
ATOM     50  O   UNL     1      -1.946 -11.200   6.695  1.00  0.00    -0.508 OA
ATOM     51  H   UNL     1      -1.659 -12.031   6.200  1.00  0.00     0.293 HD
ENDBRANCH  37  50
ENDBRANCH  26  27
ENDBRANCH   5  26
BRANCH   4  52
ATOM     52  O   UNL     1      -1.826 -12.064  16.733  1.00  0.00    -0.384 OA
ATOM     53  H   UNL     1      -2.718 -12.201  16.325  1.00  0.00     0.211 HD
ENDBRANCH   4  52
TORSDOF 16
ENDMDL
MODEL 2
REMARK VINA RESULT:    -5.524      2.405      3.709
REMARK INTER + INTRA:         -12.072
REMARK INTER:                  -9.597
REMARK INTRA:                  -2.475
REMARK UNBOUND:                -2.995
REMARK SMILES C[C@H]1O[C@@H](OC[C@@H]2O[C@H](Oc3c(-c4ccc(O)c(O)c4)oc4cc(O)cc(O)c4c3=O)[C@@H](O)[C@H](O)[C@@H]2O)[C@H](O)[C@@H](O)[C@@H]1O
REMARK SMILES IDX 7 1 36 2 34 3 32 4 9 5 8 6 6 7 5 8 4 9 1 10 2 11 42 12 3 13
REMARK SMILES IDX 40 14 38 15 43 16 41 18 39 20 37 22 35 24 10 26 11 27 12 28
REMARK SMILES IDX 30 29 21 30 29 31 31 32 22 33 27 34 23 35 26 36 24 37 13 38
REMARK SMILES IDX 20 39 14 40 18 41 15 42 16 43 19 44 17 46 28 48 25 50 33 52
REMARK H PARENT 43 17 41 19 39 21 37 23 35 25 19 45 17 47 28 49 25 51 33 53
REMARK Flexibility Score: inf
ROOT
ATOM      1  C   UNL     1       2.767 -11.227  16.889  1.00  0.00     0.180 C 
ATOM      2  C   UNL     1       2.853 -10.806  18.382  1.00  0.00     0.177 C 
ATOM      3  C   UNL     1       1.563 -10.111  18.820  1.00  0.00     0.180 C 
ATOM      4  C   UNL     1       0.367 -11.030  18.504  1.00  0.00     0.214 C 
ATOM      5  C   UNL     1       0.388 -11.521  17.037  1.00  0.00     0.339 C 
ATOM      6  O   UNL     1       1.641 -12.058  16.618  1.00  0.00    -0.332 OA
ENDROOT
BRANCH   1   7
ATOM      7  C   UNL     1       2.962 -10.116  15.800  1.00  0.00     0.198 C 
BRANCH   7   8
ATOM      8  O   UNL     1       4.219 -10.191  15.153  1.00  0.00    -0.347 OA
BRANCH   8   9
ATOM      9  C   UNL     1       4.731  -8.923  14.790  1.00  0.00     0.281 C 
ATOM     10  C   UNL     1       6.783 -11.261  14.378  1.00  0.00     0.041 C 
ATOM     11  C   UNL     1       6.916  -9.721  14.195  1.00  0.00     0.150 C 
ATOM     12  C   UNL     1       7.584  -8.994  15.380  1.00  0.00     0.174 C 
ATOM     13  O   UNL     1       5.714  -9.080  13.771  1.00  0.00    -0.344 OA
ATOM     14  C   UNL     1       6.599  -8.768  16.545  1.00  0.00     0.179 C 
ATOM     15  C   UNL     1       5.275  -8.153  16.018  1.00  0.00     0.202 C 
BRANCH  12  16
ATOM     16  O   UNL     1       8.071  -7.753  14.926  1.00  0.00    -0.388 OA
ATOM     17  H   UNL     1       9.014  -7.687  15.220  1.00  0.00     0.211 HD
ENDBRANCH  12  16
BRANCH  14  18
ATOM     18  O   UNL     1       6.437  -9.959  17.285  1.00  0.00    -0.387 OA
ATOM     19  H   UNL     1       6.692  -9.803  18.232  1.00  0.00     0.211 HD
ENDBRANCH  14  18
BRANCH  15  20
ATOM     20  O   UNL     1       5.475  -6.812  15.639  1.00  0.00    -0.385 OA
ATOM     21  H   UNL     1       6.284  -6.788  15.063  1.00  0.00     0.211 HD
ENDBRANCH  15  20
ENDBRANCH   8   9
ENDBRANCH   7   8
ENDBRANCH   1   7
BRANCH   2  22
ATOM     22  O   UNL     1       4.008 -10.044  18.640  1.00  0.00    -0.387 OA
ATOM     23  H   UNL     1       3.785  -9.086  18.495  1.00  0.00     0.211 HD
ENDBRANCH   2  22
BRANCH   3  24
ATOM     24  O   UNL     1       1.445  -8.886  18.159  1.00  0.00    -0.387 OA
ATOM     25  H   UNL     1       1.077  -8.242  18.822  1.00  0.00     0.211 HD
ENDBRANCH   3  24
BRANCH   5  26
ATOM     26  O   UNL     1      -0.028 -10.456  16.190  1.00  0.00    -0.454 OA
BRANCH  26  27
ATOM     27  C   UNL     1      -1.228 -10.449  15.467  1.00  0.00     0.214 A 
ATOM     28  C   UNL     1      -1.162 -10.554  14.075  1.00  0.00     0.180 A 
ATOM     29  C   UNL     1      -2.480 -10.331  16.087  1.00  0.00     0.239 A 
ATOM     30  O   UNL     1      -2.273 -10.496  13.345  1.00  0.00    -0.452 OA
ATOM     31  C   UNL     1      -3.644 -10.307  15.289  1.00  0.00     0.111 A 
ATOM     32  O   UNL     1      -2.557 -10.252  17.343  1.00  0.00    -0.285 OA
ATOM     33  C   UNL     1      -3.482 -10.385  13.888  1.00  0.00     0.146 A 
ATOM     34  C   UNL     1      -4.947 -10.226  15.827  1.00  0.00     0.134 A 
ATOM     35  C   UNL     1      -4.601 -10.357  13.050  1.00  0.00     0.094 A 
ATOM     36  C   UNL     1      -6.059 -10.248  14.975  1.00  0.00     0.093 A 
ATOM     37  C   UNL     1      -5.890 -10.296  13.592  1.00  0.00     0.123 A 
BRANCH  28  38
ATOM     38  C   UNL     1       0.151 -10.677  13.422  1.00  0.00     0.025 A 
ATOM     39  C   UNL     1       0.675  -9.590  12.709  1.00  0.00     0.062 A 
ATOM     40  C   UNL     1       0.788 -11.927  13.357  1.00  0.00     0.016 A 
ATOM     41  C   UNL     1       1.788  -9.748  11.881  1.00  0.00     0.158 A 
ATOM     42  C   UNL     1       1.877 -12.105  12.495  1.00  0.00     0.051 A 
ATOM     43  C   UNL     1       2.396 -11.026  11.766  1.00  0.00     0.157 A 
BRANCH  41  44
ATOM     44  O   UNL     1       2.207  -8.638  11.139  1.00  0.00    -0.504 OA
ATOM     45  H   UNL     1       2.241  -7.694  11.500  1.00  0.00     0.293 HD
ENDBRANCH  41  44
BRANCH  43  46
ATOM     46  O   UNL     1       3.469 -11.262  10.912  1.00  0.00    -0.504 OA
ATOM     47  H   UNL     1       3.580 -10.826  10.011  1.00  0.00     0.293 HD
ENDBRANCH  43  46
ENDBRANCH  28  38
BRANCH  34  48
ATOM     48  O   UNL     1      -5.144 -10.150  17.207  1.00  0.00    -0.507 OA
ATOM     49  H   UNL     1      -5.749 -10.803  17.688  1.00  0.00     0.293 HD
ENDBRANCH  34  48
BRANCH  37  50
ATOM     50  O   UNL     1      -7.004 -10.268  12.760  1.00  0.00    -0.508 OA
ATOM     51  H   UNL     1      -7.214  -9.469  12.180  1.00  0.00     0.293 HD
ENDBRANCH  37  50
ENDBRANCH  26  27
ENDBRANCH   5  26
BRANCH   4  52
ATOM     52  O   UNL     1       0.310 -12.114  19.409  1.00  0.00    -0.384 OA
ATOM     53  H   UNL     1       0.714 -11.820  20.264  1.00  0.00     0.211 HD
ENDBRANCH   4  52
TORSDOF 16
ENDMDL
MODEL 3
REMARK VINA RESULT:    -5.374      1.500      4.098
REMARK INTER + INTRA:         -11.825
REMARK INTER:                  -9.755
REMARK INTRA:                  -2.069
REMARK UNBOUND:                -2.995
REMARK SMILES C[C@H]1O[C@@H](OC[C@@H]2O[C@H](Oc3c(-c4ccc(O)c(O)c4)oc4cc(O)cc(O)c4c3=O)[C@@H](O)[C@H](O)[C@@H]2O)[C@H](O)[C@@H](O)[C@@H]1O
REMARK SMILES IDX 7 1 36 2 34 3 32 4 9 5 8 6 6 7 5 8 4 9 1 10 2 11 42 12 3 13
REMARK SMILES IDX 40 14 38 15 43 16 41 18 39 20 37 22 35 24 10 26 11 27 12 28
REMARK SMILES IDX 30 29 21 30 29 31 31 32 22 33 27 34 23 35 26 36 24 37 13 38
REMARK SMILES IDX 20 39 14 40 18 41 15 42 16 43 19 44 17 46 28 48 25 50 33 52
REMARK H PARENT 43 17 41 19 39 21 37 23 35 25 19 45 17 47 28 49 25 51 33 53
REMARK Flexibility Score: inf
ROOT
ATOM      1  C   UNL     1       5.050  -9.488  13.966  1.00  0.00     0.180 C 
ATOM      2  C   UNL     1       5.677 -10.886  13.709  1.00  0.00     0.177 C 
ATOM      3  C   UNL     1       4.612 -11.873  13.228  1.00  0.00     0.180 C 
ATOM      4  C   UNL     1       3.899 -11.280  11.999  1.00  0.00     0.214 C 
ATOM      5  C   UNL     1       3.395  -9.840  12.263  1.00  0.00     0.339 C 
ATOM      6  O   UNL     1       4.377  -8.971  12.822  1.00  0.00    -0.332 OA
ENDROOT
BRANCH   1   7
ATOM      7  C   UNL     1       4.225  -9.285  15.284  1.00  0.00     0.198 C 
BRANCH   7   8
ATOM      8  O   UNL     1       4.999  -9.468  16.455  1.00  0.00    -0.347 OA
BRANCH   8   9
ATOM      9  C   UNL     1       5.629  -8.279  16.892  1.00  0.00     0.281 C 
ATOM     10  C   UNL     1       6.724 -10.861  18.299  1.00  0.00     0.041 C 
ATOM     11  C   UNL     1       7.048  -9.353  18.504  1.00  0.00     0.150 C 
ATOM     12  C   UNL     1       6.313  -8.701  19.694  1.00  0.00     0.174 C 
ATOM     13  O   UNL     1       6.958  -8.571  17.314  1.00  0.00    -0.344 OA
ATOM     14  C   UNL     1       4.857  -8.338  19.341  1.00  0.00     0.179 C 
ATOM     15  C   UNL     1       4.806  -7.568  17.994  1.00  0.00     0.202 C 
BRANCH  12  16
ATOM     16  O   UNL     1       7.013  -7.537  20.068  1.00  0.00    -0.388 OA
ATOM     17  H   UNL     1       7.576  -7.278  19.297  1.00  0.00     0.211 HD
ENDBRANCH  12  16
BRANCH  14  18
ATOM     18  O   UNL     1       4.042  -9.490  19.388  1.00  0.00    -0.387 OA
ATOM     19  H   UNL     1       3.835  -9.715  20.332  1.00  0.00     0.211 HD
ENDBRANCH  14  18
BRANCH  15  20
ATOM     20  O   UNL     1       5.322  -6.268  18.154  1.00  0.00    -0.385 OA
ATOM     21  H   UNL     1       4.868  -5.688  17.486  1.00  0.00     0.211 HD
ENDBRANCH  15  20
ENDBRANCH   8   9
ENDBRANCH   7   8
ENDBRANCH   1   7
BRANCH   2  22
ATOM     22  O   UNL     1       6.394 -11.346  14.830  1.00  0.00    -0.387 OA
ATOM     23  H   UNL     1       7.256 -10.855  14.868  1.00  0.00     0.211 HD
ENDBRANCH   2  22
BRANCH   3  24
ATOM     24  O   UNL     1       3.708 -12.125  14.262  1.00  0.00    -0.387 OA
ATOM     25  H   UNL     1       3.942 -13.019  14.631  1.00  0.00     0.211 HD
ENDBRANCH   3  24
BRANCH   5  26
ATOM     26  O   UNL     1       2.232  -9.903  13.080  1.00  0.00    -0.454 OA
BRANCH  26  27
ATOM     27  C   UNL     1       0.937 -10.111  12.591  1.00  0.00     0.214 A 
ATOM     28  C   UNL     1      -0.056 -10.504  13.492  1.00  0.00     0.180 A 
ATOM     29  C   UNL     1       0.607  -9.950  11.237  1.00  0.00     0.239 A 
ATOM     30  O   UNL     1      -1.287 -10.767  13.063  1.00  0.00    -0.452 OA
ATOM     31  C   UNL     1      -0.715 -10.202  10.816  1.00  0.00     0.111 A 
ATOM     32  O   UNL     1       1.487  -9.579  10.414  1.00  0.00    -0.285 OA
ATOM     33  C   UNL     1      -1.646 -10.627  11.789  1.00  0.00     0.146 A 
ATOM     34  C   UNL     1      -1.146 -10.032   9.481  1.00  0.00     0.134 A 
ATOM     35  C   UNL     1      -2.968 -10.900  11.425  1.00  0.00     0.094 A 
ATOM     36  C   UNL     1      -2.486 -10.263   9.143  1.00  0.00     0.093 A 
ATOM     37  C   UNL     1      -3.391 -10.711  10.103  1.00  0.00     0.123 A 
BRANCH  28  38
ATOM     38  C   UNL     1       0.288 -10.675  14.914  1.00  0.00     0.025 A 
ATOM     39  C   UNL     1       0.633  -9.555  15.682  1.00  0.00     0.062 A 
ATOM     40  C   UNL     1       0.447 -11.964  15.447  1.00  0.00     0.016 A 
ATOM     41  C   UNL     1       1.196  -9.704  16.951  1.00  0.00     0.158 A 
ATOM     42  C   UNL     1       1.052 -12.125  16.700  1.00  0.00     0.051 A 
ATOM     43  C   UNL     1       1.415 -11.009  17.467  1.00  0.00     0.157 A 
BRANCH  41  44
ATOM     44  O   UNL     1       1.588  -8.544  17.628  1.00  0.00    -0.504 OA
ATOM     45  H   UNL     1       1.050  -7.689  17.646  1.00  0.00     0.293 HD
ENDBRANCH  41  44
BRANCH  43  46
ATOM     46  O   UNL     1       2.027 -11.226  18.698  1.00  0.00    -0.504 OA
ATOM     47  H   UNL     1       2.947 -11.620  18.809  1.00  0.00     0.293 HD
ENDBRANCH  43  46
ENDBRANCH  28  38
BRANCH  34  48
ATOM     48  O   UNL     1      -0.254  -9.611   8.494  1.00  0.00    -0.507 OA
ATOM     49  H   UNL     1       0.709  -9.390   8.715  1.00  0.00     0.293 HD
ENDBRANCH  34  48
BRANCH  37  50
ATOM     50  O   UNL     1      -4.706 -10.980   9.739  1.00  0.00    -0.508 OA
ATOM     51  H   UNL     1      -5.071 -11.921   9.728  1.00  0.00     0.293 HD
ENDBRANCH  37  50
ENDBRANCH  26  27
ENDBRANCH   5  26
BRANCH   4  52
ATOM     52  O   UNL     1       4.730 -11.333  10.857  1.00  0.00    -0.384 OA
ATOM     53  H   UNL     1       4.247 -11.830  10.150  1.00  0.00     0.211 HD
ENDBRANCH   4  52
TORSDOF 16
ENDMDL
MODEL 4
REMARK VINA RESULT:    -5.210      1.810      7.713
REMARK INTER + INTRA:         -11.556
REMARK INTER:                  -9.442
REMARK INTRA:                  -2.114
REMARK UNBOUND:                -2.995
REMARK SMILES C[C@H]1O[C@@H](OC[C@@H]2O[C@H](Oc3c(-c4ccc(O)c(O)c4)oc4cc(O)cc(O)c4c3=O)[C@@H](O)[C@H](O)[C@@H]2O)[C@H](O)[C@@H](O)[C@@H]1O
REMARK SMILES IDX 7 1 36 2 34 3 32 4 9 5 8 6 6 7 5 8 4 9 1 10 2 11 42 12 3 13
REMARK SMILES IDX 40 14 38 15 43 16 41 18 39 20 37 22 35 24 10 26 11 27 12 28
REMARK SMILES IDX 30 29 21 30 29 31 31 32 22 33 27 34 23 35 26 36 24 37 13 38
REMARK SMILES IDX 20 39 14 40 18 41 15 42 16 43 19 44 17 46 28 48 25 50 33 52
REMARK H PARENT 43 17 41 19 39 21 37 23 35 25 19 45 17 47 28 49 25 51 33 53
REMARK Flexibility Score: inf
ROOT
ATOM      1  C   UNL     1       3.485 -11.359  13.502  1.00  0.00     0.180 C 
ATOM      2  C   UNL     1       4.969 -10.904  13.440  1.00  0.00     0.177 C 
ATOM      3  C   UNL     1       5.343 -10.118  14.698  1.00  0.00     0.180 C 
ATOM      4  C   UNL     1       5.008 -10.969  15.937  1.00  0.00     0.214 C 
ATOM      5  C   UNL     1       3.555 -11.499  15.898  1.00  0.00     0.339 C 
ATOM      6  O   UNL     1       3.195 -12.125  14.668  1.00  0.00    -0.332 OA
ENDROOT
BRANCH   1   7
ATOM      7  C   UNL     1       2.376 -10.292  13.200  1.00  0.00     0.198 C 
BRANCH   7   8
ATOM      8  O   UNL     1       1.291 -10.817  12.457  1.00  0.00    -0.347 OA
BRANCH   8   9
ATOM      9  C   UNL     1       1.398 -10.565  11.069  1.00  0.00     0.281 C 
ATOM     10  C   UNL     1      -1.000  -9.066  12.429  1.00  0.00     0.041 C 
ATOM     11  C   UNL     1      -0.542  -9.155  10.944  1.00  0.00     0.150 C 
ATOM     12  C   UNL     1      -1.323 -10.181  10.097  1.00  0.00     0.174 C 
ATOM     13  O   UNL     1       0.870  -9.274  10.778  1.00  0.00    -0.344 OA
ATOM     14  C   UNL     1      -0.826 -11.621  10.335  1.00  0.00     0.179 C 
ATOM     15  C   UNL     1       0.723 -11.679  10.232  1.00  0.00     0.202 C 
BRANCH  12  16
ATOM     16  O   UNL     1      -1.170  -9.847   8.738  1.00  0.00    -0.388 OA
ATOM     17  H   UNL     1      -1.816  -9.123   8.543  1.00  0.00     0.211 HD
ENDBRANCH  12  16
BRANCH  14  18
ATOM     18  O   UNL     1      -1.350 -12.125  11.545  1.00  0.00    -0.387 OA
ATOM     19  H   UNL     1      -0.831 -11.763  12.311  1.00  0.00     0.211 HD
ENDBRANCH  14  18
BRANCH  15  20
ATOM     20  O   UNL     1       1.130 -11.526   8.893  1.00  0.00    -0.385 OA
ATOM     21  H   UNL     1       1.377 -10.572   8.769  1.00  0.00     0.211 HD
ENDBRANCH  15  20
ENDBRANCH   8   9
ENDBRANCH   7   8
ENDBRANCH   1   7
BRANCH   2  22
ATOM     22  O   UNL     1       5.248 -10.209  12.248  1.00  0.00    -0.387 OA
ATOM     23  H   UNL     1       5.769  -9.395  12.481  1.00  0.00     0.211 HD
ENDBRANCH   2  22
BRANCH   3  24
ATOM     24  O   UNL     1       4.648  -8.907  14.716  1.00  0.00    -0.387 OA
ATOM     25  H   UNL     1       5.309  -8.206  14.965  1.00  0.00     0.211 HD
ENDBRANCH   3  24
BRANCH   5  26
ATOM     26  O   UNL     1       2.667 -10.435  16.217  1.00  0.00    -0.454 OA
BRANCH  26  27
ATOM     27  C   UNL     1       1.581 -10.552  17.093  1.00  0.00     0.214 A 
ATOM     28  C   UNL     1       1.747 -10.128  18.414  1.00  0.00     0.180 A 
ATOM     29  C   UNL     1       0.347 -11.085  16.696  1.00  0.00     0.239 A 
ATOM     30  O   UNL     1       0.760 -10.272  19.295  1.00  0.00    -0.452 OA
ATOM     31  C   UNL     1      -0.693 -11.194  17.643  1.00  0.00     0.111 A 
ATOM     32  O   UNL     1       0.175 -11.457  15.503  1.00  0.00    -0.285 OA
ATOM     33  C   UNL     1      -0.427 -10.771  18.963  1.00  0.00     0.146 A 
ATOM     34  C   UNL     1      -1.979 -11.686  17.324  1.00  0.00     0.134 A 
ATOM     35  C   UNL     1      -1.420 -10.865  19.944  1.00  0.00     0.094 A 
ATOM     36  C   UNL     1      -2.977 -11.727  18.308  1.00  0.00     0.093 A 
ATOM     37  C   UNL     1      -2.697 -11.336  19.615  1.00  0.00     0.123 A 
BRANCH  28  38
ATOM     38  C   UNL     1       3.043  -9.568  18.834  1.00  0.00     0.025 A 
ATOM     39  C   UNL     1       3.437  -8.307  18.365  1.00  0.00     0.062 A 
ATOM     40  C   UNL     1       3.953 -10.364  19.547  1.00  0.00     0.016 A 
ATOM     41  C   UNL     1       4.746  -7.857  18.541  1.00  0.00     0.158 A 
ATOM     42  C   UNL     1       5.280  -9.940  19.689  1.00  0.00     0.051 A 
ATOM     43  C   UNL     1       5.685  -8.687  19.208  1.00  0.00     0.157 A 
BRANCH  41  44
ATOM     44  O   UNL     1       5.089  -6.622  17.977  1.00  0.00    -0.504 OA
ATOM     45  H   UNL     1       4.736  -5.733  18.303  1.00  0.00     0.293 HD
ENDBRANCH  41  44
BRANCH  43  46
ATOM     46  O   UNL     1       7.020  -8.323  19.362  1.00  0.00    -0.504 OA
ATOM     47  H   UNL     1       7.796  -8.947  19.215  1.00  0.00     0.293 HD
ENDBRANCH  43  46
ENDBRANCH  28  38
BRANCH  34  48
ATOM     48  O   UNL     1      -2.278 -12.110  16.029  1.00  0.00    -0.507 OA
ATOM     49  H   UNL     1      -1.729 -11.802  15.235  1.00  0.00     0.293 HD
ENDBRANCH  34  48
BRANCH  37  50
ATOM     50  O   UNL     1      -3.686 -11.429  20.589  1.00  0.00    -0.508 OA
ATOM     51  H   UNL     1      -3.941 -12.313  21.003  1.00  0.00     0.293 HD
ENDBRANCH  37  50
ENDBRANCH  26  27
ENDBRANCH   5  26
BRANCH   4  52
ATOM     52  O   UNL     1       5.937 -12.022  16.094  1.00  0.00    -0.384 OA
ATOM     53  H   UNL     1       6.464 -11.845  16.913  1.00  0.00     0.211 HD
ENDBRANCH   4  52
TORSDOF 16
ENDMDL
MODEL 5
REMARK VINA RESULT:    -4.721      2.821      6.432
REMARK INTER + INTRA:         -10.752
REMARK INTER:                  -9.037
REMARK INTRA:                  -1.715
REMARK UNBOUND:                -2.995
REMARK SMILES C[C@H]1O[C@@H](OC[C@@H]2O[C@H](Oc3c(-c4ccc(O)c(O)c4)oc4cc(O)cc(O)c4c3=O)[C@@H](O)[C@H](O)[C@@H]2O)[C@H](O)[C@@H](O)[C@@H]1O
REMARK SMILES IDX 7 1 36 2 34 3 32 4 9 5 8 6 6 7 5 8 4 9 1 10 2 11 42 12 3 13
REMARK SMILES IDX 40 14 38 15 43 16 41 18 39 20 37 22 35 24 10 26 11 27 12 28
REMARK SMILES IDX 30 29 21 30 29 31 31 32 22 33 27 34 23 35 26 36 24 37 13 38
REMARK SMILES IDX 20 39 14 40 18 41 15 42 16 43 19 44 17 46 28 48 25 50 33 52
REMARK H PARENT 43 17 41 19 39 21 37 23 35 25 19 45 17 47 28 49 25 51 33 53
REMARK Flexibility Score: inf
ROOT
ATOM      1  C   UNL     1      -2.836 -11.241  15.912  1.00  0.00     0.180 C 
ATOM      2  C   UNL     1      -3.994 -10.784  16.842  1.00  0.00     0.177 C 
ATOM      3  C   UNL     1      -5.100 -10.108  16.031  1.00  0.00     0.180 C 
ATOM      4  C   UNL     1      -5.549 -11.060  14.906  1.00  0.00     0.214 C 
ATOM      5  C   UNL     1      -4.350 -11.583  14.080  1.00  0.00     0.339 C 
ATOM      6  O   UNL     1      -3.280 -12.102  14.867  1.00  0.00    -0.332 OA
ENDROOT
BRANCH   1   7
ATOM      7  C   UNL     1      -1.834 -10.150  15.399  1.00  0.00     0.198 C 
BRANCH   7   8
ATOM      8  O   UNL     1      -0.700 -10.004  16.235  1.00  0.00    -0.347 OA
BRANCH   8   9
ATOM      9  C   UNL     1       0.337 -10.914  15.924  1.00  0.00     0.281 C 
ATOM     10  C   UNL     1      -0.114 -10.541  19.007  1.00  0.00     0.041 C 
ATOM     11  C   UNL     1       0.939 -11.360  18.205  1.00  0.00     0.150 C 
ATOM     12  C   UNL     1       2.308 -10.665  18.057  1.00  0.00     0.174 C 
ATOM     13  O   UNL     1       0.454 -11.877  16.967  1.00  0.00    -0.344 OA
ATOM     14  C   UNL     1       2.293  -9.598  16.944  1.00  0.00     0.179 C 
ATOM     15  C   UNL     1       1.674 -10.184  15.646  1.00  0.00     0.202 C 
BRANCH  12  16
ATOM     16  O   UNL     1       3.277 -11.643  17.761  1.00  0.00    -0.388 OA
ATOM     17  H   UNL     1       2.816 -12.368  17.270  1.00  0.00     0.211 HD
ENDBRANCH  12  16
BRANCH  14  18
ATOM     18  O   UNL     1       1.673  -8.418  17.407  1.00  0.00    -0.387 OA
ATOM     19  H   UNL     1       1.358  -7.880  16.634  1.00  0.00     0.211 HD
ENDBRANCH  14  18
BRANCH  15  20
ATOM     20  O   UNL     1       2.559 -11.105  15.054  1.00  0.00    -0.385 OA
ATOM     21  H   UNL     1       2.564 -11.917  15.626  1.00  0.00     0.211 HD
ENDBRANCH  15  20
ENDBRANCH   8   9
ENDBRANCH   7   8
ENDBRANCH   1   7
BRANCH   2  22
ATOM     22  O   UNL     1      -3.523  -9.991  17.905  1.00  0.00    -0.387 OA
ATOM     23  H   UNL     1      -2.592 -10.272  18.111  1.00  0.00     0.211 HD
ENDBRANCH   2  22
BRANCH   3  24
ATOM     24  O   UNL     1      -4.628  -8.902  15.511  1.00  0.00    -0.387 OA
ATOM     25  H   UNL     1      -3.907  -9.136  14.865  1.00  0.00     0.211 HD
ENDBRANCH   3  24
BRANCH   5  26
ATOM     26  O   UNL     1      -3.902 -10.548  13.214  1.00  0.00    -0.454 OA
BRANCH  26  27
ATOM     27  C   UNL     1      -3.384 -10.764  11.931  1.00  0.00     0.214 A 
ATOM     28  C   UNL     1      -4.283 -10.969  10.881  1.00  0.00     0.180 A 
ATOM     29  C   UNL     1      -2.007 -10.793  11.668  1.00  0.00     0.239 A 
ATOM     30  O   UNL     1      -3.836 -11.234   9.656  1.00  0.00    -0.452 OA
ATOM     31  C   UNL     1      -1.562 -11.042  10.352  1.00  0.00     0.111 A 
ATOM     32  O   UNL     1      -1.183 -10.593  12.601  1.00  0.00    -0.285 OA
ATOM     33  C   UNL     1      -2.540 -11.270   9.360  1.00  0.00     0.146 A 
ATOM     34  C   UNL     1      -0.197 -11.054   9.989  1.00  0.00     0.134 A 
ATOM     35  C   UNL     1      -2.154 -11.530   8.041  1.00  0.00     0.094 A 
ATOM     36  C   UNL     1       0.170 -11.268   8.653  1.00  0.00     0.093 A 
ATOM     37  C   UNL     1      -0.800 -11.522   7.686  1.00  0.00     0.123 A 
BRANCH  28  38
ATOM     38  C   UNL     1      -5.730 -10.940  11.154  1.00  0.00     0.025 A 
ATOM     39  C   UNL     1      -6.391  -9.708  11.258  1.00  0.00     0.062 A 
ATOM     40  C   UNL     1      -6.405 -12.125  11.488  1.00  0.00     0.016 A 
ATOM     41  C   UNL     1      -7.693  -9.636  11.754  1.00  0.00     0.158 A 
ATOM     42  C   UNL     1      -7.695 -12.059  12.028  1.00  0.00     0.051 A 
ATOM     43  C   UNL     1      -8.355 -10.828  12.151  1.00  0.00     0.157 A 
BRANCH  41  44
ATOM     44  O   UNL     1      -8.261  -8.365  11.904  1.00  0.00    -0.504 OA
ATOM     45  H   UNL     1      -8.515  -7.763  11.133  1.00  0.00     0.293 HD
ENDBRANCH  41  44
BRANCH  43  46
ATOM     46  O   UNL     1      -9.631 -10.817  12.708  1.00  0.00    -0.504 OA
ATOM     47  H   UNL     1     -10.247 -11.614  12.722  1.00  0.00     0.293 HD
ENDBRANCH  43  46
ENDBRANCH  28  38
BRANCH  34  48
ATOM     48  O   UNL     1       0.796 -10.829  10.944  1.00  0.00    -0.507 OA
ATOM     49  H   UNL     1       1.722 -10.521  10.676  1.00  0.00     0.293 HD
ENDBRANCH  34  48
BRANCH  37  50
ATOM     50  O   UNL     1      -0.414 -11.779   6.374  1.00  0.00    -0.508 OA
ATOM     51  H   UNL     1      -0.232 -11.034   5.719  1.00  0.00     0.293 HD
ENDBRANCH  37  50
ENDBRANCH  26  27
ENDBRANCH   5  26
BRANCH   4  52
ATOM     52  O   UNL     1      -6.322 -12.125  15.423  1.00  0.00    -0.384 OA
ATOM     53  H   UNL     1      -6.938 -11.753  16.103  1.00  0.00     0.211 HD
ENDBRANCH   4  52
TORSDOF 16
ENDMDL
MODEL 6
REMARK VINA RESULT:    -4.703      1.985      5.262
REMARK INTER + INTRA:         -10.722
REMARK INTER:                  -8.954
REMARK INTRA:                  -1.768
REMARK UNBOUND:                -2.995
REMARK SMILES C[C@H]1O[C@@H](OC[C@@H]2O[C@H](Oc3c(-c4ccc(O)c(O)c4)oc4cc(O)cc(O)c4c3=O)[C@@H](O)[C@H](O)[C@@H]2O)[C@H](O)[C@@H](O)[C@@H]1O
REMARK SMILES IDX 7 1 36 2 34 3 32 4 9 5 8 6 6 7 5 8 4 9 1 10 2 11 42 12 3 13
REMARK SMILES IDX 40 14 38 15 43 16 41 18 39 20 37 22 35 24 10 26 11 27 12 28
REMARK SMILES IDX 30 29 21 30 29 31 31 32 22 33 27 34 23 35 26 36 24 37 13 38
REMARK SMILES IDX 20 39 14 40 18 41 15 42 16 43 19 44 17 46 28 48 25 50 33 52
REMARK H PARENT 43 17 41 19 39 21 37 23 35 25 19 45 17 47 28 49 25 51 33 53
REMARK Flexibility Score: inf
ROOT
ATOM      1  C   UNL     1       0.956 -10.240  18.282  1.00  0.00     0.180 C 
ATOM      2  C   UNL     1       2.157 -10.247  19.268  1.00  0.00     0.177 C 
ATOM      3  C   UNL     1       3.477 -10.391  18.508  1.00  0.00     0.180 C 
ATOM      4  C   UNL     1       3.561  -9.286  17.438  1.00  0.00     0.214 C 
ATOM      5  C   UNL     1       2.291  -9.240  16.555  1.00  0.00     0.339 C 
ATOM      6  O   UNL     1       1.069  -9.224  17.289  1.00  0.00    -0.332 OA
ENDROOT
BRANCH   1   7
ATOM      7  C   UNL     1       0.494 -11.612  17.680  1.00  0.00     0.198 C 
BRANCH   7   8
ATOM      8  O   UNL     1      -0.804 -11.559  17.117  1.00  0.00    -0.347 OA
BRANCH   8   9
ATOM      9  C   UNL     1      -1.816 -11.336  18.080  1.00  0.00     0.281 C 
ATOM     10  C   UNL     1      -2.935 -12.123  15.256  1.00  0.00     0.041 C 
ATOM     11  C   UNL     1      -3.649 -11.717  16.578  1.00  0.00     0.150 C 
ATOM     12  C   UNL     1      -4.097 -10.242  16.632  1.00  0.00     0.174 C 
ATOM     13  O   UNL     1      -2.961 -12.121  17.760  1.00  0.00    -0.344 OA
ATOM     14  C   UNL     1      -2.927  -9.299  16.978  1.00  0.00     0.179 C 
ATOM     15  C   UNL     1      -2.155  -9.831  18.216  1.00  0.00     0.202 C 
BRANCH  12  16
ATOM     16  O   UNL     1      -5.108 -10.116  17.605  1.00  0.00    -0.388 OA
ATOM     17  H   UNL     1      -5.413 -11.031  17.825  1.00  0.00     0.211 HD
ENDBRANCH  12  16
BRANCH  14  18
ATOM     18  O   UNL     1      -2.123  -9.079  15.839  1.00  0.00    -0.387 OA
ATOM     19  H   UNL     1      -2.686  -9.114  15.021  1.00  0.00     0.211 HD
ENDBRANCH  14  18
BRANCH  15  20
ATOM     20  O   UNL     1      -2.924  -9.661  19.383  1.00  0.00    -0.385 OA
ATOM     21  H   UNL     1      -2.339  -9.229  20.060  1.00  0.00     0.211 HD
ENDBRANCH  15  20
ENDBRANCH   8   9
ENDBRANCH   7   8
ENDBRANCH   1   7
BRANCH   2  22
ATOM     22  O   UNL     1       1.991 -11.212  20.279  1.00  0.00    -0.387 OA
ATOM     23  H   UNL     1       2.420 -12.055  19.974  1.00  0.00     0.211 HD
ENDBRANCH   2  22
BRANCH   3  24
ATOM     24  O   UNL     1       3.545 -11.659  17.928  1.00  0.00    -0.387 OA
ATOM     25  H   UNL     1       3.663 -12.305  18.676  1.00  0.00     0.211 HD
ENDBRANCH   3  24
BRANCH   5  26
ATOM     26  O   UNL     1       2.331 -10.325  15.636  1.00  0.00    -0.454 OA
BRANCH  26  27
ATOM     27  C   UNL     1       2.027 -10.213  14.274  1.00  0.00     0.214 A 
ATOM     28  C   UNL     1       3.072  -9.962  13.381  1.00  0.00     0.180 A 
ATOM     29  C   UNL     1       0.720 -10.333  13.780  1.00  0.00     0.239 A 
ATOM     30  O   UNL     1       2.823  -9.793  12.085  1.00  0.00    -0.452 OA
ATOM     31  C   UNL     1       0.490 -10.183  12.396  1.00  0.00     0.111 A 
ATOM     32  O   UNL     1      -0.233 -10.576  14.570  1.00  0.00    -0.285 OA
ATOM     33  C   UNL     1       1.600  -9.899  11.572  1.00  0.00     0.146 A 
ATOM     34  C   UNL     1      -0.787 -10.323  11.807  1.00  0.00     0.134 A 
ATOM     35  C   UNL     1       1.428  -9.732  10.194  1.00  0.00     0.094 A 
ATOM     36  C   UNL     1      -0.933 -10.201  10.418  1.00  0.00     0.093 A 
ATOM     37  C   UNL     1       0.162  -9.891   9.616  1.00  0.00     0.123 A 
BRANCH  28  38
ATOM     38  C   UNL     1       4.446  -9.835  13.896  1.00  0.00     0.025 A 
ATOM     39  C   UNL     1       5.000  -8.561  14.084  1.00  0.00     0.062 A 
ATOM     40  C   UNL     1       5.256 -10.974  14.022  1.00  0.00     0.016 A 
ATOM     41  C   UNL     1       6.365  -8.405  14.332  1.00  0.00     0.158 A 
ATOM     42  C   UNL     1       6.634 -10.826  14.227  1.00  0.00     0.051 A 
ATOM     43  C   UNL     1       7.197  -9.553  14.399  1.00  0.00     0.157 A 
BRANCH  41  44
ATOM     44  O   UNL     1       6.861  -7.100  14.430  1.00  0.00    -0.504 OA
ATOM     45  H   UNL     1       7.221  -6.570  13.648  1.00  0.00     0.293 HD
ENDBRANCH  41  44
BRANCH  43  46
ATOM     46  O   UNL     1       8.573  -9.462  14.583  1.00  0.00    -0.504 OA
ATOM     47  H   UNL     1       9.131 -10.170  15.033  1.00  0.00     0.293 HD
ENDBRANCH  43  46
ENDBRANCH  28  38
BRANCH  34  48
ATOM     48  O   UNL     1      -1.905 -10.607  12.591  1.00  0.00    -0.507 OA
ATOM     49  H   UNL     1      -2.445 -11.452  12.451  1.00  0.00     0.293 HD
ENDBRANCH  34  48
BRANCH  37  50
ATOM     50  O   UNL     1      -0.012  -9.726   8.245  1.00  0.00    -0.508 OA
ATOM     51  H   UNL     1       0.642  -9.197   7.687  1.00  0.00     0.293 HD
ENDBRANCH  37  50
ENDBRANCH  26  27
ENDBRANCH   5  26
BRANCH   4  52
ATOM     52  O   UNL     1       3.823  -8.029  18.029  1.00  0.00    -0.384 OA
ATOM     53  H   UNL     1       3.205  -7.916  18.794  1.00  0.00     0.211 HD
ENDBRANCH   4  52
TORSDOF 16
ENDMDL
MODEL 7
REMARK VINA RESULT:    -4.698      1.763      7.624
REMARK INTER + INTRA:         -10.714
REMARK INTER:                  -8.610
REMARK INTRA:                  -2.105
REMARK UNBOUND:                -2.995
REMARK SMILES C[C@H]1O[C@@H](OC[C@@H]2O[C@H](Oc3c(-c4ccc(O)c(O)c4)oc4cc(O)cc(O)c4c3=O)[C@@H](O)[C@H](O)[C@@H]2O)[C@H](O)[C@@H](O)[C@@H]1O
REMARK SMILES IDX 7 1 36 2 34 3 32 4 9 5 8 6 6 7 5 8 4 9 1 10 2 11 42 12 3 13
REMARK SMILES IDX 40 14 38 15 43 16 41 18 39 20 37 22 35 24 10 26 11 27 12 28
REMARK SMILES IDX 30 29 21 30 29 31 31 32 22 33 27 34 23 35 26 36 24 37 13 38
REMARK SMILES IDX 20 39 14 40 18 41 15 42 16 43 19 44 17 46 28 48 25 50 33 52
REMARK H PARENT 43 17 41 19 39 21 37 23 35 25 19 45 17 47 28 49 25 51 33 53
REMARK Flexibility Score: inf
ROOT
ATOM      1  C   UNL     1       2.854 -11.202  12.480  1.00  0.00     0.180 C 
ATOM      2  C   UNL     1       4.363 -10.852  12.359  1.00  0.00     0.177 C 
ATOM      3  C   UNL     1       4.850 -10.130  13.617  1.00  0.00     0.180 C 
ATOM      4  C   UNL     1       4.512 -10.988  14.850  1.00  0.00     0.214 C 
ATOM      5  C   UNL     1       3.024 -11.413  14.866  1.00  0.00     0.339 C 
ATOM      6  O   UNL     1       2.564 -11.977  13.640  1.00  0.00    -0.332 OA
ENDROOT
BRANCH   1   7
ATOM      7  C   UNL     1       1.814 -10.051  12.258  1.00  0.00     0.198 C 
BRANCH   7   8
ATOM      8  O   UNL     1       0.552 -10.523  11.823  1.00  0.00    -0.347 OA
BRANCH   8   9
ATOM      9  C   UNL     1      -0.184  -9.552  11.104  1.00  0.00     0.281 C 
ATOM     10  C   UNL     1      -1.846 -12.125  11.785  1.00  0.00     0.041 C 
ATOM     11  C   UNL     1      -2.198 -10.852  10.962  1.00  0.00     0.150 C 
ATOM     12  C   UNL     1      -2.066 -11.024   9.435  1.00  0.00     0.174 C 
ATOM     13  O   UNL     1      -1.566  -9.662  11.432  1.00  0.00    -0.344 OA
ATOM     14  C   UNL     1      -0.600 -10.918   8.969  1.00  0.00     0.179 C 
ATOM     15  C   UNL     1       0.068  -9.656   9.580  1.00  0.00     0.202 C 
BRANCH  12  16
ATOM     16  O   UNL     1      -2.836 -10.028   8.804  1.00  0.00    -0.388 OA
ATOM     17  H   UNL     1      -3.122 -10.393   7.930  1.00  0.00     0.211 HD
ENDBRANCH  12  16
BRANCH  14  18
ATOM     18  O   UNL     1       0.083 -12.125   9.228  1.00  0.00    -0.387 OA
ATOM     19  H   UNL     1       0.588 -12.404   8.419  1.00  0.00     0.211 HD
ENDBRANCH  14  18
BRANCH  15  20
ATOM     20  O   UNL     1      -0.439  -8.492   8.973  1.00  0.00    -0.385 OA
ATOM     21  H   UNL     1       0.170  -7.745   9.217  1.00  0.00     0.211 HD
ENDBRANCH  15  20
ENDBRANCH   8   9
ENDBRANCH   7   8
ENDBRANCH   1   7
BRANCH   2  22
ATOM     22  O   UNL     1       4.638 -10.146  11.173  1.00  0.00    -0.387 OA
ATOM     23  H   UNL     1       3.963 -10.411  10.493  1.00  0.00     0.211 HD
ENDBRANCH   2  22
BRANCH   3  24
ATOM     24  O   UNL     1       4.247  -8.873  13.697  1.00  0.00    -0.387 OA
ATOM     25  H   UNL     1       3.365  -9.011  14.137  1.00  0.00     0.211 HD
ENDBRANCH   3  24
BRANCH   5  26
ATOM     26  O   UNL     1       2.231 -10.297  15.254  1.00  0.00    -0.454 OA
BRANCH  26  27
ATOM     27  C   UNL     1       1.187 -10.358  16.184  1.00  0.00     0.214 A 
ATOM     28  C   UNL     1       1.462 -10.018  17.511  1.00  0.00     0.180 A 
ATOM     29  C   UNL     1      -0.112 -10.756  15.834  1.00  0.00     0.239 A 
ATOM     30  O   UNL     1       0.514 -10.116  18.440  1.00  0.00    -0.452 OA
ATOM     31  C   UNL     1      -1.106 -10.818  16.834  1.00  0.00     0.111 A 
ATOM     32  O   UNL     1      -0.380 -11.051  14.638  1.00  0.00    -0.285 OA
ATOM     33  C   UNL     1      -0.731 -10.488  18.155  1.00  0.00     0.146 A 
ATOM     34  C   UNL     1      -2.447 -11.173  16.568  1.00  0.00     0.134 A 
ATOM     35  C   UNL     1      -1.674 -10.540  19.186  1.00  0.00     0.094 A 
ATOM     36  C   UNL     1      -3.390 -11.172  17.605  1.00  0.00     0.093 A 
ATOM     37  C   UNL     1      -3.005 -10.875  18.910  1.00  0.00     0.123 A 
BRANCH  28  38
ATOM     38  C   UNL     1       2.825  -9.600  17.881  1.00  0.00     0.025 A 
ATOM     39  C   UNL     1       3.319  -8.369  17.428  1.00  0.00     0.062 A 
ATOM     40  C   UNL     1       3.685 -10.504  18.525  1.00  0.00     0.016 A 
ATOM     41  C   UNL     1       4.673  -8.054  17.550  1.00  0.00     0.158 A 
ATOM     42  C   UNL     1       5.053 -10.216  18.612  1.00  0.00     0.051 A 
ATOM     43  C   UNL     1       5.556  -8.993  18.145  1.00  0.00     0.157 A 
BRANCH  41  44
ATOM     44  O   UNL     1       5.109  -6.841  17.004  1.00  0.00    -0.504 OA
ATOM     45  H   UNL     1       5.109  -6.633  16.015  1.00  0.00     0.293 HD
ENDBRANCH  41  44
BRANCH  43  46
ATOM     46  O   UNL     1       6.926  -8.765  18.242  1.00  0.00    -0.504 OA
ATOM     47  H   UNL     1       7.513  -9.152  18.963  1.00  0.00     0.293 HD
ENDBRANCH  43  46
ENDBRANCH  28  38
BRANCH  34  48
ATOM     48  O   UNL     1      -2.852 -11.502  15.274  1.00  0.00    -0.507 OA
ATOM     49  H   UNL     1      -2.304 -11.234  14.467  1.00  0.00     0.293 HD
ENDBRANCH  34  48
BRANCH  37  50
ATOM     50  O   UNL     1      -3.946 -10.926  19.934  1.00  0.00    -0.508 OA
ATOM     51  H   UNL     1      -4.748 -10.314  19.949  1.00  0.00     0.293 HD
ENDBRANCH  37  50
ENDBRANCH  26  27
ENDBRANCH   5  26
BRANCH   4  52
ATOM     52  O   UNL     1       5.368 -12.109  14.936  1.00  0.00    -0.384 OA
ATOM     53  H   UNL     1       5.618 -12.230  15.886  1.00  0.00     0.211 HD
ENDBRANCH   4  52
TORSDOF 16
ENDMDL
MODEL 8
REMARK VINA RESULT:    -4.599      3.056      7.527
REMARK INTER + INTRA:         -10.551
REMARK INTER:                  -8.984
REMARK INTRA:                  -1.567
REMARK UNBOUND:                -2.995
REMARK SMILES C[C@H]1O[C@@H](OC[C@@H]2O[C@H](Oc3c(-c4ccc(O)c(O)c4)oc4cc(O)cc(O)c4c3=O)[C@@H](O)[C@H](O)[C@@H]2O)[C@H](O)[C@@H](O)[C@@H]1O
REMARK SMILES IDX 7 1 36 2 34 3 32 4 9 5 8 6 6 7 5 8 4 9 1 10 2 11 42 12 3 13
REMARK SMILES IDX 40 14 38 15 43 16 41 18 39 20 37 22 35 24 10 26 11 27 12 28
REMARK SMILES IDX 30 29 21 30 29 31 31 32 22 33 27 34 23 35 26 36 24 37 13 38
REMARK SMILES IDX 20 39 14 40 18 41 15 42 16 43 19 44 17 46 28 48 25 50 33 52
REMARK H PARENT 43 17 41 19 39 21 37 23 35 25 19 45 17 47 28 49 25 51 33 53
REMARK Flexibility Score: inf
ROOT
ATOM      1  C   UNL     1       1.206  -9.874  15.339  1.00  0.00     0.180 C 
ATOM      2  C   UNL     1       0.979  -9.608  13.825  1.00  0.00     0.177 C 
ATOM      3  C   UNL     1      -0.451  -9.976  13.423  1.00  0.00     0.180 C 
ATOM      4  C   UNL     1      -1.436  -9.225  14.338  1.00  0.00     0.214 C 
ATOM      5  C   UNL     1      -1.100  -9.423  15.835  1.00  0.00     0.339 C 
ATOM      6  O   UNL     1       0.268  -9.187  16.162  1.00  0.00    -0.332 OA
ENDROOT
BRANCH   1   7
ATOM      7  C   UNL     1       1.426 -11.357  15.799  1.00  0.00     0.198 C 
BRANCH   7   8
ATOM      8  O   UNL     1       2.123 -11.456  17.027  1.00  0.00    -0.347 OA
BRANCH   8   9
ATOM      9  C   UNL     1       3.485 -11.089  16.921  1.00  0.00     0.281 C 
ATOM     10  C   UNL     1       2.607 -11.790  19.851  1.00  0.00     0.041 C 
ATOM     11  C   UNL     1       3.953 -11.271  19.269  1.00  0.00     0.150 C 
ATOM     12  C   UNL     1       4.167  -9.750  19.419  1.00  0.00     0.174 C 
ATOM     13  O   UNL     1       4.234 -11.732  17.949  1.00  0.00    -0.344 OA
ATOM     14  C   UNL     1       3.398  -8.953  18.345  1.00  0.00     0.179 C 
ATOM     15  C   UNL     1       3.666  -9.552  16.938  1.00  0.00     0.202 C 
BRANCH  12  16
ATOM     16  O   UNL     1       5.545  -9.479  19.312  1.00  0.00    -0.388 OA
ATOM     17  H   UNL     1       5.771  -9.504  18.349  1.00  0.00     0.211 HD
ENDBRANCH  12  16
BRANCH  14  18
ATOM     18  O   UNL     1       2.033  -8.860  18.691  1.00  0.00    -0.387 OA
ATOM     19  H   UNL     1       1.472  -9.104  17.908  1.00  0.00     0.211 HD
ENDBRANCH  14  18
BRANCH  15  20
ATOM     20  O   UNL     1       4.980  -9.262  16.525  1.00  0.00    -0.385 OA
ATOM     21  H   UNL     1       5.383  -8.675  17.218  1.00  0.00     0.211 HD
ENDBRANCH  15  20
ENDBRANCH   8   9
ENDBRANCH   7   8
ENDBRANCH   1   7
BRANCH   2  22
ATOM     22  O   UNL     1       1.957 -10.242  13.036  1.00  0.00    -0.387 OA
ATOM     23  H   UNL     1       1.585 -11.108  12.720  1.00  0.00     0.211 HD
ENDBRANCH   2  22
BRANCH   3  24
ATOM     24  O   UNL     1      -0.623 -11.358  13.524  1.00  0.00    -0.387 OA
ATOM     25  H   UNL     1      -1.295 -11.610  12.834  1.00  0.00     0.211 HD
ENDBRANCH   3  24
BRANCH   5  26
ATOM     26  O   UNL     1      -1.510 -10.726  16.231  1.00  0.00    -0.454 OA
BRANCH  26  27
ATOM     27  C   UNL     1      -2.211 -11.006  17.410  1.00  0.00     0.214 A 
ATOM     28  C   UNL     1      -3.584 -11.250  17.322  1.00  0.00     0.180 A 
ATOM     29  C   UNL     1      -1.589 -11.039  18.667  1.00  0.00     0.239 A 
ATOM     30  O   UNL     1      -4.300 -11.465  18.422  1.00  0.00    -0.452 OA
ATOM     31  C   UNL     1      -2.368 -11.304  19.813  1.00  0.00     0.111 A 
ATOM     32  O   UNL     1      -0.348 -10.837  18.762  1.00  0.00    -0.285 OA
ATOM     33  C   UNL     1      -3.754 -11.507  19.635  1.00  0.00     0.146 A 
ATOM     34  C   UNL     1      -1.822 -11.391  21.113  1.00  0.00     0.134 A 
ATOM     35  C   UNL     1      -4.574 -11.764  20.738  1.00  0.00     0.094 A 
ATOM     36  C   UNL     1      -2.650 -11.699  22.201  1.00  0.00     0.093 A 
ATOM     37  C   UNL     1      -4.021 -11.868  22.020  1.00  0.00     0.123 A 
BRANCH  28  38
ATOM     38  C   UNL     1      -4.240 -11.215  16.004  1.00  0.00     0.025 A 
ATOM     39  C   UNL     1      -3.605 -11.800  14.899  1.00  0.00     0.062 A 
ATOM     40  C   UNL     1      -5.399 -10.446  15.817  1.00  0.00     0.016 A 
ATOM     41  C   UNL     1      -4.074 -11.574  13.604  1.00  0.00     0.158 A 
ATOM     42  C   UNL     1      -5.850 -10.177  14.519  1.00  0.00     0.051 A 
ATOM     43  C   UNL     1      -5.210 -10.745  13.408  1.00  0.00     0.157 A 
BRANCH  41  44
ATOM     44  O   UNL     1      -3.344 -12.125  12.544  1.00  0.00    -0.504 OA
ATOM     45  H   UNL     1      -3.493 -11.891  11.572  1.00  0.00     0.293 HD
ENDBRANCH  41  44
BRANCH  43  46
ATOM     46  O   UNL     1      -5.690 -10.432  12.140  1.00  0.00    -0.504 OA
ATOM     47  H   UNL     1      -5.228 -10.688  11.282  1.00  0.00     0.293 HD
ENDBRANCH  43  46
ENDBRANCH  28  38
BRANCH  34  48
ATOM     48  O   UNL     1      -0.456 -11.200  21.326  1.00  0.00    -0.507 OA
ATOM     49  H   UNL     1      -0.078 -10.280  21.516  1.00  0.00     0.293 HD
ENDBRANCH  34  48
BRANCH  37  50
ATOM     50  O   UNL     1      -4.834 -12.125  23.119  1.00  0.00    -0.508 OA
ATOM     51  H   UNL     1      -5.066 -11.405  23.788  1.00  0.00     0.293 HD
ENDBRANCH  37  50
ENDBRANCH  26  27
ENDBRANCH   5  26
BRANCH   4  52
ATOM     52  O   UNL     1      -1.496  -7.854  14.000  1.00  0.00    -0.384 OA
ATOM     53  H   UNL     1      -2.006  -7.769  13.156  1.00  0.00     0.211 HD
ENDBRANCH   4  52
TORSDOF 16
ENDMDL
MODEL 9
REMARK VINA RESULT:    -4.137      1.762      5.370
REMARK INTER + INTRA:          -9.792
REMARK INTER:                  -7.817
REMARK INTRA:                  -1.975
REMARK UNBOUND:                -2.995
REMARK SMILES C[C@H]1O[C@@H](OC[C@@H]2O[C@H](Oc3c(-c4ccc(O)c(O)c4)oc4cc(O)cc(O)c4c3=O)[C@@H](O)[C@H](O)[C@@H]2O)[C@H](O)[C@@H](O)[C@@H]1O
REMARK SMILES IDX 7 1 36 2 34 3 32 4 9 5 8 6 6 7 5 8 4 9 1 10 2 11 42 12 3 13
REMARK SMILES IDX 40 14 38 15 43 16 41 18 39 20 37 22 35 24 10 26 11 27 12 28
REMARK SMILES IDX 30 29 21 30 29 31 31 32 22 33 27 34 23 35 26 36 24 37 13 38
REMARK SMILES IDX 20 39 14 40 18 41 15 42 16 43 19 44 17 46 28 48 25 50 33 52
REMARK H PARENT 43 17 41 19 39 21 37 23 35 25 19 45 17 47 28 49 25 51 33 53
REMARK Flexibility Score: inf
ROOT
ATOM      1  C   UNL     1       4.885  -9.708  14.571  1.00  0.00     0.180 C 
ATOM      2  C   UNL     1       5.761 -10.096  13.348  1.00  0.00     0.177 C 
ATOM      3  C   UNL     1       4.934 -10.865  12.316  1.00  0.00     0.180 C 
ATOM      4  C   UNL     1       3.694 -10.031  11.947  1.00  0.00     0.214 C 
ATOM      5  C   UNL     1       2.917  -9.566  13.202  1.00  0.00     0.339 C 
ATOM      6  O   UNL     1       3.732  -8.956  14.201  1.00  0.00    -0.332 OA
ENDROOT
BRANCH   1   7
ATOM      7  C   UNL     1       4.556 -10.823  15.622  1.00  0.00     0.198 C 
BRANCH   7   8
ATOM      8  O   UNL     1       4.926 -10.465  16.941  1.00  0.00    -0.347 OA
BRANCH   8   9
ATOM      9  C   UNL     1       5.327  -9.113  17.055  1.00  0.00     0.281 C 
ATOM     10  C   UNL     1       5.547 -10.711  19.747  1.00  0.00     0.041 C 
ATOM     11  C   UNL     1       5.797  -9.213  19.408  1.00  0.00     0.150 C 
ATOM     12  C   UNL     1       4.621  -8.277  19.757  1.00  0.00     0.174 C 
ATOM     13  O   UNL     1       6.298  -8.990  18.091  1.00  0.00    -0.344 OA
ATOM     14  C   UNL     1       3.508  -8.330  18.692  1.00  0.00     0.179 C 
ATOM     15  C   UNL     1       4.115  -8.174  17.271  1.00  0.00     0.202 C 
BRANCH  12  16
ATOM     16  O   UNL     1       5.113  -6.961  19.861  1.00  0.00    -0.388 OA
ATOM     17  H   UNL     1       4.694  -6.438  19.134  1.00  0.00     0.211 HD
ENDBRANCH  12  16
BRANCH  14  18
ATOM     18  O   UNL     1       2.721  -9.489  18.866  1.00  0.00    -0.387 OA
ATOM     19  H   UNL     1       3.238 -10.173  19.366  1.00  0.00     0.211 HD
ENDBRANCH  14  18
BRANCH  15  20
ATOM     20  O   UNL     1       4.548  -6.850  17.068  1.00  0.00    -0.385 OA
ATOM     21  H   UNL     1       4.027  -6.272  17.686  1.00  0.00     0.211 HD
ENDBRANCH  15  20
ENDBRANCH   8   9
ENDBRANCH   7   8
ENDBRANCH   1   7
BRANCH   2  22
ATOM     22  O   UNL     1       6.928 -10.778  13.743  1.00  0.00    -0.387 OA
ATOM     23  H   UNL     1       6.710 -11.744  13.820  1.00  0.00     0.211 HD
ENDBRANCH   2  22
BRANCH   3  24
ATOM     24  O   UNL     1       4.569 -12.106  12.842  1.00  0.00    -0.387 OA
ATOM     25  H   UNL     1       5.046 -12.793  12.302  1.00  0.00     0.211 HD
ENDBRANCH   3  24
BRANCH   5  26
ATOM     26  O   UNL     1       2.190 -10.669  13.729  1.00  0.00    -0.454 OA
BRANCH  26  27
ATOM     27  C   UNL     1       0.885 -10.585  14.230  1.00  0.00     0.214 A 
ATOM     28  C   UNL     1      -0.175 -10.598  13.320  1.00  0.00     0.180 A 
ATOM     29  C   UNL     1       0.609 -10.477  15.600  1.00  0.00     0.239 A 
ATOM     30  O   UNL     1      -1.428 -10.464  13.746  1.00  0.00    -0.452 OA
ATOM     31  C   UNL     1      -0.732 -10.371  16.027  1.00  0.00     0.111 A 
ATOM     32  O   UNL     1       1.554 -10.480  16.436  1.00  0.00    -0.285 OA
ATOM     33  C   UNL     1      -1.738 -10.360  15.036  1.00  0.00     0.146 A 
ATOM     34  C   UNL     1      -1.105 -10.294  17.387  1.00  0.00     0.134 A 
ATOM     35  C   UNL     1      -3.083 -10.248  15.403  1.00  0.00     0.094 A 
ATOM     36  C   UNL     1      -2.460 -10.232  17.739  1.00  0.00     0.093 A 
ATOM     37  C   UNL     1      -3.445 -10.192  16.754  1.00  0.00     0.123 A 
BRANCH  28  38
ATOM     38  C   UNL     1       0.111 -10.711  11.880  1.00  0.00     0.025 A 
ATOM     39  C   UNL     1      -0.223  -9.653  11.023  1.00  0.00     0.062 A 
ATOM     40  C   UNL     1       0.544 -11.934  11.344  1.00  0.00     0.016 A 
ATOM     41  C   UNL     1      -0.194  -9.820   9.637  1.00  0.00     0.158 A 
ATOM     42  C   UNL     1       0.533 -12.125   9.956  1.00  0.00     0.051 A 
ATOM     43  C   UNL     1       0.184 -11.076   9.094  1.00  0.00     0.157 A 
BRANCH  41  44
ATOM     44  O   UNL     1      -0.616  -8.746   8.845  1.00  0.00    -0.504 OA
ATOM     45  H   UNL     1      -0.888  -7.844   9.212  1.00  0.00     0.293 HD
ENDBRANCH  41  44
BRANCH  43  46
ATOM     46  O   UNL     1       0.175 -11.325   7.725  1.00  0.00    -0.504 OA
ATOM     47  H   UNL     1       0.218 -10.606   7.020  1.00  0.00     0.293 HD
ENDBRANCH  43  46
ENDBRANCH  28  38
BRANCH  34  48
ATOM     48  O   UNL     1      -0.137 -10.304  18.392  1.00  0.00    -0.507 OA
ATOM     49  H   UNL     1       0.327  -9.453  18.684  1.00  0.00     0.293 HD
ENDBRANCH  34  48
BRANCH  37  50
ATOM     50  O   UNL     1      -4.782 -10.081  17.121  1.00  0.00    -0.508 OA
ATOM     51  H   UNL     1      -5.499  -9.849  16.449  1.00  0.00     0.293 HD
ENDBRANCH  37  50
ENDBRANCH  26  27
ENDBRANCH   5  26
BRANCH   4  52
ATOM     52  O   UNL     1       4.046  -8.937  11.125  1.00  0.00    -0.384 OA
ATOM     53  H   UNL     1       4.812  -9.213  10.561  1.00  0.00     0.211 HD
ENDBRANCH   4  52
TORSDOF 16
ENDMDL
