MODEL 1
REMARK VINA RESULT:    -3.384      0.000      0.000
REMARK INTER + INTRA:          -7.403
REMARK INTER:                  -5.757
REMARK INTRA:                  -1.645
REMARK UNBOUND:                -1.645
REMARK SMILES CCCCCCCCCCCCCC(=O)[O-]
REMARK SMILES IDX 8 1 9 2 10 3 11 4 12 5 13 6 14 7 15 8 16 9 7 10 6 11 5 12
REMARK SMILES IDX 4 13 3 14 2 15 1 16
REMARK H PARENT
REMARK Flexibility Score: inf
ROOT
ATOM      1  C   UNL     1      65.131  31.119  59.756  1.00  0.00     0.000 C 
ENDROOT
BRANCH   1   2
ATOM      2  C   UNL     1      64.251  29.997  60.332  1.00  0.00     0.000 C 
BRANCH   2   3
ATOM      3  C   UNL     1      63.512  30.425  61.612  1.00  0.00     0.000 C 
BRANCH   3   4
ATOM      4  C   UNL     1      62.110  29.802  61.717  1.00  0.00     0.000 C 
BRANCH   4   5
ATOM      5  C   UNL     1      60.990  30.853  61.640  1.00  0.00     0.006 C 
BRANCH   5   6
ATOM      6  C   UNL     1      60.368  30.954  60.242  1.00  0.00     0.053 C 
BRANCH   6   7
ATOM      7  C   UNL     1      59.477  29.780  59.982  1.00  0.00     0.041 C 
ATOM      8  O   UNL     1      59.454  29.242  58.844  1.00  0.00    -0.550 OA
ATOM      9  O   UNL     1      58.709  29.249  61.010  1.00  0.00    -0.550 OA
ENDBRANCH   6   7
ENDBRANCH   5   6
ENDBRANCH   4   5
ENDBRANCH   3   4
ENDBRANCH   2   3
ENDBRANCH   1   2
BRANCH   1  10
ATOM     10  C   UNL     1      64.524  32.518  59.959  1.00  0.00     0.000 C 
BRANCH  10  11
ATOM     11  C   UNL     1      63.708  33.019  58.749  1.00  0.00    -0.000 C 
BRANCH  11  12
ATOM     12  C   UNL     1      62.491  33.859  59.180  1.00  0.00    -0.000 C 
BRANCH  12  13
ATOM     13  C   UNL     1      62.496  34.175  60.684  1.00  0.00    -0.000 C 
BRANCH  13  14
ATOM     14  C   UNL     1      62.550  35.688  60.962  1.00  0.00    -0.000 C 
BRANCH  14  15
ATOM     15  C   UNL     1      63.973  36.256  60.844  1.00  0.00    -0.003 C 
ATOM     16  C   UNL     1      64.956  35.600  61.815  1.00  0.00     0.004 C 
ENDBRANCH  14  15
ENDBRANCH  13  14
ENDBRANCH  12  13
ENDBRANCH  11  12
ENDBRANCH  10  11
ENDBRANCH   1  10
TORSDOF 12
ENDMDL
MODEL 2
REMARK VINA RESULT:    -3.276      3.327      5.884
REMARK INTER + INTRA:          -7.219
REMARK INTER:                  -5.320
REMARK INTRA:                  -1.898
REMARK UNBOUND:                -1.645
REMARK SMILES CCCCCCCCCCCCCC(=O)[O-]
REMARK SMILES IDX 8 1 9 2 10 3 11 4 12 5 13 6 14 7 15 8 16 9 7 10 6 11 5 12
REMARK SMILES IDX 4 13 3 14 2 15 1 16
REMARK H PARENT
REMARK Flexibility Score: inf
ROOT
ATOM      1  C   UNL     1      59.923  31.083  59.092  1.00  0.00     0.000 C 
ENDROOT
BRANCH   1   2
ATOM      2  C   UNL     1      61.321  31.441  58.563  1.00  0.00     0.000 C 
BRANCH   2   3
ATOM      3  C   UNL     1      61.538  32.960  58.451  1.00  0.00     0.000 C 
BRANCH   3   4
ATOM      4  C   UNL     1      62.911  33.399  58.987  1.00  0.00     0.000 C 
BRANCH   4   5
ATOM      5  C   UNL     1      62.920  33.572  60.514  1.00  0.00     0.006 C 
BRANCH   5   6
ATOM      6  C   UNL     1      64.326  33.824  61.074  1.00  0.00     0.053 C 
BRANCH   6   7
ATOM      7  C   UNL     1      64.529  35.283  61.337  1.00  0.00     0.041 C 
ATOM      8  O   UNL     1      63.543  36.066  61.363  1.00  0.00    -0.550 OA
ATOM      9  O   UNL     1      65.802  35.770  61.603  1.00  0.00    -0.550 OA
ENDBRANCH   6   7
ENDBRANCH   5   6
ENDBRANCH   4   5
ENDBRANCH   3   4
ENDBRANCH   2   3
ENDBRANCH   1   2
BRANCH   1  10
ATOM     10  C   UNL     1      59.968  30.215  60.361  1.00  0.00     0.000 C 
BRANCH  10  11
ATOM     11  C   UNL     1      60.689  30.890  61.547  1.00  0.00    -0.000 C 
BRANCH  11  12
ATOM     12  C   UNL     1      62.009  30.181  61.901  1.00  0.00    -0.000 C 
BRANCH  12  13
ATOM     13  C   UNL     1      62.229  28.900  61.079  1.00  0.00    -0.000 C 
BRANCH  13  14
ATOM     14  C   UNL     1      63.563  28.921  60.312  1.00  0.00    -0.000 C 
BRANCH  14  15
ATOM     15  C   UNL     1      64.363  30.211  60.559  1.00  0.00    -0.003 C 
ATOM     16  C   UNL     1      65.579  30.339  59.642  1.00  0.00     0.004 C 
ENDBRANCH  14  15
ENDBRANCH  13  14
ENDBRANCH  12  13
ENDBRANCH  11  12
ENDBRANCH  10  11
ENDBRANCH   1  10
TORSDOF 12
ENDMDL
MODEL 3
REMARK VINA RESULT:    -3.261      2.953      5.096
REMARK INTER + INTRA:          -7.193
REMARK INTER:                  -5.567
REMARK INTRA:                  -1.627
REMARK UNBOUND:                -1.645
REMARK SMILES CCCCCCCCCCCCCC(=O)[O-]
REMARK SMILES IDX 8 1 9 2 10 3 11 4 12 5 13 6 14 7 15 8 16 9 7 10 6 11 5 12
REMARK SMILES IDX 4 13 3 14 2 15 1 16
REMARK H PARENT
REMARK Flexibility Score: inf
ROOT
ATOM      1  C   UNL     1      64.317  30.238  60.428  1.00  0.00     0.000 C 
ENDROOT
BRANCH   1   2
ATOM      2  C   UNL     1      64.753  31.582  59.822  1.00  0.00     0.000 C 
BRANCH   2   3
ATOM      3  C   UNL     1      63.743  32.708  60.099  1.00  0.00     0.000 C 
BRANCH   3   4
ATOM      4  C   UNL     1      64.405  33.953  60.716  1.00  0.00     0.000 C 
BRANCH   4   5
ATOM      5  C   UNL     1      63.397  35.080  60.994  1.00  0.00     0.006 C 
BRANCH   5   6
ATOM      6  C   UNL     1      61.971  34.722  60.554  1.00  0.00     0.053 C 
BRANCH   6   7
ATOM      7  C   UNL     1      61.100  35.938  60.574  1.00  0.00     0.041 C 
ATOM      8  O   UNL     1      59.959  35.910  60.041  1.00  0.00    -0.550 OA
ATOM      9  O   UNL     1      61.527  37.089  61.224  1.00  0.00    -0.550 OA
ENDBRANCH   6   7
ENDBRANCH   5   6
ENDBRANCH   4   5
ENDBRANCH   3   4
ENDBRANCH   2   3
ENDBRANCH   1   2
BRANCH   1  10
ATOM     10  C   UNL     1      63.398  30.403  61.650  1.00  0.00     0.000 C 
BRANCH  10  11
ATOM     11  C   UNL     1      62.005  29.763  61.469  1.00  0.00    -0.000 C 
BRANCH  11  12
ATOM     12  C   UNL     1      60.881  30.815  61.460  1.00  0.00    -0.000 C 
BRANCH  12  13
ATOM     13  C   UNL     1      60.059  30.789  60.162  1.00  0.00    -0.000 C 
BRANCH  13  14
ATOM     14  C   UNL     1      60.950  30.762  58.907  1.00  0.00    -0.000 C 
BRANCH  14  15
ATOM     15  C   UNL     1      60.667  31.940  57.961  1.00  0.00    -0.003 C 
ATOM     16  C   UNL     1      59.501  32.810  58.429  1.00  0.00     0.004 C 
ENDBRANCH  14  15
ENDBRANCH  13  14
ENDBRANCH  12  13
ENDBRANCH  11  12
ENDBRANCH  10  11
ENDBRANCH   1  10
TORSDOF 12
ENDMDL
MODEL 4
REMARK VINA RESULT:    -3.239      1.223      2.432
REMARK INTER + INTRA:          -7.156
REMARK INTER:                  -6.165
REMARK INTRA:                  -0.992
REMARK UNBOUND:                -1.645
REMARK SMILES CCCCCCCCCCCCCC(=O)[O-]
REMARK SMILES IDX 8 1 9 2 10 3 11 4 12 5 13 6 14 7 15 8 16 9 7 10 6 11 5 12
REMARK SMILES IDX 4 13 3 14 2 15 1 16
REMARK H PARENT
REMARK Flexibility Score: inf
ROOT
ATOM      1  C   UNL     1      64.538  32.583  60.170  1.00  0.00     0.000 C 
ENDROOT
BRANCH   1   2
ATOM      2  C   UNL     1      64.481  31.242  60.918  1.00  0.00     0.000 C 
BRANCH   2   3
ATOM      3  C   UNL     1      63.282  30.378  60.492  1.00  0.00     0.000 C 
BRANCH   3   4
ATOM      4  C   UNL     1      62.362  30.026  61.673  1.00  0.00     0.000 C 
BRANCH   4   5
ATOM      5  C   UNL     1      61.111  30.918  61.733  1.00  0.00     0.006 C 
BRANCH   5   6
ATOM      6  C   UNL     1      60.272  30.849  60.452  1.00  0.00     0.053 C 
BRANCH   6   7
ATOM      7  C   UNL     1      59.691  29.480  60.282  1.00  0.00     0.041 C 
ATOM      8  O   UNL     1      58.743  29.098  61.017  1.00  0.00    -0.550 OA
ATOM      9  O   UNL     1      60.163  28.645  59.278  1.00  0.00    -0.550 OA
ENDBRANCH   6   7
ENDBRANCH   5   6
ENDBRANCH   4   5
ENDBRANCH   3   4
ENDBRANCH   2   3
ENDBRANCH   1   2
BRANCH   1  10
ATOM     10  C   UNL     1      63.815  33.716  60.919  1.00  0.00     0.000 C 
BRANCH  10  11
ATOM     11  C   UNL     1      64.768  34.791  61.482  1.00  0.00    -0.000 C 
BRANCH  11  12
ATOM     12  C   UNL     1      64.143  36.197  61.440  1.00  0.00    -0.000 C 
BRANCH  12  13
ATOM     13  C   UNL     1      63.050  36.325  60.367  1.00  0.00    -0.000 C 
BRANCH  13  14
ATOM     14  C   UNL     1      61.671  36.641  60.974  1.00  0.00    -0.000 C 
BRANCH  14  15
ATOM     15  C   UNL     1      60.586  35.656  60.510  1.00  0.00    -0.003 C 
ATOM     16  C   UNL     1      60.117  35.921  59.079  1.00  0.00     0.004 C 
ENDBRANCH  14  15
ENDBRANCH  13  14
ENDBRANCH  12  13
ENDBRANCH  11  12
ENDBRANCH  10  11
ENDBRANCH   1  10
TORSDOF 12
ENDMDL
MODEL 5
REMARK VINA RESULT:    -3.213     11.108     13.102
REMARK INTER + INTRA:          -7.113
REMARK INTER:                  -5.475
REMARK INTRA:                  -1.638
REMARK UNBOUND:                -1.645
REMARK SMILES CCCCCCCCCCCCCC(=O)[O-]
REMARK SMILES IDX 8 1 9 2 10 3 11 4 12 5 13 6 14 7 15 8 16 9 7 10 6 11 5 12
REMARK SMILES IDX 4 13 3 14 2 15 1 16
REMARK H PARENT
REMARK Flexibility Score: inf
ROOT
ATOM      1  C   UNL     1      53.284  27.297  50.840  1.00  0.00     0.000 C 
ENDROOT
BRANCH   1   2
ATOM      2  C   UNL     1      53.184  26.240  49.728  1.00  0.00     0.000 C 
BRANCH   2   3
ATOM      3  C   UNL     1      54.413  25.317  49.680  1.00  0.00     0.000 C 
BRANCH   3   4
ATOM      4  C   UNL     1      55.725  26.068  49.968  1.00  0.00     0.000 C 
BRANCH   4   5
ATOM      5  C   UNL     1      56.536  25.424  51.104  1.00  0.00     0.006 C 
BRANCH   5   6
ATOM      6  C   UNL     1      58.045  25.434  50.835  1.00  0.00     0.053 C 
BRANCH   6   7
ATOM      7  C   UNL     1      58.745  24.478  51.750  1.00  0.00     0.041 C 
ATOM      8  O   UNL     1      59.581  23.657  51.290  1.00  0.00    -0.550 OA
ATOM      9  O   UNL     1      58.509  24.527  53.118  1.00  0.00    -0.550 OA
ENDBRANCH   6   7
ENDBRANCH   5   6
ENDBRANCH   4   5
ENDBRANCH   3   4
ENDBRANCH   2   3
ENDBRANCH   1   2
BRANCH   1  10
ATOM     10  C   UNL     1      53.182  28.736  50.307  1.00  0.00     0.000 C 
BRANCH  10  11
ATOM     11  C   UNL     1      54.446  29.583  50.565  1.00  0.00    -0.000 C 
BRANCH  11  12
ATOM     12  C   UNL     1      55.016  29.355  51.977  1.00  0.00    -0.000 C 
BRANCH  12  13
ATOM     13  C   UNL     1      56.548  29.217  51.980  1.00  0.00    -0.000 C 
BRANCH  13  14
ATOM     14  C   UNL     1      57.143  29.293  50.563  1.00  0.00    -0.000 C 
BRANCH  14  15
ATOM     15  C   UNL     1      58.677  29.204  50.564  1.00  0.00    -0.003 C 
ATOM     16  C   UNL     1      59.238  28.612  49.271  1.00  0.00     0.004 C 
ENDBRANCH  14  15
ENDBRANCH  13  14
ENDBRANCH  12  13
ENDBRANCH  11  12
ENDBRANCH  10  11
ENDBRANCH   1  10
TORSDOF 12
ENDMDL
MODEL 6
REMARK VINA RESULT:    -3.195      2.260      3.381
REMARK INTER + INTRA:          -7.081
REMARK INTER:                  -5.419
REMARK INTRA:                  -1.662
REMARK UNBOUND:                -1.645
REMARK SMILES CCCCCCCCCCCCCC(=O)[O-]
REMARK SMILES IDX 8 1 9 2 10 3 11 4 12 5 13 6 14 7 15 8 16 9 7 10 6 11 5 12
REMARK SMILES IDX 4 13 3 14 2 15 1 16
REMARK H PARENT
REMARK Flexibility Score: inf
ROOT
ATOM      1  C   UNL     1      61.186  32.445  58.336  1.00  0.00     0.000 C 
ENDROOT
BRANCH   1   2
ATOM      2  C   UNL     1      60.380  31.933  59.540  1.00  0.00     0.000 C 
BRANCH   2   3
ATOM      3  C   UNL     1      61.179  31.993  60.853  1.00  0.00     0.000 C 
BRANCH   3   4
ATOM      4  C   UNL     1      60.972  30.743  61.725  1.00  0.00     0.000 C 
BRANCH   4   5
ATOM      5  C   UNL     1      62.207  29.828  61.746  1.00  0.00     0.006 C 
BRANCH   5   6
ATOM      6  C   UNL     1      63.515  30.592  61.506  1.00  0.00     0.053 C 
BRANCH   6   7
ATOM      7  C   UNL     1      64.395  29.837  60.560  1.00  0.00     0.041 C 
ATOM      8  O   UNL     1      65.599  30.172  60.409  1.00  0.00    -0.550 OA
ATOM      9  O   UNL     1      63.897  28.732  59.881  1.00  0.00    -0.550 OA
ENDBRANCH   6   7
ENDBRANCH   5   6
ENDBRANCH   4   5
ENDBRANCH   3   4
ENDBRANCH   2   3
ENDBRANCH   1   2
BRANCH   1  10
ATOM     10  C   UNL     1      62.347  31.511  57.953  1.00  0.00     0.000 C 
BRANCH  10  11
ATOM     11  C   UNL     1      63.724  32.206  57.946  1.00  0.00    -0.000 C 
BRANCH  11  12
ATOM     12  C   UNL     1      63.685  33.575  58.649  1.00  0.00    -0.000 C 
BRANCH  12  13
ATOM     13  C   UNL     1      64.517  33.599  59.942  1.00  0.00    -0.000 C 
BRANCH  13  14
ATOM     14  C   UNL     1      63.942  34.569  60.989  1.00  0.00    -0.000 C 
BRANCH  14  15
ATOM     15  C   UNL     1      65.038  35.349  61.731  1.00  0.00    -0.003 C 
ATOM     16  C   UNL     1      64.643  36.797  62.020  1.00  0.00     0.004 C 
ENDBRANCH  14  15
ENDBRANCH  13  14
ENDBRANCH  12  13
ENDBRANCH  11  12
ENDBRANCH  10  11
ENDBRANCH   1  10
TORSDOF 12
ENDMDL
MODEL 7
REMARK VINA RESULT:    -3.182     10.211     12.448
REMARK INTER + INTRA:          -7.060
REMARK INTER:                  -5.179
REMARK INTRA:                  -1.881
REMARK UNBOUND:                -1.645
REMARK SMILES CCCCCCCCCCCCCC(=O)[O-]
REMARK SMILES IDX 8 1 9 2 10 3 11 4 12 5 13 6 14 7 15 8 16 9 7 10 6 11 5 12
REMARK SMILES IDX 4 13 3 14 2 15 1 16
REMARK H PARENT
REMARK Flexibility Score: inf
ROOT
ATOM      1  C   UNL     1      60.310  27.130  49.968  1.00  0.00     0.000 C 
ENDROOT
BRANCH   1   2
ATOM      2  C   UNL     1      59.276  27.976  49.208  1.00  0.00     0.000 C 
BRANCH   2   3
ATOM      3  C   UNL     1      58.927  29.282  49.941  1.00  0.00     0.000 C 
BRANCH   3   4
ATOM      4  C   UNL     1      57.529  29.240  50.583  1.00  0.00     0.000 C 
BRANCH   4   5
ATOM      5  C   UNL     1      57.581  28.934  52.088  1.00  0.00     0.006 C 
BRANCH   5   6
ATOM      6  C   UNL     1      56.209  29.051  52.764  1.00  0.00     0.053 C 
BRANCH   6   7
ATOM      7  C   UNL     1      56.177  28.242  54.023  1.00  0.00     0.041 C 
ATOM      8  O   UNL     1      57.109  27.436  54.283  1.00  0.00    -0.550 OA
ATOM      9  O   UNL     1      55.143  28.415  54.934  1.00  0.00    -0.550 OA
ENDBRANCH   6   7
ENDBRANCH   5   6
ENDBRANCH   4   5
ENDBRANCH   3   4
ENDBRANCH   2   3
ENDBRANCH   1   2
BRANCH   1  10
ATOM     10  C   UNL     1      59.723  25.817  50.514  1.00  0.00     0.000 C 
BRANCH  10  11
ATOM     11  C   UNL     1      58.217  25.645  50.224  1.00  0.00    -0.000 C 
BRANCH  11  12
ATOM     12  C   UNL     1      57.443  25.154  51.461  1.00  0.00    -0.000 C 
BRANCH  12  13
ATOM     13  C   UNL     1      55.949  25.516  51.403  1.00  0.00    -0.000 C 
BRANCH  13  14
ATOM     14  C   UNL     1      55.488  25.865  49.977  1.00  0.00    -0.000 C 
BRANCH  14  15
ATOM     15  C   UNL     1      54.055  26.419  49.942  1.00  0.00    -0.003 C 
ATOM     16  C   UNL     1      54.002  27.938  50.106  1.00  0.00     0.004 C 
ENDBRANCH  14  15
ENDBRANCH  13  14
ENDBRANCH  12  13
ENDBRANCH  11  12
ENDBRANCH  10  11
ENDBRANCH   1  10
TORSDOF 12
ENDMDL
MODEL 8
REMARK VINA RESULT:    -3.164      2.748      4.737
REMARK INTER + INTRA:          -7.029
REMARK INTER:                  -5.012
REMARK INTRA:                  -2.017
REMARK UNBOUND:                -1.645
REMARK SMILES CCCCCCCCCCCCCC(=O)[O-]
REMARK SMILES IDX 8 1 9 2 10 3 11 4 12 5 13 6 14 7 15 8 16 9 7 10 6 11 5 12
REMARK SMILES IDX 4 13 3 14 2 15 1 16
REMARK H PARENT
REMARK Flexibility Score: inf
ROOT
ATOM      1  C   UNL     1      61.348  28.575  58.247  1.00  0.00     0.000 C 
ENDROOT
BRANCH   1   2
ATOM      2  C   UNL     1      60.454  29.806  58.028  1.00  0.00     0.000 C 
BRANCH   2   3
ATOM      3  C   UNL     1      59.131  29.721  58.808  1.00  0.00     0.000 C 
BRANCH   3   4
ATOM      4  C   UNL     1      58.964  28.377  59.538  1.00  0.00     0.000 C 
BRANCH   4   5
ATOM      5  C   UNL     1      58.175  28.512  60.850  1.00  0.00     0.006 C 
BRANCH   5   6
ATOM      6  C   UNL     1      57.803  27.155  61.461  1.00  0.00     0.053 C 
BRANCH   6   7
ATOM      7  C   UNL     1      56.437  27.213  62.068  1.00  0.00     0.041 C 
ATOM      8  O   UNL     1      55.976  28.307  62.488  1.00  0.00    -0.550 OA
ATOM      9  O   UNL     1      55.653  26.068  62.126  1.00  0.00    -0.550 OA
ENDBRANCH   6   7
ENDBRANCH   5   6
ENDBRANCH   4   5
ENDBRANCH   3   4
ENDBRANCH   2   3
ENDBRANCH   1   2
BRANCH   1  10
ATOM     10  C   UNL     1      62.686  28.921  58.921  1.00  0.00     0.000 C 
BRANCH  10  11
ATOM     11  C   UNL     1      62.993  28.060  60.164  1.00  0.00    -0.000 C 
BRANCH  11  12
ATOM     12  C   UNL     1      62.183  28.508  61.393  1.00  0.00    -0.000 C 
BRANCH  12  13
ATOM     13  C   UNL     1      62.376  30.000  61.715  1.00  0.00    -0.000 C 
BRANCH  13  14
ATOM     14  C   UNL     1      61.046  30.773  61.715  1.00  0.00    -0.000 C 
BRANCH  14  15
ATOM     15  C   UNL     1      61.125  32.078  60.906  1.00  0.00    -0.003 C 
ATOM     16  C   UNL     1      62.508  32.316  60.300  1.00  0.00     0.004 C 
ENDBRANCH  14  15
ENDBRANCH  13  14
ENDBRANCH  12  13
ENDBRANCH  11  12
ENDBRANCH  10  11
ENDBRANCH   1  10
TORSDOF 12
ENDMDL
MODEL 9
REMARK VINA RESULT:    -3.159      9.790     12.636
REMARK INTER + INTRA:          -7.021
REMARK INTER:                  -5.280
REMARK INTRA:                  -1.741
REMARK UNBOUND:                -1.645
REMARK SMILES CCCCCCCCCCCCCC(=O)[O-]
REMARK SMILES IDX 8 1 9 2 10 3 11 4 12 5 13 6 14 7 15 8 16 9 7 10 6 11 5 12
REMARK SMILES IDX 4 13 3 14 2 15 1 16
REMARK H PARENT
REMARK Flexibility Score: inf
ROOT
ATOM      1  C   UNL     1      60.071  25.821  49.994  1.00  0.00     0.000 C 
ENDROOT
BRANCH   1   2
ATOM      2  C   UNL     1      60.266  27.337  50.155  1.00  0.00     0.000 C 
BRANCH   2   3
ATOM      3  C   UNL     1      59.335  28.152  49.242  1.00  0.00     0.000 C 
BRANCH   3   4
ATOM      4  C   UNL     1      58.436  29.119  50.032  1.00  0.00     0.000 C 
BRANCH   4   5
ATOM      5  C   UNL     1      59.139  29.700  51.270  1.00  0.00     0.006 C 
BRANCH   5   6
ATOM      6  C   UNL     1      58.321  29.522  52.554  1.00  0.00     0.053 C 
BRANCH   6   7
ATOM      7  C   UNL     1      57.301  30.611  52.678  1.00  0.00     0.041 C 
ATOM      8  O   UNL     1      56.096  30.387  52.387  1.00  0.00    -0.550 OA
ATOM      9  O   UNL     1      57.672  31.859  53.160  1.00  0.00    -0.550 OA
ENDBRANCH   6   7
ENDBRANCH   5   6
ENDBRANCH   4   5
ENDBRANCH   3   4
ENDBRANCH   2   3
ENDBRANCH   1   2
BRANCH   1  10
ATOM     10  C   UNL     1      58.641  25.364  50.332  1.00  0.00     0.000 C 
BRANCH  10  11
ATOM     11  C   UNL     1      58.189  25.748  51.757  1.00  0.00    -0.000 C 
BRANCH  11  12
ATOM     12  C   UNL     1      56.669  25.598  51.942  1.00  0.00    -0.000 C 
BRANCH  12  13
ATOM     13  C   UNL     1      55.912  26.915  51.705  1.00  0.00    -0.000 C 
BRANCH  13  14
ATOM     14  C   UNL     1      55.286  26.984  50.301  1.00  0.00    -0.000 C 
BRANCH  14  15
ATOM     15  C   UNL     1      54.917  25.595  49.754  1.00  0.00    -0.003 C 
ATOM     16  C   UNL     1      53.445  25.488  49.353  1.00  0.00     0.004 C 
ENDBRANCH  14  15
ENDBRANCH  13  14
ENDBRANCH  12  13
ENDBRANCH  11  12
ENDBRANCH  10  11
ENDBRANCH   1  10
TORSDOF 12
ENDMDL
