MODEL 1
REMARK VINA RESULT:    -5.196      0.000      0.000
REMARK INTER + INTRA:         -11.421
REMARK INTER:                  -9.752
REMARK INTRA:                  -1.669
REMARK UNBOUND:                -1.669
REMARK SMILES CCCCCCCCC=CCCCCCCCC(=O)[O-]
REMARK SMILES IDX 10 1 9 2 11 3 12 4 13 5 14 6 15 7 16 8 17 9 18 10 19 11
REMARK SMILES IDX 20 12 8 13 7 14 6 15 5 16 4 17 3 18 2 19 1 20
REMARK H PARENT
REMARK Flexibility Score: inf
ROOT
ATOM      1  C   UNL     1       6.713   5.507  33.976  1.00  0.00    -0.031 C 
ATOM      2  C   UNL     1       6.456   4.290  33.460  1.00  0.00    -0.031 C 
ENDROOT
BRANCH   1   3
ATOM      3  C   UNL     1       7.437   6.613  33.247  1.00  0.00     0.027 C 
BRANCH   3   4
ATOM      4  C   UNL     1       8.948   6.609  33.538  1.00  0.00     0.004 C 
BRANCH   4   5
ATOM      5  C   UNL     1       9.831   6.344  32.305  1.00  0.00     0.000 C 
BRANCH   5   6
ATOM      6  C   UNL     1       9.240   6.924  31.011  1.00  0.00     0.000 C 
BRANCH   6   7
ATOM      7  C   UNL     1      10.251   7.834  30.304  1.00  0.00     0.000 C 
BRANCH   7   8
ATOM      8  C   UNL     1      11.692   7.418  30.635  1.00  0.00     0.006 C 
BRANCH   8   9
ATOM      9  C   UNL     1      12.292   6.497  29.566  1.00  0.00     0.053 C 
BRANCH   9  10
ATOM     10  C   UNL     1      13.730   6.184  29.844  1.00  0.00     0.041 C 
ATOM     11  O   UNL     1      14.099   5.885  31.010  1.00  0.00    -0.550 OA
ATOM     12  O   UNL     1      14.669   6.253  28.822  1.00  0.00    -0.550 OA
ENDBRANCH   9  10
ENDBRANCH   8   9
ENDBRANCH   7   8
ENDBRANCH   6   7
ENDBRANCH   5   6
ENDBRANCH   4   5
ENDBRANCH   3   4
ENDBRANCH   1   3
BRANCH   2  13
ATOM     13  C   UNL     1       6.933   3.813  32.113  1.00  0.00     0.027 C 
BRANCH  13  14
ATOM     14  C   UNL     1       8.229   3.001  32.253  1.00  0.00     0.004 C 
BRANCH  14  15
ATOM     15  C   UNL     1       8.338   2.290  33.611  1.00  0.00     0.000 C 
BRANCH  15  16
ATOM     16  C   UNL     1       9.327   1.112  33.587  1.00  0.00     0.000 C 
BRANCH  16  17
ATOM     17  C   UNL     1       9.645   0.646  32.150  1.00  0.00    -0.000 C 
BRANCH  17  18
ATOM     18  C   UNL     1      10.918  -0.214  32.046  1.00  0.00    -0.000 C 
BRANCH  18  19
ATOM     19  C   UNL     1      12.003   0.118  33.083  1.00  0.00    -0.003 C 
ATOM     20  C   UNL     1      13.337   0.508  32.443  1.00  0.00     0.004 C 
ENDBRANCH  18  19
ENDBRANCH  17  18
ENDBRANCH  16  17
ENDBRANCH  15  16
ENDBRANCH  14  15
ENDBRANCH  13  14
ENDBRANCH   2  13
TORSDOF 15
ENDMDL
MODEL 2
REMARK VINA RESULT:    -5.143      3.337      5.146
REMARK INTER + INTRA:         -11.322
REMARK INTER:                  -9.338
REMARK INTRA:                  -1.984
REMARK UNBOUND:                -1.669
REMARK SMILES CCCCCCCCC=CCCCCCCCC(=O)[O-]
REMARK SMILES IDX 10 1 9 2 11 3 12 4 13 5 14 6 15 7 16 8 17 9 18 10 19 11
REMARK SMILES IDX 20 12 8 13 7 14 6 15 5 16 4 17 3 18 2 19 1 20
REMARK H PARENT
REMARK Flexibility Score: inf
ROOT
ATOM      1  C   UNL     1       7.946   5.243  29.592  1.00  0.00    -0.031 C 
ATOM      2  C   UNL     1       7.316   4.076  29.822  1.00  0.00    -0.031 C 
ENDROOT
BRANCH   1   3
ATOM      3  C   UNL     1       8.236   6.284  30.647  1.00  0.00     0.027 C 
BRANCH   3   4
ATOM      4  C   UNL     1       9.746   6.463  30.887  1.00  0.00     0.004 C 
BRANCH   4   5
ATOM      5  C   UNL     1      10.482   7.214  29.763  1.00  0.00     0.000 C 
BRANCH   5   6
ATOM      6  C   UNL     1      11.780   6.517  29.329  1.00  0.00     0.000 C 
BRANCH   6   7
ATOM      7  C   UNL     1      11.841   6.366  27.805  1.00  0.00     0.000 C 
BRANCH   7   8
ATOM      8  C   UNL     1      10.501   5.864  27.247  1.00  0.00     0.006 C 
BRANCH   8   9
ATOM      9  C   UNL     1      10.662   5.147  25.901  1.00  0.00     0.053 C 
BRANCH   9  10
ATOM     10  C   UNL     1       9.768   5.728  24.850  1.00  0.00     0.041 C 
ATOM     11  O   UNL     1       9.487   6.956  24.866  1.00  0.00    -0.550 OA
ATOM     12  O   UNL     1       9.219   4.909  23.871  1.00  0.00    -0.550 OA
ENDBRANCH   9  10
ENDBRANCH   8   9
ENDBRANCH   7   8
ENDBRANCH   6   7
ENDBRANCH   5   6
ENDBRANCH   4   5
ENDBRANCH   3   4
ENDBRANCH   1   3
BRANCH   2  13
ATOM     13  C   UNL     1       6.721   3.669  31.146  1.00  0.00     0.027 C 
BRANCH  13  14
ATOM     14  C   UNL     1       7.786   3.020  32.043  1.00  0.00     0.004 C 
BRANCH  14  15
ATOM     15  C   UNL     1       7.816   3.622  33.457  1.00  0.00     0.000 C 
BRANCH  15  16
ATOM     16  C   UNL     1       6.516   4.363  33.815  1.00  0.00     0.000 C 
BRANCH  16  17
ATOM     17  C   UNL     1       6.775   5.828  34.226  1.00  0.00    -0.000 C 
BRANCH  17  18
ATOM     18  C   UNL     1       7.950   5.997  35.207  1.00  0.00    -0.000 C 
BRANCH  18  19
ATOM     19  C   UNL     1       9.062   6.940  34.720  1.00  0.00    -0.003 C 
ATOM     20  C   UNL     1       8.519   8.200  34.046  1.00  0.00     0.004 C 
ENDBRANCH  18  19
ENDBRANCH  17  18
ENDBRANCH  16  17
ENDBRANCH  15  16
ENDBRANCH  14  15
ENDBRANCH  13  14
ENDBRANCH   2  13
TORSDOF 15
ENDMDL
MODEL 3
REMARK VINA RESULT:    -5.123      4.136      5.669
REMARK INTER + INTRA:         -11.285
REMARK INTER:                  -8.363
REMARK INTRA:                  -2.922
REMARK UNBOUND:                -1.669
REMARK SMILES CCCCCCCCC=CCCCCCCCC(=O)[O-]
REMARK SMILES IDX 10 1 9 2 11 3 12 4 13 5 14 6 15 7 16 8 17 9 18 10 19 11
REMARK SMILES IDX 20 12 8 13 7 14 6 15 5 16 4 17 3 18 2 19 1 20
REMARK H PARENT
REMARK Flexibility Score: inf
ROOT
ATOM      1  C   UNL     1       7.679   4.225  30.066  1.00  0.00    -0.031 C 
ATOM      2  C   UNL     1       7.172   3.501  31.082  1.00  0.00    -0.031 C 
ENDROOT
BRANCH   1   3
ATOM      3  C   UNL     1       7.921   5.715  30.110  1.00  0.00     0.027 C 
BRANCH   3   4
ATOM      4  C   UNL     1       9.420   6.061  30.118  1.00  0.00     0.004 C 
BRANCH   4   5
ATOM      5  C   UNL     1       9.998   6.345  31.516  1.00  0.00     0.000 C 
BRANCH   5   6
ATOM      6  C   UNL     1      10.405   7.813  31.708  1.00  0.00     0.000 C 
BRANCH   6   7
ATOM      7  C   UNL     1      10.077   8.642  30.460  1.00  0.00     0.000 C 
BRANCH   7   8
ATOM      8  C   UNL     1       9.452   9.991  30.844  1.00  0.00     0.006 C 
BRANCH   8   9
ATOM      9  C   UNL     1       9.429  10.212  32.362  1.00  0.00     0.053 C 
BRANCH   9  10
ATOM     10  C   UNL     1       8.257  11.043  32.786  1.00  0.00     0.041 C 
ATOM     11  O   UNL     1       7.814  10.959  33.962  1.00  0.00    -0.550 OA
ATOM     12  O   UNL     1       7.634  11.886  31.874  1.00  0.00    -0.550 OA
ENDBRANCH   9  10
ENDBRANCH   8   9
ENDBRANCH   7   8
ENDBRANCH   6   7
ENDBRANCH   5   6
ENDBRANCH   4   5
ENDBRANCH   3   4
ENDBRANCH   1   3
BRANCH   2  13
ATOM     13  C   UNL     1       6.680   4.080  32.384  1.00  0.00     0.027 C 
BRANCH  13  14
ATOM     14  C   UNL     1       7.746   3.932  33.480  1.00  0.00     0.004 C 
BRANCH  14  15
ATOM     15  C   UNL     1       7.145   3.936  34.895  1.00  0.00     0.000 C 
BRANCH  15  16
ATOM     16  C   UNL     1       7.576   5.161  35.719  1.00  0.00     0.000 C 
BRANCH  16  17
ATOM     17  C   UNL     1       8.712   5.953  35.038  1.00  0.00    -0.000 C 
BRANCH  17  18
ATOM     18  C   UNL     1       8.338   7.409  34.705  1.00  0.00    -0.000 C 
BRANCH  18  19
ATOM     19  C   UNL     1       6.873   7.618  34.292  1.00  0.00    -0.003 C 
ATOM     20  C   UNL     1       6.698   7.765  32.779  1.00  0.00     0.004 C 
ENDBRANCH  18  19
ENDBRANCH  17  18
ENDBRANCH  16  17
ENDBRANCH  15  16
ENDBRANCH  14  15
ENDBRANCH  13  14
ENDBRANCH   2  13
TORSDOF 15
ENDMDL
MODEL 4
REMARK VINA RESULT:    -5.071      3.729      4.894
REMARK INTER + INTRA:         -11.188
REMARK INTER:                  -9.126
REMARK INTRA:                  -2.062
REMARK UNBOUND:                -1.669
REMARK SMILES CCCCCCCCC=CCCCCCCCC(=O)[O-]
REMARK SMILES IDX 10 1 9 2 11 3 12 4 13 5 14 6 15 7 16 8 17 9 18 10 19 11
REMARK SMILES IDX 20 12 8 13 7 14 6 15 5 16 4 17 3 18 2 19 1 20
REMARK H PARENT
REMARK Flexibility Score: inf
ROOT
ATOM      1  C   UNL     1       7.237   7.816  32.750  1.00  0.00    -0.031 C 
ATOM      2  C   UNL     1       6.271   8.145  33.629  1.00  0.00    -0.031 C 
ENDROOT
BRANCH   1   3
ATOM      3  C   UNL     1       8.638   7.401  33.130  1.00  0.00     0.027 C 
BRANCH   3   4
ATOM      4  C   UNL     1       9.320   6.577  32.023  1.00  0.00     0.004 C 
BRANCH   4   5
ATOM      5  C   UNL     1       8.873   6.940  30.596  1.00  0.00     0.000 C 
BRANCH   5   6
ATOM      6  C   UNL     1       9.078   5.792  29.596  1.00  0.00     0.000 C 
BRANCH   6   7
ATOM      7  C   UNL     1      10.294   6.052  28.700  1.00  0.00     0.000 C 
BRANCH   7   8
ATOM      8  C   UNL     1      10.180   5.280  27.378  1.00  0.00     0.006 C 
BRANCH   8   9
ATOM      9  C   UNL     1      10.729   6.078  26.188  1.00  0.00     0.053 C 
BRANCH   9  10
ATOM     10  C   UNL     1       9.812   6.015  25.005  1.00  0.00     0.041 C 
ATOM     11  O   UNL     1       9.492   4.903  24.510  1.00  0.00    -0.550 OA
ATOM     12  O   UNL     1       9.336   7.187  24.431  1.00  0.00    -0.550 OA
ENDBRANCH   9  10
ENDBRANCH   8   9
ENDBRANCH   7   8
ENDBRANCH   6   7
ENDBRANCH   5   6
ENDBRANCH   4   5
ENDBRANCH   3   4
ENDBRANCH   1   3
BRANCH   2  13
ATOM     13  C   UNL     1       6.466   8.239  35.121  1.00  0.00     0.027 C 
BRANCH  13  14
ATOM     14  C   UNL     1       6.079   6.919  35.803  1.00  0.00     0.004 C 
BRANCH  14  15
ATOM     15  C   UNL     1       7.291   6.184  36.400  1.00  0.00     0.000 C 
BRANCH  15  16
ATOM     16  C   UNL     1       7.555   4.828  35.724  1.00  0.00     0.000 C 
BRANCH  16  17
ATOM     17  C   UNL     1       6.639   4.596  34.504  1.00  0.00    -0.000 C 
BRANCH  17  18
ATOM     18  C   UNL     1       7.277   3.722  33.408  1.00  0.00    -0.000 C 
BRANCH  18  19
ATOM     19  C   UNL     1       6.681   3.916  32.004  1.00  0.00    -0.003 C 
ATOM     20  C   UNL     1       7.390   3.078  30.938  1.00  0.00     0.004 C 
ENDBRANCH  18  19
ENDBRANCH  17  18
ENDBRANCH  16  17
ENDBRANCH  15  16
ENDBRANCH  14  15
ENDBRANCH  13  14
ENDBRANCH   2  13
TORSDOF 15
ENDMDL
MODEL 5
REMARK VINA RESULT:    -5.049      3.452      6.981
REMARK INTER + INTRA:         -11.145
REMARK INTER:                  -9.323
REMARK INTRA:                  -1.822
REMARK UNBOUND:                -1.669
REMARK SMILES CCCCCCCCC=CCCCCCCCC(=O)[O-]
REMARK SMILES IDX 10 1 9 2 11 3 12 4 13 5 14 6 15 7 16 8 17 9 18 10 19 11
REMARK SMILES IDX 20 12 8 13 7 14 6 15 5 16 4 17 3 18 2 19 1 20
REMARK H PARENT
REMARK Flexibility Score: inf
ROOT
ATOM      1  C   UNL     1       7.762   6.137  30.497  1.00  0.00    -0.031 C 
ATOM      2  C   UNL     1       8.708   6.693  31.277  1.00  0.00    -0.031 C 
ENDROOT
BRANCH   1   3
ATOM      3  C   UNL     1       7.986   4.952  29.588  1.00  0.00     0.027 C 
BRANCH   3   4
ATOM      4  C   UNL     1       7.294   3.680  30.110  1.00  0.00     0.004 C 
BRANCH   4   5
ATOM      5  C   UNL     1       6.825   3.768  31.573  1.00  0.00     0.000 C 
BRANCH   5   6
ATOM      6  C   UNL     1       7.869   3.238  32.568  1.00  0.00     0.000 C 
BRANCH   6   7
ATOM      7  C   UNL     1       7.495   3.609  34.007  1.00  0.00     0.000 C 
BRANCH   7   8
ATOM      8  C   UNL     1       6.296   4.568  34.036  1.00  0.00     0.006 C 
BRANCH   8   9
ATOM      9  C   UNL     1       6.710   6.012  34.344  1.00  0.00     0.053 C 
BRANCH   9  10
ATOM     10  C   UNL     1       7.811   6.071  35.358  1.00  0.00     0.041 C 
ATOM     11  O   UNL     1       8.972   6.416  35.014  1.00  0.00    -0.550 OA
ATOM     12  O   UNL     1       7.561   5.714  36.678  1.00  0.00    -0.550 OA
ENDBRANCH   9  10
ENDBRANCH   8   9
ENDBRANCH   7   8
ENDBRANCH   6   7
ENDBRANCH   5   6
ENDBRANCH   4   5
ENDBRANCH   3   4
ENDBRANCH   1   3
BRANCH   2  13
ATOM     13  C   UNL     1      10.157   6.280  31.293  1.00  0.00     0.027 C 
BRANCH  13  14
ATOM     14  C   UNL     1      11.030   7.334  30.598  1.00  0.00     0.004 C 
BRANCH  14  15
ATOM     15  C   UNL     1      10.863   7.328  29.070  1.00  0.00     0.000 C 
BRANCH  15  16
ATOM     16  C   UNL     1      11.795   6.321  28.375  1.00  0.00     0.000 C 
BRANCH  16  17
ATOM     17  C   UNL     1      11.040   5.422  27.373  1.00  0.00    -0.000 C 
BRANCH  17  18
ATOM     18  C   UNL     1      10.386   6.200  26.216  1.00  0.00    -0.000 C 
BRANCH  18  19
ATOM     19  C   UNL     1      10.993   5.922  24.831  1.00  0.00    -0.003 C 
ATOM     20  C   UNL     1      10.622   6.985  23.796  1.00  0.00     0.004 C 
ENDBRANCH  18  19
ENDBRANCH  17  18
ENDBRANCH  16  17
ENDBRANCH  15  16
ENDBRANCH  14  15
ENDBRANCH  13  14
ENDBRANCH   2  13
TORSDOF 15
ENDMDL
MODEL 6
REMARK VINA RESULT:    -5.044      3.354      5.250
REMARK INTER + INTRA:         -11.136
REMARK INTER:                  -8.807
REMARK INTRA:                  -2.329
REMARK UNBOUND:                -1.669
REMARK SMILES CCCCCCCCC=CCCCCCCCC(=O)[O-]
REMARK SMILES IDX 10 1 9 2 11 3 12 4 13 5 14 6 15 7 16 8 17 9 18 10 19 11
REMARK SMILES IDX 20 12 8 13 7 14 6 15 5 16 4 17 3 18 2 19 1 20
REMARK H PARENT
REMARK Flexibility Score: inf
ROOT
ATOM      1  C   UNL     1       7.608   3.516  33.129  1.00  0.00    -0.031 C 
ATOM      2  C   UNL     1       7.853   3.271  31.827  1.00  0.00    -0.031 C 
ENDROOT
BRANCH   1   3
ATOM      3  C   UNL     1       6.400   4.256  33.650  1.00  0.00     0.027 C 
BRANCH   3   4
ATOM      4  C   UNL     1       6.713   5.729  33.969  1.00  0.00     0.004 C 
BRANCH   4   5
ATOM      5  C   UNL     1       7.904   5.932  34.923  1.00  0.00     0.000 C 
BRANCH   5   6
ATOM      6  C   UNL     1       9.100   6.619  34.248  1.00  0.00     0.000 C 
BRANCH   6   7
ATOM      7  C   UNL     1       8.679   7.938  33.591  1.00  0.00     0.000 C 
BRANCH   7   8
ATOM      8  C   UNL     1       9.791   8.991  33.705  1.00  0.00     0.006 C 
BRANCH   8   9
ATOM      9  C   UNL     1      10.325   9.425  32.335  1.00  0.00     0.053 C 
BRANCH   9  10
ATOM     10  C   UNL     1       9.354  10.309  31.614  1.00  0.00     0.041 C 
ATOM     11  O   UNL     1       9.079  10.093  30.404  1.00  0.00    -0.550 OA
ATOM     12  O   UNL     1       8.776  11.390  32.269  1.00  0.00    -0.550 OA
ENDBRANCH   9  10
ENDBRANCH   8   9
ENDBRANCH   7   8
ENDBRANCH   6   7
ENDBRANCH   5   6
ENDBRANCH   4   5
ENDBRANCH   3   4
ENDBRANCH   1   3
BRANCH   2  13
ATOM     13  C   UNL     1       7.009   3.778  30.686  1.00  0.00     0.027 C 
BRANCH  13  14
ATOM     14  C   UNL     1       7.843   4.659  29.744  1.00  0.00     0.004 C 
BRANCH  14  15
ATOM     15  C   UNL     1       8.222   6.008  30.375  1.00  0.00     0.000 C 
BRANCH  15  16
ATOM     16  C   UNL     1       9.735   6.150  30.611  1.00  0.00     0.000 C 
BRANCH  16  17
ATOM     17  C   UNL     1      10.425   6.969  29.499  1.00  0.00    -0.000 C 
BRANCH  17  18
ATOM     18  C   UNL     1      11.187   6.106  28.477  1.00  0.00    -0.000 C 
BRANCH  18  19
ATOM     19  C   UNL     1      10.506   5.985  27.104  1.00  0.00    -0.003 C 
ATOM     20  C   UNL     1      10.443   4.544  26.597  1.00  0.00     0.004 C 
ENDBRANCH  18  19
ENDBRANCH  17  18
ENDBRANCH  16  17
ENDBRANCH  15  16
ENDBRANCH  14  15
ENDBRANCH  13  14
ENDBRANCH   2  13
TORSDOF 15
ENDMDL
MODEL 7
REMARK VINA RESULT:    -5.005      4.161      5.849
REMARK INTER + INTRA:         -11.062
REMARK INTER:                  -8.616
REMARK INTRA:                  -2.447
REMARK UNBOUND:                -1.669
REMARK SMILES CCCCCCCCC=CCCCCCCCC(=O)[O-]
REMARK SMILES IDX 10 1 9 2 11 3 12 4 13 5 14 6 15 7 16 8 17 9 18 10 19 11
REMARK SMILES IDX 20 12 8 13 7 14 6 15 5 16 4 17 3 18 2 19 1 20
REMARK H PARENT
REMARK Flexibility Score: inf
ROOT
ATOM      1  C   UNL     1       9.376   7.209  31.252  1.00  0.00    -0.031 C 
ATOM      2  C   UNL     1       8.317   7.123  32.079  1.00  0.00    -0.031 C 
ENDROOT
BRANCH   1   3
ATOM      3  C   UNL     1      10.800   7.430  31.701  1.00  0.00     0.027 C 
BRANCH   3   4
ATOM      4  C   UNL     1      11.228   8.903  31.571  1.00  0.00     0.004 C 
BRANCH   4   5
ATOM      5  C   UNL     1      11.287   9.666  32.906  1.00  0.00     0.000 C 
BRANCH   5   6
ATOM      6  C   UNL     1      10.447  10.952  32.897  1.00  0.00     0.000 C 
BRANCH   6   7
ATOM      7  C   UNL     1       9.181  10.789  33.745  1.00  0.00     0.000 C 
BRANCH   7   8
ATOM      8  C   UNL     1       7.919  11.042  32.907  1.00  0.00     0.006 C 
BRANCH   8   9
ATOM      9  C   UNL     1       8.248  11.556  31.500  1.00  0.00     0.053 C 
BRANCH   9  10
ATOM     10  C   UNL     1       7.545  12.844  31.199  1.00  0.00     0.041 C 
ATOM     11  O   UNL     1       6.873  13.422  32.093  1.00  0.00    -0.550 OA
ATOM     12  O   UNL     1       7.607  13.390  29.923  1.00  0.00    -0.550 OA
ENDBRANCH   9  10
ENDBRANCH   8   9
ENDBRANCH   7   8
ENDBRANCH   6   7
ENDBRANCH   5   6
ENDBRANCH   4   5
ENDBRANCH   3   4
ENDBRANCH   1   3
BRANCH   2  13
ATOM     13  C   UNL     1       8.376   7.328  33.571  1.00  0.00     0.027 C 
BRANCH  13  14
ATOM     14  C   UNL     1       8.113   6.008  34.310  1.00  0.00     0.004 C 
BRANCH  14  15
ATOM     15  C   UNL     1       6.639   5.576  34.244  1.00  0.00     0.000 C 
BRANCH  15  16
ATOM     16  C   UNL     1       6.469   4.108  33.816  1.00  0.00     0.000 C 
BRANCH  16  17
ATOM     17  C   UNL     1       7.803   3.472  33.370  1.00  0.00    -0.000 C 
BRANCH  17  18
ATOM     18  C   UNL     1       7.797   2.980  31.911  1.00  0.00    -0.000 C 
BRANCH  18  19
ATOM     19  C   UNL     1       6.850   3.752  30.977  1.00  0.00    -0.003 C 
ATOM     20  C   UNL     1       7.572   4.373  29.781  1.00  0.00     0.004 C 
ENDBRANCH  18  19
ENDBRANCH  17  18
ENDBRANCH  16  17
ENDBRANCH  15  16
ENDBRANCH  14  15
ENDBRANCH  13  14
ENDBRANCH   2  13
TORSDOF 15
ENDMDL
MODEL 8
REMARK VINA RESULT:    -4.997      3.425      5.578
REMARK INTER + INTRA:         -11.049
REMARK INTER:                  -8.556
REMARK INTRA:                  -2.493
REMARK UNBOUND:                -1.669
REMARK SMILES CCCCCCCCC=CCCCCCCCC(=O)[O-]
REMARK SMILES IDX 10 1 9 2 11 3 12 4 13 5 14 6 15 7 16 8 17 9 18 10 19 11
REMARK SMILES IDX 20 12 8 13 7 14 6 15 5 16 4 17 3 18 2 19 1 20
REMARK H PARENT
REMARK Flexibility Score: inf
ROOT
ATOM      1  C   UNL     1       7.768   3.405  33.413  1.00  0.00    -0.031 C 
ATOM      2  C   UNL     1       7.711   3.100  32.102  1.00  0.00    -0.031 C 
ENDROOT
BRANCH   1   3
ATOM      3  C   UNL     1       6.806   4.326  34.123  1.00  0.00     0.027 C 
BRANCH   3   4
ATOM      4  C   UNL     1       7.450   5.014  35.340  1.00  0.00     0.004 C 
BRANCH   4   5
ATOM      5  C   UNL     1       7.197   6.530  35.419  1.00  0.00     0.000 C 
BRANCH   5   6
ATOM      6  C   UNL     1       5.758   6.916  35.046  1.00  0.00     0.000 C 
BRANCH   6   7
ATOM      7  C   UNL     1       5.705   8.323  34.439  1.00  0.00     0.000 C 
BRANCH   7   8
ATOM      8  C   UNL     1       7.110   8.936  34.348  1.00  0.00     0.006 C 
BRANCH   8   9
ATOM      9  C   UNL     1       7.213   9.995  33.243  1.00  0.00     0.053 C 
BRANCH   9  10
ATOM     10  C   UNL     1       8.636  10.255  32.852  1.00  0.00     0.041 C 
ATOM     11  O   UNL     1       9.566  10.047  33.674  1.00  0.00    -0.550 OA
ATOM     12  O   UNL     1       8.931  10.757  31.590  1.00  0.00    -0.550 OA
ENDBRANCH   9  10
ENDBRANCH   8   9
ENDBRANCH   7   8
ENDBRANCH   6   7
ENDBRANCH   5   6
ENDBRANCH   4   5
ENDBRANCH   3   4
ENDBRANCH   1   3
BRANCH   2  13
ATOM     13  C   UNL     1       6.737   3.705  31.124  1.00  0.00     0.027 C 
BRANCH  13  14
ATOM     14  C   UNL     1       7.445   4.075  29.813  1.00  0.00     0.004 C 
BRANCH  14  15
ATOM     15  C   UNL     1       8.408   5.262  29.975  1.00  0.00     0.000 C 
BRANCH  15  16
ATOM     16  C   UNL     1       7.789   6.426  30.766  1.00  0.00     0.000 C 
BRANCH  16  17
ATOM     17  C   UNL     1       8.616   6.786  32.019  1.00  0.00    -0.000 C 
BRANCH  17  18
ATOM     18  C   UNL     1      10.093   6.359  31.928  1.00  0.00    -0.000 C 
BRANCH  18  19
ATOM     19  C   UNL     1      11.060   7.479  31.511  1.00  0.00    -0.003 C 
ATOM     20  C   UNL     1      11.361   7.475  30.011  1.00  0.00     0.004 C 
ENDBRANCH  18  19
ENDBRANCH  17  18
ENDBRANCH  16  17
ENDBRANCH  15  16
ENDBRANCH  14  15
ENDBRANCH  13  14
ENDBRANCH   2  13
TORSDOF 15
ENDMDL
MODEL 9
REMARK VINA RESULT:    -4.992      3.837      5.660
REMARK INTER + INTRA:         -11.038
REMARK INTER:                  -8.631
REMARK INTRA:                  -2.407
REMARK UNBOUND:                -1.669
REMARK SMILES CCCCCCCCC=CCCCCCCCC(=O)[O-]
REMARK SMILES IDX 10 1 9 2 11 3 12 4 13 5 14 6 15 7 16 8 17 9 18 10 19 11
REMARK SMILES IDX 20 12 8 13 7 14 6 15 5 16 4 17 3 18 2 19 1 20
REMARK H PARENT
REMARK Flexibility Score: inf
ROOT
ATOM      1  C   UNL     1       6.500   5.453  34.380  1.00  0.00    -0.031 C 
ATOM      2  C   UNL     1       6.449   4.227  33.825  1.00  0.00    -0.031 C 
ENDROOT
BRANCH   1   3
ATOM      3  C   UNL     1       7.755   6.108  34.902  1.00  0.00     0.027 C 
BRANCH   3   4
ATOM      4  C   UNL     1       7.812   7.609  34.565  1.00  0.00     0.004 C 
BRANCH   4   5
ATOM      5  C   UNL     1       6.577   8.137  33.814  1.00  0.00     0.000 C 
BRANCH   5   6
ATOM      6  C   UNL     1       6.659   9.641  33.512  1.00  0.00     0.000 C 
BRANCH   6   7
ATOM      7  C   UNL     1       8.116  10.117  33.479  1.00  0.00     0.000 C 
BRANCH   7   8
ATOM      8  C   UNL     1       8.630  10.217  32.035  1.00  0.00     0.006 C 
BRANCH   8   9
ATOM      9  C   UNL     1       8.971  11.659  31.638  1.00  0.00     0.053 C 
BRANCH   9  10
ATOM     10  C   UNL     1       7.775  12.388  31.107  1.00  0.00     0.041 C 
ATOM     11  O   UNL     1       7.435  12.254  29.902  1.00  0.00    -0.550 OA
ATOM     12  O   UNL     1       7.056  13.241  31.935  1.00  0.00    -0.550 OA
ENDBRANCH   9  10
ENDBRANCH   8   9
ENDBRANCH   7   8
ENDBRANCH   6   7
ENDBRANCH   5   6
ENDBRANCH   4   5
ENDBRANCH   3   4
ENDBRANCH   1   3
BRANCH   2  13
ATOM     13  C   UNL     1       7.620   3.283  33.727  1.00  0.00     0.027 C 
BRANCH  13  14
ATOM     14  C   UNL     1       8.072   3.130  32.267  1.00  0.00     0.004 C 
BRANCH  14  15
ATOM     15  C   UNL     1       7.066   3.727  31.270  1.00  0.00     0.000 C 
BRANCH  15  16
ATOM     16  C   UNL     1       7.716   4.722  30.294  1.00  0.00     0.000 C 
BRANCH  16  17
ATOM     17  C   UNL     1       7.815   6.143  30.890  1.00  0.00    -0.000 C 
BRANCH  17  18
ATOM     18  C   UNL     1       9.212   6.487  31.439  1.00  0.00    -0.000 C 
BRANCH  18  19
ATOM     19  C   UNL     1      10.143   7.184  30.435  1.00  0.00    -0.003 C 
ATOM     20  C   UNL     1      11.486   7.584  31.048  1.00  0.00     0.004 C 
ENDBRANCH  18  19
ENDBRANCH  17  18
ENDBRANCH  16  17
ENDBRANCH  15  16
ENDBRANCH  14  15
ENDBRANCH  13  14
ENDBRANCH   2  13
TORSDOF 15
ENDMDL
