MODEL 1
REMARK VINA RESULT:    -6.484      0.000      0.000
REMARK INTER + INTRA:          -7.731
REMARK INTER:                  -7.621
REMARK INTRA:                  -0.110
REMARK UNBOUND:                -0.110
REMARK SMILES O=c1c(O)c(-c2ccc(O)cc2)oc2cc(O)cc(O)c12
REMARK SMILES IDX 5 1 3 2 2 3 1 4 21 5 19 6 18 7 16 8 15 9 14 10 13 11 6 12
REMARK SMILES IDX 7 13 8 14 9 15 12 16 11 17 10 18 4 20 20 22 17 24
REMARK H PARENT 10 19 4 21 20 23 17 25
REMARK Flexibility Score: inf
ROOT
ATOM      1  C   UNL     1      55.982 -40.676 -25.899  1.00  0.00     0.180 A 
ATOM      2  C   UNL     1      56.213 -42.064 -25.951  1.00  0.00     0.208 A 
ATOM      3  C   UNL     1      56.395 -42.674 -27.202  1.00  0.00     0.238 A 
ATOM      4  O   UNL     1      56.591 -43.919 -27.262  1.00  0.00    -0.285 OA
ATOM      5  C   UNL     1      56.365 -41.889 -28.372  1.00  0.00     0.111 A 
ATOM      6  C   UNL     1      56.543 -42.425 -29.670  1.00  0.00     0.134 A 
ATOM      7  C   UNL     1      56.508 -41.574 -30.785  1.00  0.00     0.093 A 
ATOM      8  C   UNL     1      56.299 -40.200 -30.627  1.00  0.00     0.123 A 
ATOM      9  C   UNL     1      56.121 -39.666 -29.349  1.00  0.00     0.094 A 
ATOM     10  C   UNL     1      56.152 -40.498 -28.225  1.00  0.00     0.146 A 
ATOM     11  O   UNL     1      55.975 -39.964 -27.022  1.00  0.00    -0.452 OA
ENDROOT
BRANCH   1  12
ATOM     12  C   UNL     1      55.762 -39.963 -24.619  1.00  0.00     0.021 A 
ATOM     13  C   UNL     1      54.691 -40.294 -23.769  1.00  0.00     0.016 A 
ATOM     14  C   UNL     1      54.489 -39.590 -22.579  1.00  0.00     0.047 A 
ATOM     15  C   UNL     1      55.343 -38.540 -22.228  1.00  0.00     0.115 A 
ATOM     16  C   UNL     1      56.604 -38.894 -24.271  1.00  0.00     0.016 A 
ATOM     17  C   UNL     1      56.401 -38.191 -23.079  1.00  0.00     0.047 A 
BRANCH  15  18
ATOM     18  O   UNL     1      55.132 -37.848 -21.038  1.00  0.00    -0.508 OA
ATOM     19  H   UNL     1      54.347 -38.060 -20.434  1.00  0.00     0.293 HD
ENDBRANCH  15  18
ENDBRANCH   1  12
BRANCH   2  20
ATOM     20  O   UNL     1      56.288 -42.812 -24.773  1.00  0.00    -0.502 OA
ATOM     21  H   UNL     1      55.531 -42.842 -24.101  1.00  0.00     0.293 HD
ENDBRANCH   2  20
BRANCH   6  22
ATOM     22  O   UNL     1      56.754 -43.792 -29.859  1.00  0.00    -0.507 OA
ATOM     23  H   UNL     1      56.006 -44.412 -30.146  1.00  0.00     0.293 HD
ENDBRANCH   6  22
BRANCH   8  24
ATOM     24  O   UNL     1      56.265 -39.355 -31.734  1.00  0.00    -0.508 OA
ATOM     25  H   UNL     1      56.323 -39.716 -32.679  1.00  0.00     0.293 HD
ENDBRANCH   8  24
TORSDOF 5
ENDMDL
MODEL 2
REMARK VINA RESULT:    -6.162      1.820      6.555
REMARK INTER + INTRA:          -7.353
REMARK INTER:                  -7.089
REMARK INTRA:                  -0.263
REMARK UNBOUND:                -0.110
REMARK SMILES O=c1c(O)c(-c2ccc(O)cc2)oc2cc(O)cc(O)c12
REMARK SMILES IDX 5 1 3 2 2 3 1 4 21 5 19 6 18 7 16 8 15 9 14 10 13 11 6 12
REMARK SMILES IDX 7 13 8 14 9 15 12 16 11 17 10 18 4 20 20 22 17 24
REMARK H PARENT 10 19 4 21 20 23 17 25
REMARK Flexibility Score: inf
ROOT
ATOM      1  C   UNL     1      55.361 -40.994 -28.653  1.00  0.00     0.180 A 
ATOM      2  C   UNL     1      55.657 -42.250 -28.089  1.00  0.00     0.208 A 
ATOM      3  C   UNL     1      55.993 -42.320 -26.728  1.00  0.00     0.238 A 
ATOM      4  O   UNL     1      56.271 -43.438 -26.214  1.00  0.00    -0.285 OA
ATOM      5  C   UNL     1      56.006 -41.144 -25.951  1.00  0.00     0.111 A 
ATOM      6  C   UNL     1      56.329 -41.129 -24.573  1.00  0.00     0.134 A 
ATOM      7  C   UNL     1      56.312 -39.916 -23.868  1.00  0.00     0.093 A 
ATOM      8  C   UNL     1      55.976 -38.720 -24.513  1.00  0.00     0.123 A 
ATOM      9  C   UNL     1      55.658 -38.730 -25.873  1.00  0.00     0.094 A 
ATOM     10  C   UNL     1      55.671 -39.928 -26.594  1.00  0.00     0.146 A 
ATOM     11  O   UNL     1      55.369 -39.907 -27.887  1.00  0.00    -0.452 OA
ENDROOT
BRANCH   1  12
ATOM     12  C   UNL     1      55.017 -40.836 -30.085  1.00  0.00     0.021 A 
ATOM     13  C   UNL     1      55.959 -40.368 -31.019  1.00  0.00     0.016 A 
ATOM     14  C   UNL     1      55.604 -40.204 -32.360  1.00  0.00     0.047 A 
ATOM     15  C   UNL     1      54.303 -40.491 -32.784  1.00  0.00     0.115 A 
ATOM     16  C   UNL     1      53.706 -41.102 -30.514  1.00  0.00     0.016 A 
ATOM     17  C   UNL     1      53.352 -40.938 -31.857  1.00  0.00     0.047 A 
BRANCH  15  18
ATOM     18  O   UNL     1      53.963 -40.324 -34.125  1.00  0.00    -0.508 OA
ATOM     19  H   UNL     1      54.384 -40.888 -34.853  1.00  0.00     0.293 HD
ENDBRANCH  15  18
ENDBRANCH   1  12
BRANCH   2  20
ATOM     20  O   UNL     1      55.588 -43.408 -28.868  1.00  0.00    -0.502 OA
ATOM     21  H   UNL     1      55.656 -43.386 -29.879  1.00  0.00     0.293 HD
ENDBRANCH   2  20
BRANCH   6  22
ATOM     22  O   UNL     1      56.667 -42.305 -23.902  1.00  0.00    -0.507 OA
ATOM     23  H   UNL     1      56.132 -43.157 -24.020  1.00  0.00     0.293 HD
ENDBRANCH   6  22
BRANCH   8  24
ATOM     24  O   UNL     1      55.958 -37.517 -23.813  1.00  0.00    -0.508 OA
ATOM     25  H   UNL     1      55.239 -36.821 -23.973  1.00  0.00     0.293 HD
ENDBRANCH   8  24
TORSDOF 5
ENDMDL
MODEL 3
REMARK VINA RESULT:    -6.072     13.428     15.525
REMARK INTER + INTRA:          -7.246
REMARK INTER:                  -6.950
REMARK INTRA:                  -0.297
REMARK UNBOUND:                -0.110
REMARK SMILES O=c1c(O)c(-c2ccc(O)cc2)oc2cc(O)cc(O)c12
REMARK SMILES IDX 5 1 3 2 2 3 1 4 21 5 19 6 18 7 16 8 15 9 14 10 13 11 6 12
REMARK SMILES IDX 7 13 8 14 9 15 12 16 11 17 10 18 4 20 20 22 17 24
REMARK H PARENT 10 19 4 21 20 23 17 25
REMARK Flexibility Score: inf
ROOT
ATOM      1  C   UNL     1      52.022 -27.907 -30.976  1.00  0.00     0.180 A 
ATOM      2  C   UNL     1      51.303 -28.337 -32.108  1.00  0.00     0.208 A 
ATOM      3  C   UNL     1      49.990 -27.876 -32.292  1.00  0.00     0.238 A 
ATOM      4  O   UNL     1      49.332 -28.264 -33.296  1.00  0.00    -0.285 OA
ATOM      5  C   UNL     1      49.428 -26.981 -31.360  1.00  0.00     0.111 A 
ATOM      6  C   UNL     1      48.114 -26.466 -31.475  1.00  0.00     0.134 A 
ATOM      7  C   UNL     1      47.631 -25.571 -30.508  1.00  0.00     0.093 A 
ATOM      8  C   UNL     1      48.435 -25.181 -29.432  1.00  0.00     0.123 A 
ATOM      9  C   UNL     1      49.731 -25.687 -29.314  1.00  0.00     0.094 A 
ATOM     10  C   UNL     1      50.231 -26.581 -30.265  1.00  0.00     0.146 A 
ATOM     11  O   UNL     1      51.466 -27.050 -30.125  1.00  0.00    -0.452 OA
ENDROOT
BRANCH   1  12
ATOM     12  C   UNL     1      53.405 -28.364 -30.702  1.00  0.00     0.021 A 
ATOM     13  C   UNL     1      53.658 -29.502 -29.915  1.00  0.00     0.016 A 
ATOM     14  C   UNL     1      54.972 -29.900 -29.649  1.00  0.00     0.047 A 
ATOM     15  C   UNL     1      56.046 -29.161 -30.153  1.00  0.00     0.115 A 
ATOM     16  C   UNL     1      54.489 -27.615 -31.187  1.00  0.00     0.016 A 
ATOM     17  C   UNL     1      55.803 -28.015 -30.921  1.00  0.00     0.047 A 
BRANCH  15  18
ATOM     18  O   UNL     1      57.350 -29.570 -29.882  1.00  0.00    -0.508 OA
ATOM     19  H   UNL     1      58.150 -29.031 -30.192  1.00  0.00     0.293 HD
ENDBRANCH  15  18
ENDBRANCH   1  12
BRANCH   2  20
ATOM     20  O   UNL     1      51.901 -29.186 -33.043  1.00  0.00    -0.502 OA
ATOM     21  H   UNL     1      52.082 -30.164 -32.850  1.00  0.00     0.293 HD
ENDBRANCH   2  20
BRANCH   6  22
ATOM     22  O   UNL     1      47.289 -26.836 -32.538  1.00  0.00    -0.507 OA
ATOM     23  H   UNL     1      47.669 -27.169 -33.416  1.00  0.00     0.293 HD
ENDBRANCH   6  22
BRANCH   8  24
ATOM     24  O   UNL     1      47.956 -24.292 -28.473  1.00  0.00    -0.508 OA
ATOM     25  H   UNL     1      47.391 -24.607 -27.693  1.00  0.00     0.293 HD
ENDBRANCH   8  24
TORSDOF 5
ENDMDL
MODEL 4
REMARK VINA RESULT:    -5.790     12.859     14.395
REMARK INTER + INTRA:          -6.915
REMARK INTER:                  -6.618
REMARK INTRA:                  -0.297
REMARK UNBOUND:                -0.110
REMARK SMILES O=c1c(O)c(-c2ccc(O)cc2)oc2cc(O)cc(O)c12
REMARK SMILES IDX 5 1 3 2 2 3 1 4 21 5 19 6 18 7 16 8 15 9 14 10 13 11 6 12
REMARK SMILES IDX 7 13 8 14 9 15 12 16 11 17 10 18 4 20 20 22 17 24
REMARK H PARENT 10 19 4 21 20 23 17 25
REMARK Flexibility Score: inf
ROOT
ATOM      1  C   UNL     1      47.194 -31.011 -29.339  1.00  0.00     0.180 A 
ATOM      2  C   UNL     1      46.141 -30.191 -29.788  1.00  0.00     0.208 A 
ATOM      3  C   UNL     1      46.450 -28.986 -30.438  1.00  0.00     0.238 A 
ATOM      4  O   UNL     1      45.515 -28.237 -30.834  1.00  0.00    -0.285 OA
ATOM      5  C   UNL     1      47.799 -28.632 -30.647  1.00  0.00     0.111 A 
ATOM      6  C   UNL     1      48.195 -27.438 -31.296  1.00  0.00     0.134 A 
ATOM      7  C   UNL     1      49.559 -27.163 -31.474  1.00  0.00     0.093 A 
ATOM      8  C   UNL     1      50.533 -28.057 -31.016  1.00  0.00     0.123 A 
ATOM      9  C   UNL     1      50.147 -29.235 -30.373  1.00  0.00     0.094 A 
ATOM     10  C   UNL     1      48.793 -29.527 -30.185  1.00  0.00     0.146 A 
ATOM     11  O   UNL     1      48.454 -30.653 -29.566  1.00  0.00    -0.452 OA
ENDROOT
BRANCH   1  12
ATOM     12  C   UNL     1      46.949 -32.287 -28.628  1.00  0.00     0.021 A 
ATOM     13  C   UNL     1      46.852 -32.339 -27.226  1.00  0.00     0.016 A 
ATOM     14  C   UNL     1      46.645 -33.559 -26.576  1.00  0.00     0.047 A 
ATOM     15  C   UNL     1      46.545 -34.742 -27.314  1.00  0.00     0.115 A 
ATOM     16  C   UNL     1      46.869 -33.482 -29.362  1.00  0.00     0.016 A 
ATOM     17  C   UNL     1      46.661 -34.702 -28.709  1.00  0.00     0.047 A 
BRANCH  15  18
ATOM     18  O   UNL     1      46.337 -35.951 -26.653  1.00  0.00    -0.508 OA
ATOM     19  H   UNL     1      47.039 -36.680 -26.649  1.00  0.00     0.293 HD
ENDBRANCH  15  18
ENDBRANCH   1  12
BRANCH   2  20
ATOM     20  O   UNL     1      44.813 -30.588 -29.612  1.00  0.00    -0.502 OA
ATOM     21  H   UNL     1      44.461 -31.471 -29.960  1.00  0.00     0.293 HD
ENDBRANCH   2  20
BRANCH   6  22
ATOM     22  O   UNL     1      47.247 -26.528 -31.765  1.00  0.00    -0.507 OA
ATOM     23  H   UNL     1      46.269 -26.777 -31.857  1.00  0.00     0.293 HD
ENDBRANCH   6  22
BRANCH   8  24
ATOM     24  O   UNL     1      51.887 -27.784 -31.193  1.00  0.00    -0.508 OA
ATOM     25  H   UNL     1      52.201 -27.008 -31.763  1.00  0.00     0.293 HD
ENDBRANCH   8  24
TORSDOF 5
ENDMDL
MODEL 5
REMARK VINA RESULT:    -5.770     14.036     15.702
REMARK INTER + INTRA:          -6.891
REMARK INTER:                  -6.670
REMARK INTRA:                  -0.222
REMARK UNBOUND:                -0.110
REMARK SMILES O=c1c(O)c(-c2ccc(O)cc2)oc2cc(O)cc(O)c12
REMARK SMILES IDX 5 1 3 2 2 3 1 4 21 5 19 6 18 7 16 8 15 9 14 10 13 11 6 12
REMARK SMILES IDX 7 13 8 14 9 15 12 16 11 17 10 18 4 20 20 22 17 24
REMARK H PARENT 10 19 4 21 20 23 17 25
REMARK Flexibility Score: inf
ROOT
ATOM      1  C   UNL     1      47.739 -28.221 -30.752  1.00  0.00     0.180 A 
ATOM      2  C   UNL     1      48.218 -27.790 -32.004  1.00  0.00     0.208 A 
ATOM      3  C   UNL     1      49.553 -28.056 -32.346  1.00  0.00     0.238 A 
ATOM      4  O   UNL     1      49.997 -27.665 -33.461  1.00  0.00    -0.285 OA
ATOM      5  C   UNL     1      50.377 -28.764 -31.447  1.00  0.00     0.111 A 
ATOM      6  C   UNL     1      51.731 -29.075 -31.718  1.00  0.00     0.134 A 
ATOM      7  C   UNL     1      52.482 -29.791 -30.773  1.00  0.00     0.093 A 
ATOM      8  C   UNL     1      51.905 -30.200 -29.565  1.00  0.00     0.123 A 
ATOM      9  C   UNL     1      50.570 -29.893 -29.293  1.00  0.00     0.094 A 
ATOM     10  C   UNL     1      49.805 -29.180 -30.221  1.00  0.00     0.146 A 
ATOM     11  O   UNL     1      48.539 -28.898 -29.934  1.00  0.00    -0.452 OA
ENDROOT
BRANCH   1  12
ATOM     12  C   UNL     1      46.349 -27.961 -30.309  1.00  0.00     0.021 A 
ATOM     13  C   UNL     1      46.062 -27.009 -29.314  1.00  0.00     0.016 A 
ATOM     14  C   UNL     1      44.745 -26.799 -28.896  1.00  0.00     0.047 A 
ATOM     15  C   UNL     1      43.702 -27.543 -29.455  1.00  0.00     0.115 A 
ATOM     16  C   UNL     1      45.299 -28.719 -30.852  1.00  0.00     0.016 A 
ATOM     17  C   UNL     1      43.981 -28.507 -30.432  1.00  0.00     0.047 A 
BRANCH  15  18
ATOM     18  O   UNL     1      42.393 -27.322 -29.030  1.00  0.00    -0.508 OA
ATOM     19  H   UNL     1      41.638 -27.941 -29.297  1.00  0.00     0.293 HD
ENDBRANCH  15  18
ENDBRANCH   1  12
BRANCH   2  20
ATOM     20  O   UNL     1      47.368 -27.135 -32.898  1.00  0.00    -0.502 OA
ATOM     21  H   UNL     1      47.521 -26.177 -33.189  1.00  0.00     0.293 HD
ENDBRANCH   2  20
BRANCH   6  22
ATOM     22  O   UNL     1      52.333 -28.682 -32.914  1.00  0.00    -0.507 OA
ATOM     23  H   UNL     1      51.792 -28.525 -33.756  1.00  0.00     0.293 HD
ENDBRANCH   6  22
BRANCH   8  24
ATOM     24  O   UNL     1      52.651 -30.911 -28.628  1.00  0.00    -0.508 OA
ATOM     25  H   UNL     1      52.570 -31.918 -28.540  1.00  0.00     0.293 HD
ENDBRANCH   8  24
TORSDOF 5
ENDMDL
MODEL 6
REMARK VINA RESULT:    -5.763     15.790     17.172
REMARK INTER + INTRA:          -6.883
REMARK INTER:                  -6.618
REMARK INTRA:                  -0.265
REMARK UNBOUND:                -0.110
REMARK SMILES O=c1c(O)c(-c2ccc(O)cc2)oc2cc(O)cc(O)c12
REMARK SMILES IDX 5 1 3 2 2 3 1 4 21 5 19 6 18 7 16 8 15 9 14 10 13 11 6 12
REMARK SMILES IDX 7 13 8 14 9 15 12 16 11 17 10 18 4 20 20 22 17 24
REMARK H PARENT 10 19 4 21 20 23 17 25
REMARK Flexibility Score: inf
ROOT
ATOM      1  C   UNL     1      45.547 -28.147 -30.282  1.00  0.00     0.180 A 
ATOM      2  C   UNL     1      46.075 -27.343 -29.254  1.00  0.00     0.208 A 
ATOM      3  C   UNL     1      47.402 -26.899 -29.355  1.00  0.00     0.238 A 
ATOM      4  O   UNL     1      47.889 -26.187 -28.434  1.00  0.00    -0.285 OA
ATOM      5  C   UNL     1      48.169 -27.244 -30.486  1.00  0.00     0.111 A 
ATOM      6  C   UNL     1      49.512 -26.834 -30.666  1.00  0.00     0.134 A 
ATOM      7  C   UNL     1      50.206 -27.214 -31.825  1.00  0.00     0.093 A 
ATOM      8  C   UNL     1      49.583 -27.994 -32.806  1.00  0.00     0.123 A 
ATOM      9  C   UNL     1      48.259 -28.402 -32.632  1.00  0.00     0.094 A 
ATOM     10  C   UNL     1      47.551 -28.036 -31.483  1.00  0.00     0.146 A 
ATOM     11  O   UNL     1      46.294 -28.443 -31.341  1.00  0.00    -0.452 OA
ENDROOT
BRANCH   1  12
ATOM     12  C   UNL     1      44.162 -28.672 -30.239  1.00  0.00     0.021 A 
ATOM     13  C   UNL     1      43.112 -28.028 -30.917  1.00  0.00     0.016 A 
ATOM     14  C   UNL     1      41.809 -28.528 -30.841  1.00  0.00     0.047 A 
ATOM     15  C   UNL     1      41.535 -29.667 -30.078  1.00  0.00     0.115 A 
ATOM     16  C   UNL     1      43.877 -29.804 -29.457  1.00  0.00     0.016 A 
ATOM     17  C   UNL     1      42.572 -30.303 -29.383  1.00  0.00     0.047 A 
BRANCH  15  18
ATOM     18  O   UNL     1      40.232 -30.156 -30.013  1.00  0.00    -0.508 OA
ATOM     19  H   UNL     1      40.038 -31.114 -29.748  1.00  0.00     0.293 HD
ENDBRANCH  15  18
ENDBRANCH   1  12
BRANCH   2  20
ATOM     20  O   UNL     1      45.278 -26.973 -28.168  1.00  0.00    -0.502 OA
ATOM     21  H   UNL     1      45.425 -26.111 -27.656  1.00  0.00     0.293 HD
ENDBRANCH   2  20
BRANCH   6  22
ATOM     22  O   UNL     1      50.159 -26.055 -29.706  1.00  0.00    -0.507 OA
ATOM     23  H   UNL     1      49.854 -26.037 -28.741  1.00  0.00     0.293 HD
ENDBRANCH   6  22
BRANCH   8  24
ATOM     24  O   UNL     1      50.271 -28.370 -33.957  1.00  0.00    -0.508 OA
ATOM     25  H   UNL     1      51.271 -28.231 -34.046  1.00  0.00     0.293 HD
ENDBRANCH   8  24
TORSDOF 5
ENDMDL
MODEL 7
REMARK VINA RESULT:    -5.760      4.894      6.044
REMARK INTER + INTRA:          -6.880
REMARK INTER:                  -6.590
REMARK INTRA:                  -0.290
REMARK UNBOUND:                -0.110
REMARK SMILES O=c1c(O)c(-c2ccc(O)cc2)oc2cc(O)cc(O)c12
REMARK SMILES IDX 5 1 3 2 2 3 1 4 21 5 19 6 18 7 16 8 15 9 14 10 13 11 6 12
REMARK SMILES IDX 7 13 8 14 9 15 12 16 11 17 10 18 4 20 20 22 17 24
REMARK H PARENT 10 19 4 21 20 23 17 25
REMARK Flexibility Score: inf
ROOT
ATOM      1  C   UNL     1      52.122 -41.814 -29.304  1.00  0.00     0.180 A 
ATOM      2  C   UNL     1      53.288 -41.775 -28.515  1.00  0.00     0.208 A 
ATOM      3  C   UNL     1      54.501 -41.407 -29.117  1.00  0.00     0.238 A 
ATOM      4  O   UNL     1      55.554 -41.379 -28.422  1.00  0.00    -0.285 OA
ATOM      5  C   UNL     1      54.527 -41.065 -30.484  1.00  0.00     0.111 A 
ATOM      6  C   UNL     1      55.707 -40.680 -31.165  1.00  0.00     0.134 A 
ATOM      7  C   UNL     1      55.647 -40.347 -32.526  1.00  0.00     0.093 A 
ATOM      8  C   UNL     1      54.431 -40.390 -33.219  1.00  0.00     0.123 A 
ATOM      9  C   UNL     1      53.265 -40.771 -32.552  1.00  0.00     0.094 A 
ATOM     10  C   UNL     1      53.304 -41.109 -31.196  1.00  0.00     0.146 A 
ATOM     11  O   UNL     1      52.180 -41.472 -30.588  1.00  0.00    -0.452 OA
ENDROOT
BRANCH   1  12
ATOM     12  C   UNL     1      50.808 -42.211 -28.747  1.00  0.00     0.021 A 
ATOM     13  C   UNL     1      50.443 -43.564 -28.619  1.00  0.00     0.016 A 
ATOM     14  C   UNL     1      49.188 -43.913 -28.114  1.00  0.00     0.047 A 
ATOM     15  C   UNL     1      48.277 -42.919 -27.743  1.00  0.00     0.115 A 
ATOM     16  C   UNL     1      49.880 -41.218 -28.392  1.00  0.00     0.016 A 
ATOM     17  C   UNL     1      48.624 -41.570 -27.885  1.00  0.00     0.047 A 
BRANCH  15  18
ATOM     18  O   UNL     1      47.030 -43.282 -27.238  1.00  0.00    -0.508 OA
ATOM     19  H   UNL     1      46.485 -44.025 -27.657  1.00  0.00     0.293 HD
ENDBRANCH  15  18
ENDBRANCH   1  12
BRANCH   2  20
ATOM     20  O   UNL     1      53.227 -42.069 -27.151  1.00  0.00    -0.502 OA
ATOM     21  H   UNL     1      53.442 -42.989 -26.784  1.00  0.00     0.293 HD
ENDBRANCH   2  20
BRANCH   6  22
ATOM     22  O   UNL     1      56.933 -40.627 -30.501  1.00  0.00    -0.507 OA
ATOM     23  H   UNL     1      57.758 -41.087 -30.868  1.00  0.00     0.293 HD
ENDBRANCH   6  22
BRANCH   8  24
ATOM     24  O   UNL     1      54.372 -40.058 -34.570  1.00  0.00    -0.508 OA
ATOM     25  H   UNL     1      55.094 -40.348 -35.219  1.00  0.00     0.293 HD
ENDBRANCH   8  24
TORSDOF 5
ENDMDL
MODEL 8
REMARK VINA RESULT:    -5.675      3.277      3.919
REMARK INTER + INTRA:          -6.780
REMARK INTER:                  -6.499
REMARK INTRA:                  -0.281
REMARK UNBOUND:                -0.110
REMARK SMILES O=c1c(O)c(-c2ccc(O)cc2)oc2cc(O)cc(O)c12
REMARK SMILES IDX 5 1 3 2 2 3 1 4 21 5 19 6 18 7 16 8 15 9 14 10 13 11 6 12
REMARK SMILES IDX 7 13 8 14 9 15 12 16 11 17 10 18 4 20 20 22 17 24
REMARK H PARENT 10 19 4 21 20 23 17 25
REMARK Flexibility Score: inf
ROOT
ATOM      1  C   UNL     1      53.585 -42.455 -27.119  1.00  0.00     0.180 A 
ATOM      2  C   UNL     1      54.938 -42.832 -27.015  1.00  0.00     0.208 A 
ATOM      3  C   UNL     1      55.788 -42.613 -28.109  1.00  0.00     0.238 A 
ATOM      4  O   UNL     1      57.000 -42.958 -28.032  1.00  0.00    -0.285 OA
ATOM      5  C   UNL     1      55.282 -42.004 -29.276  1.00  0.00     0.111 A 
ATOM      6  C   UNL     1      56.074 -41.745 -30.420  1.00  0.00     0.134 A 
ATOM      7  C   UNL     1      55.496 -41.126 -31.540  1.00  0.00     0.093 A 
ATOM      8  C   UNL     1      54.145 -40.762 -31.535  1.00  0.00     0.123 A 
ATOM      9  C   UNL     1      53.360 -41.018 -30.409  1.00  0.00     0.094 A 
ATOM     10  C   UNL     1      53.916 -41.635 -29.284  1.00  0.00     0.146 A 
ATOM     11  O   UNL     1      53.145 -41.870 -28.229  1.00  0.00    -0.452 OA
ENDROOT
BRANCH   1  12
ATOM     12  C   UNL     1      52.621 -42.671 -26.015  1.00  0.00     0.021 A 
ATOM     13  C   UNL     1      51.769 -43.790 -25.993  1.00  0.00     0.016 A 
ATOM     14  C   UNL     1      50.850 -43.960 -24.954  1.00  0.00     0.047 A 
ATOM     15  C   UNL     1      50.761 -43.010 -23.932  1.00  0.00     0.115 A 
ATOM     16  C   UNL     1      52.511 -41.710 -24.996  1.00  0.00     0.016 A 
ATOM     17  C   UNL     1      51.591 -41.882 -23.956  1.00  0.00     0.047 A 
BRANCH  15  18
ATOM     18  O   UNL     1      49.842 -43.192 -22.901  1.00  0.00    -0.508 OA
ATOM     19  H   UNL     1      49.840 -44.032 -22.335  1.00  0.00     0.293 HD
ENDBRANCH  15  18
ENDBRANCH   1  12
BRANCH   2  20
ATOM     20  O   UNL     1      55.426 -43.389 -25.830  1.00  0.00    -0.502 OA
ATOM     21  H   UNL     1      54.820 -43.642 -25.059  1.00  0.00     0.293 HD
ENDBRANCH   2  20
BRANCH   6  22
ATOM     22  O   UNL     1      57.424 -42.095 -30.454  1.00  0.00    -0.507 OA
ATOM     23  H   UNL     1      57.755 -42.978 -30.082  1.00  0.00     0.293 HD
ENDBRANCH   6  22
BRANCH   8  24
ATOM     24  O   UNL     1      53.572 -40.148 -32.646  1.00  0.00    -0.508 OA
ATOM     25  H   UNL     1      53.899 -39.250 -32.982  1.00  0.00     0.293 HD
ENDBRANCH   8  24
TORSDOF 5
ENDMDL
MODEL 9
REMARK VINA RESULT:    -5.631     14.956     16.208
REMARK INTER + INTRA:          -6.728
REMARK INTER:                  -6.534
REMARK INTRA:                  -0.195
REMARK UNBOUND:                -0.110
REMARK SMILES O=c1c(O)c(-c2ccc(O)cc2)oc2cc(O)cc(O)c12
REMARK SMILES IDX 5 1 3 2 2 3 1 4 21 5 19 6 18 7 16 8 15 9 14 10 13 11 6 12
REMARK SMILES IDX 7 13 8 14 9 15 12 16 11 17 10 18 4 20 20 22 17 24
REMARK H PARENT 10 19 4 21 20 23 17 25
REMARK Flexibility Score: inf
ROOT
ATOM      1  C   UNL     1      45.627 -29.112 -29.984  1.00  0.00     0.180 A 
ATOM      2  C   UNL     1      46.437 -29.590 -28.936  1.00  0.00     0.208 A 
ATOM      3  C   UNL     1      47.830 -29.607 -29.109  1.00  0.00     0.238 A 
ATOM      4  O   UNL     1      48.565 -30.044 -28.181  1.00  0.00    -0.285 OA
ATOM      5  C   UNL     1      48.389 -29.129 -30.311  1.00  0.00     0.111 A 
ATOM      6  C   UNL     1      49.782 -29.109 -30.564  1.00  0.00     0.134 A 
ATOM      7  C   UNL     1      50.260 -28.608 -31.784  1.00  0.00     0.093 A 
ATOM      8  C   UNL     1      49.374 -28.128 -32.755  1.00  0.00     0.123 A 
ATOM      9  C   UNL     1      47.999 -28.148 -32.511  1.00  0.00     0.094 A 
ATOM     10  C   UNL     1      47.502 -28.644 -31.302  1.00  0.00     0.146 A 
ATOM     11  O   UNL     1      46.189 -28.655 -31.099  1.00  0.00    -0.452 OA
ENDROOT
BRANCH   1  12
ATOM     12  C   UNL     1      44.149 -29.080 -29.885  1.00  0.00     0.021 A 
ATOM     13  C   UNL     1      43.390 -30.264 -29.856  1.00  0.00     0.016 A 
ATOM     14  C   UNL     1      41.996 -30.208 -29.787  1.00  0.00     0.047 A 
ATOM     15  C   UNL     1      41.341 -28.973 -29.759  1.00  0.00     0.115 A 
ATOM     16  C   UNL     1      43.484 -27.843 -29.878  1.00  0.00     0.016 A 
ATOM     17  C   UNL     1      42.088 -27.789 -29.808  1.00  0.00     0.047 A 
BRANCH  15  18
ATOM     18  O   UNL     1      39.950 -28.932 -29.689  1.00  0.00    -0.508 OA
ATOM     19  H   UNL     1      39.395 -28.504 -30.420  1.00  0.00     0.293 HD
ENDBRANCH  15  18
ENDBRANCH   1  12
BRANCH   2  20
ATOM     20  O   UNL     1      45.861 -30.011 -27.735  1.00  0.00    -0.502 OA
ATOM     21  H   UNL     1      46.394 -30.094 -26.877  1.00  0.00     0.293 HD
ENDBRANCH   2  20
BRANCH   6  22
ATOM     22  O   UNL     1      50.690 -29.579 -29.615  1.00  0.00    -0.507 OA
ATOM     23  H   UNL     1      51.040 -28.985 -28.872  1.00  0.00     0.293 HD
ENDBRANCH   6  22
BRANCH   8  24
ATOM     24  O   UNL     1      49.849 -27.631 -33.966  1.00  0.00    -0.508 OA
ATOM     25  H   UNL     1      50.183 -28.247 -34.698  1.00  0.00     0.293 HD
ENDBRANCH   8  24
TORSDOF 5
ENDMDL
