MODEL 1
REMARK VINA RESULT:    -5.506      0.000      0.000
REMARK INTER + INTRA:         -10.326
REMARK INTER:                  -9.369
REMARK INTRA:                  -0.957
REMARK UNBOUND:                -0.957
REMARK SMILES CCCCCCCCCCCCCC(=O)[O-]
REMARK SMILES IDX 8 1 9 2 10 3 11 4 12 5 13 6 14 7 15 8 16 9 7 10 6 11 5 12
REMARK SMILES IDX 4 13 3 14 2 15 1 16
REMARK H PARENT
REMARK Flexibility Score: inf
ROOT
ATOM      1  C   UNL     1     -10.732 -16.022  27.406  1.00  0.00     0.000 C 
ENDROOT
BRANCH   1   2
ATOM      2  C   UNL     1     -12.159 -16.532  27.642  1.00  0.00     0.000 C 
BRANCH   2   3
ATOM      3  C   UNL     1     -12.631 -16.207  29.067  1.00  0.00     0.000 C 
BRANCH   3   4
ATOM      4  C   UNL     1     -13.561 -17.286  29.643  1.00  0.00     0.000 C 
BRANCH   4   5
ATOM      5  C   UNL     1     -12.797 -18.393  30.384  1.00  0.00     0.006 C 
BRANCH   5   6
ATOM      6  C   UNL     1     -11.474 -17.863  30.945  1.00  0.00     0.053 C 
BRANCH   6   7
ATOM      7  C   UNL     1     -10.339 -18.746  30.533  1.00  0.00     0.041 C 
ATOM      8  O   UNL     1     -10.202 -19.081  29.326  1.00  0.00    -0.550 OA
ATOM      9  O   UNL     1      -9.400 -19.157  31.471  1.00  0.00    -0.550 OA
ENDBRANCH   6   7
ENDBRANCH   5   6
ENDBRANCH   4   5
ENDBRANCH   3   4
ENDBRANCH   2   3
ENDBRANCH   1   2
BRANCH   1  10
ATOM     10  C   UNL     1     -10.687 -15.038  26.227  1.00  0.00     0.000 C 
BRANCH  10  11
ATOM     11  C   UNL     1      -9.315 -14.363  26.071  1.00  0.00    -0.000 C 
BRANCH  11  12
ATOM     12  C   UNL     1      -8.198 -15.113  26.814  1.00  0.00    -0.000 C 
BRANCH  12  13
ATOM     13  C   UNL     1      -6.900 -14.295  26.824  1.00  0.00    -0.000 C 
BRANCH  13  14
ATOM     14  C   UNL     1      -6.198 -14.396  28.186  1.00  0.00    -0.000 C 
BRANCH  14  15
ATOM     15  C   UNL     1      -7.176 -14.270  29.364  1.00  0.00    -0.003 C 
ATOM     16  C   UNL     1      -6.733 -13.227  30.391  1.00  0.00     0.004 C 
ENDBRANCH  14  15
ENDBRANCH  13  14
ENDBRANCH  12  13
ENDBRANCH  11  12
ENDBRANCH  10  11
ENDBRANCH   1  10
TORSDOF 12
ENDMDL
MODEL 2
REMARK VINA RESULT:    -5.373      2.548      6.011
REMARK INTER + INTRA:         -10.100
REMARK INTER:                  -9.120
REMARK INTRA:                  -0.980
REMARK UNBOUND:                -0.957
REMARK SMILES CCCCCCCCCCCCCC(=O)[O-]
REMARK SMILES IDX 8 1 9 2 10 3 11 4 12 5 13 6 14 7 15 8 16 9 7 10 6 11 5 12
REMARK SMILES IDX 4 13 3 14 2 15 1 16
REMARK H PARENT
REMARK Flexibility Score: inf
ROOT
ATOM      1  C   UNL     1     -10.779 -15.245  26.233  1.00  0.00     0.000 C 
ENDROOT
BRANCH   1   2
ATOM      2  C   UNL     1      -9.446 -14.553  25.926  1.00  0.00     0.000 C 
BRANCH   2   3
ATOM      3  C   UNL     1      -8.283 -15.254  26.643  1.00  0.00     0.000 C 
BRANCH   3   4
ATOM      4  C   UNL     1      -7.011 -14.394  26.690  1.00  0.00     0.000 C 
BRANCH   4   5
ATOM      5  C   UNL     1      -6.232 -14.560  28.004  1.00  0.00     0.006 C 
BRANCH   5   6
ATOM      6  C   UNL     1      -7.166 -14.445  29.212  1.00  0.00     0.053 C 
BRANCH   6   7
ATOM      7  C   UNL     1      -6.712 -13.348  30.123  1.00  0.00     0.041 C 
ATOM      8  O   UNL     1      -5.919 -12.464  29.705  1.00  0.00    -0.550 OA
ATOM      9  O   UNL     1      -7.205 -13.272  31.420  1.00  0.00    -0.550 OA
ENDBRANCH   6   7
ENDBRANCH   5   6
ENDBRANCH   4   5
ENDBRANCH   3   4
ENDBRANCH   2   3
ENDBRANCH   1   2
BRANCH   1  10
ATOM     10  C   UNL     1     -10.711 -16.003  27.567  1.00  0.00     0.000 C 
BRANCH  10  11
ATOM     11  C   UNL     1     -11.944 -16.890  27.808  1.00  0.00    -0.000 C 
BRANCH  11  12
ATOM     12  C   UNL     1     -12.812 -16.392  28.975  1.00  0.00    -0.000 C 
BRANCH  12  13
ATOM     13  C   UNL     1     -12.135 -16.677  30.322  1.00  0.00    -0.000 C 
BRANCH  13  14
ATOM     14  C   UNL     1     -12.488 -18.084  30.828  1.00  0.00    -0.000 C 
BRANCH  14  15
ATOM     15  C   UNL     1     -11.273 -18.822  31.411  1.00  0.00    -0.003 C 
ATOM     16  C   UNL     1     -10.049 -18.760  30.497  1.00  0.00     0.004 C 
ENDBRANCH  14  15
ENDBRANCH  13  14
ENDBRANCH  12  13
ENDBRANCH  11  12
ENDBRANCH  10  11
ENDBRANCH   1  10
TORSDOF 12
ENDMDL
MODEL 3
REMARK VINA RESULT:    -5.267      1.351      3.266
REMARK INTER + INTRA:          -9.919
REMARK INTER:                  -8.978
REMARK INTRA:                  -0.941
REMARK UNBOUND:                -0.957
REMARK SMILES CCCCCCCCCCCCCC(=O)[O-]
REMARK SMILES IDX 8 1 9 2 10 3 11 4 12 5 13 6 14 7 15 8 16 9 7 10 6 11 5 12
REMARK SMILES IDX 4 13 3 14 2 15 1 16
REMARK H PARENT
REMARK Flexibility Score: inf
ROOT
ATOM      1  C   UNL     1      -8.132 -15.188  26.588  1.00  0.00     0.000 C 
ENDROOT
BRANCH   1   2
ATOM      2  C   UNL     1      -9.252 -14.424  25.873  1.00  0.00     0.000 C 
BRANCH   2   3
ATOM      3  C   UNL     1     -10.631 -14.986  26.250  1.00  0.00     0.000 C 
BRANCH   3   4
ATOM      4  C   UNL     1     -10.565 -15.984  27.416  1.00  0.00     0.000 C 
BRANCH   4   5
ATOM      5  C   UNL     1     -11.949 -16.514  27.821  1.00  0.00     0.006 C 
BRANCH   5   6
ATOM      6  C   UNL     1     -12.119 -16.492  29.343  1.00  0.00     0.053 C 
BRANCH   6   7
ATOM      7  C   UNL     1     -11.027 -17.272  30.005  1.00  0.00     0.041 C 
ATOM      8  O   UNL     1     -10.340 -16.748  30.921  1.00  0.00    -0.550 OA
ATOM      9  O   UNL     1     -10.803 -18.596  29.647  1.00  0.00    -0.550 OA
ENDBRANCH   6   7
ENDBRANCH   5   6
ENDBRANCH   4   5
ENDBRANCH   3   4
ENDBRANCH   2   3
ENDBRANCH   1   2
BRANCH   1  10
ATOM     10  C   UNL     1      -7.006 -14.236  27.022  1.00  0.00     0.000 C 
BRANCH  10  11
ATOM     11  C   UNL     1      -6.526 -14.502  28.458  1.00  0.00    -0.000 C 
BRANCH  11  12
ATOM     12  C   UNL     1      -7.676 -14.875  29.407  1.00  0.00    -0.000 C 
BRANCH  12  13
ATOM     13  C   UNL     1      -7.202 -14.881  30.866  1.00  0.00    -0.000 C 
BRANCH  13  14
ATOM     14  C   UNL     1      -6.770 -13.475  31.310  1.00  0.00    -0.000 C 
BRANCH  14  15
ATOM     15  C   UNL     1      -6.047 -13.481  32.665  1.00  0.00    -0.003 C 
ATOM     16  C   UNL     1      -4.727 -12.710  32.633  1.00  0.00     0.004 C 
ENDBRANCH  14  15
ENDBRANCH  13  14
ENDBRANCH  12  13
ENDBRANCH  11  12
ENDBRANCH  10  11
ENDBRANCH   1  10
TORSDOF 12
ENDMDL
MODEL 4
REMARK VINA RESULT:    -5.257      1.445      3.951
REMARK INTER + INTRA:          -9.902
REMARK INTER:                  -8.924
REMARK INTRA:                  -0.978
REMARK UNBOUND:                -0.957
REMARK SMILES CCCCCCCCCCCCCC(=O)[O-]
REMARK SMILES IDX 8 1 9 2 10 3 11 4 12 5 13 6 14 7 15 8 16 9 7 10 6 11 5 12
REMARK SMILES IDX 4 13 3 14 2 15 1 16
REMARK H PARENT
REMARK Flexibility Score: inf
ROOT
ATOM      1  C   UNL     1      -6.805 -14.328  27.005  1.00  0.00     0.000 C 
ENDROOT
BRANCH   1   2
ATOM      2  C   UNL     1      -8.005 -15.249  26.754  1.00  0.00     0.000 C 
BRANCH   2   3
ATOM      3  C   UNL     1      -9.207 -14.456  26.220  1.00  0.00     0.000 C 
BRANCH   3   4
ATOM      4  C   UNL     1     -10.535 -15.210  26.383  1.00  0.00     0.000 C 
BRANCH   4   5
ATOM      5  C   UNL     1     -10.580 -16.060  27.661  1.00  0.00     0.006 C 
BRANCH   5   6
ATOM      6  C   UNL     1     -11.778 -17.014  27.642  1.00  0.00     0.053 C 
BRANCH   6   7
ATOM      7  C   UNL     1     -11.773 -17.888  28.858  1.00  0.00     0.041 C 
ATOM      8  O   UNL     1     -12.813 -18.006  29.557  1.00  0.00    -0.550 OA
ATOM      9  O   UNL     1     -10.635 -18.612  29.189  1.00  0.00    -0.550 OA
ENDBRANCH   6   7
ENDBRANCH   5   6
ENDBRANCH   4   5
ENDBRANCH   3   4
ENDBRANCH   2   3
ENDBRANCH   1   2
BRANCH   1  10
ATOM     10  C   UNL     1      -6.473 -14.252  28.503  1.00  0.00     0.000 C 
BRANCH  10  11
ATOM     11  C   UNL     1      -7.583 -14.845  29.386  1.00  0.00    -0.000 C 
BRANCH  11  12
ATOM     12  C   UNL     1      -7.173 -14.947  30.864  1.00  0.00    -0.000 C 
BRANCH  12  13
ATOM     13  C   UNL     1      -5.887 -14.153  31.132  1.00  0.00    -0.000 C 
BRANCH  13  14
ATOM     14  C   UNL     1      -5.991 -13.368  32.448  1.00  0.00    -0.000 C 
BRANCH  14  15
ATOM     15  C   UNL     1      -5.746 -11.863  32.257  1.00  0.00    -0.003 C 
ATOM     16  C   UNL     1      -5.890 -11.422  30.800  1.00  0.00     0.004 C 
ENDBRANCH  14  15
ENDBRANCH  13  14
ENDBRANCH  12  13
ENDBRANCH  11  12
ENDBRANCH  10  11
ENDBRANCH   1  10
TORSDOF 12
ENDMDL
MODEL 5
REMARK VINA RESULT:    -5.242      3.171      7.203
REMARK INTER + INTRA:          -9.876
REMARK INTER:                  -9.446
REMARK INTRA:                  -0.430
REMARK UNBOUND:                -0.957
REMARK SMILES CCCCCCCCCCCCCC(=O)[O-]
REMARK SMILES IDX 8 1 9 2 10 3 11 4 12 5 13 6 14 7 15 8 16 9 7 10 6 11 5 12
REMARK SMILES IDX 4 13 3 14 2 15 1 16
REMARK H PARENT
REMARK Flexibility Score: inf
ROOT
ATOM      1  C   UNL     1     -12.646 -16.179  28.979  1.00  0.00     0.000 C 
ENDROOT
BRANCH   1   2
ATOM      2  C   UNL     1     -11.916 -16.679  27.727  1.00  0.00     0.000 C 
BRANCH   2   3
ATOM      3  C   UNL     1     -10.569 -15.961  27.551  1.00  0.00     0.000 C 
BRANCH   3   4
ATOM      4  C   UNL     1     -10.504 -15.131  26.260  1.00  0.00     0.000 C 
BRANCH   4   5
ATOM      5  C   UNL     1      -9.171 -14.385  26.102  1.00  0.00     0.006 C 
BRANCH   5   6
ATOM      6  C   UNL     1      -7.992 -15.286  26.481  1.00  0.00     0.053 C 
BRANCH   6   7
ATOM      7  C   UNL     1      -7.106 -14.602  27.475  1.00  0.00     0.041 C 
ATOM      8  O   UNL     1      -6.075 -13.991  27.089  1.00  0.00    -0.550 OA
ATOM      9  O   UNL     1      -7.447 -14.595  28.822  1.00  0.00    -0.550 OA
ENDBRANCH   6   7
ENDBRANCH   5   6
ENDBRANCH   4   5
ENDBRANCH   3   4
ENDBRANCH   2   3
ENDBRANCH   1   2
BRANCH   1  10
ATOM     10  C   UNL     1     -13.182 -17.355  29.810  1.00  0.00     0.000 C 
BRANCH  10  11
ATOM     11  C   UNL     1     -12.400 -17.561  31.118  1.00  0.00    -0.000 C 
BRANCH  11  12
ATOM     12  C   UNL     1     -13.116 -18.509  32.093  1.00  0.00    -0.000 C 
BRANCH  12  13
ATOM     13  C   UNL     1     -12.147 -19.562  32.644  1.00  0.00    -0.000 C 
BRANCH  13  14
ATOM     14  C   UNL     1     -12.669 -20.152  33.963  1.00  0.00    -0.000 C 
BRANCH  14  15
ATOM     15  C   UNL     1     -13.485 -21.436  33.753  1.00  0.00    -0.003 C 
ATOM     16  C   UNL     1     -13.239 -22.478  34.844  1.00  0.00     0.004 C 
ENDBRANCH  14  15
ENDBRANCH  13  14
ENDBRANCH  12  13
ENDBRANCH  11  12
ENDBRANCH  10  11
ENDBRANCH   1  10
TORSDOF 12
ENDMDL
MODEL 6
REMARK VINA RESULT:    -5.229      1.406      3.187
REMARK INTER + INTRA:          -9.854
REMARK INTER:                  -8.730
REMARK INTRA:                  -1.123
REMARK UNBOUND:                -0.957
REMARK SMILES CCCCCCCCCCCCCC(=O)[O-]
REMARK SMILES IDX 8 1 9 2 10 3 11 4 12 5 13 6 14 7 15 8 16 9 7 10 6 11 5 12
REMARK SMILES IDX 4 13 3 14 2 15 1 16
REMARK H PARENT
REMARK Flexibility Score: inf
ROOT
ATOM      1  C   UNL     1      -7.871 -15.266  26.401  1.00  0.00     0.000 C 
ENDROOT
BRANCH   1   2
ATOM      2  C   UNL     1      -9.335 -14.832  26.270  1.00  0.00     0.000 C 
BRANCH   2   3
ATOM      3  C   UNL     1     -10.239 -15.654  27.201  1.00  0.00     0.000 C 
BRANCH   3   4
ATOM      4  C   UNL     1     -11.676 -15.781  26.671  1.00  0.00     0.000 C 
BRANCH   4   5
ATOM      5  C   UNL     1     -12.674 -16.196  27.762  1.00  0.00     0.006 C 
BRANCH   5   6
ATOM      6  C   UNL     1     -11.943 -16.655  29.027  1.00  0.00     0.053 C 
BRANCH   6   7
ATOM      7  C   UNL     1     -12.127 -18.125  29.235  1.00  0.00     0.041 C 
ATOM      8  O   UNL     1     -11.269 -18.939  28.800  1.00  0.00    -0.550 OA
ATOM      9  O   UNL     1     -13.219 -18.595  29.955  1.00  0.00    -0.550 OA
ENDBRANCH   6   7
ENDBRANCH   5   6
ENDBRANCH   4   5
ENDBRANCH   3   4
ENDBRANCH   2   3
ENDBRANCH   1   2
BRANCH   1  10
ATOM     10  C   UNL     1      -6.983 -14.086  26.825  1.00  0.00     0.000 C 
BRANCH  10  11
ATOM     11  C   UNL     1      -5.803 -14.519  27.710  1.00  0.00    -0.000 C 
BRANCH  11  12
ATOM     12  C   UNL     1      -5.404 -13.444  28.732  1.00  0.00    -0.000 C 
BRANCH  12  13
ATOM     13  C   UNL     1      -6.382 -13.420  29.914  1.00  0.00    -0.000 C 
BRANCH  13  14
ATOM     14  C   UNL     1      -6.007 -14.483  30.959  1.00  0.00    -0.000 C 
BRANCH  14  15
ATOM     15  C   UNL     1      -7.195 -15.378  31.341  1.00  0.00    -0.003 C 
ATOM     16  C   UNL     1      -8.299 -15.379  30.283  1.00  0.00     0.004 C 
ENDBRANCH  14  15
ENDBRANCH  13  14
ENDBRANCH  12  13
ENDBRANCH  11  12
ENDBRANCH  10  11
ENDBRANCH   1  10
TORSDOF 12
ENDMDL
MODEL 7
REMARK VINA RESULT:    -5.085      1.995      5.718
REMARK INTER + INTRA:          -9.610
REMARK INTER:                  -8.726
REMARK INTRA:                  -0.884
REMARK UNBOUND:                -0.957
REMARK SMILES CCCCCCCCCCCCCC(=O)[O-]
REMARK SMILES IDX 8 1 9 2 10 3 11 4 12 5 13 6 14 7 15 8 16 9 7 10 6 11 5 12
REMARK SMILES IDX 4 13 3 14 2 15 1 16
REMARK H PARENT
REMARK Flexibility Score: inf
ROOT
ATOM      1  C   UNL     1     -10.045 -15.595  26.952  1.00  0.00     0.000 C 
ENDROOT
BRANCH   1   2
ATOM      2  C   UNL     1      -9.676 -14.512  25.931  1.00  0.00     0.000 C 
BRANCH   2   3
ATOM      3  C   UNL     1      -8.283 -13.934  26.220  1.00  0.00     0.000 C 
BRANCH   3   4
ATOM      4  C   UNL     1      -7.371 -14.925  26.960  1.00  0.00     0.000 C 
BRANCH   4   5
ATOM      5  C   UNL     1      -6.330 -14.224  27.845  1.00  0.00     0.006 C 
BRANCH   5   6
ATOM      6  C   UNL     1      -6.978 -13.665  29.115  1.00  0.00     0.053 C 
BRANCH   6   7
ATOM      7  C   UNL     1      -6.977 -14.695  30.202  1.00  0.00     0.041 C 
ATOM      8  O   UNL     1      -7.993 -15.412  30.396  1.00  0.00    -0.550 OA
ATOM      9  O   UNL     1      -5.834 -14.898  30.965  1.00  0.00    -0.550 OA
ENDBRANCH   6   7
ENDBRANCH   5   6
ENDBRANCH   4   5
ENDBRANCH   3   4
ENDBRANCH   2   3
ENDBRANCH   1   2
BRANCH   1  10
ATOM     10  C   UNL     1     -11.562 -15.836  26.975  1.00  0.00     0.000 C 
BRANCH  10  11
ATOM     11  C   UNL     1     -11.977 -16.897  28.007  1.00  0.00    -0.000 C 
BRANCH  11  12
ATOM     12  C   UNL     1     -11.127 -16.843  29.286  1.00  0.00    -0.000 C 
BRANCH  12  13
ATOM     13  C   UNL     1     -10.448 -18.194  29.550  1.00  0.00    -0.000 C 
BRANCH  13  14
ATOM     14  C   UNL     1     -10.784 -18.711  30.958  1.00  0.00    -0.000 C 
BRANCH  14  15
ATOM     15  C   UNL     1     -12.126 -18.174  31.478  1.00  0.00    -0.003 C 
ATOM     16  C   UNL     1     -12.864 -19.182  32.360  1.00  0.00     0.004 C 
ENDBRANCH  14  15
ENDBRANCH  13  14
ENDBRANCH  12  13
ENDBRANCH  11  12
ENDBRANCH  10  11
ENDBRANCH   1  10
TORSDOF 12
ENDMDL
MODEL 8
REMARK VINA RESULT:    -5.065      2.630      5.386
REMARK INTER + INTRA:          -9.576
REMARK INTER:                  -8.406
REMARK INTRA:                  -1.170
REMARK UNBOUND:                -0.957
REMARK SMILES CCCCCCCCCCCCCC(=O)[O-]
REMARK SMILES IDX 8 1 9 2 10 3 11 4 12 5 13 6 14 7 15 8 16 9 7 10 6 11 5 12
REMARK SMILES IDX 4 13 3 14 2 15 1 16
REMARK H PARENT
REMARK Flexibility Score: inf
ROOT
ATOM      1  C   UNL     1     -10.523 -18.564  30.211  1.00  0.00     0.000 C 
ENDROOT
BRANCH   1   2
ATOM      2  C   UNL     1      -9.519 -17.898  31.158  1.00  0.00     0.000 C 
BRANCH   2   3
ATOM      3  C   UNL     1      -9.248 -16.445  30.742  1.00  0.00     0.000 C 
BRANCH   3   4
ATOM      4  C   UNL     1      -7.876 -15.939  31.212  1.00  0.00     0.000 C 
BRANCH   4   5
ATOM      5  C   UNL     1      -7.600 -14.490  30.784  1.00  0.00     0.006 C 
BRANCH   5   6
ATOM      6  C   UNL     1      -7.402 -14.396  29.268  1.00  0.00     0.053 C 
BRANCH   6   7
ATOM      7  C   UNL     1      -5.951 -14.499  28.921  1.00  0.00     0.041 C 
ATOM      8  O   UNL     1      -5.600 -14.873  27.770  1.00  0.00    -0.550 OA
ATOM      9  O   UNL     1      -4.985 -14.133  29.850  1.00  0.00    -0.550 OA
ENDBRANCH   6   7
ENDBRANCH   5   6
ENDBRANCH   4   5
ENDBRANCH   3   4
ENDBRANCH   2   3
ENDBRANCH   1   2
BRANCH   1  10
ATOM     10  C   UNL     1     -11.963 -18.165  30.566  1.00  0.00     0.000 C 
BRANCH  10  11
ATOM     11  C   UNL     1     -12.632 -17.320  29.470  1.00  0.00    -0.000 C 
BRANCH  11  12
ATOM     12  C   UNL     1     -11.920 -17.441  28.113  1.00  0.00    -0.000 C 
BRANCH  12  13
ATOM     13  C   UNL     1     -11.838 -16.078  27.413  1.00  0.00    -0.000 C 
BRANCH  13  14
ATOM     14  C   UNL     1     -10.377 -15.629  27.256  1.00  0.00    -0.000 C 
BRANCH  14  15
ATOM     15  C   UNL     1     -10.133 -14.862  25.948  1.00  0.00    -0.003 C 
ATOM     16  C   UNL     1      -8.952 -13.895  26.041  1.00  0.00     0.004 C 
ENDBRANCH  14  15
ENDBRANCH  13  14
ENDBRANCH  12  13
ENDBRANCH  11  12
ENDBRANCH  10  11
ENDBRANCH   1  10
TORSDOF 12
ENDMDL
MODEL 9
REMARK VINA RESULT:    -5.008      4.268      6.356
REMARK INTER + INTRA:          -9.478
REMARK INTER:                  -8.151
REMARK INTRA:                  -1.326
REMARK UNBOUND:                -0.957
REMARK SMILES CCCCCCCCCCCCCC(=O)[O-]
REMARK SMILES IDX 8 1 9 2 10 3 11 4 12 5 13 6 14 7 15 8 16 9 7 10 6 11 5 12
REMARK SMILES IDX 4 13 3 14 2 15 1 16
REMARK H PARENT
REMARK Flexibility Score: inf
ROOT
ATOM      1  C   UNL     1     -13.135 -18.057  32.826  1.00  0.00     0.000 C 
ENDROOT
BRANCH   1   2
ATOM      2  C   UNL     1     -13.051 -19.521  32.377  1.00  0.00     0.000 C 
BRANCH   2   3
ATOM      3  C   UNL     1     -12.408 -20.395  33.464  1.00  0.00     0.000 C 
BRANCH   3   4
ATOM      4  C   UNL     1     -13.363 -21.473  33.999  1.00  0.00     0.000 C 
BRANCH   4   5
ATOM      5  C   UNL     1     -14.776 -21.357  33.410  1.00  0.00     0.006 C 
BRANCH   5   6
ATOM      6  C   UNL     1     -15.825 -21.247  34.521  1.00  0.00     0.053 C 
BRANCH   6   7
ATOM      7  C   UNL     1     -15.735 -19.915  35.197  1.00  0.00     0.041 C 
ATOM      8  O   UNL     1     -15.302 -19.831  36.377  1.00  0.00    -0.550 OA
ATOM      9  O   UNL     1     -16.080 -18.760  34.507  1.00  0.00    -0.550 OA
ENDBRANCH   6   7
ENDBRANCH   5   6
ENDBRANCH   4   5
ENDBRANCH   3   4
ENDBRANCH   2   3
ENDBRANCH   1   2
BRANCH   1  10
ATOM     10  C   UNL     1     -12.868 -17.105  31.650  1.00  0.00     0.000 C 
BRANCH  10  11
ATOM     11  C   UNL     1     -13.447 -17.623  30.324  1.00  0.00    -0.000 C 
BRANCH  11  12
ATOM     12  C   UNL     1     -13.003 -16.785  29.115  1.00  0.00    -0.000 C 
BRANCH  12  13
ATOM     13  C   UNL     1     -11.896 -17.500  28.329  1.00  0.00    -0.000 C 
BRANCH  13  14
ATOM     14  C   UNL     1     -10.574 -17.492  29.110  1.00  0.00    -0.000 C 
BRANCH  14  15
ATOM     15  C   UNL     1     -10.179 -18.888  29.615  1.00  0.00    -0.003 C 
ATOM     16  C   UNL     1      -9.677 -18.874  31.059  1.00  0.00     0.004 C 
ENDBRANCH  14  15
ENDBRANCH  13  14
ENDBRANCH  12  13
ENDBRANCH  11  12
ENDBRANCH  10  11
ENDBRANCH   1  10
TORSDOF 12
ENDMDL
