MODEL 1
REMARK VINA RESULT:    -4.820      0.000      0.000
REMARK INTER + INTRA:          -5.993
REMARK INTER:                  -5.807
REMARK INTRA:                  -0.187
REMARK UNBOUND:                -0.187
REMARK SMILES Oc1cc(O)c2cc(O)c(-c3ccc(O)c(O)c3)[o+]c2c1.[Cl-]
REMARK SMILES IDX 10 1 19 2 20 3 21 4 2 5 3 6 4 7 6 8 7 9 8 10 11 11 12 12
REMARK SMILES IDX 13 13 14 14 18 15 16 16 15 17 17 19 9 21 1 23 5 25
REMARK H PARENT 15 18 17 20 9 22 1 24 5 26
REMARK Flexibility Score: inf
ROOT
ATOM      1  C   UNL     1     -26.083  51.443  42.125  1.00  0.00     0.402 A 
ATOM      2  O   UNL     1     -26.590  51.941  43.250  1.00  0.00    -0.202 OA
ATOM      3  C   UNL     1     -26.292  53.151  43.711  1.00  0.00     0.368 A 
ATOM      4  C   UNL     1     -26.873  53.585  44.906  1.00  0.00     0.162 A 
ATOM      5  C   UNL     1     -26.575  54.853  45.414  1.00  0.00     0.128 A 
ATOM      6  C   UNL     1     -25.691  55.688  44.728  1.00  0.00     0.093 A 
ATOM      7  C   UNL     1     -25.096  55.276  43.529  1.00  0.00     0.136 A 
ATOM      8  C   UNL     1     -25.397  53.992  43.006  1.00  0.00     0.125 A 
ATOM      9  C   UNL     1     -24.858  53.500  41.806  1.00  0.00     0.078 A 
ATOM     10  C   UNL     1     -25.205  52.226  41.351  1.00  0.00     0.223 A 
ENDROOT
BRANCH   1  11
ATOM     11  C   UNL     1     -26.484  50.076  41.721  1.00  0.00     0.087 A 
ATOM     12  C   UNL     1     -26.154  48.954  42.502  1.00  0.00     0.022 A 
ATOM     13  C   UNL     1     -26.564  47.677  42.112  1.00  0.00     0.051 A 
ATOM     14  C   UNL     1     -27.319  47.501  40.948  1.00  0.00     0.157 A 
ATOM     15  C   UNL     1     -27.260  49.897  40.563  1.00  0.00     0.068 A 
ATOM     16  C   UNL     1     -27.671  48.616  40.170  1.00  0.00     0.158 A 
BRANCH  14  17
ATOM     17  O   UNL     1     -27.712  46.213  40.584  1.00  0.00    -0.504 OA
ATOM     18  H   UNL     1     -27.054  45.446  40.527  1.00  0.00     0.293 HD
ENDBRANCH  14  17
BRANCH  16  19
ATOM     19  O   UNL     1     -28.429  48.448  39.012  1.00  0.00    -0.504 OA
ATOM     20  H   UNL     1     -28.101  48.772  38.110  1.00  0.00     0.293 HD
ENDBRANCH  16  19
ENDBRANCH   1  11
BRANCH  10  21
ATOM     21  O   UNL     1     -24.709  51.756  40.135  1.00  0.00    -0.500 OA
ATOM     22  H   UNL     1     -24.483  50.779  39.995  1.00  0.00     0.294 HD
ENDBRANCH  10  21
BRANCH   5  23
ATOM     23  O   UNL     1     -27.151  55.292  46.605  1.00  0.00    -0.507 OA
ATOM     24  H   UNL     1     -28.055  54.954  46.913  1.00  0.00     0.293 HD
ENDBRANCH   5  23
BRANCH   7  25
ATOM     25  O   UNL     1     -24.221  56.170  42.905  1.00  0.00    -0.507 OA
ATOM     26  H   UNL     1     -24.397  57.159  42.796  1.00  0.00     0.293 HD
ENDBRANCH   7  25
TORSDOF 6
ENDMDL
MODEL 2
REMARK VINA RESULT:    -4.685      0.746      1.536
REMARK INTER + INTRA:          -5.830
REMARK INTER:                  -5.667
REMARK INTRA:                  -0.164
REMARK UNBOUND:                -0.187
REMARK SMILES Oc1cc(O)c2cc(O)c(-c3ccc(O)c(O)c3)[o+]c2c1.[Cl-]
REMARK SMILES IDX 10 1 19 2 20 3 21 4 2 5 3 6 4 7 6 8 7 9 8 10 11 11 12 12
REMARK SMILES IDX 13 13 14 14 18 15 16 16 15 17 17 19 9 21 1 23 5 25
REMARK H PARENT 15 18 17 20 9 22 1 24 5 26
REMARK Flexibility Score: inf
ROOT
ATOM      1  C   UNL     1     -26.266  51.181  41.933  1.00  0.00     0.402 A 
ATOM      2  O   UNL     1     -26.724  51.714  43.063  1.00  0.00    -0.202 OA
ATOM      3  C   UNL     1     -26.378  52.922  43.492  1.00  0.00     0.368 A 
ATOM      4  C   UNL     1     -26.909  53.394  44.696  1.00  0.00     0.162 A 
ATOM      5  C   UNL     1     -26.559  54.661  45.172  1.00  0.00     0.128 A 
ATOM      6  C   UNL     1     -25.673  55.458  44.444  1.00  0.00     0.093 A 
ATOM      7  C   UNL     1     -25.126  55.007  43.236  1.00  0.00     0.136 A 
ATOM      8  C   UNL     1     -25.480  53.724  42.746  1.00  0.00     0.125 A 
ATOM      9  C   UNL     1     -24.992  53.195  41.540  1.00  0.00     0.078 A 
ATOM     10  C   UNL     1     -25.390  51.923  41.119  1.00  0.00     0.223 A 
ENDROOT
BRANCH   1  11
ATOM     11  C   UNL     1     -26.720  49.819  41.566  1.00  0.00     0.087 A 
ATOM     12  C   UNL     1     -27.451  49.583  40.389  1.00  0.00     0.022 A 
ATOM     13  C   UNL     1     -27.847  48.286  40.052  1.00  0.00     0.051 A 
ATOM     14  C   UNL     1     -27.510  47.207  40.876  1.00  0.00     0.157 A 
ATOM     15  C   UNL     1     -26.365  48.730  42.380  1.00  0.00     0.068 A 
ATOM     16  C   UNL     1     -26.763  47.429  42.044  1.00  0.00     0.158 A 
BRANCH  14  17
ATOM     17  O   UNL     1     -27.921  45.924  40.514  1.00  0.00    -0.504 OA
ATOM     18  H   UNL     1     -27.898  45.149  41.165  1.00  0.00     0.293 HD
ENDBRANCH  14  17
BRANCH  16  19
ATOM     19  O   UNL     1     -26.418  46.357  42.866  1.00  0.00    -0.504 OA
ATOM     20  H   UNL     1     -27.084  45.941  43.506  1.00  0.00     0.293 HD
ENDBRANCH  16  19
ENDBRANCH   1  11
BRANCH  10  21
ATOM     21  O   UNL     1     -24.945  51.418  39.897  1.00  0.00    -0.500 OA
ATOM     22  H   UNL     1     -25.236  50.507  39.561  1.00  0.00     0.294 HD
ENDBRANCH  10  21
BRANCH   5  23
ATOM     23  O   UNL     1     -27.086  55.139  46.370  1.00  0.00    -0.507 OA
ATOM     24  H   UNL     1     -27.571  56.026  46.420  1.00  0.00     0.293 HD
ENDBRANCH   5  23
BRANCH   7  25
ATOM     25  O   UNL     1     -24.245  55.864  42.569  1.00  0.00    -0.507 OA
ATOM     26  H   UNL     1     -23.391  55.567  42.119  1.00  0.00     0.293 HD
ENDBRANCH   7  25
TORSDOF 6
ENDMDL
MODEL 3
REMARK VINA RESULT:    -4.371      1.502      7.252
REMARK INTER + INTRA:          -5.452
REMARK INTER:                  -5.244
REMARK INTRA:                  -0.207
REMARK UNBOUND:                -0.187
REMARK SMILES Oc1cc(O)c2cc(O)c(-c3ccc(O)c(O)c3)[o+]c2c1.[Cl-]
REMARK SMILES IDX 10 1 19 2 20 3 21 4 2 5 3 6 4 7 6 8 7 9 8 10 11 11 12 12
REMARK SMILES IDX 13 13 14 14 18 15 16 16 15 17 17 19 9 21 1 23 5 25
REMARK H PARENT 15 18 17 20 9 22 1 24 5 26
REMARK Flexibility Score: inf
ROOT
ATOM      1  C   UNL     1     -25.845  51.911  43.872  1.00  0.00     0.402 A 
ATOM      2  O   UNL     1     -26.263  51.707  42.624  1.00  0.00    -0.202 OA
ATOM      3  C   UNL     1     -26.402  50.499  42.091  1.00  0.00     0.368 A 
ATOM      4  C   UNL     1     -26.844  50.386  40.769  1.00  0.00     0.162 A 
ATOM      5  C   UNL     1     -26.997  49.126  40.182  1.00  0.00     0.128 A 
ATOM      6  C   UNL     1     -26.705  47.976  40.917  1.00  0.00     0.093 A 
ATOM      7  C   UNL     1     -26.261  48.062  42.242  1.00  0.00     0.136 A 
ATOM      8  C   UNL     1     -26.106  49.337  42.845  1.00  0.00     0.125 A 
ATOM      9  C   UNL     1     -25.678  49.519  44.170  1.00  0.00     0.078 A 
ATOM     10  C   UNL     1     -25.555  50.808  44.697  1.00  0.00     0.223 A 
ENDROOT
BRANCH   1  11
ATOM     11  C   UNL     1     -25.720  53.307  44.349  1.00  0.00     0.087 A 
ATOM     12  C   UNL     1     -24.772  54.188  43.799  1.00  0.00     0.022 A 
ATOM     13  C   UNL     1     -24.689  55.507  44.250  1.00  0.00     0.051 A 
ATOM     14  C   UNL     1     -25.557  55.971  45.244  1.00  0.00     0.157 A 
ATOM     15  C   UNL     1     -26.604  53.782  45.333  1.00  0.00     0.068 A 
ATOM     16  C   UNL     1     -26.521  55.106  45.787  1.00  0.00     0.158 A 
BRANCH  14  17
ATOM     17  O   UNL     1     -25.449  57.293  45.675  1.00  0.00    -0.504 OA
ATOM     18  H   UNL     1     -26.069  57.684  46.373  1.00  0.00     0.293 HD
ENDBRANCH  14  17
BRANCH  16  19
ATOM     19  O   UNL     1     -27.393  55.564  46.773  1.00  0.00    -0.504 OA
ATOM     20  H   UNL     1     -27.239  56.443  47.253  1.00  0.00     0.293 HD
ENDBRANCH  16  19
ENDBRANCH   1  11
BRANCH  10  21
ATOM     21  O   UNL     1     -25.178  50.988  46.027  1.00  0.00    -0.500 OA
ATOM     22  H   UNL     1     -25.405  51.835  46.534  1.00  0.00     0.294 HD
ENDBRANCH  10  21
BRANCH   5  23
ATOM     23  O   UNL     1     -27.438  49.008  38.866  1.00  0.00    -0.507 OA
ATOM     24  H   UNL     1     -27.558  48.103  38.426  1.00  0.00     0.293 HD
ENDBRANCH   5  23
BRANCH   7  25
ATOM     25  O   UNL     1     -25.987  46.864  42.908  1.00  0.00    -0.507 OA
ATOM     26  H   UNL     1     -26.485  46.537  43.724  1.00  0.00     0.293 HD
ENDBRANCH   7  25
TORSDOF 6
ENDMDL
MODEL 4
REMARK VINA RESULT:    -4.332      1.704      6.950
REMARK INTER + INTRA:          -5.405
REMARK INTER:                  -5.301
REMARK INTRA:                  -0.104
REMARK UNBOUND:                -0.187
REMARK SMILES Oc1cc(O)c2cc(O)c(-c3ccc(O)c(O)c3)[o+]c2c1.[Cl-]
REMARK SMILES IDX 10 1 19 2 20 3 21 4 2 5 3 6 4 7 6 8 7 9 8 10 11 11 12 12
REMARK SMILES IDX 13 13 14 14 18 15 16 16 15 17 17 19 9 21 1 23 5 25
REMARK H PARENT 15 18 17 20 9 22 1 24 5 26
REMARK Flexibility Score: inf
ROOT
ATOM      1  C   UNL     1     -25.863  52.221  43.359  1.00  0.00     0.402 A 
ATOM      2  O   UNL     1     -25.755  51.137  44.123  1.00  0.00    -0.202 OA
ATOM      3  C   UNL     1     -25.868  49.900  43.654  1.00  0.00     0.368 A 
ATOM      4  C   UNL     1     -25.743  48.824  44.537  1.00  0.00     0.162 A 
ATOM      5  C   UNL     1     -25.860  47.511  44.069  1.00  0.00     0.128 A 
ATOM      6  C   UNL     1     -26.104  47.274  42.715  1.00  0.00     0.093 A 
ATOM      7  C   UNL     1     -26.233  48.335  41.811  1.00  0.00     0.136 A 
ATOM      8  C   UNL     1     -26.113  49.669  42.278  1.00  0.00     0.125 A 
ATOM      9  C   UNL     1     -26.216  50.793  41.443  1.00  0.00     0.078 A 
ATOM     10  C   UNL     1     -26.081  52.078  41.976  1.00  0.00     0.223 A 
ENDROOT
BRANCH   1  11
ATOM     11  C   UNL     1     -25.728  53.548  44.002  1.00  0.00     0.087 A 
ATOM     12  C   UNL     1     -24.760  54.475  43.576  1.00  0.00     0.022 A 
ATOM     13  C   UNL     1     -24.668  55.730  44.183  1.00  0.00     0.051 A 
ATOM     14  C   UNL     1     -25.546  56.084  45.212  1.00  0.00     0.157 A 
ATOM     15  C   UNL     1     -26.622  53.916  45.022  1.00  0.00     0.068 A 
ATOM     16  C   UNL     1     -26.530  55.174  45.633  1.00  0.00     0.158 A 
BRANCH  14  17
ATOM     17  O   UNL     1     -25.428  57.343  45.800  1.00  0.00    -0.504 OA
ATOM     18  H   UNL     1     -24.591  57.631  46.292  1.00  0.00     0.293 HD
ENDBRANCH  14  17
BRANCH  16  19
ATOM     19  O   UNL     1     -27.413  55.523  46.654  1.00  0.00    -0.504 OA
ATOM     20  H   UNL     1     -27.336  55.125  47.582  1.00  0.00     0.293 HD
ENDBRANCH  16  19
ENDBRANCH   1  11
BRANCH  10  21
ATOM     21  O   UNL     1     -26.133  53.192  41.139  1.00  0.00    -0.500 OA
ATOM     22  H   UNL     1     -26.706  53.998  41.361  1.00  0.00     0.294 HD
ENDBRANCH  10  21
BRANCH   5  23
ATOM     23  O   UNL     1     -25.735  46.434  44.944  1.00  0.00    -0.507 OA
ATOM     24  H   UNL     1     -24.935  45.814  44.913  1.00  0.00     0.293 HD
ENDBRANCH   5  23
BRANCH   7  25
ATOM     25  O   UNL     1     -26.480  48.013  40.473  1.00  0.00    -0.507 OA
ATOM     26  H   UNL     1     -27.108  47.283  40.168  1.00  0.00     0.293 HD
ENDBRANCH   7  25
TORSDOF 6
ENDMDL
MODEL 5
REMARK VINA RESULT:    -4.172      1.551      6.946
REMARK INTER + INTRA:          -5.212
REMARK INTER:                  -4.869
REMARK INTRA:                  -0.343
REMARK UNBOUND:                -0.187
REMARK SMILES Oc1cc(O)c2cc(O)c(-c3ccc(O)c(O)c3)[o+]c2c1.[Cl-]
REMARK SMILES IDX 10 1 19 2 20 3 21 4 2 5 3 6 4 7 6 8 7 9 8 10 11 11 12 12
REMARK SMILES IDX 13 13 14 14 18 15 16 16 15 17 17 19 9 21 1 23 5 25
REMARK H PARENT 15 18 17 20 9 22 1 24 5 26
REMARK Flexibility Score: inf
ROOT
ATOM      1  C   UNL     1     -25.952  51.312  43.122  1.00  0.00     0.402 A 
ATOM      2  O   UNL     1     -26.045  50.115  43.697  1.00  0.00    -0.202 OA
ATOM      3  C   UNL     1     -26.349  49.007  43.029  1.00  0.00     0.368 A 
ATOM      4  C   UNL     1     -26.427  47.796  43.722  1.00  0.00     0.162 A 
ATOM      5  C   UNL     1     -26.747  46.615  43.044  1.00  0.00     0.128 A 
ATOM      6  C   UNL     1     -26.991  46.646  41.670  1.00  0.00     0.093 A 
ATOM      7  C   UNL     1     -26.920  47.847  40.953  1.00  0.00     0.136 A 
ATOM      8  C   UNL     1     -26.592  49.048  41.635  1.00  0.00     0.125 A 
ATOM      9  C   UNL     1     -26.486  50.294  40.997  1.00  0.00     0.078 A 
ATOM     10  C   UNL     1     -26.154  51.434  41.735  1.00  0.00     0.223 A 
ENDROOT
BRANCH   1  11
ATOM     11  C   UNL     1     -25.617  52.474  43.976  1.00  0.00     0.087 A 
ATOM     12  C   UNL     1     -24.282  52.816  44.257  1.00  0.00     0.022 A 
ATOM     13  C   UNL     1     -23.990  53.932  45.046  1.00  0.00     0.051 A 
ATOM     14  C   UNL     1     -25.022  54.729  45.554  1.00  0.00     0.157 A 
ATOM     15  C   UNL     1     -26.649  53.289  44.470  1.00  0.00     0.068 A 
ATOM     16  C   UNL     1     -26.358  54.408  45.263  1.00  0.00     0.158 A 
BRANCH  14  17
ATOM     17  O   UNL     1     -24.699  55.835  46.340  1.00  0.00    -0.504 OA
ATOM     18  H   UNL     1     -24.710  55.797  47.351  1.00  0.00     0.293 HD
ENDBRANCH  14  17
BRANCH  16  19
ATOM     19  O   UNL     1     -27.390  55.202  45.760  1.00  0.00    -0.504 OA
ATOM     20  H   UNL     1     -28.318  55.182  45.355  1.00  0.00     0.293 HD
ENDBRANCH  16  19
ENDBRANCH   1  11
BRANCH  10  21
ATOM     21  O   UNL     1     -25.999  52.663  41.094  1.00  0.00    -0.500 OA
ATOM     22  H   UNL     1     -25.534  52.740  40.197  1.00  0.00     0.294 HD
ENDBRANCH  10  21
BRANCH   5  23
ATOM     23  O   UNL     1     -26.825  45.404  43.729  1.00  0.00    -0.507 OA
ATOM     24  H   UNL     1     -27.312  44.605  43.341  1.00  0.00     0.293 HD
ENDBRANCH   5  23
BRANCH   7  25
ATOM     25  O   UNL     1     -27.181  47.794  39.581  1.00  0.00    -0.507 OA
ATOM     26  H   UNL     1     -28.103  47.705  39.179  1.00  0.00     0.293 HD
ENDBRANCH   7  25
TORSDOF 6
ENDMDL
MODEL 6
REMARK VINA RESULT:    -4.008      1.762      3.204
REMARK INTER + INTRA:          -5.015
REMARK INTER:                  -4.667
REMARK INTRA:                  -0.348
REMARK UNBOUND:                -0.187
REMARK SMILES Oc1cc(O)c2cc(O)c(-c3ccc(O)c(O)c3)[o+]c2c1.[Cl-]
REMARK SMILES IDX 10 1 19 2 20 3 21 4 2 5 3 6 4 7 6 8 7 9 8 10 11 11 12 12
REMARK SMILES IDX 13 13 14 14 18 15 16 16 15 17 17 19 9 21 1 23 5 25
REMARK H PARENT 15 18 17 20 9 22 1 24 5 26
REMARK Flexibility Score: inf
ROOT
ATOM      1  C   UNL     1     -25.767  52.622  43.853  1.00  0.00     0.402 A 
ATOM      2  O   UNL     1     -24.578  53.210  43.745  1.00  0.00    -0.202 OA
ATOM      3  C   UNL     1     -24.298  54.392  44.282  1.00  0.00     0.368 A 
ATOM      4  C   UNL     1     -23.019  54.931  44.111  1.00  0.00     0.162 A 
ATOM      5  C   UNL     1     -22.699  56.175  44.663  1.00  0.00     0.128 A 
ATOM      6  C   UNL     1     -23.659  56.883  45.387  1.00  0.00     0.093 A 
ATOM      7  C   UNL     1     -24.947  56.365  45.573  1.00  0.00     0.136 A 
ATOM      8  C   UNL     1     -25.278  55.102  45.017  1.00  0.00     0.125 A 
ATOM      9  C   UNL     1     -26.538  54.500  45.163  1.00  0.00     0.078 A 
ATOM     10  C   UNL     1     -26.789  53.250  44.591  1.00  0.00     0.223 A 
ENDROOT
BRANCH   1  11
ATOM     11  C   UNL     1     -25.960  51.307  43.201  1.00  0.00     0.087 A 
ATOM     12  C   UNL     1     -25.727  50.105  43.892  1.00  0.00     0.022 A 
ATOM     13  C   UNL     1     -25.939  48.876  43.263  1.00  0.00     0.051 A 
ATOM     14  C   UNL     1     -26.398  48.827  41.942  1.00  0.00     0.157 A 
ATOM     15  C   UNL     1     -26.442  51.254  41.882  1.00  0.00     0.068 A 
ATOM     16  C   UNL     1     -26.653  50.021  41.248  1.00  0.00     0.158 A 
BRANCH  14  17
ATOM     17  O   UNL     1     -26.598  47.585  41.340  1.00  0.00    -0.504 OA
ATOM     18  H   UNL     1     -26.609  47.470  40.334  1.00  0.00     0.293 HD
ENDBRANCH  14  17
BRANCH  16  19
ATOM     19  O   UNL     1     -27.118  49.979  39.935  1.00  0.00    -0.504 OA
ATOM     20  H   UNL     1     -27.885  50.564  39.623  1.00  0.00     0.293 HD
ENDBRANCH  16  19
ENDBRANCH   1  11
BRANCH  10  21
ATOM     21  O   UNL     1     -28.024  52.629  44.777  1.00  0.00    -0.500 OA
ATOM     22  H   UNL     1     -28.365  51.921  44.136  1.00  0.00     0.294 HD
ENDBRANCH  10  21
BRANCH   5  23
ATOM     23  O   UNL     1     -21.426  56.717  44.496  1.00  0.00    -0.507 OA
ATOM     24  H   UNL     1     -20.600  56.131  44.462  1.00  0.00     0.293 HD
ENDBRANCH   5  23
BRANCH   7  25
ATOM     25  O   UNL     1     -25.851  57.138  46.308  1.00  0.00    -0.507 OA
ATOM     26  H   UNL     1     -25.965  57.085  47.310  1.00  0.00     0.293 HD
ENDBRANCH   7  25
TORSDOF 6
ENDMDL
MODEL 7
REMARK VINA RESULT:    -3.958      7.854      8.785
REMARK INTER + INTRA:          -4.955
REMARK INTER:                  -4.665
REMARK INTRA:                  -0.289
REMARK UNBOUND:                -0.187
REMARK SMILES Oc1cc(O)c2cc(O)c(-c3ccc(O)c(O)c3)[o+]c2c1.[Cl-]
REMARK SMILES IDX 10 1 19 2 20 3 21 4 2 5 3 6 4 7 6 8 7 9 8 10 11 11 12 12
REMARK SMILES IDX 13 13 14 14 18 15 16 16 15 17 17 19 9 21 1 23 5 25
REMARK H PARENT 15 18 17 20 9 22 1 24 5 26
REMARK Flexibility Score: inf
ROOT
ATOM      1  C   UNL     1     -27.188  55.051  34.292  1.00  0.00     0.402 A 
ATOM      2  O   UNL     1     -27.230  55.622  35.494  1.00  0.00    -0.202 OA
ATOM      3  C   UNL     1     -27.530  56.902  35.682  1.00  0.00     0.368 A 
ATOM      4  C   UNL     1     -27.545  57.412  36.984  1.00  0.00     0.162 A 
ATOM      5  C   UNL     1     -27.856  58.756  37.210  1.00  0.00     0.128 A 
ATOM      6  C   UNL     1     -28.151  59.593  36.133  1.00  0.00     0.093 A 
ATOM      7  C   UNL     1     -28.143  59.107  34.820  1.00  0.00     0.136 A 
ATOM      8  C   UNL     1     -27.831  57.743  34.584  1.00  0.00     0.125 A 
ATOM      9  C   UNL     1     -27.811  57.165  33.303  1.00  0.00     0.078 A 
ATOM     10  C   UNL     1     -27.499  55.812  33.150  1.00  0.00     0.223 A 
ENDROOT
BRANCH   1  11
ATOM     11  C   UNL     1     -26.829  53.616  34.210  1.00  0.00     0.087 A 
ATOM     12  C   UNL     1     -25.504  53.181  34.389  1.00  0.00     0.022 A 
ATOM     13  C   UNL     1     -25.194  51.820  34.331  1.00  0.00     0.051 A 
ATOM     14  C   UNL     1     -26.200  50.874  34.107  1.00  0.00     0.157 A 
ATOM     15  C   UNL     1     -27.840  52.662  34.007  1.00  0.00     0.068 A 
ATOM     16  C   UNL     1     -27.530  51.296  33.947  1.00  0.00     0.158 A 
BRANCH  14  17
ATOM     17  O   UNL     1     -25.859  49.523  34.052  1.00  0.00    -0.504 OA
ATOM     18  H   UNL     1     -26.508  48.817  33.727  1.00  0.00     0.293 HD
ENDBRANCH  14  17
BRANCH  16  19
ATOM     19  O   UNL     1     -28.538  50.358  33.731  1.00  0.00    -0.504 OA
ATOM     20  H   UNL     1     -28.403  49.375  33.936  1.00  0.00     0.293 HD
ENDBRANCH  16  19
ENDBRANCH   1  11
BRANCH  10  21
ATOM     21  O   UNL     1     -27.528  55.225  31.884  1.00  0.00    -0.500 OA
ATOM     22  H   UNL     1     -26.788  54.611  31.566  1.00  0.00     0.294 HD
ENDBRANCH  10  21
BRANCH   5  23
ATOM     23  O   UNL     1     -27.872  59.271  38.505  1.00  0.00    -0.507 OA
ATOM     24  H   UNL     1     -27.070  59.192  39.118  1.00  0.00     0.293 HD
ENDBRANCH   5  23
BRANCH   7  25
ATOM     25  O   UNL     1     -28.447  60.010  33.797  1.00  0.00    -0.507 OA
ATOM     26  H   UNL     1     -29.376  60.348  33.591  1.00  0.00     0.293 HD
ENDBRANCH   7  25
TORSDOF 6
ENDMDL
MODEL 8
REMARK VINA RESULT:    -3.851      8.564     11.260
REMARK INTER + INTRA:          -4.826
REMARK INTER:                  -4.510
REMARK INTRA:                  -0.316
REMARK UNBOUND:                -0.187
REMARK SMILES Oc1cc(O)c2cc(O)c(-c3ccc(O)c(O)c3)[o+]c2c1.[Cl-]
REMARK SMILES IDX 10 1 19 2 20 3 21 4 2 5 3 6 4 7 6 8 7 9 8 10 11 11 12 12
REMARK SMILES IDX 13 13 14 14 18 15 16 16 15 17 17 19 9 21 1 23 5 25
REMARK H PARENT 15 18 17 20 9 22 1 24 5 26
REMARK Flexibility Score: inf
ROOT
ATOM      1  C   UNL     1     -27.884  52.261  33.422  1.00  0.00     0.402 A 
ATOM      2  O   UNL     1     -26.961  51.420  33.884  1.00  0.00    -0.202 OA
ATOM      3  C   UNL     1     -27.182  50.124  34.068  1.00  0.00     0.368 A 
ATOM      4  C   UNL     1     -26.150  49.322  34.563  1.00  0.00     0.162 A 
ATOM      5  C   UNL     1     -26.357  47.954  34.769  1.00  0.00     0.128 A 
ATOM      6  C   UNL     1     -27.600  47.387  34.481  1.00  0.00     0.093 A 
ATOM      7  C   UNL     1     -28.650  48.170  33.985  1.00  0.00     0.136 A 
ATOM      8  C   UNL     1     -28.445  49.557  33.771  1.00  0.00     0.125 A 
ATOM      9  C   UNL     1     -29.435  50.416  33.266  1.00  0.00     0.078 A 
ATOM     10  C   UNL     1     -29.158  51.772  33.077  1.00  0.00     0.223 A 
ENDROOT
BRANCH   1  11
ATOM     11  C   UNL     1     -27.518  53.688  33.269  1.00  0.00     0.087 A 
ATOM     12  C   UNL     1     -27.480  54.556  34.374  1.00  0.00     0.022 A 
ATOM     13  C   UNL     1     -27.109  55.893  34.209  1.00  0.00     0.051 A 
ATOM     14  C   UNL     1     -26.760  56.379  32.945  1.00  0.00     0.157 A 
ATOM     15  C   UNL     1     -27.147  54.175  32.005  1.00  0.00     0.068 A 
ATOM     16  C   UNL     1     -26.776  55.516  31.837  1.00  0.00     0.158 A 
BRANCH  14  17
ATOM     17  O   UNL     1     -26.397  57.719  32.811  1.00  0.00    -0.504 OA
ATOM     18  H   UNL     1     -25.706  58.024  32.138  1.00  0.00     0.293 HD
ENDBRANCH  14  17
BRANCH  16  19
ATOM     19  O   UNL     1     -26.422  55.993  30.576  1.00  0.00    -0.504 OA
ATOM     20  H   UNL     1     -27.117  56.166  29.859  1.00  0.00     0.293 HD
ENDBRANCH  16  19
ENDBRANCH   1  11
BRANCH  10  21
ATOM     21  O   UNL     1     -30.124  52.615  32.529  1.00  0.00    -0.500 OA
ATOM     22  H   UNL     1     -30.623  52.372  31.681  1.00  0.00     0.294 HD
ENDBRANCH  10  21
BRANCH   5  23
ATOM     23  O   UNL     1     -25.331  47.149  35.261  1.00  0.00    -0.507 OA
ATOM     24  H   UNL     1     -25.360  46.766  36.198  1.00  0.00     0.293 HD
ENDBRANCH   5  23
BRANCH   7  25
ATOM     25  O   UNL     1     -29.864  47.527  33.725  1.00  0.00    -0.507 OA
ATOM     26  H   UNL     1     -30.018  46.886  32.960  1.00  0.00     0.293 HD
ENDBRANCH   7  25
TORSDOF 6
ENDMDL
