MODEL 1
REMARK VINA RESULT:    -4.898      0.000      0.000
REMARK INTER + INTRA:          -4.898
REMARK INTER:                  -4.898
REMARK INTRA:                   0.000
REMARK UNBOUND:                 0.000
REMARK SMILES C=C1CC[C@@H]2C[C@H]1C2(C)C
REMARK SMILES IDX 9 1 8 2 5 3 4 4 3 5 2 6 1 7 7 8 6 9 10 10
REMARK H PARENT
REMARK Flexibility Score: inf
ROOT
ATOM      1  C   UNL     1       8.981   8.052  13.453  1.00  0.00     0.012 C 
ATOM      2  C   UNL     1       7.734   7.289  12.940  1.00  0.00    -0.026 C 
ATOM      3  C   UNL     1       7.184   6.300  13.998  1.00  0.00    -0.004 C 
ATOM      4  C   UNL     1       6.208   5.267  13.349  1.00  0.00     0.008 C 
ATOM      5  C   UNL     1       5.085   5.956  12.483  1.00  0.00     0.031 C 
ATOM      6  C   UNL     1       5.306   7.470  12.340  1.00  0.00    -0.074 C 
ATOM      7  C   UNL     1       4.543   8.211  11.529  1.00  0.00     0.008 C 
ATOM      8  C   UNL     1       6.430   8.089  13.164  1.00  0.00     0.021 C 
ATOM      9  C   UNL     1       6.311   7.438  14.551  1.00  0.00     0.012 C 
ATOM     10  C   UNL     1       8.038   6.759  11.511  1.00  0.00     0.012 C 
ENDROOT
TORSDOF 0
ENDMDL
MODEL 2
REMARK VINA RESULT:    -4.483      0.901      2.649
REMARK INTER + INTRA:          -4.483
REMARK INTER:                  -4.483
REMARK INTRA:                   0.000
REMARK UNBOUND:                 0.000
REMARK SMILES C=C1CC[C@@H]2C[C@H]1C2(C)C
REMARK SMILES IDX 9 1 8 2 5 3 4 4 3 5 2 6 1 7 7 8 6 9 10 10
REMARK H PARENT
REMARK Flexibility Score: inf
ROOT
ATOM      1  C   UNL     1       9.031   8.203  13.505  1.00  0.00     0.012 C 
ATOM      2  C   UNL     1       7.529   7.878  13.307  1.00  0.00    -0.026 C 
ATOM      3  C   UNL     1       6.962   8.517  12.015  1.00  0.00    -0.004 C 
ATOM      4  C   UNL     1       5.400   8.532  12.032  1.00  0.00     0.008 C 
ATOM      5  C   UNL     1       4.786   7.118  12.360  1.00  0.00     0.031 C 
ATOM      6  C   UNL     1       5.860   6.091  12.751  1.00  0.00    -0.074 C 
ATOM      7  C   UNL     1       5.531   4.875  13.199  1.00  0.00     0.008 C 
ATOM      8  C   UNL     1       7.317   6.518  12.601  1.00  0.00     0.021 C 
ATOM      9  C   UNL     1       7.380   7.250  11.251  1.00  0.00     0.012 C 
ATOM     10  C   UNL     1       6.792   8.135  14.651  1.00  0.00     0.012 C 
ENDROOT
TORSDOF 0
ENDMDL
MODEL 3
REMARK VINA RESULT:    -3.863      1.053      2.201
REMARK INTER + INTRA:          -3.863
REMARK INTER:                  -3.863
REMARK INTRA:                   0.000
REMARK UNBOUND:                 0.000
REMARK SMILES C=C1CC[C@@H]2C[C@H]1C2(C)C
REMARK SMILES IDX 9 1 8 2 5 3 4 4 3 5 2 6 1 7 7 8 6 9 10 10
REMARK H PARENT
REMARK Flexibility Score: inf
ROOT
ATOM      1  C   UNL     1       7.759   4.875  12.377  1.00  0.00     0.012 C 
ATOM      2  C   UNL     1       6.669   5.932  12.688  1.00  0.00    -0.026 C 
ATOM      3  C   UNL     1       6.996   6.743  13.967  1.00  0.00    -0.004 C 
ATOM      4  C   UNL     1       5.734   7.500  14.491  1.00  0.00     0.008 C 
ATOM      5  C   UNL     1       5.028   8.349  13.367  1.00  0.00     0.031 C 
ATOM      6  C   UNL     1       5.642   8.106  11.980  1.00  0.00    -0.074 C 
ATOM      7  C   UNL     1       5.095   8.625  10.875  1.00  0.00     0.008 C 
ATOM      8  C   UNL     1       6.904   7.252  11.918  1.00  0.00     0.021 C 
ATOM      9  C   UNL     1       7.771   7.739  13.090  1.00  0.00     0.012 C 
ATOM     10  C   UNL     1       5.278   5.248  12.574  1.00  0.00     0.012 C 
ENDROOT
TORSDOF 0
ENDMDL
MODEL 4
REMARK VINA RESULT:    -3.650      0.927      3.164
REMARK INTER + INTRA:          -3.650
REMARK INTER:                  -3.650
REMARK INTRA:                   0.000
REMARK UNBOUND:                 0.000
REMARK SMILES C=C1CC[C@@H]2C[C@H]1C2(C)C
REMARK SMILES IDX 9 1 8 2 5 3 4 4 3 5 2 6 1 7 7 8 6 9 10 10
REMARK H PARENT
REMARK Flexibility Score: inf
ROOT
ATOM      1  C   UNL     1       4.777   8.340  11.042  1.00  0.00     0.012 C 
ATOM      2  C   UNL     1       5.427   7.665  12.276  1.00  0.00    -0.026 C 
ATOM      3  C   UNL     1       5.939   6.239  11.954  1.00  0.00    -0.004 C 
ATOM      4  C   UNL     1       6.213   5.430  13.262  1.00  0.00     0.008 C 
ATOM      5  C   UNL     1       7.127   6.215  14.278  1.00  0.00     0.031 C 
ATOM      6  C   UNL     1       7.400   7.657  13.823  1.00  0.00    -0.074 C 
ATOM      7  C   UNL     1       8.037   8.528  14.613  1.00  0.00     0.008 C 
ATOM      8  C   UNL     1       6.917   8.050  12.431  1.00  0.00     0.021 C 
ATOM      9  C   UNL     1       7.282   6.858  11.532  1.00  0.00     0.012 C 
ATOM     10  C   UNL     1       4.484   7.861  13.495  1.00  0.00     0.012 C 
ENDROOT
TORSDOF 0
ENDMDL
MODEL 5
REMARK VINA RESULT:    -3.550      0.874      3.229
REMARK INTER + INTRA:          -3.550
REMARK INTER:                  -3.550
REMARK INTRA:                   0.000
REMARK UNBOUND:                 0.000
REMARK SMILES C=C1CC[C@@H]2C[C@H]1C2(C)C
REMARK SMILES IDX 9 1 8 2 5 3 4 4 3 5 2 6 1 7 7 8 6 9 10 10
REMARK H PARENT
REMARK Flexibility Score: inf
ROOT
ATOM      1  C   UNL     1       4.008   5.893  12.718  1.00  0.00     0.012 C 
ATOM      2  C   UNL     1       5.328   6.703  12.775  1.00  0.00    -0.026 C 
ATOM      3  C   UNL     1       5.956   6.689  14.191  1.00  0.00    -0.004 C 
ATOM      4  C   UNL     1       7.032   7.811  14.340  1.00  0.00     0.008 C 
ATOM      5  C   UNL     1       8.095   7.789  13.177  1.00  0.00     0.031 C 
ATOM      6  C   UNL     1       7.734   6.779  12.076  1.00  0.00    -0.074 C 
ATOM      7  C   UNL     1       8.434   6.709  10.939  1.00  0.00     0.008 C 
ATOM      8  C   UNL     1       6.548   5.858  12.340  1.00  0.00     0.021 C 
ATOM      9  C   UNL     1       6.711   5.407  13.800  1.00  0.00     0.012 C 
ATOM     10  C   UNL     1       5.092   8.072  12.078  1.00  0.00     0.012 C 
ENDROOT
TORSDOF 0
ENDMDL
MODEL 6
REMARK VINA RESULT:    -3.309      1.101      3.012
REMARK INTER + INTRA:          -3.309
REMARK INTER:                  -3.309
REMARK INTRA:                   0.000
REMARK UNBOUND:                 0.000
REMARK SMILES C=C1CC[C@@H]2C[C@H]1C2(C)C
REMARK SMILES IDX 9 1 8 2 5 3 4 4 3 5 2 6 1 7 7 8 6 9 10 10
REMARK H PARENT
REMARK Flexibility Score: inf
ROOT
ATOM      1  C   UNL     1       5.119   8.985  12.544  1.00  0.00     0.012 C 
ATOM      2  C   UNL     1       5.844   7.623  12.409  1.00  0.00    -0.026 C 
ATOM      3  C   UNL     1       7.267   7.780  11.817  1.00  0.00    -0.004 C 
ATOM      4  C   UNL     1       7.821   6.409  11.312  1.00  0.00     0.008 C 
ATOM      5  C   UNL     1       7.711   5.275  12.400  1.00  0.00     0.031 C 
ATOM      6  C   UNL     1       6.933   5.733  13.644  1.00  0.00    -0.074 C 
ATOM      7  C   UNL     1       6.611   4.875  14.619  1.00  0.00     0.008 C 
ATOM      8  C   UNL     1       6.550   7.207  13.720  1.00  0.00     0.021 C 
ATOM      9  C   UNL     1       7.799   7.968  13.247  1.00  0.00     0.012 C 
ATOM     10  C   UNL     1       4.868   6.613  11.744  1.00  0.00     0.012 C 
ENDROOT
TORSDOF 0
ENDMDL
MODEL 7
REMARK VINA RESULT:    -3.187      1.221      3.163
REMARK INTER + INTRA:          -3.187
REMARK INTER:                  -3.187
REMARK INTRA:                   0.000
REMARK UNBOUND:                 0.000
REMARK SMILES C=C1CC[C@@H]2C[C@H]1C2(C)C
REMARK SMILES IDX 9 1 8 2 5 3 4 4 3 5 2 6 1 7 7 8 6 9 10 10
REMARK H PARENT
REMARK Flexibility Score: inf
ROOT
ATOM      1  C   UNL     1       5.146   4.875  13.187  1.00  0.00     0.012 C 
ATOM      2  C   UNL     1       6.113   6.025  12.811  1.00  0.00    -0.026 C 
ATOM      3  C   UNL     1       5.423   7.097  11.930  1.00  0.00    -0.004 C 
ATOM      4  C   UNL     1       6.477   8.015  11.231  1.00  0.00     0.008 C 
ATOM      5  C   UNL     1       7.528   8.610  12.245  1.00  0.00     0.031 C 
ATOM      6  C   UNL     1       7.377   8.019  13.655  1.00  0.00    -0.074 C 
ATOM      7  C   UNL     1       8.260   8.290  14.622  1.00  0.00     0.008 C 
ATOM      8  C   UNL     1       6.173   7.116  13.905  1.00  0.00     0.021 C 
ATOM      9  C   UNL     1       4.995   7.823  13.216  1.00  0.00     0.012 C 
ATOM     10  C   UNL     1       7.447   5.401  12.317  1.00  0.00     0.012 C 
ENDROOT
TORSDOF 0
ENDMDL
MODEL 8
REMARK VINA RESULT:    -3.082      1.104      2.540
REMARK INTER + INTRA:          -3.082
REMARK INTER:                  -3.082
REMARK INTRA:                   0.000
REMARK UNBOUND:                 0.000
REMARK SMILES C=C1CC[C@@H]2C[C@H]1C2(C)C
REMARK SMILES IDX 9 1 8 2 5 3 4 4 3 5 2 6 1 7 7 8 6 9 10 10
REMARK H PARENT
REMARK Flexibility Score: inf
ROOT
ATOM      1  C   UNL     1       6.634   5.033  15.016  1.00  0.00     0.012 C 
ATOM      2  C   UNL     1       6.780   6.064  13.869  1.00  0.00    -0.026 C 
ATOM      3  C   UNL     1       7.477   5.453  12.627  1.00  0.00    -0.004 C 
ATOM      4  C   UNL     1       7.978   6.571  11.657  1.00  0.00     0.008 C 
ATOM      5  C   UNL     1       6.851   7.614  11.302  1.00  0.00     0.031 C 
ATOM      6  C   UNL     1       5.569   7.389  12.120  1.00  0.00    -0.074 C 
ATOM      7  C   UNL     1       4.549   8.253  12.066  1.00  0.00     0.008 C 
ATOM      8  C   UNL     1       5.511   6.138  12.990  1.00  0.00     0.021 C 
ATOM      9  C   UNL     1       6.094   5.018  12.115  1.00  0.00     0.012 C 
ATOM     10  C   UNL     1       7.344   7.383  14.466  1.00  0.00     0.012 C 
ENDROOT
TORSDOF 0
ENDMDL
MODEL 9
REMARK VINA RESULT:    -2.632      1.303      3.036
REMARK INTER + INTRA:          -2.632
REMARK INTER:                  -2.632
REMARK INTRA:                   0.000
REMARK UNBOUND:                 0.000
REMARK SMILES C=C1CC[C@@H]2C[C@H]1C2(C)C
REMARK SMILES IDX 9 1 8 2 5 3 4 4 3 5 2 6 1 7 7 8 6 9 10 10
REMARK H PARENT
REMARK Flexibility Score: inf
ROOT
ATOM      1  C   UNL     1       4.955   8.567  10.926  1.00  0.00     0.012 C 
ATOM      2  C   UNL     1       5.819   7.911  12.033  1.00  0.00    -0.026 C 
ATOM      3  C   UNL     1       5.043   7.771  13.366  1.00  0.00    -0.004 C 
ATOM      4  C   UNL     1       6.017   7.497  14.557  1.00  0.00     0.008 C 
ATOM      5  C   UNL     1       7.003   6.301  14.270  1.00  0.00     0.031 C 
ATOM      6  C   UNL     1       6.895   5.790  12.825  1.00  0.00    -0.074 C 
ATOM      7  C   UNL     1       7.744   4.875  12.345  1.00  0.00     0.008 C 
ATOM      8  C   UNL     1       5.775   6.367  11.966  1.00  0.00     0.021 C 
ATOM      9  C   UNL     1       4.544   6.398  12.885  1.00  0.00     0.012 C 
ATOM     10  C   UNL     1       7.207   8.610  12.048  1.00  0.00     0.012 C 
ENDROOT
TORSDOF 0
ENDMDL
