MODEL 1
REMARK VINA RESULT:    -3.787      0.000      0.000
REMARK INTER + INTRA:         -12.801
REMARK INTER:                  -8.657
REMARK INTRA:                  -4.143
REMARK UNBOUND:                -4.143
REMARK SMILES CCCCCCCCCCCCCCCCCCCCCCCC(=O)[O-]
REMARK SMILES IDX 13 1 14 2 15 3 16 4 17 5 18 6 19 7 20 8 21 9 22 10 23 11
REMARK SMILES IDX 24 12 25 13 26 14 12 15 11 16 10 17 9 18 8 19 7 20 6 21 5 22
REMARK SMILES IDX 4 23 3 24 2 25 1 26
REMARK H PARENT
REMARK Flexibility Score: inf
ROOT
ATOM      1  C   UNL     1      33.125  32.601   2.004  1.00  0.00     0.000 C 
ENDROOT
BRANCH   1   2
ATOM      2  C   UNL     1      31.602  32.743   2.225  1.00  0.00     0.000 C 
BRANCH   2   3
ATOM      3  C   UNL     1      31.218  33.234   3.631  1.00  0.00     0.000 C 
BRANCH   3   4
ATOM      4  C   UNL     1      29.699  33.252   3.867  1.00  0.00     0.000 C 
BRANCH   4   5
ATOM      5  C   UNL     1      28.900  32.946   2.591  1.00  0.00     0.000 C 
BRANCH   5   6
ATOM      6  C   UNL     1      27.409  32.691   2.875  1.00  0.00     0.000 C 
BRANCH   6   7
ATOM      7  C   UNL     1      26.621  33.987   3.125  1.00  0.00     0.000 C 
BRANCH   7   8
ATOM      8  C   UNL     1      26.792  35.008   1.989  1.00  0.00     0.000 C 
BRANCH   8   9
ATOM      9  C   UNL     1      25.631  34.981   0.977  1.00  0.00     0.000 C 
BRANCH   9  10
ATOM     10  C   UNL     1      25.399  33.625   0.279  1.00  0.00     0.006 C 
BRANCH  10  11
ATOM     11  C   UNL     1      23.951  33.111   0.339  1.00  0.00     0.053 C 
BRANCH  11  12
ATOM     12  C   UNL     1      23.133  33.597  -0.820  1.00  0.00     0.041 C 
ATOM     13  O   UNL     1      23.377  33.185  -1.985  1.00  0.00    -0.550 OA
ATOM     14  O   UNL     1      22.118  34.521  -0.616  1.00  0.00    -0.550 OA
ENDBRANCH  11  12
ENDBRANCH  10  11
ENDBRANCH   9  10
ENDBRANCH   8   9
ENDBRANCH   7   8
ENDBRANCH   6   7
ENDBRANCH   5   6
ENDBRANCH   4   5
ENDBRANCH   3   4
ENDBRANCH   2   3
ENDBRANCH   1   2
BRANCH   1  15
ATOM     15  C   UNL     1      33.937  33.893   2.234  1.00  0.00     0.000 C 
BRANCH  15  16
ATOM     16  C   UNL     1      34.481  34.579   0.964  1.00  0.00     0.000 C 
BRANCH  16  17
ATOM     17  C   UNL     1      34.960  33.625  -0.142  1.00  0.00     0.000 C 
BRANCH  17  18
ATOM     18  C   UNL     1      34.140  33.755  -1.439  1.00  0.00    -0.000 C 
BRANCH  18  19
ATOM     19  C   UNL     1      33.292  32.496  -1.716  1.00  0.00    -0.000 C 
BRANCH  19  20
ATOM     20  C   UNL     1      31.784  32.710  -1.495  1.00  0.00    -0.000 C 
BRANCH  20  21
ATOM     21  C   UNL     1      31.409  34.191  -1.316  1.00  0.00    -0.000 C 
BRANCH  21  22
ATOM     22  C   UNL     1      30.037  34.375  -0.635  1.00  0.00    -0.000 C 
BRANCH  22  23
ATOM     23  C   UNL     1      29.924  35.663   0.203  1.00  0.00    -0.000 C 
BRANCH  23  24
ATOM     24  C   UNL     1      31.263  36.243   0.690  1.00  0.00    -0.000 C 
BRANCH  24  25
ATOM     25  C   UNL     1      31.256  36.574   2.190  1.00  0.00    -0.003 C 
ATOM     26  C   UNL     1      29.835  36.814   2.693  1.00  0.00     0.004 C 
ENDBRANCH  24  25
ENDBRANCH  23  24
ENDBRANCH  22  23
ENDBRANCH  21  22
ENDBRANCH  20  21
ENDBRANCH  19  20
ENDBRANCH  18  19
ENDBRANCH  17  18
ENDBRANCH  16  17
ENDBRANCH  15  16
ENDBRANCH   1  15
TORSDOF 22
ENDMDL
MODEL 2
REMARK VINA RESULT:    -3.651      1.462      3.801
REMARK INTER + INTRA:         -12.490
REMARK INTER:                  -8.323
REMARK INTRA:                  -4.167
REMARK UNBOUND:                -4.143
REMARK SMILES CCCCCCCCCCCCCCCCCCCCCCCC(=O)[O-]
REMARK SMILES IDX 13 1 14 2 15 3 16 4 17 5 18 6 19 7 20 8 21 9 22 10 23 11
REMARK SMILES IDX 24 12 25 13 26 14 12 15 11 16 10 17 9 18 8 19 7 20 6 21 5 22
REMARK SMILES IDX 4 23 3 24 2 25 1 26
REMARK H PARENT
REMARK Flexibility Score: inf
ROOT
ATOM      1  C   UNL     1      29.243  33.677   3.213  1.00  0.00     0.000 C 
ENDROOT
BRANCH   1   2
ATOM      2  C   UNL     1      28.340  32.966   2.179  1.00  0.00     0.000 C 
BRANCH   2   3
ATOM      3  C   UNL     1      26.863  32.874   2.598  1.00  0.00     0.000 C 
BRANCH   3   4
ATOM      4  C   UNL     1      25.925  33.667   1.674  1.00  0.00     0.000 C 
BRANCH   4   5
ATOM      5  C   UNL     1      26.651  34.234   0.443  1.00  0.00     0.000 C 
BRANCH   5   6
ATOM      6  C   UNL     1      26.440  35.750   0.281  1.00  0.00     0.000 C 
BRANCH   6   7
ATOM      7  C   UNL     1      25.774  36.393   1.508  1.00  0.00     0.000 C 
BRANCH   7   8
ATOM      8  C   UNL     1      24.701  37.425   1.124  1.00  0.00     0.000 C 
BRANCH   8   9
ATOM      9  C   UNL     1      23.711  36.897   0.069  1.00  0.00     0.000 C 
BRANCH   9  10
ATOM     10  C   UNL     1      22.847  35.699   0.519  1.00  0.00     0.006 C 
BRANCH  10  11
ATOM     11  C   UNL     1      22.256  34.866  -0.630  1.00  0.00     0.053 C 
BRANCH  11  12
ATOM     12  C   UNL     1      23.069  33.639  -0.911  1.00  0.00     0.041 C 
ATOM     13  O   UNL     1      24.041  33.690  -1.710  1.00  0.00    -0.550 OA
ATOM     14  O   UNL     1      22.740  32.432  -0.308  1.00  0.00    -0.550 OA
ENDBRANCH  11  12
ENDBRANCH  10  11
ENDBRANCH   9  10
ENDBRANCH   8   9
ENDBRANCH   7   8
ENDBRANCH   6   7
ENDBRANCH   5   6
ENDBRANCH   4   5
ENDBRANCH   3   4
ENDBRANCH   2   3
ENDBRANCH   1   2
BRANCH   1  15
ATOM     15  C   UNL     1      28.857  35.142   3.512  1.00  0.00     0.000 C 
BRANCH  15  16
ATOM     16  C   UNL     1      29.281  36.177   2.450  1.00  0.00     0.000 C 
BRANCH  16  17
ATOM     17  C   UNL     1      30.798  36.317   2.241  1.00  0.00     0.000 C 
BRANCH  17  18
ATOM     18  C   UNL     1      31.218  36.122   0.772  1.00  0.00    -0.000 C 
BRANCH  18  19
ATOM     19  C   UNL     1      30.138  35.381  -0.045  1.00  0.00    -0.000 C 
BRANCH  19  20
ATOM     20  C   UNL     1      30.703  34.263  -0.938  1.00  0.00    -0.000 C 
BRANCH  20  21
ATOM     21  C   UNL     1      31.278  33.086  -0.132  1.00  0.00    -0.000 C 
BRANCH  21  22
ATOM     22  C   UNL     1      32.786  32.876  -0.387  1.00  0.00    -0.000 C 
BRANCH  22  23
ATOM     23  C   UNL     1      33.669  33.134   0.848  1.00  0.00    -0.000 C 
BRANCH  23  24
ATOM     24  C   UNL     1      33.147  32.524   2.161  1.00  0.00    -0.000 C 
BRANCH  24  25
ATOM     25  C   UNL     1      32.874  33.583   3.240  1.00  0.00    -0.003 C 
ATOM     26  C   UNL     1      34.178  34.144   3.801  1.00  0.00     0.004 C 
ENDBRANCH  24  25
ENDBRANCH  23  24
ENDBRANCH  22  23
ENDBRANCH  21  22
ENDBRANCH  20  21
ENDBRANCH  19  20
ENDBRANCH  18  19
ENDBRANCH  17  18
ENDBRANCH  16  17
ENDBRANCH  15  16
ENDBRANCH   1  15
TORSDOF 22
ENDMDL
MODEL 3
REMARK VINA RESULT:    -3.620      1.674      2.891
REMARK INTER + INTRA:         -12.420
REMARK INTER:                  -8.042
REMARK INTRA:                  -4.378
REMARK UNBOUND:                -4.143
REMARK SMILES CCCCCCCCCCCCCCCCCCCCCCCC(=O)[O-]
REMARK SMILES IDX 13 1 14 2 15 3 16 4 17 5 18 6 19 7 20 8 21 9 22 10 23 11
REMARK SMILES IDX 24 12 25 13 26 14 12 15 11 16 10 17 9 18 8 19 7 20 6 21 5 22
REMARK SMILES IDX 4 23 3 24 2 25 1 26
REMARK H PARENT
REMARK Flexibility Score: inf
ROOT
ATOM      1  C   UNL     1      32.480  32.845   2.050  1.00  0.00     0.000 C 
ENDROOT
BRANCH   1   2
ATOM      2  C   UNL     1      30.965  33.017   2.301  1.00  0.00     0.000 C 
BRANCH   2   3
ATOM      3  C   UNL     1      30.597  33.233   3.778  1.00  0.00     0.000 C 
BRANCH   3   4
ATOM      4  C   UNL     1      29.079  33.318   4.013  1.00  0.00     0.000 C 
BRANCH   4   5
ATOM      5  C   UNL     1      28.267  32.855   2.793  1.00  0.00     0.000 C 
BRANCH   5   6
ATOM      6  C   UNL     1      26.770  33.190   2.921  1.00  0.00     0.000 C 
BRANCH   6   7
ATOM      7  C   UNL     1      26.040  33.177   1.568  1.00  0.00     0.000 C 
BRANCH   7   8
ATOM      8  C   UNL     1      25.202  34.445   1.338  1.00  0.00     0.000 C 
BRANCH   8   9
ATOM      9  C   UNL     1      25.224  34.922  -0.127  1.00  0.00     0.000 C 
BRANCH   9  10
ATOM     10  C   UNL     1      24.406  34.060  -1.111  1.00  0.00     0.006 C 
BRANCH  10  11
ATOM     11  C   UNL     1      22.900  33.993  -0.809  1.00  0.00     0.053 C 
BRANCH  11  12
ATOM     12  C   UNL     1      22.419  32.581  -0.657  1.00  0.00     0.041 C 
ATOM     13  O   UNL     1      23.010  31.790   0.124  1.00  0.00    -0.550 OA
ATOM     14  O   UNL     1      21.332  32.134  -1.396  1.00  0.00    -0.550 OA
ENDBRANCH  11  12
ENDBRANCH  10  11
ENDBRANCH   9  10
ENDBRANCH   8   9
ENDBRANCH   7   8
ENDBRANCH   6   7
ENDBRANCH   5   6
ENDBRANCH   4   5
ENDBRANCH   3   4
ENDBRANCH   2   3
ENDBRANCH   1   2
BRANCH   1  15
ATOM     15  C   UNL     1      33.391  33.467   3.130  1.00  0.00     0.000 C 
BRANCH  15  16
ATOM     16  C   UNL     1      33.885  34.901   2.846  1.00  0.00     0.000 C 
BRANCH  16  17
ATOM     17  C   UNL     1      33.833  35.332   1.371  1.00  0.00     0.000 C 
BRANCH  17  18
ATOM     18  C   UNL     1      32.880  36.518   1.131  1.00  0.00    -0.000 C 
BRANCH  18  19
ATOM     19  C   UNL     1      32.002  36.815   2.364  1.00  0.00    -0.000 C 
BRANCH  19  20
ATOM     20  C   UNL     1      30.633  37.422   2.012  1.00  0.00    -0.000 C 
BRANCH  20  21
ATOM     21  C   UNL     1      29.468  36.739   2.750  1.00  0.00    -0.000 C 
BRANCH  21  22
ATOM     22  C   UNL     1      28.297  36.388   1.807  1.00  0.00    -0.000 C 
BRANCH  22  23
ATOM     23  C   UNL     1      28.702  36.275   0.325  1.00  0.00    -0.000 C 
BRANCH  23  24
ATOM     24  C   UNL     1      28.942  34.841  -0.177  1.00  0.00    -0.000 C 
BRANCH  24  25
ATOM     25  C   UNL     1      30.301  34.676  -0.874  1.00  0.00    -0.003 C 
ATOM     26  C   UNL     1      30.642  35.905  -1.713  1.00  0.00     0.004 C 
ENDBRANCH  24  25
ENDBRANCH  23  24
ENDBRANCH  22  23
ENDBRANCH  21  22
ENDBRANCH  20  21
ENDBRANCH  19  20
ENDBRANCH  18  19
ENDBRANCH  17  18
ENDBRANCH  16  17
ENDBRANCH  15  16
ENDBRANCH   1  15
TORSDOF 22
ENDMDL
MODEL 4
REMARK VINA RESULT:    -3.570      2.831      6.830
REMARK INTER + INTRA:         -12.305
REMARK INTER:                  -7.874
REMARK INTRA:                  -4.431
REMARK UNBOUND:                -4.143
REMARK SMILES CCCCCCCCCCCCCCCCCCCCCCCC(=O)[O-]
REMARK SMILES IDX 13 1 14 2 15 3 16 4 17 5 18 6 19 7 20 8 21 9 22 10 23 11
REMARK SMILES IDX 24 12 25 13 26 14 12 15 11 16 10 17 9 18 8 19 7 20 6 21 5 22
REMARK SMILES IDX 4 23 3 24 2 25 1 26
REMARK H PARENT
REMARK Flexibility Score: inf
ROOT
ATOM      1  C   UNL     1      29.846  33.131   3.892  1.00  0.00     0.000 C 
ENDROOT
BRANCH   1   2
ATOM      2  C   UNL     1      30.838  33.808   2.920  1.00  0.00     0.000 C 
BRANCH   2   3
ATOM      3  C   UNL     1      31.500  32.838   1.926  1.00  0.00     0.000 C 
BRANCH   3   4
ATOM      4  C   UNL     1      33.015  32.695   2.144  1.00  0.00     0.000 C 
BRANCH   4   5
ATOM      5  C   UNL     1      33.522  33.536   3.327  1.00  0.00     0.000 C 
BRANCH   5   6
ATOM      6  C   UNL     1      34.481  34.657   2.885  1.00  0.00     0.000 C 
BRANCH   6   7
ATOM      7  C   UNL     1      33.788  36.025   2.780  1.00  0.00     0.000 C 
BRANCH   7   8
ATOM      8  C   UNL     1      33.748  36.556   1.338  1.00  0.00     0.000 C 
BRANCH   8   9
ATOM      9  C   UNL     1      32.470  36.145   0.582  1.00  0.00     0.000 C 
BRANCH   9  10
ATOM     10  C   UNL     1      32.682  35.731  -0.890  1.00  0.00     0.006 C 
BRANCH  10  11
ATOM     11  C   UNL     1      33.494  34.439  -1.084  1.00  0.00     0.053 C 
BRANCH  11  12
ATOM     12  C   UNL     1      32.644  33.311  -1.584  1.00  0.00     0.041 C 
ATOM     13  O   UNL     1      33.069  32.126  -1.536  1.00  0.00    -0.550 OA
ATOM     14  O   UNL     1      31.392  33.570  -2.125  1.00  0.00    -0.550 OA
ENDBRANCH  11  12
ENDBRANCH  10  11
ENDBRANCH   9  10
ENDBRANCH   8   9
ENDBRANCH   7   8
ENDBRANCH   6   7
ENDBRANCH   5   6
ENDBRANCH   4   5
ENDBRANCH   3   4
ENDBRANCH   2   3
ENDBRANCH   1   2
BRANCH   1  15
ATOM     15  C   UNL     1      28.391  33.637   3.790  1.00  0.00     0.000 C 
BRANCH  15  16
ATOM     16  C   UNL     1      27.509  32.938   2.735  1.00  0.00     0.000 C 
BRANCH  16  17
ATOM     17  C   UNL     1      26.182  33.645   2.417  1.00  0.00     0.000 C 
BRANCH  17  18
ATOM     18  C   UNL     1      25.686  33.369   0.986  1.00  0.00    -0.000 C 
BRANCH  18  19
ATOM     19  C   UNL     1      25.188  34.652   0.287  1.00  0.00    -0.000 C 
BRANCH  19  20
ATOM     20  C   UNL     1      24.424  35.604   1.224  1.00  0.00    -0.000 C 
BRANCH  20  21
ATOM     21  C   UNL     1      24.783  37.082   0.996  1.00  0.00    -0.000 C 
BRANCH  21  22
ATOM     22  C   UNL     1      26.286  37.289   0.714  1.00  0.00    -0.000 C 
BRANCH  22  23
ATOM     23  C   UNL     1      27.183  37.122   1.956  1.00  0.00    -0.000 C 
BRANCH  23  24
ATOM     24  C   UNL     1      28.612  36.632   1.667  1.00  0.00    -0.000 C 
BRANCH  24  25
ATOM     25  C   UNL     1      28.845  36.326   0.179  1.00  0.00    -0.003 C 
ATOM     26  C   UNL     1      28.962  34.824  -0.061  1.00  0.00     0.004 C 
ENDBRANCH  24  25
ENDBRANCH  23  24
ENDBRANCH  22  23
ENDBRANCH  21  22
ENDBRANCH  20  21
ENDBRANCH  19  20
ENDBRANCH  18  19
ENDBRANCH  17  18
ENDBRANCH  16  17
ENDBRANCH  15  16
ENDBRANCH   1  15
TORSDOF 22
ENDMDL
MODEL 5
REMARK VINA RESULT:    -3.566      3.192      6.466
REMARK INTER + INTRA:         -12.295
REMARK INTER:                  -8.154
REMARK INTRA:                  -4.141
REMARK UNBOUND:                -4.143
REMARK SMILES CCCCCCCCCCCCCCCCCCCCCCCC(=O)[O-]
REMARK SMILES IDX 13 1 14 2 15 3 16 4 17 5 18 6 19 7 20 8 21 9 22 10 23 11
REMARK SMILES IDX 24 12 25 13 26 14 12 15 11 16 10 17 9 18 8 19 7 20 6 21 5 22
REMARK SMILES IDX 4 23 3 24 2 25 1 26
REMARK H PARENT
REMARK Flexibility Score: inf
ROOT
ATOM      1  C   UNL     1      29.768  33.262   3.989  1.00  0.00     0.000 C 
ENDROOT
BRANCH   1   2
ATOM      2  C   UNL     1      30.675  33.149   2.743  1.00  0.00     0.000 C 
BRANCH   2   3
ATOM      3  C   UNL     1      32.178  33.247   3.054  1.00  0.00     0.000 C 
BRANCH   3   4
ATOM      4  C   UNL     1      33.057  32.554   1.999  1.00  0.00     0.000 C 
BRANCH   4   5
ATOM      5  C   UNL     1      33.517  33.515   0.892  1.00  0.00     0.000 C 
BRANCH   5   6
ATOM      6  C   UNL     1      33.280  32.947  -0.518  1.00  0.00     0.000 C 
BRANCH   6   7
ATOM      7  C   UNL     1      31.788  32.767  -0.843  1.00  0.00     0.000 C 
BRANCH   7   8
ATOM      8  C   UNL     1      31.112  34.085  -1.256  1.00  0.00     0.000 C 
BRANCH   8   9
ATOM      9  C   UNL     1      29.907  34.446  -0.368  1.00  0.00     0.000 C 
BRANCH   9  10
ATOM     10  C   UNL     1      29.900  35.890   0.175  1.00  0.00     0.006 C 
BRANCH  10  11
ATOM     11  C   UNL     1      31.291  36.466   0.490  1.00  0.00     0.053 C 
BRANCH  11  12
ATOM     12  C   UNL     1      31.467  36.743   1.953  1.00  0.00     0.041 C 
ATOM     13  O   UNL     1      30.476  37.057   2.663  1.00  0.00    -0.550 OA
ATOM     14  O   UNL     1      32.730  36.677   2.526  1.00  0.00    -0.550 OA
ENDBRANCH  11  12
ENDBRANCH  10  11
ENDBRANCH   9  10
ENDBRANCH   8   9
ENDBRANCH   7   8
ENDBRANCH   6   7
ENDBRANCH   5   6
ENDBRANCH   4   5
ENDBRANCH   3   4
ENDBRANCH   2   3
ENDBRANCH   1   2
BRANCH   1  15
ATOM     15  C   UNL     1      28.602  34.265   3.854  1.00  0.00     0.000 C 
BRANCH  15  16
ATOM     16  C   UNL     1      27.195  33.646   3.725  1.00  0.00     0.000 C 
BRANCH  16  17
ATOM     17  C   UNL     1      26.926  32.897   2.410  1.00  0.00     0.000 C 
BRANCH  17  18
ATOM     18  C   UNL     1      26.630  33.846   1.233  1.00  0.00    -0.000 C 
BRANCH  18  19
ATOM     19  C   UNL     1      25.293  33.510   0.540  1.00  0.00    -0.000 C 
BRANCH  19  20
ATOM     20  C   UNL     1      25.145  34.147  -0.852  1.00  0.00    -0.000 C 
BRANCH  20  21
ATOM     21  C   UNL     1      26.462  34.740  -1.382  1.00  0.00    -0.000 C 
BRANCH  21  22
ATOM     22  C   UNL     1      26.283  36.165  -1.948  1.00  0.00    -0.000 C 
BRANCH  22  23
ATOM     23  C   UNL     1      25.709  37.171  -0.932  1.00  0.00    -0.000 C 
BRANCH  23  24
ATOM     24  C   UNL     1      26.580  37.407   0.314  1.00  0.00    -0.000 C 
BRANCH  24  25
ATOM     25  C   UNL     1      25.770  37.375   1.619  1.00  0.00    -0.003 C 
ATOM     26  C   UNL     1      24.298  37.084   1.345  1.00  0.00     0.004 C 
ENDBRANCH  24  25
ENDBRANCH  23  24
ENDBRANCH  22  23
ENDBRANCH  21  22
ENDBRANCH  20  21
ENDBRANCH  19  20
ENDBRANCH  18  19
ENDBRANCH  17  18
ENDBRANCH  16  17
ENDBRANCH  15  16
ENDBRANCH   1  15
TORSDOF 22
ENDMDL
MODEL 6
REMARK VINA RESULT:    -3.553      1.762      3.347
REMARK INTER + INTRA:         -12.267
REMARK INTER:                  -8.163
REMARK INTRA:                  -4.104
REMARK UNBOUND:                -4.143
REMARK SMILES CCCCCCCCCCCCCCCCCCCCCCCC(=O)[O-]
REMARK SMILES IDX 13 1 14 2 15 3 16 4 17 5 18 6 19 7 20 8 21 9 22 10 23 11
REMARK SMILES IDX 24 12 25 13 26 14 12 15 11 16 10 17 9 18 8 19 7 20 6 21 5 22
REMARK SMILES IDX 4 23 3 24 2 25 1 26
REMARK H PARENT
REMARK Flexibility Score: inf
ROOT
ATOM      1  C   UNL     1      33.318  32.939   2.456  1.00  0.00     0.000 C 
ENDROOT
BRANCH   1   2
ATOM      2  C   UNL     1      31.792  32.718   2.358  1.00  0.00     0.000 C 
BRANCH   2   3
ATOM      3  C   UNL     1      31.008  33.216   3.583  1.00  0.00     0.000 C 
BRANCH   3   4
ATOM      4  C   UNL     1      29.511  32.871   3.521  1.00  0.00     0.000 C 
BRANCH   4   5
ATOM      5  C   UNL     1      28.626  33.971   4.127  1.00  0.00     0.000 C 
BRANCH   5   6
ATOM      6  C   UNL     1      27.196  33.959   3.556  1.00  0.00     0.000 C 
BRANCH   6   7
ATOM      7  C   UNL     1      27.034  32.982   2.380  1.00  0.00     0.000 C 
BRANCH   7   8
ATOM      8  C   UNL     1      25.734  33.218   1.594  1.00  0.00     0.000 C 
BRANCH   8   9
ATOM      9  C   UNL     1      25.975  33.857   0.214  1.00  0.00     0.000 C 
BRANCH   9  10
ATOM     10  C   UNL     1      25.166  35.142  -0.066  1.00  0.00     0.006 C 
BRANCH  10  11
ATOM     11  C   UNL     1      24.063  35.443   0.961  1.00  0.00     0.053 C 
BRANCH  11  12
ATOM     12  C   UNL     1      23.989  36.903   1.295  1.00  0.00     0.041 C 
ATOM     13  O   UNL     1      22.941  37.557   1.050  1.00  0.00    -0.550 OA
ATOM     14  O   UNL     1      25.085  37.544   1.856  1.00  0.00    -0.550 OA
ENDBRANCH  11  12
ENDBRANCH  10  11
ENDBRANCH   9  10
ENDBRANCH   8   9
ENDBRANCH   7   8
ENDBRANCH   6   7
ENDBRANCH   5   6
ENDBRANCH   4   5
ENDBRANCH   3   4
ENDBRANCH   2   3
ENDBRANCH   1   2
BRANCH   1  15
ATOM     15  C   UNL     1      33.744  34.149   3.316  1.00  0.00     0.000 C 
BRANCH  15  16
ATOM     16  C   UNL     1      34.197  35.400   2.536  1.00  0.00     0.000 C 
BRANCH  16  17
ATOM     17  C   UNL     1      33.338  35.756   1.311  1.00  0.00     0.000 C 
BRANCH  17  18
ATOM     18  C   UNL     1      32.375  36.927   1.577  1.00  0.00    -0.000 C 
BRANCH  18  19
ATOM     19  C   UNL     1      31.021  36.446   2.139  1.00  0.00    -0.000 C 
BRANCH  19  20
ATOM     20  C   UNL     1      29.805  37.040   1.407  1.00  0.00    -0.000 C 
BRANCH  20  21
ATOM     21  C   UNL     1      28.838  35.966   0.882  1.00  0.00    -0.000 C 
BRANCH  21  22
ATOM     22  C   UNL     1      29.575  34.752   0.278  1.00  0.00    -0.000 C 
BRANCH  22  23
ATOM     23  C   UNL     1      30.016  34.955  -1.184  1.00  0.00    -0.000 C 
BRANCH  23  24
ATOM     24  C   UNL     1      31.424  34.434  -1.518  1.00  0.00    -0.000 C 
BRANCH  24  25
ATOM     25  C   UNL     1      31.589  32.936  -1.223  1.00  0.00    -0.003 C 
ATOM     26  C   UNL     1      33.042  32.500  -1.386  1.00  0.00     0.004 C 
ENDBRANCH  24  25
ENDBRANCH  23  24
ENDBRANCH  22  23
ENDBRANCH  21  22
ENDBRANCH  20  21
ENDBRANCH  19  20
ENDBRANCH  18  19
ENDBRANCH  17  18
ENDBRANCH  16  17
ENDBRANCH  15  16
ENDBRANCH   1  15
TORSDOF 22
ENDMDL
MODEL 7
REMARK VINA RESULT:    -3.550      4.322      8.056
REMARK INTER + INTRA:         -12.260
REMARK INTER:                  -8.408
REMARK INTRA:                  -3.852
REMARK UNBOUND:                -4.143
REMARK SMILES CCCCCCCCCCCCCCCCCCCCCCCC(=O)[O-]
REMARK SMILES IDX 13 1 14 2 15 3 16 4 17 5 18 6 19 7 20 8 21 9 22 10 23 11
REMARK SMILES IDX 24 12 25 13 26 14 12 15 11 16 10 17 9 18 8 19 7 20 6 21 5 22
REMARK SMILES IDX 4 23 3 24 2 25 1 26
REMARK H PARENT
REMARK Flexibility Score: inf
ROOT
ATOM      1  C   UNL     1      26.929  33.490   3.310  1.00  0.00     0.000 C 
ENDROOT
BRANCH   1   2
ATOM      2  C   UNL     1      28.197  34.175   3.867  1.00  0.00     0.000 C 
BRANCH   2   3
ATOM      3  C   UNL     1      29.376  33.214   4.099  1.00  0.00     0.000 C 
BRANCH   3   4
ATOM      4  C   UNL     1      30.575  33.500   3.181  1.00  0.00     0.000 C 
BRANCH   4   5
ATOM      5  C   UNL     1      30.395  32.910   1.774  1.00  0.00     0.000 C 
BRANCH   5   6
ATOM      6  C   UNL     1      31.687  32.971   0.939  1.00  0.00     0.000 C 
BRANCH   6   7
ATOM      7  C   UNL     1      32.957  32.907   1.804  1.00  0.00     0.000 C 
BRANCH   7   8
ATOM      8  C   UNL     1      34.157  33.602   1.140  1.00  0.00     0.000 C 
BRANCH   8   9
ATOM      9  C   UNL     1      35.007  34.414   2.135  1.00  0.00     0.000 C 
BRANCH   9  10
ATOM     10  C   UNL     1      34.477  34.440   3.584  1.00  0.00     0.006 C 
BRANCH  10  11
ATOM     11  C   UNL     1      35.567  34.515   4.666  1.00  0.00     0.053 C 
BRANCH  11  12
ATOM     12  C   UNL     1      35.132  35.330   5.846  1.00  0.00     0.041 C 
ATOM     13  O   UNL     1      34.949  34.781   6.965  1.00  0.00    -0.550 OA
ATOM     14  O   UNL     1      34.908  36.693   5.706  1.00  0.00    -0.550 OA
ENDBRANCH  11  12
ENDBRANCH  10  11
ENDBRANCH   9  10
ENDBRANCH   8   9
ENDBRANCH   7   8
ENDBRANCH   6   7
ENDBRANCH   5   6
ENDBRANCH   4   5
ENDBRANCH   3   4
ENDBRANCH   2   3
ENDBRANCH   1   2
BRANCH   1  15
ATOM     15  C   UNL     1      26.882  33.365   1.772  1.00  0.00     0.000 C 
BRANCH  15  16
ATOM     16  C   UNL     1      25.475  33.228   1.153  1.00  0.00     0.000 C 
BRANCH  16  17
ATOM     17  C   UNL     1      24.547  34.436   1.361  1.00  0.00     0.000 C 
BRANCH  17  18
ATOM     18  C   UNL     1      25.038  35.698   0.628  1.00  0.00    -0.000 C 
BRANCH  18  19
ATOM     19  C   UNL     1      25.264  36.878   1.597  1.00  0.00    -0.000 C 
BRANCH  19  20
ATOM     20  C   UNL     1      26.748  37.148   1.901  1.00  0.00    -0.000 C 
BRANCH  20  21
ATOM     21  C   UNL     1      27.669  36.835   0.710  1.00  0.00    -0.000 C 
BRANCH  21  22
ATOM     22  C   UNL     1      29.080  36.394   1.155  1.00  0.00    -0.000 C 
BRANCH  22  23
ATOM     23  C   UNL     1      29.577  37.092   2.435  1.00  0.00    -0.000 C 
BRANCH  23  24
ATOM     24  C   UNL     1      30.990  37.693   2.342  1.00  0.00    -0.000 C 
BRANCH  24  25
ATOM     25  C   UNL     1      32.055  36.651   1.966  1.00  0.00    -0.003 C 
ATOM     26  C   UNL     1      32.562  36.872   0.544  1.00  0.00     0.004 C 
ENDBRANCH  24  25
ENDBRANCH  23  24
ENDBRANCH  22  23
ENDBRANCH  21  22
ENDBRANCH  20  21
ENDBRANCH  19  20
ENDBRANCH  18  19
ENDBRANCH  17  18
ENDBRANCH  16  17
ENDBRANCH  15  16
ENDBRANCH   1  15
TORSDOF 22
ENDMDL
MODEL 8
REMARK VINA RESULT:    -3.550      1.905      3.429
REMARK INTER + INTRA:         -12.258
REMARK INTER:                  -8.217
REMARK INTRA:                  -4.041
REMARK UNBOUND:                -4.143
REMARK SMILES CCCCCCCCCCCCCCCCCCCCCCCC(=O)[O-]
REMARK SMILES IDX 13 1 14 2 15 3 16 4 17 5 18 6 19 7 20 8 21 9 22 10 23 11
REMARK SMILES IDX 24 12 25 13 26 14 12 15 11 16 10 17 9 18 8 19 7 20 6 21 5 22
REMARK SMILES IDX 4 23 3 24 2 25 1 26
REMARK H PARENT
REMARK Flexibility Score: inf
ROOT
ATOM      1  C   UNL     1      29.341  33.012   3.195  1.00  0.00     0.000 C 
ENDROOT
BRANCH   1   2
ATOM      2  C   UNL     1      28.327  33.880   3.973  1.00  0.00     0.000 C 
BRANCH   2   3
ATOM      3  C   UNL     1      26.857  33.591   3.622  1.00  0.00     0.000 C 
BRANCH   3   4
ATOM      4  C   UNL     1      26.690  32.905   2.256  1.00  0.00     0.000 C 
BRANCH   4   5
ATOM      5  C   UNL     1      26.177  33.868   1.173  1.00  0.00     0.000 C 
BRANCH   5   6
ATOM      6  C   UNL     1      24.882  33.370   0.507  1.00  0.00     0.000 C 
BRANCH   6   7
ATOM      7  C   UNL     1      24.742  33.842  -0.950  1.00  0.00     0.000 C 
BRANCH   7   8
ATOM      8  C   UNL     1      26.069  34.356  -1.532  1.00  0.00     0.000 C 
BRANCH   8   9
ATOM      9  C   UNL     1      26.011  35.840  -1.939  1.00  0.00     0.000 C 
BRANCH   9  10
ATOM     10  C   UNL     1      25.014  36.703  -1.138  1.00  0.00     0.006 C 
BRANCH  10  11
ATOM     11  C   UNL     1      25.611  37.400   0.095  1.00  0.00     0.053 C 
BRANCH  11  12
ATOM     12  C   UNL     1      24.705  37.311   1.286  1.00  0.00     0.041 C 
ATOM     13  O   UNL     1      24.999  37.909   2.354  1.00  0.00    -0.550 OA
ATOM     14  O   UNL     1      23.547  36.548   1.223  1.00  0.00    -0.550 OA
ENDBRANCH  11  12
ENDBRANCH  10  11
ENDBRANCH   9  10
ENDBRANCH   8   9
ENDBRANCH   7   8
ENDBRANCH   6   7
ENDBRANCH   5   6
ENDBRANCH   4   5
ENDBRANCH   3   4
ENDBRANCH   2   3
ENDBRANCH   1   2
BRANCH   1  15
ATOM     15  C   UNL     1      30.768  32.997   3.784  1.00  0.00     0.000 C 
BRANCH  15  16
ATOM     16  C   UNL     1      31.751  34.027   3.189  1.00  0.00     0.000 C 
BRANCH  16  17
ATOM     17  C   UNL     1      33.166  33.496   2.908  1.00  0.00     0.000 C 
BRANCH  17  18
ATOM     18  C   UNL     1      33.197  32.448   1.780  1.00  0.00    -0.000 C 
BRANCH  18  19
ATOM     19  C   UNL     1      33.313  33.101   0.387  1.00  0.00    -0.000 C 
BRANCH  19  20
ATOM     20  C   UNL     1      32.014  33.033  -0.434  1.00  0.00    -0.000 C 
BRANCH  20  21
ATOM     21  C   UNL     1      31.289  34.387  -0.523  1.00  0.00    -0.000 C 
BRANCH  21  22
ATOM     22  C   UNL     1      29.825  34.306  -0.041  1.00  0.00    -0.000 C 
BRANCH  22  23
ATOM     23  C   UNL     1      29.197  35.677   0.275  1.00  0.00    -0.000 C 
BRANCH  23  24
ATOM     24  C   UNL     1      29.739  36.365   1.540  1.00  0.00    -0.000 C 
BRANCH  24  25
ATOM     25  C   UNL     1      28.642  37.080   2.343  1.00  0.00    -0.003 C 
ATOM     26  C   UNL     1      29.219  37.749   3.588  1.00  0.00     0.004 C 
ENDBRANCH  24  25
ENDBRANCH  23  24
ENDBRANCH  22  23
ENDBRANCH  21  22
ENDBRANCH  20  21
ENDBRANCH  19  20
ENDBRANCH  18  19
ENDBRANCH  17  18
ENDBRANCH  16  17
ENDBRANCH  15  16
ENDBRANCH   1  15
TORSDOF 22
ENDMDL
MODEL 9
REMARK VINA RESULT:    -3.492      2.233      4.317
REMARK INTER + INTRA:         -12.127
REMARK INTER:                  -8.739
REMARK INTRA:                  -3.387
REMARK UNBOUND:                -4.143
REMARK SMILES CCCCCCCCCCCCCCCCCCCCCCCC(=O)[O-]
REMARK SMILES IDX 13 1 14 2 15 3 16 4 17 5 18 6 19 7 20 8 21 9 22 10 23 11
REMARK SMILES IDX 24 12 25 13 26 14 12 15 11 16 10 17 9 18 8 19 7 20 6 21 5 22
REMARK SMILES IDX 4 23 3 24 2 25 1 26
REMARK H PARENT
REMARK Flexibility Score: inf
ROOT
ATOM      1  C   UNL     1      28.603  34.003   4.232  1.00  0.00     0.000 C 
ENDROOT
BRANCH   1   2
ATOM      2  C   UNL     1      27.182  33.621   3.762  1.00  0.00     0.000 C 
BRANCH   2   3
ATOM      3  C   UNL     1      27.144  32.911   2.399  1.00  0.00     0.000 C 
BRANCH   3   4
ATOM      4  C   UNL     1      26.314  33.668   1.349  1.00  0.00     0.000 C 
BRANCH   4   5
ATOM      5  C   UNL     1      27.190  34.398   0.320  1.00  0.00     0.000 C 
BRANCH   5   6
ATOM      6  C   UNL     1      26.880  35.905   0.246  1.00  0.00     0.000 C 
BRANCH   6   7
ATOM      7  C   UNL     1      26.809  36.566   1.632  1.00  0.00     0.000 C 
BRANCH   7   8
ATOM      8  C   UNL     1      25.509  37.360   1.840  1.00  0.00     0.000 C 
BRANCH   8   9
ATOM      9  C   UNL     1      24.485  37.141   0.711  1.00  0.00     0.000 C 
BRANCH   9  10
ATOM     10  C   UNL     1      23.294  36.229   1.071  1.00  0.00     0.006 C 
BRANCH  10  11
ATOM     11  C   UNL     1      22.580  35.597  -0.134  1.00  0.00     0.053 C 
BRANCH  11  12
ATOM     12  C   UNL     1      23.304  34.389  -0.647  1.00  0.00     0.041 C 
ATOM     13  O   UNL     1      23.106  33.260  -0.125  1.00  0.00    -0.550 OA
ATOM     14  O   UNL     1      24.215  34.514  -1.688  1.00  0.00    -0.550 OA
ENDBRANCH  11  12
ENDBRANCH  10  11
ENDBRANCH   9  10
ENDBRANCH   8   9
ENDBRANCH   7   8
ENDBRANCH   6   7
ENDBRANCH   5   6
ENDBRANCH   4   5
ENDBRANCH   3   4
ENDBRANCH   2   3
ENDBRANCH   1   2
BRANCH   1  15
ATOM     15  C   UNL     1      29.709  33.814   3.172  1.00  0.00     0.000 C 
BRANCH  15  16
ATOM     16  C   UNL     1      30.188  35.099   2.464  1.00  0.00     0.000 C 
BRANCH  16  17
ATOM     17  C   UNL     1      30.694  34.905   1.025  1.00  0.00     0.000 C 
BRANCH  17  18
ATOM     18  C   UNL     1      30.826  33.421   0.635  1.00  0.00    -0.000 C 
BRANCH  18  19
ATOM     19  C   UNL     1      32.300  32.997   0.464  1.00  0.00    -0.000 C 
BRANCH  19  20
ATOM     20  C   UNL     1      32.989  32.620   1.787  1.00  0.00    -0.000 C 
BRANCH  20  21
ATOM     21  C   UNL     1      34.056  33.640   2.218  1.00  0.00    -0.000 C 
BRANCH  21  22
ATOM     22  C   UNL     1      33.901  34.070   3.692  1.00  0.00    -0.000 C 
BRANCH  22  23
ATOM     23  C   UNL     1      34.814  35.242   4.100  1.00  0.00    -0.000 C 
BRANCH  23  24
ATOM     24  C   UNL     1      35.946  34.876   5.077  1.00  0.00    -0.000 C 
BRANCH  24  25
ATOM     25  C   UNL     1      35.866  35.658   6.396  1.00  0.00    -0.003 C 
ATOM     26  C   UNL     1      34.763  35.108   7.296  1.00  0.00     0.004 C 
ENDBRANCH  24  25
ENDBRANCH  23  24
ENDBRANCH  22  23
ENDBRANCH  21  22
ENDBRANCH  20  21
ENDBRANCH  19  20
ENDBRANCH  18  19
ENDBRANCH  17  18
ENDBRANCH  16  17
ENDBRANCH  15  16
ENDBRANCH   1  15
TORSDOF 22
ENDMDL
