MODEL 1
REMARK VINA RESULT:    -4.848      0.000      0.000
REMARK INTER + INTRA:         -17.330
REMARK INTER:                 -12.782
REMARK INTRA:                  -4.548
REMARK UNBOUND:                -4.548
REMARK SMILES CCCCCCCCCCCCCCCCCCCCCCCCCCCCCC(=O)[O-]
REMARK SMILES IDX 16 1 17 2 18 3 19 4 20 5 21 6 22 7 23 8 24 9 25 10 26 11
REMARK SMILES IDX 27 12 28 13 29 14 30 15 31 16 32 17 15 18 14 19 13 20 12 21
REMARK SMILES IDX 11 22 10 23 9 24 8 25 7 26 6 27 5 28 4 29 3 30 2 31 1 32
REMARK H PARENT
REMARK Flexibility Score: inf
ROOT
ATOM      1  C   UNL     1      -5.527   6.541  16.114  1.00  0.00     0.000 C 
ENDROOT
BRANCH   1   2
ATOM      2  C   UNL     1      -6.921   7.052  16.511  1.00  0.00     0.000 C 
BRANCH   2   3
ATOM      3  C   UNL     1      -8.038   6.757  15.491  1.00  0.00     0.000 C 
BRANCH   3   4
ATOM      4  C   UNL     1      -8.090   5.286  15.017  1.00  0.00     0.000 C 
BRANCH   4   5
ATOM      5  C   UNL     1      -8.648   5.076  13.593  1.00  0.00     0.000 C 
BRANCH   5   6
ATOM      6  C   UNL     1      -7.681   4.417  12.586  1.00  0.00     0.000 C 
BRANCH   6   7
ATOM      7  C   UNL     1      -6.206   4.363  13.026  1.00  0.00     0.000 C 
BRANCH   7   8
ATOM      8  C   UNL     1      -5.362   5.578  12.602  1.00  0.00     0.000 C 
BRANCH   8   9
ATOM      9  C   UNL     1      -5.691   6.066  11.180  1.00  0.00     0.000 C 
BRANCH   9  10
ATOM     10  C   UNL     1      -6.258   7.499  11.172  1.00  0.00     0.000 C 
BRANCH  10  11
ATOM     11  C   UNL     1      -6.664   8.024  12.563  1.00  0.00     0.000 C 
BRANCH  11  12
ATOM     12  C   UNL     1      -6.099   9.417  12.905  1.00  0.00     0.000 C 
BRANCH  12  13
ATOM     13  C   UNL     1      -4.841   9.342  13.788  1.00  0.00     0.006 C 
BRANCH  13  14
ATOM     14  C   UNL     1      -3.553   9.588  12.991  1.00  0.00     0.053 C 
BRANCH  14  15
ATOM     15  C   UNL     1      -2.904   8.310  12.560  1.00  0.00     0.041 C 
ATOM     16  O   UNL     1      -2.706   8.078  11.336  1.00  0.00    -0.550 OA
ATOM     17  O   UNL     1      -2.485   7.387  13.511  1.00  0.00    -0.550 OA
ENDBRANCH  14  15
ENDBRANCH  13  14
ENDBRANCH  12  13
ENDBRANCH  11  12
ENDBRANCH  10  11
ENDBRANCH   9  10
ENDBRANCH   8   9
ENDBRANCH   7   8
ENDBRANCH   6   7
ENDBRANCH   5   6
ENDBRANCH   4   5
ENDBRANCH   3   4
ENDBRANCH   2   3
ENDBRANCH   1   2
BRANCH   1  18
ATOM     18  C   UNL     1      -4.896   5.638  17.188  1.00  0.00     0.000 C 
BRANCH  18  19
ATOM     19  C   UNL     1      -5.354   4.176  17.077  1.00  0.00     0.000 C 
BRANCH  19  20
ATOM     20  C   UNL     1      -4.500   3.359  16.095  1.00  0.00     0.000 C 
BRANCH  20  21
ATOM     21  C   UNL     1      -3.485   2.487  16.845  1.00  0.00     0.000 C 
BRANCH  21  22
ATOM     22  C   UNL     1      -2.068   3.070  16.738  1.00  0.00     0.000 C 
BRANCH  22  23
ATOM     23  C   UNL     1      -1.919   4.074  15.582  1.00  0.00     0.000 C 
BRANCH  23  24
ATOM     24  C   UNL     1      -1.314   5.414  16.033  1.00  0.00    -0.000 C 
BRANCH  24  25
ATOM     25  C   UNL     1      -0.076   5.232  16.927  1.00  0.00    -0.000 C 
BRANCH  25  26
ATOM     26  C   UNL     1      -0.186   5.999  18.252  1.00  0.00    -0.000 C 
BRANCH  26  27
ATOM     27  C   UNL     1       0.255   7.462  18.081  1.00  0.00    -0.000 C 
BRANCH  27  28
ATOM     28  C   UNL     1       0.988   8.007  19.327  1.00  0.00    -0.000 C 
BRANCH  28  29
ATOM     29  C   UNL     1       0.445   7.451  20.659  1.00  0.00    -0.000 C 
BRANCH  29  30
ATOM     30  C   UNL     1       1.514   6.926  21.635  1.00  0.00    -0.000 C 
BRANCH  30  31
ATOM     31  C   UNL     1       0.979   6.515  23.018  1.00  0.00    -0.003 C 
ATOM     32  C   UNL     1      -0.547   6.460  23.074  1.00  0.00     0.004 C 
ENDBRANCH  30  31
ENDBRANCH  29  30
ENDBRANCH  28  29
ENDBRANCH  27  28
ENDBRANCH  26  27
ENDBRANCH  25  26
ENDBRANCH  24  25
ENDBRANCH  23  24
ENDBRANCH  22  23
ENDBRANCH  21  22
ENDBRANCH  20  21
ENDBRANCH  19  20
ENDBRANCH  18  19
ENDBRANCH   1  18
TORSDOF 28
ENDMDL
MODEL 2
REMARK VINA RESULT:    -4.668      2.616      8.604
REMARK INTER + INTRA:         -16.856
REMARK INTER:                 -13.526
REMARK INTRA:                  -3.330
REMARK UNBOUND:                -4.548
REMARK SMILES CCCCCCCCCCCCCCCCCCCCCCCCCCCCCC(=O)[O-]
REMARK SMILES IDX 16 1 17 2 18 3 19 4 20 5 21 6 22 7 23 8 24 9 25 10 26 11
REMARK SMILES IDX 27 12 28 13 29 14 30 15 31 16 32 17 15 18 14 19 13 20 12 21
REMARK SMILES IDX 11 22 10 23 9 24 8 25 7 26 6 27 5 28 4 29 3 30 2 31 1 32
REMARK H PARENT
REMARK Flexibility Score: inf
ROOT
ATOM      1  C   UNL     1      -5.162   3.991  16.460  1.00  0.00     0.000 C 
ENDROOT
BRANCH   1   2
ATOM      2  C   UNL     1      -4.421   2.653  16.610  1.00  0.00     0.000 C 
BRANCH   2   3
ATOM      3  C   UNL     1      -2.888   2.768  16.724  1.00  0.00     0.000 C 
BRANCH   3   4
ATOM      4  C   UNL     1      -2.250   3.755  15.720  1.00  0.00     0.000 C 
BRANCH   4   5
ATOM      5  C   UNL     1      -1.669   5.041  16.346  1.00  0.00     0.000 C 
BRANCH   5   6
ATOM      6  C   UNL     1      -0.531   4.833  17.367  1.00  0.00     0.000 C 
BRANCH   6   7
ATOM      7  C   UNL     1       0.013   6.117  18.021  1.00  0.00     0.000 C 
BRANCH   7   8
ATOM      8  C   UNL     1       0.626   7.130  17.037  1.00  0.00     0.000 C 
BRANCH   8   9
ATOM      9  C   UNL     1       1.212   8.366  17.742  1.00  0.00     0.000 C 
BRANCH   9  10
ATOM     10  C   UNL     1       1.013   8.315  19.270  1.00  0.00     0.000 C 
BRANCH  10  11
ATOM     11  C   UNL     1       2.173   8.932  20.077  1.00  0.00     0.000 C 
BRANCH  11  12
ATOM     12  C   UNL     1       2.270   8.430  21.532  1.00  0.00     0.000 C 
BRANCH  12  13
ATOM     13  C   UNL     1       1.959   6.929  21.659  1.00  0.00     0.006 C 
BRANCH  13  14
ATOM     14  C   UNL     1       1.199   6.597  22.950  1.00  0.00     0.053 C 
BRANCH  14  15
ATOM     15  C   UNL     1      -0.284   6.581  22.744  1.00  0.00     0.041 C 
ATOM     16  O   UNL     1      -1.064   6.595  23.735  1.00  0.00    -0.550 OA
ATOM     17  O   UNL     1      -0.807   6.582  21.456  1.00  0.00    -0.550 OA
ENDBRANCH  14  15
ENDBRANCH  13  14
ENDBRANCH  12  13
ENDBRANCH  11  12
ENDBRANCH  10  11
ENDBRANCH   9  10
ENDBRANCH   8   9
ENDBRANCH   7   8
ENDBRANCH   6   7
ENDBRANCH   5   6
ENDBRANCH   4   5
ENDBRANCH   3   4
ENDBRANCH   2   3
ENDBRANCH   1   2
BRANCH   1  18
ATOM     18  C   UNL     1      -6.096   4.020  15.238  1.00  0.00     0.000 C 
BRANCH  18  19
ATOM     19  C   UNL     1      -5.336   4.184  13.914  1.00  0.00     0.000 C 
BRANCH  19  20
ATOM     20  C   UNL     1      -6.270   4.225  12.694  1.00  0.00     0.000 C 
BRANCH  20  21
ATOM     21  C   UNL     1      -7.740   4.174  13.128  1.00  0.00     0.000 C 
BRANCH  21  22
ATOM     22  C   UNL     1      -8.496   5.432  12.674  1.00  0.00     0.000 C 
BRANCH  22  23
ATOM     23  C   UNL     1      -7.917   6.046  11.388  1.00  0.00     0.000 C 
BRANCH  23  24
ATOM     24  C   UNL     1      -8.463   7.456  11.106  1.00  0.00    -0.000 C 
BRANCH  24  25
ATOM     25  C   UNL     1      -7.708   8.547  11.884  1.00  0.00    -0.000 C 
BRANCH  25  26
ATOM     26  C   UNL     1      -6.518   7.991  12.678  1.00  0.00    -0.000 C 
BRANCH  26  27
ATOM     27  C   UNL     1      -5.591   9.125  13.148  1.00  0.00    -0.000 C 
BRANCH  27  28
ATOM     28  C   UNL     1      -5.306   9.062  14.665  1.00  0.00    -0.000 C 
BRANCH  28  29
ATOM     29  C   UNL     1      -5.701   7.722  15.316  1.00  0.00    -0.000 C 
BRANCH  29  30
ATOM     30  C   UNL     1      -6.022   7.793  16.821  1.00  0.00    -0.000 C 
BRANCH  30  31
ATOM     31  C   UNL     1      -7.348   7.126  17.230  1.00  0.00    -0.003 C 
ATOM     32  C   UNL     1      -8.245   6.803  16.036  1.00  0.00     0.004 C 
ENDBRANCH  30  31
ENDBRANCH  29  30
ENDBRANCH  28  29
ENDBRANCH  27  28
ENDBRANCH  26  27
ENDBRANCH  25  26
ENDBRANCH  24  25
ENDBRANCH  23  24
ENDBRANCH  22  23
ENDBRANCH  21  22
ENDBRANCH  20  21
ENDBRANCH  19  20
ENDBRANCH  18  19
ENDBRANCH   1  18
TORSDOF 28
ENDMDL
MODEL 3
REMARK VINA RESULT:    -4.596      1.175      2.327
REMARK INTER + INTRA:         -16.667
REMARK INTER:                 -13.373
REMARK INTRA:                  -3.294
REMARK UNBOUND:                -4.548
REMARK SMILES CCCCCCCCCCCCCCCCCCCCCCCCCCCCCC(=O)[O-]
REMARK SMILES IDX 16 1 17 2 18 3 19 4 20 5 21 6 22 7 23 8 24 9 25 10 26 11
REMARK SMILES IDX 27 12 28 13 29 14 30 15 31 16 32 17 15 18 14 19 13 20 12 21
REMARK SMILES IDX 11 22 10 23 9 24 8 25 7 26 6 27 5 28 4 29 3 30 2 31 1 32
REMARK H PARENT
REMARK Flexibility Score: inf
ROOT
ATOM      1  C   UNL     1      -5.027   5.563  17.021  1.00  0.00     0.000 C 
ENDROOT
BRANCH   1   2
ATOM      2  C   UNL     1      -5.947   6.461  17.862  1.00  0.00     0.000 C 
BRANCH   2   3
ATOM      3  C   UNL     1      -6.315   7.808  17.211  1.00  0.00     0.000 C 
BRANCH   3   4
ATOM      4  C   UNL     1      -6.151   7.835  15.675  1.00  0.00     0.000 C 
BRANCH   4   5
ATOM      5  C   UNL     1      -7.466   7.730  14.873  1.00  0.00     0.000 C 
BRANCH   5   6
ATOM      6  C   UNL     1      -8.240   6.403  15.027  1.00  0.00     0.000 C 
BRANCH   6   7
ATOM      7  C   UNL     1      -8.896   5.869  13.740  1.00  0.00     0.000 C 
BRANCH   7   8
ATOM      8  C   UNL     1      -8.258   4.587  13.176  1.00  0.00     0.000 C 
BRANCH   8   9
ATOM      9  C   UNL     1      -6.719   4.627  13.197  1.00  0.00     0.000 C 
BRANCH   9  10
ATOM     10  C   UNL     1      -6.117   4.604  11.778  1.00  0.00     0.000 C 
BRANCH  10  11
ATOM     11  C   UNL     1      -5.871   6.002  11.176  1.00  0.00     0.000 C 
BRANCH  11  12
ATOM     12  C   UNL     1      -4.531   6.142  10.424  1.00  0.00     0.000 C 
BRANCH  12  13
ATOM     13  C   UNL     1      -3.788   7.440  10.782  1.00  0.00     0.006 C 
BRANCH  13  14
ATOM     14  C   UNL     1      -4.459   8.197  11.936  1.00  0.00     0.053 C 
BRANCH  14  15
ATOM     15  C   UNL     1      -3.552   8.342  13.119  1.00  0.00     0.041 C 
ATOM     16  O   UNL     1      -2.724   7.434  13.400  1.00  0.00    -0.550 OA
ATOM     17  O   UNL     1      -3.598   9.496  13.894  1.00  0.00    -0.550 OA
ENDBRANCH  14  15
ENDBRANCH  13  14
ENDBRANCH  12  13
ENDBRANCH  11  12
ENDBRANCH  10  11
ENDBRANCH   9  10
ENDBRANCH   8   9
ENDBRANCH   7   8
ENDBRANCH   6   7
ENDBRANCH   5   6
ENDBRANCH   4   5
ENDBRANCH   3   4
ENDBRANCH   2   3
ENDBRANCH   1   2
BRANCH   1  18
ATOM     18  C   UNL     1      -5.696   4.239  16.614  1.00  0.00     0.000 C 
BRANCH  18  19
ATOM     19  C   UNL     1      -4.715   3.255  15.961  1.00  0.00     0.000 C 
BRANCH  19  20
ATOM     20  C   UNL     1      -3.750   2.618  16.973  1.00  0.00     0.000 C 
BRANCH  20  21
ATOM     21  C   UNL     1      -2.310   2.640  16.446  1.00  0.00     0.000 C 
BRANCH  21  22
ATOM     22  C   UNL     1      -1.931   4.035  15.926  1.00  0.00     0.000 C 
BRANCH  22  23
ATOM     23  C   UNL     1      -0.514   4.464  16.343  1.00  0.00     0.000 C 
BRANCH  23  24
ATOM     24  C   UNL     1      -0.485   5.854  17.003  1.00  0.00    -0.000 C 
BRANCH  24  25
ATOM     25  C   UNL     1       0.823   6.613  16.723  1.00  0.00    -0.000 C 
BRANCH  25  26
ATOM     26  C   UNL     1       0.581   8.038  16.209  1.00  0.00    -0.000 C 
BRANCH  26  27
ATOM     27  C   UNL     1       1.040   9.083  17.240  1.00  0.00    -0.000 C 
BRANCH  27  28
ATOM     28  C   UNL     1       1.635   8.435  18.509  1.00  0.00    -0.000 C 
BRANCH  28  29
ATOM     29  C   UNL     1       0.668   8.417  19.709  1.00  0.00    -0.000 C 
BRANCH  29  30
ATOM     30  C   UNL     1       0.903   7.282  20.724  1.00  0.00    -0.000 C 
BRANCH  30  31
ATOM     31  C   UNL     1      -0.355   6.825  21.483  1.00  0.00    -0.003 C 
ATOM     32  C   UNL     1      -0.082   6.508  22.952  1.00  0.00     0.004 C 
ENDBRANCH  30  31
ENDBRANCH  29  30
ENDBRANCH  28  29
ENDBRANCH  27  28
ENDBRANCH  26  27
ENDBRANCH  25  26
ENDBRANCH  24  25
ENDBRANCH  23  24
ENDBRANCH  22  23
ENDBRANCH  21  22
ENDBRANCH  20  21
ENDBRANCH  19  20
ENDBRANCH  18  19
ENDBRANCH   1  18
TORSDOF 28
ENDMDL
MODEL 4
REMARK VINA RESULT:    -4.588      3.112      8.321
REMARK INTER + INTRA:         -16.645
REMARK INTER:                 -12.921
REMARK INTRA:                  -3.723
REMARK UNBOUND:                -4.548
REMARK SMILES CCCCCCCCCCCCCCCCCCCCCCCCCCCCCC(=O)[O-]
REMARK SMILES IDX 16 1 17 2 18 3 19 4 20 5 21 6 22 7 23 8 24 9 25 10 26 11
REMARK SMILES IDX 27 12 28 13 29 14 30 15 31 16 32 17 15 18 14 19 13 20 12 21
REMARK SMILES IDX 11 22 10 23 9 24 8 25 7 26 6 27 5 28 4 29 3 30 2 31 1 32
REMARK H PARENT
REMARK Flexibility Score: inf
ROOT
ATOM      1  C   UNL     1      -5.991   4.532  15.053  1.00  0.00     0.000 C 
ENDROOT
BRANCH   1   2
ATOM      2  C   UNL     1      -5.161   3.384  15.648  1.00  0.00     0.000 C 
BRANCH   2   3
ATOM      3  C   UNL     1      -3.676   3.713  15.892  1.00  0.00     0.000 C 
BRANCH   3   4
ATOM      4  C   UNL     1      -2.928   2.666  16.748  1.00  0.00     0.000 C 
BRANCH   4   5
ATOM      5  C   UNL     1      -1.413   2.918  16.916  1.00  0.00     0.000 C 
BRANCH   5   6
ATOM      6  C   UNL     1      -0.886   4.242  16.324  1.00  0.00     0.000 C 
BRANCH   6   7
ATOM      7  C   UNL     1      -0.176   5.175  17.322  1.00  0.00     0.000 C 
BRANCH   7   8
ATOM      8  C   UNL     1      -0.226   6.669  16.955  1.00  0.00     0.000 C 
BRANCH   8   9
ATOM      9  C   UNL     1       1.154   7.238  16.581  1.00  0.00     0.000 C 
BRANCH   9  10
ATOM     10  C   UNL     1       1.375   8.653  17.151  1.00  0.00     0.000 C 
BRANCH  10  11
ATOM     11  C   UNL     1       1.799   8.676  18.633  1.00  0.00     0.000 C 
BRANCH  11  12
ATOM     12  C   UNL     1       0.644   8.435  19.626  1.00  0.00     0.000 C 
BRANCH  12  13
ATOM     13  C   UNL     1       0.916   7.252  20.570  1.00  0.00     0.006 C 
BRANCH  13  14
ATOM     14  C   UNL     1      -0.361   6.751  21.260  1.00  0.00     0.053 C 
BRANCH  14  15
ATOM     15  C   UNL     1      -0.172   6.573  22.735  1.00  0.00     0.041 C 
ATOM     16  O   UNL     1       0.979   6.653  23.243  1.00  0.00    -0.550 OA
ATOM     17  O   UNL     1      -1.273   6.352  23.555  1.00  0.00    -0.550 OA
ENDBRANCH  14  15
ENDBRANCH  13  14
ENDBRANCH  12  13
ENDBRANCH  11  12
ENDBRANCH  10  11
ENDBRANCH   9  10
ENDBRANCH   8   9
ENDBRANCH   7   8
ENDBRANCH   6   7
ENDBRANCH   5   6
ENDBRANCH   4   5
ENDBRANCH   3   4
ENDBRANCH   2   3
ENDBRANCH   1   2
BRANCH   1  18
ATOM     18  C   UNL     1      -6.713   4.133  13.755  1.00  0.00     0.000 C 
BRANCH  18  19
ATOM     19  C   UNL     1      -5.755   3.992  12.563  1.00  0.00     0.000 C 
BRANCH  19  20
ATOM     20  C   UNL     1      -6.099   4.947  11.408  1.00  0.00     0.000 C 
BRANCH  20  21
ATOM     21  C   UNL     1      -6.224   6.390  11.910  1.00  0.00     0.000 C 
BRANCH  21  22
ATOM     22  C   UNL     1      -7.079   7.237  10.955  1.00  0.00     0.000 C 
BRANCH  22  23
ATOM     23  C   UNL     1      -8.393   7.717  11.594  1.00  0.00     0.000 C 
BRANCH  23  24
ATOM     24  C   UNL     1      -8.573   7.208  13.035  1.00  0.00    -0.000 C 
BRANCH  24  25
ATOM     25  C   UNL     1      -8.237   8.280  14.085  1.00  0.00    -0.000 C 
BRANCH  25  26
ATOM     26  C   UNL     1      -7.408   7.726  15.252  1.00  0.00    -0.000 C 
BRANCH  26  27
ATOM     27  C   UNL     1      -6.012   8.372  15.292  1.00  0.00    -0.000 C 
BRANCH  27  28
ATOM     28  C   UNL     1      -5.908   9.606  14.370  1.00  0.00    -0.000 C 
BRANCH  28  29
ATOM     29  C   UNL     1      -4.922   9.425  13.199  1.00  0.00    -0.000 C 
BRANCH  29  30
ATOM     30  C   UNL     1      -3.437   9.340  13.599  1.00  0.00    -0.000 C 
BRANCH  30  31
ATOM     31  C   UNL     1      -2.732   8.035  13.188  1.00  0.00    -0.003 C 
ATOM     32  C   UNL     1      -3.174   6.832  14.019  1.00  0.00     0.004 C 
ENDBRANCH  30  31
ENDBRANCH  29  30
ENDBRANCH  28  29
ENDBRANCH  27  28
ENDBRANCH  26  27
ENDBRANCH  25  26
ENDBRANCH  24  25
ENDBRANCH  23  24
ENDBRANCH  22  23
ENDBRANCH  21  22
ENDBRANCH  20  21
ENDBRANCH  19  20
ENDBRANCH  18  19
ENDBRANCH   1  18
TORSDOF 28
ENDMDL
MODEL 5
REMARK VINA RESULT:    -4.563      2.825      8.149
REMARK INTER + INTRA:         -16.579
REMARK INTER:                 -11.906
REMARK INTRA:                  -4.673
REMARK UNBOUND:                -4.548
REMARK SMILES CCCCCCCCCCCCCCCCCCCCCCCCCCCCCC(=O)[O-]
REMARK SMILES IDX 16 1 17 2 18 3 19 4 20 5 21 6 22 7 23 8 24 9 25 10 26 11
REMARK SMILES IDX 27 12 28 13 29 14 30 15 31 16 32 17 15 18 14 19 13 20 12 21
REMARK SMILES IDX 11 22 10 23 9 24 8 25 7 26 6 27 5 28 4 29 3 30 2 31 1 32
REMARK H PARENT
REMARK Flexibility Score: inf
ROOT
ATOM      1  C   UNL     1      -5.060   5.735  16.999  1.00  0.00     0.000 C 
ENDROOT
BRANCH   1   2
ATOM      2  C   UNL     1      -5.752   4.381  16.778  1.00  0.00     0.000 C 
BRANCH   2   3
ATOM      3  C   UNL     1      -4.950   3.369  15.938  1.00  0.00     0.000 C 
BRANCH   3   4
ATOM      4  C   UNL     1      -3.881   2.589  16.736  1.00  0.00     0.000 C 
BRANCH   4   5
ATOM      5  C   UNL     1      -2.418   2.922  16.371  1.00  0.00     0.000 C 
BRANCH   5   6
ATOM      6  C   UNL     1      -2.228   4.039  15.324  1.00  0.00     0.000 C 
BRANCH   6   7
ATOM      7  C   UNL     1      -1.532   5.314  15.837  1.00  0.00     0.000 C 
BRANCH   7   8
ATOM      8  C   UNL     1      -0.440   5.070  16.895  1.00  0.00     0.000 C 
BRANCH   8   9
ATOM      9  C   UNL     1       0.703   6.099  16.820  1.00  0.00     0.000 C 
BRANCH   9  10
ATOM     10  C   UNL     1       0.189   7.521  16.521  1.00  0.00     0.000 C 
BRANCH  10  11
ATOM     11  C   UNL     1       1.049   8.643  17.135  1.00  0.00     0.000 C 
BRANCH  11  12
ATOM     12  C   UNL     1       1.523   8.363  18.575  1.00  0.00     0.000 C 
BRANCH  12  13
ATOM     13  C   UNL     1       0.362   8.342  19.584  1.00  0.00     0.006 C 
BRANCH  13  14
ATOM     14  C   UNL     1       0.127   6.945  20.175  1.00  0.00     0.053 C 
BRANCH  14  15
ATOM     15  C   UNL     1       0.555   6.859  21.607  1.00  0.00     0.041 C 
ATOM     16  O   UNL     1      -0.306   6.745  22.523  1.00  0.00    -0.550 OA
ATOM     17  O   UNL     1       1.907   6.871  21.931  1.00  0.00    -0.550 OA
ENDBRANCH  14  15
ENDBRANCH  13  14
ENDBRANCH  12  13
ENDBRANCH  11  12
ENDBRANCH  10  11
ENDBRANCH   9  10
ENDBRANCH   8   9
ENDBRANCH   7   8
ENDBRANCH   6   7
ENDBRANCH   5   6
ENDBRANCH   4   5
ENDBRANCH   3   4
ENDBRANCH   2   3
ENDBRANCH   1   2
BRANCH   1  18
ATOM     18  C   UNL     1      -6.024   6.820  17.508  1.00  0.00     0.000 C 
BRANCH  18  19
ATOM     19  C   UNL     1      -7.247   7.001  16.597  1.00  0.00     0.000 C 
BRANCH  19  20
ATOM     20  C   UNL     1      -7.012   8.038  15.487  1.00  0.00     0.000 C 
BRANCH  20  21
ATOM     21  C   UNL     1      -5.878   8.998  15.865  1.00  0.00     0.000 C 
BRANCH  21  22
ATOM     22  C   UNL     1      -5.328   9.723  14.627  1.00  0.00     0.000 C 
BRANCH  22  23
ATOM     23  C   UNL     1      -6.214   9.535  13.383  1.00  0.00     0.000 C 
BRANCH  23  24
ATOM     24  C   UNL     1      -5.573   8.612  12.331  1.00  0.00    -0.000 C 
BRANCH  24  25
ATOM     25  C   UNL     1      -4.098   8.303  12.639  1.00  0.00    -0.000 C 
BRANCH  25  26
ATOM     26  C   UNL     1      -3.861   6.822  12.967  1.00  0.00    -0.000 C 
BRANCH  26  27
ATOM     27  C   UNL     1      -5.176   6.125  13.355  1.00  0.00    -0.000 C 
BRANCH  27  28
ATOM     28  C   UNL     1      -5.379   4.791  12.605  1.00  0.00    -0.000 C 
BRANCH  28  29
ATOM     29  C   UNL     1      -6.854   4.474  12.289  1.00  0.00    -0.000 C 
BRANCH  29  30
ATOM     30  C   UNL     1      -7.755   4.254  13.518  1.00  0.00    -0.000 C 
BRANCH  30  31
ATOM     31  C   UNL     1      -8.872   5.299  13.694  1.00  0.00    -0.003 C 
ATOM     32  C   UNL     1      -8.808   6.419  12.658  1.00  0.00     0.004 C 
ENDBRANCH  30  31
ENDBRANCH  29  30
ENDBRANCH  28  29
ENDBRANCH  27  28
ENDBRANCH  26  27
ENDBRANCH  25  26
ENDBRANCH  24  25
ENDBRANCH  23  24
ENDBRANCH  22  23
ENDBRANCH  21  22
ENDBRANCH  20  21
ENDBRANCH  19  20
ENDBRANCH  18  19
ENDBRANCH   1  18
TORSDOF 28
ENDMDL
MODEL 6
REMARK VINA RESULT:    -4.506      1.308      3.398
REMARK INTER + INTRA:         -16.429
REMARK INTER:                 -13.351
REMARK INTRA:                  -3.078
REMARK UNBOUND:                -4.548
REMARK SMILES CCCCCCCCCCCCCCCCCCCCCCCCCCCCCC(=O)[O-]
REMARK SMILES IDX 16 1 17 2 18 3 19 4 20 5 21 6 22 7 23 8 24 9 25 10 26 11
REMARK SMILES IDX 27 12 28 13 29 14 30 15 31 16 32 17 15 18 14 19 13 20 12 21
REMARK SMILES IDX 11 22 10 23 9 24 8 25 7 26 6 27 5 28 4 29 3 30 2 31 1 32
REMARK H PARENT
REMARK Flexibility Score: inf
ROOT
ATOM      1  C   UNL     1      -3.981   3.291  16.260  1.00  0.00     0.000 C 
ENDROOT
BRANCH   1   2
ATOM      2  C   UNL     1      -5.362   3.964  16.290  1.00  0.00     0.000 C 
BRANCH   2   3
ATOM      3  C   UNL     1      -5.487   5.151  17.266  1.00  0.00     0.000 C 
BRANCH   3   4
ATOM      4  C   UNL     1      -5.367   6.538  16.594  1.00  0.00     0.000 C 
BRANCH   4   5
ATOM      5  C   UNL     1      -6.587   6.963  15.748  1.00  0.00     0.000 C 
BRANCH   5   6
ATOM      6  C   UNL     1      -7.965   6.547  16.305  1.00  0.00     0.000 C 
BRANCH   6   7
ATOM      7  C   UNL     1      -9.125   6.583  15.292  1.00  0.00     0.000 C 
BRANCH   7   8
ATOM      8  C   UNL     1      -8.698   6.455  13.819  1.00  0.00     0.000 C 
BRANCH   8   9
ATOM      9  C   UNL     1      -8.760   5.006  13.303  1.00  0.00     0.000 C 
BRANCH   9  10
ATOM     10  C   UNL     1      -7.392   4.300  13.382  1.00  0.00     0.000 C 
BRANCH  10  11
ATOM     11  C   UNL     1      -6.602   4.307  12.059  1.00  0.00     0.000 C 
BRANCH  11  12
ATOM     12  C   UNL     1      -6.131   5.706  11.610  1.00  0.00     0.000 C 
BRANCH  12  13
ATOM     13  C   UNL     1      -5.050   6.289  12.536  1.00  0.00     0.006 C 
BRANCH  13  14
ATOM     14  C   UNL     1      -4.019   7.131  11.771  1.00  0.00     0.053 C 
BRANCH  14  15
ATOM     15  C   UNL     1      -3.085   7.852  12.693  1.00  0.00     0.041 C 
ATOM     16  O   UNL     1      -3.265   7.812  13.940  1.00  0.00    -0.550 OA
ATOM     17  O   UNL     1      -1.994   8.543  12.176  1.00  0.00    -0.550 OA
ENDBRANCH  14  15
ENDBRANCH  13  14
ENDBRANCH  12  13
ENDBRANCH  11  12
ENDBRANCH  10  11
ENDBRANCH   9  10
ENDBRANCH   8   9
ENDBRANCH   7   8
ENDBRANCH   6   7
ENDBRANCH   5   6
ENDBRANCH   4   5
ENDBRANCH   3   4
ENDBRANCH   2   3
ENDBRANCH   1   2
BRANCH   1  18
ATOM     18  C   UNL     1      -3.053   3.885  15.187  1.00  0.00     0.000 C 
BRANCH  18  19
ATOM     19  C   UNL     1      -2.091   4.940  15.752  1.00  0.00     0.000 C 
BRANCH  19  20
ATOM     20  C   UNL     1      -0.879   4.318  16.463  1.00  0.00     0.000 C 
BRANCH  20  21
ATOM     21  C   UNL     1      -0.179   5.348  17.357  1.00  0.00     0.000 C 
BRANCH  21  22
ATOM     22  C   UNL     1       0.165   6.622  16.571  1.00  0.00     0.000 C 
BRANCH  22  23
ATOM     23  C   UNL     1       1.675   6.912  16.532  1.00  0.00     0.000 C 
BRANCH  23  24
ATOM     24  C   UNL     1       2.019   8.336  17.001  1.00  0.00    -0.000 C 
BRANCH  24  25
ATOM     25  C   UNL     1       0.968   8.909  17.967  1.00  0.00    -0.000 C 
BRANCH  25  26
ATOM     26  C   UNL     1       1.062   8.298  19.372  1.00  0.00    -0.000 C 
BRANCH  26  27
ATOM     27  C   UNL     1       2.088   9.052  20.235  1.00  0.00    -0.000 C 
BRANCH  27  28
ATOM     28  C   UNL     1       2.546   8.230  21.459  1.00  0.00    -0.000 C 
BRANCH  28  29
ATOM     29  C   UNL     1       1.783   6.902  21.637  1.00  0.00    -0.000 C 
BRANCH  29  30
ATOM     30  C   UNL     1       0.905   6.814  22.900  1.00  0.00    -0.000 C 
BRANCH  30  31
ATOM     31  C   UNL     1      -0.565   6.442  22.639  1.00  0.00    -0.003 C 
ATOM     32  C   UNL     1      -1.416   6.449  23.908  1.00  0.00     0.004 C 
ENDBRANCH  30  31
ENDBRANCH  29  30
ENDBRANCH  28  29
ENDBRANCH  27  28
ENDBRANCH  26  27
ENDBRANCH  25  26
ENDBRANCH  24  25
ENDBRANCH  23  24
ENDBRANCH  22  23
ENDBRANCH  21  22
ENDBRANCH  20  21
ENDBRANCH  19  20
ENDBRANCH  18  19
ENDBRANCH   1  18
TORSDOF 28
ENDMDL
MODEL 7
REMARK VINA RESULT:    -4.410      2.995      7.838
REMARK INTER + INTRA:         -16.176
REMARK INTER:                 -12.643
REMARK INTRA:                  -3.533
REMARK UNBOUND:                -4.548
REMARK SMILES CCCCCCCCCCCCCCCCCCCCCCCCCCCCCC(=O)[O-]
REMARK SMILES IDX 16 1 17 2 18 3 19 4 20 5 21 6 22 7 23 8 24 9 25 10 26 11
REMARK SMILES IDX 27 12 28 13 29 14 30 15 31 16 32 17 15 18 14 19 13 20 12 21
REMARK SMILES IDX 11 22 10 23 9 24 8 25 7 26 6 27 5 28 4 29 3 30 2 31 1 32
REMARK H PARENT
REMARK Flexibility Score: inf
ROOT
ATOM      1  C   UNL     1      -4.720   4.086  14.319  1.00  0.00     0.000 C 
ENDROOT
BRANCH   1   2
ATOM      2  C   UNL     1      -5.454   3.427  15.496  1.00  0.00     0.000 C 
BRANCH   2   3
ATOM      3  C   UNL     1      -4.539   2.862  16.600  1.00  0.00     0.000 C 
BRANCH   3   4
ATOM      4  C   UNL     1      -3.032   2.925  16.266  1.00  0.00     0.000 C 
BRANCH   4   5
ATOM      5  C   UNL     1      -2.242   4.028  17.002  1.00  0.00     0.000 C 
BRANCH   5   6
ATOM      6  C   UNL     1      -0.841   4.341  16.435  1.00  0.00     0.000 C 
BRANCH   6   7
ATOM      7  C   UNL     1      -0.088   5.490  17.131  1.00  0.00     0.000 C 
BRANCH   7   8
ATOM      8  C   UNL     1       0.185   6.714  16.240  1.00  0.00     0.000 C 
BRANCH   8   9
ATOM      9  C   UNL     1       1.428   7.508  16.681  1.00  0.00     0.000 C 
BRANCH   9  10
ATOM     10  C   UNL     1       1.061   8.742  17.530  1.00  0.00     0.000 C 
BRANCH  10  11
ATOM     11  C   UNL     1       2.089   9.079  18.627  1.00  0.00     0.000 C 
BRANCH  11  12
ATOM     12  C   UNL     1       1.709   8.565  20.031  1.00  0.00     0.000 C 
BRANCH  12  13
ATOM     13  C   UNL     1       0.254   8.070  20.103  1.00  0.00     0.006 C 
BRANCH  13  14
ATOM     14  C   UNL     1       0.144   6.670  20.721  1.00  0.00     0.053 C 
BRANCH  14  15
ATOM     15  C   UNL     1       0.290   6.697  22.211  1.00  0.00     0.041 C 
ATOM     16  O   UNL     1       1.430   6.595  22.741  1.00  0.00    -0.550 OA
ATOM     17  O   UNL     1      -0.830   6.869  23.017  1.00  0.00    -0.550 OA
ENDBRANCH  14  15
ENDBRANCH  13  14
ENDBRANCH  12  13
ENDBRANCH  11  12
ENDBRANCH  10  11
ENDBRANCH   9  10
ENDBRANCH   8   9
ENDBRANCH   7   8
ENDBRANCH   6   7
ENDBRANCH   5   6
ENDBRANCH   4   5
ENDBRANCH   3   4
ENDBRANCH   2   3
ENDBRANCH   1   2
BRANCH   1  18
ATOM     18  C   UNL     1      -5.353   3.747  12.958  1.00  0.00     0.000 C 
BRANCH  18  19
ATOM     19  C   UNL     1      -6.824   4.175  12.865  1.00  0.00     0.000 C 
BRANCH  19  20
ATOM     20  C   UNL     1      -7.178   4.792  11.502  1.00  0.00     0.000 C 
BRANCH  20  21
ATOM     21  C   UNL     1      -6.571   6.194  11.361  1.00  0.00     0.000 C 
BRANCH  21  22
ATOM     22  C   UNL     1      -5.683   6.290  10.111  1.00  0.00     0.000 C 
BRANCH  22  23
ATOM     23  C   UNL     1      -4.224   6.648  10.440  1.00  0.00     0.000 C 
BRANCH  23  24
ATOM     24  C   UNL     1      -4.003   6.921  11.938  1.00  0.00    -0.000 C 
BRANCH  24  25
ATOM     25  C   UNL     1      -3.152   8.177  12.190  1.00  0.00    -0.000 C 
BRANCH  25  26
ATOM     26  C   UNL     1      -3.777   9.116  13.231  1.00  0.00    -0.000 C 
BRANCH  26  27
ATOM     27  C   UNL     1      -5.286   8.856  13.373  1.00  0.00    -0.000 C 
BRANCH  27  28
ATOM     28  C   UNL     1      -5.792   9.093  14.813  1.00  0.00    -0.000 C 
BRANCH  28  29
ATOM     29  C   UNL     1      -6.385   7.836  15.478  1.00  0.00    -0.000 C 
BRANCH  29  30
ATOM     30  C   UNL     1      -5.412   7.048  16.376  1.00  0.00    -0.000 C 
BRANCH  30  31
ATOM     31  C   UNL     1      -6.081   6.259  17.515  1.00  0.00    -0.003 C 
ATOM     32  C   UNL     1      -6.834   7.154  18.498  1.00  0.00     0.004 C 
ENDBRANCH  30  31
ENDBRANCH  29  30
ENDBRANCH  28  29
ENDBRANCH  27  28
ENDBRANCH  26  27
ENDBRANCH  25  26
ENDBRANCH  24  25
ENDBRANCH  23  24
ENDBRANCH  22  23
ENDBRANCH  21  22
ENDBRANCH  20  21
ENDBRANCH  19  20
ENDBRANCH  18  19
ENDBRANCH   1  18
TORSDOF 28
ENDMDL
MODEL 8
REMARK VINA RESULT:    -4.357      2.958      8.349
REMARK INTER + INTRA:         -16.036
REMARK INTER:                 -12.669
REMARK INTRA:                  -3.368
REMARK UNBOUND:                -4.548
REMARK SMILES CCCCCCCCCCCCCCCCCCCCCCCCCCCCCC(=O)[O-]
REMARK SMILES IDX 16 1 17 2 18 3 19 4 20 5 21 6 22 7 23 8 24 9 25 10 26 11
REMARK SMILES IDX 27 12 28 13 29 14 30 15 31 16 32 17 15 18 14 19 13 20 12 21
REMARK SMILES IDX 11 22 10 23 9 24 8 25 7 26 6 27 5 28 4 29 3 30 2 31 1 32
REMARK H PARENT
REMARK Flexibility Score: inf
ROOT
ATOM      1  C   UNL     1      -6.277   4.390  15.336  1.00  0.00     0.000 C 
ENDROOT
BRANCH   1   2
ATOM      2  C   UNL     1      -5.260   4.042  16.434  1.00  0.00     0.000 C 
BRANCH   2   3
ATOM      3  C   UNL     1      -3.823   3.796  15.935  1.00  0.00     0.000 C 
BRANCH   3   4
ATOM      4  C   UNL     1      -3.110   2.606  16.616  1.00  0.00     0.000 C 
BRANCH   4   5
ATOM      5  C   UNL     1      -1.599   2.801  16.862  1.00  0.00     0.000 C 
BRANCH   5   6
ATOM      6  C   UNL     1      -1.006   4.135  16.363  1.00  0.00     0.000 C 
BRANCH   6   7
ATOM      7  C   UNL     1      -0.346   5.010  17.444  1.00  0.00     0.000 C 
BRANCH   7   8
ATOM      8  C   UNL     1      -0.205   6.498  17.073  1.00  0.00     0.000 C 
BRANCH   8   9
ATOM      9  C   UNL     1       1.075   6.793  16.270  1.00  0.00     0.000 C 
BRANCH   9  10
ATOM     10  C   UNL     1       1.861   7.989  16.844  1.00  0.00     0.000 C 
BRANCH  10  11
ATOM     11  C   UNL     1       1.067   8.834  17.860  1.00  0.00     0.000 C 
BRANCH  11  12
ATOM     12  C   UNL     1       1.484   8.615  19.329  1.00  0.00     0.000 C 
BRANCH  12  13
ATOM     13  C   UNL     1       0.299   8.205  20.221  1.00  0.00     0.006 C 
BRANCH  13  14
ATOM     14  C   UNL     1       0.409   6.753  20.706  1.00  0.00     0.053 C 
BRANCH  14  15
ATOM     15  C   UNL     1       0.459   6.659  22.200  1.00  0.00     0.041 C 
ATOM     16  O   UNL     1      -0.609   6.621  22.871  1.00  0.00    -0.550 OA
ATOM     17  O   UNL     1       1.684   6.580  22.851  1.00  0.00    -0.550 OA
ENDBRANCH  14  15
ENDBRANCH  13  14
ENDBRANCH  12  13
ENDBRANCH  11  12
ENDBRANCH  10  11
ENDBRANCH   9  10
ENDBRANCH   8   9
ENDBRANCH   7   8
ENDBRANCH   6   7
ENDBRANCH   5   6
ENDBRANCH   4   5
ENDBRANCH   3   4
ENDBRANCH   2   3
ENDBRANCH   1   2
BRANCH   1  18
ATOM     18  C   UNL     1      -6.929   5.768  15.544  1.00  0.00     0.000 C 
BRANCH  18  19
ATOM     19  C   UNL     1      -8.310   5.877  14.883  1.00  0.00     0.000 C 
BRANCH  19  20
ATOM     20  C   UNL     1      -8.496   4.880  13.728  1.00  0.00     0.000 C 
BRANCH  20  21
ATOM     21  C   UNL     1      -9.026   5.586  12.474  1.00  0.00     0.000 C 
BRANCH  21  22
ATOM     22  C   UNL     1      -7.912   5.779  11.434  1.00  0.00     0.000 C 
BRANCH  22  23
ATOM     23  C   UNL     1      -6.738   4.804  11.627  1.00  0.00     0.000 C 
BRANCH  23  24
ATOM     24  C   UNL     1      -5.404   5.524  11.886  1.00  0.00    -0.000 C 
BRANCH  24  25
ATOM     25  C   UNL     1      -4.716   5.978  10.588  1.00  0.00    -0.000 C 
BRANCH  25  26
ATOM     26  C   UNL     1      -4.722   7.503  10.417  1.00  0.00    -0.000 C 
BRANCH  26  27
ATOM     27  C   UNL     1      -4.932   8.209  11.767  1.00  0.00    -0.000 C 
BRANCH  27  28
ATOM     28  C   UNL     1      -5.905   9.404  11.663  1.00  0.00    -0.000 C 
BRANCH  28  29
ATOM     29  C   UNL     1      -7.264   9.160  12.347  1.00  0.00    -0.000 C 
BRANCH  29  30
ATOM     30  C   UNL     1      -7.241   9.209  13.887  1.00  0.00    -0.000 C 
BRANCH  30  31
ATOM     31  C   UNL     1      -5.983   9.855  14.493  1.00  0.00    -0.003 C 
ATOM     32  C   UNL     1      -5.596   9.253  15.842  1.00  0.00     0.004 C 
ENDBRANCH  30  31
ENDBRANCH  29  30
ENDBRANCH  28  29
ENDBRANCH  27  28
ENDBRANCH  26  27
ENDBRANCH  25  26
ENDBRANCH  24  25
ENDBRANCH  23  24
ENDBRANCH  22  23
ENDBRANCH  21  22
ENDBRANCH  20  21
ENDBRANCH  19  20
ENDBRANCH  18  19
ENDBRANCH   1  18
TORSDOF 28
ENDMDL
MODEL 9
REMARK VINA RESULT:    -4.243      1.303      3.103
REMARK INTER + INTRA:         -15.737
REMARK INTER:                 -12.250
REMARK INTRA:                  -3.487
REMARK UNBOUND:                -4.548
REMARK SMILES CCCCCCCCCCCCCCCCCCCCCCCCCCCCCC(=O)[O-]
REMARK SMILES IDX 16 1 17 2 18 3 19 4 20 5 21 6 22 7 23 8 24 9 25 10 26 11
REMARK SMILES IDX 27 12 28 13 29 14 30 15 31 16 32 17 15 18 14 19 13 20 12 21
REMARK SMILES IDX 11 22 10 23 9 24 8 25 7 26 6 27 5 28 4 29 3 30 2 31 1 32
REMARK H PARENT
REMARK Flexibility Score: inf
ROOT
ATOM      1  C   UNL     1      -5.192   3.933  15.285  1.00  0.00     0.000 C 
ENDROOT
BRANCH   1   2
ATOM      2  C   UNL     1      -5.277   4.649  13.928  1.00  0.00     0.000 C 
BRANCH   2   3
ATOM      3  C   UNL     1      -6.322   4.074  12.952  1.00  0.00     0.000 C 
BRANCH   3   4
ATOM      4  C   UNL     1      -7.097   5.144  12.151  1.00  0.00     0.000 C 
BRANCH   4   5
ATOM      5  C   UNL     1      -7.765   6.245  13.004  1.00  0.00     0.000 C 
BRANCH   5   6
ATOM      6  C   UNL     1      -8.516   5.754  14.259  1.00  0.00     0.000 C 
BRANCH   6   7
ATOM      7  C   UNL     1      -8.642   6.784  15.397  1.00  0.00     0.000 C 
BRANCH   7   8
ATOM      8  C   UNL     1      -7.914   6.400  16.698  1.00  0.00     0.000 C 
BRANCH   8   9
ATOM      9  C   UNL     1      -6.892   7.460  17.145  1.00  0.00     0.000 C 
BRANCH   9  10
ATOM     10  C   UNL     1      -5.724   7.600  16.149  1.00  0.00     0.000 C 
BRANCH  10  11
ATOM     11  C   UNL     1      -5.798   8.860  15.264  1.00  0.00     0.000 C 
BRANCH  11  12
ATOM     12  C   UNL     1      -5.189   8.684  13.858  1.00  0.00     0.000 C 
BRANCH  12  13
ATOM     13  C   UNL     1      -3.816   7.991  13.894  1.00  0.00     0.006 C 
BRANCH  13  14
ATOM     14  C   UNL     1      -2.709   8.858  13.279  1.00  0.00     0.053 C 
BRANCH  14  15
ATOM     15  C   UNL     1      -2.439   8.499  11.850  1.00  0.00     0.041 C 
ATOM     16  O   UNL     1      -3.208   7.709  11.237  1.00  0.00    -0.550 OA
ATOM     17  O   UNL     1      -1.356   9.061  11.184  1.00  0.00    -0.550 OA
ENDBRANCH  14  15
ENDBRANCH  13  14
ENDBRANCH  12  13
ENDBRANCH  11  12
ENDBRANCH  10  11
ENDBRANCH   9  10
ENDBRANCH   8   9
ENDBRANCH   7   8
ENDBRANCH   6   7
ENDBRANCH   5   6
ENDBRANCH   4   5
ENDBRANCH   3   4
ENDBRANCH   2   3
ENDBRANCH   1   2
BRANCH   1  18
ATOM     18  C   UNL     1      -3.918   4.292  16.068  1.00  0.00     0.000 C 
BRANCH  18  19
ATOM     19  C   UNL     1      -2.683   3.520  15.579  1.00  0.00     0.000 C 
BRANCH  19  20
ATOM     20  C   UNL     1      -1.363   4.186  15.996  1.00  0.00     0.000 C 
BRANCH  20  21
ATOM     21  C   UNL     1      -1.611   5.300  17.020  1.00  0.00     0.000 C 
BRANCH  21  22
ATOM     22  C   UNL     1      -0.298   5.751  17.678  1.00  0.00     0.000 C 
BRANCH  22  23
ATOM     23  C   UNL     1       0.759   6.202  16.655  1.00  0.00     0.000 C 
BRANCH  23  24
ATOM     24  C   UNL     1       1.078   7.704  16.754  1.00  0.00    -0.000 C 
BRANCH  24  25
ATOM     25  C   UNL     1       0.792   8.277  18.152  1.00  0.00    -0.000 C 
BRANCH  25  26
ATOM     26  C   UNL     1       2.007   8.995  18.757  1.00  0.00    -0.000 C 
BRANCH  26  27
ATOM     27  C   UNL     1       2.043   8.825  20.285  1.00  0.00    -0.000 C 
BRANCH  27  28
ATOM     28  C   UNL     1       1.281   7.567  20.756  1.00  0.00    -0.000 C 
BRANCH  28  29
ATOM     29  C   UNL     1       1.875   6.919  22.022  1.00  0.00    -0.000 C 
BRANCH  29  30
ATOM     30  C   UNL     1       0.843   6.352  23.015  1.00  0.00    -0.000 C 
BRANCH  30  31
ATOM     31  C   UNL     1      -0.616   6.747  22.725  1.00  0.00    -0.003 C 
ATOM     32  C   UNL     1      -1.570   6.373  23.857  1.00  0.00     0.004 C 
ENDBRANCH  30  31
ENDBRANCH  29  30
ENDBRANCH  28  29
ENDBRANCH  27  28
ENDBRANCH  26  27
ENDBRANCH  25  26
ENDBRANCH  24  25
ENDBRANCH  23  24
ENDBRANCH  22  23
ENDBRANCH  21  22
ENDBRANCH  20  21
ENDBRANCH  19  20
ENDBRANCH  18  19
ENDBRANCH   1  18
TORSDOF 28
ENDMDL
