MODEL 1
REMARK VINA RESULT:    -5.524      0.000      0.000
REMARK INTER + INTRA:          -6.506
REMARK INTER:                  -6.493
REMARK INTRA:                  -0.013
REMARK UNBOUND:                -0.013
REMARK SMILES O=C([O-])C=Cc1ccc(O)c(O)c1
REMARK SMILES IDX 6 1 13 2 7 3 11 4 8 5 9 6 5 7 4 8 2 9 1 10 3 11 12 12 10 14
REMARK H PARENT 12 13 10 15
REMARK Flexibility Score: inf
ROOT
ATOM      1  C   UNL     1      10.764  -4.022  19.950  1.00  0.00    -0.022 A 
ATOM      2  C   UNL     1       9.392  -3.723  19.970  1.00  0.00     0.058 A 
ATOM      3  C   UNL     1      11.174  -5.359  19.865  1.00  0.00     0.012 A 
ATOM      4  C   UNL     1       8.440  -4.746  19.852  1.00  0.00     0.157 A 
ATOM      5  C   UNL     1      10.229  -6.380  19.747  1.00  0.00     0.051 A 
ATOM      6  C   UNL     1       8.862  -6.081  19.735  1.00  0.00     0.157 A 
ENDROOT
BRANCH   1   7
ATOM      7  C   UNL     1      11.781  -2.963  20.125  1.00  0.00     0.010 C 
ATOM      8  C   UNL     1      11.871  -1.841  19.394  1.00  0.00     0.025 C 
BRANCH   8   9
ATOM      9  C   UNL     1      11.094  -1.542  18.174  1.00  0.00     0.064 C 
ATOM     10  O   UNL     1      11.501  -1.882  17.033  1.00  0.00    -0.545 OA
ATOM     11  O   UNL     1       9.919  -0.810  18.285  1.00  0.00    -0.545 OA
ENDBRANCH   8   9
ENDBRANCH   1   7
BRANCH   4  12
ATOM     12  O   UNL     1       7.080  -4.442  19.856  1.00  0.00    -0.504 OA
ATOM     13  H   UNL     1       6.750  -3.483  19.845  1.00  0.00     0.293 HD
ENDBRANCH   4  12
BRANCH   6  14
ATOM     14  O   UNL     1       7.942  -7.121  19.613  1.00  0.00    -0.504 OA
ATOM     15  H   UNL     1       8.168  -7.988  19.139  1.00  0.00     0.293 HD
ENDBRANCH   6  14
TORSDOF 4
ENDMDL
MODEL 2
REMARK VINA RESULT:    -5.334      1.565      2.369
REMARK INTER + INTRA:          -6.283
REMARK INTER:                  -6.558
REMARK INTRA:                   0.276
REMARK UNBOUND:                -0.013
REMARK SMILES O=C([O-])C=Cc1ccc(O)c(O)c1
REMARK SMILES IDX 6 1 13 2 7 3 11 4 8 5 9 6 5 7 4 8 2 9 1 10 3 11 12 12 10 14
REMARK H PARENT 12 13 10 15
REMARK Flexibility Score: inf
ROOT
ATOM      1  C   UNL     1       9.727  -3.693  20.008  1.00  0.00    -0.022 A 
ATOM      2  C   UNL     1      10.849  -4.538  20.057  1.00  0.00     0.058 A 
ATOM      3  C   UNL     1       8.457  -4.249  19.807  1.00  0.00     0.012 A 
ATOM      4  C   UNL     1      10.694  -5.929  19.958  1.00  0.00     0.157 A 
ATOM      5  C   UNL     1       8.301  -5.633  19.709  1.00  0.00     0.051 A 
ATOM      6  C   UNL     1       9.412  -6.479  19.789  1.00  0.00     0.157 A 
ENDROOT
BRANCH   1   7
ATOM      7  C   UNL     1       9.874  -2.223  20.058  1.00  0.00     0.010 C 
ATOM      8  C   UNL     1      10.720  -1.500  19.308  1.00  0.00     0.025 C 
BRANCH   8   9
ATOM      9  C   UNL     1      11.779  -2.043  18.434  1.00  0.00     0.064 C 
ATOM     10  O   UNL     1      11.591  -2.219  17.202  1.00  0.00    -0.545 OA
ATOM     11  O   UNL     1      12.987  -2.432  18.998  1.00  0.00    -0.545 OA
ENDBRANCH   8   9
ENDBRANCH   1   7
BRANCH   4  12
ATOM     12  O   UNL     1      11.809  -6.764  20.024  1.00  0.00    -0.504 OA
ATOM     13  H   UNL     1      12.505  -6.779  19.287  1.00  0.00     0.293 HD
ENDBRANCH   4  12
BRANCH   6  14
ATOM     14  O   UNL     1       9.225  -7.857  19.691  1.00  0.00    -0.504 OA
ATOM     15  H   UNL     1       8.375  -8.308  20.008  1.00  0.00     0.293 HD
ENDBRANCH   6  14
TORSDOF 4
ENDMDL
MODEL 3
REMARK VINA RESULT:    -4.946      1.123      4.594
REMARK INTER + INTRA:          -5.827
REMARK INTER:                  -6.373
REMARK INTRA:                   0.546
REMARK UNBOUND:                -0.013
REMARK SMILES O=C([O-])C=Cc1ccc(O)c(O)c1
REMARK SMILES IDX 6 1 13 2 7 3 11 4 8 5 9 6 5 7 4 8 2 9 1 10 3 11 12 12 10 14
REMARK H PARENT 12 13 10 15
REMARK Flexibility Score: inf
ROOT
ATOM      1  C   UNL     1      11.136  -4.003  19.514  1.00  0.00    -0.022 A 
ATOM      2  C   UNL     1      10.262  -3.003  19.972  1.00  0.00     0.058 A 
ATOM      3  C   UNL     1      11.947  -3.747  18.400  1.00  0.00     0.012 A 
ATOM      4  C   UNL     1      10.238  -1.743  19.356  1.00  0.00     0.157 A 
ATOM      5  C   UNL     1      11.925  -2.493  17.785  1.00  0.00     0.051 A 
ATOM      6  C   UNL     1      11.079  -1.486  18.260  1.00  0.00     0.157 A 
ENDROOT
BRANCH   1   7
ATOM      7  C   UNL     1      11.139  -5.353  20.116  1.00  0.00     0.010 C 
ATOM      8  C   UNL     1      10.105  -6.209  20.110  1.00  0.00     0.025 C 
BRANCH   8   9
ATOM      9  C   UNL     1       8.731  -5.900  19.668  1.00  0.00     0.064 C 
ATOM     10  O   UNL     1       8.098  -4.913  20.125  1.00  0.00    -0.545 OA
ATOM     11  O   UNL     1       8.099  -6.758  18.777  1.00  0.00    -0.545 OA
ENDBRANCH   8   9
ENDBRANCH   1   7
BRANCH   4  12
ATOM     12  O   UNL     1       9.380  -0.749  19.827  1.00  0.00    -0.504 OA
ATOM     13  H   UNL     1       9.458   0.211  19.512  1.00  0.00     0.293 HD
ENDBRANCH   4  12
BRANCH   6  14
ATOM     14  O   UNL     1      11.081  -0.244  17.628  1.00  0.00    -0.504 OA
ATOM     15  H   UNL     1      11.931   0.292  17.498  1.00  0.00     0.293 HD
ENDBRANCH   6  14
TORSDOF 4
ENDMDL
MODEL 4
REMARK VINA RESULT:    -4.809      9.830     11.421
REMARK INTER + INTRA:          -5.665
REMARK INTER:                  -5.385
REMARK INTRA:                  -0.280
REMARK UNBOUND:                -0.013
REMARK SMILES O=C([O-])C=Cc1ccc(O)c(O)c1
REMARK SMILES IDX 6 1 13 2 7 3 11 4 8 5 9 6 5 7 4 8 2 9 1 10 3 11 12 12 10 14
REMARK H PARENT 12 13 10 15
REMARK Flexibility Score: inf
ROOT
ATOM      1  C   UNL     1      19.114  -7.364  18.954  1.00  0.00    -0.022 A 
ATOM      2  C   UNL     1      18.974  -6.564  17.808  1.00  0.00     0.058 A 
ATOM      3  C   UNL     1      19.853  -6.880  20.042  1.00  0.00     0.012 A 
ATOM      4  C   UNL     1      19.521  -5.273  17.771  1.00  0.00     0.157 A 
ATOM      5  C   UNL     1      20.398  -5.595  20.009  1.00  0.00     0.051 A 
ATOM      6  C   UNL     1      20.232  -4.785  18.881  1.00  0.00     0.157 A 
ENDROOT
BRANCH   1   7
ATOM      7  C   UNL     1      18.591  -8.746  18.993  1.00  0.00     0.010 C 
ATOM      8  C   UNL     1      19.274  -9.847  18.642  1.00  0.00     0.025 C 
BRANCH   8   9
ATOM      9  C   UNL     1      20.597  -9.869  17.987  1.00  0.00     0.064 C 
ATOM     10  O   UNL     1      21.647 -10.124  18.633  1.00  0.00    -0.545 OA
ATOM     11  O   UNL     1      20.692  -9.535  16.643  1.00  0.00    -0.545 OA
ENDBRANCH   8   9
ENDBRANCH   1   7
BRANCH   4  12
ATOM     12  O   UNL     1      19.364  -4.477  16.637  1.00  0.00    -0.504 OA
ATOM     13  H   UNL     1      19.446  -4.863  15.703  1.00  0.00     0.293 HD
ENDBRANCH   4  12
BRANCH   6  14
ATOM     14  O   UNL     1      20.785  -3.505  18.877  1.00  0.00    -0.504 OA
ATOM     15  H   UNL     1      20.728  -2.896  18.069  1.00  0.00     0.293 HD
ENDBRANCH   6  14
TORSDOF 4
ENDMDL
MODEL 5
REMARK VINA RESULT:    -4.741      8.866     10.549
REMARK INTER + INTRA:          -5.586
REMARK INTER:                  -5.368
REMARK INTRA:                  -0.217
REMARK UNBOUND:                -0.013
REMARK SMILES O=C([O-])C=Cc1ccc(O)c(O)c1
REMARK SMILES IDX 6 1 13 2 7 3 11 4 8 5 9 6 5 7 4 8 2 9 1 10 3 11 12 12 10 14
REMARK H PARENT 12 13 10 15
REMARK Flexibility Score: inf
ROOT
ATOM      1  C   UNL     1      19.920  -5.570  19.392  1.00  0.00    -0.022 A 
ATOM      2  C   UNL     1      20.056  -5.460  17.998  1.00  0.00     0.058 A 
ATOM      3  C   UNL     1      19.451  -4.471  20.125  1.00  0.00     0.012 A 
ATOM      4  C   UNL     1      19.677  -4.282  17.338  1.00  0.00     0.157 A 
ATOM      5  C   UNL     1      19.072  -3.297  19.470  1.00  0.00     0.051 A 
ATOM      6  C   UNL     1      19.177  -3.197  18.079  1.00  0.00     0.157 A 
ENDROOT
BRANCH   1   7
ATOM      7  C   UNL     1      20.362  -6.783  20.111  1.00  0.00     0.010 C 
ATOM      8  C   UNL     1      19.748  -7.977  20.076  1.00  0.00     0.025 C 
BRANCH   8   9
ATOM      9  C   UNL     1      18.432  -8.252  19.466  1.00  0.00     0.064 C 
ATOM     10  O   UNL     1      17.360  -7.927  20.041  1.00  0.00    -0.545 OA
ATOM     11  O   UNL     1      18.375  -8.944  18.265  1.00  0.00    -0.545 OA
ENDBRANCH   8   9
ENDBRANCH   1   7
BRANCH   4  12
ATOM     12  O   UNL     1      19.799  -4.184  15.953  1.00  0.00    -0.504 OA
ATOM     13  H   UNL     1      19.011  -3.928  15.367  1.00  0.00     0.293 HD
ENDBRANCH   4  12
BRANCH   6  14
ATOM     14  O   UNL     1      18.789  -2.014  17.453  1.00  0.00    -0.504 OA
ATOM     15  H   UNL     1      18.395  -2.003  16.519  1.00  0.00     0.293 HD
ENDBRANCH   6  14
TORSDOF 4
ENDMDL
MODEL 6
REMARK VINA RESULT:    -4.545      3.435      5.674
REMARK INTER + INTRA:          -5.355
REMARK INTER:                  -5.146
REMARK INTRA:                  -0.208
REMARK UNBOUND:                -0.013
REMARK SMILES O=C([O-])C=Cc1ccc(O)c(O)c1
REMARK SMILES IDX 6 1 13 2 7 3 11 4 8 5 9 6 5 7 4 8 2 9 1 10 3 11 12 12 10 14
REMARK H PARENT 12 13 10 15
REMARK Flexibility Score: inf
ROOT
ATOM      1  C   UNL     1       9.477  -0.447  19.477  1.00  0.00    -0.022 A 
ATOM      2  C   UNL     1       8.453  -0.127  18.569  1.00  0.00     0.058 A 
ATOM      3  C   UNL     1      10.188   0.587  20.101  1.00  0.00     0.012 A 
ATOM      4  C   UNL     1       8.109   1.211  18.329  1.00  0.00     0.157 A 
ATOM      5  C   UNL     1       9.847   1.920  19.864  1.00  0.00     0.051 A 
ATOM      6  C   UNL     1       8.806   2.239  18.985  1.00  0.00     0.157 A 
ENDROOT
BRANCH   1   7
ATOM      7  C   UNL     1       9.890  -1.848  19.703  1.00  0.00     0.010 C 
ATOM      8  C   UNL     1      10.969  -2.438  19.165  1.00  0.00     0.025 C 
BRANCH   8   9
ATOM      9  C   UNL     1      11.834  -1.862  18.116  1.00  0.00     0.064 C 
ATOM     10  O   UNL     1      11.412  -1.673  16.945  1.00  0.00    -0.545 OA
ATOM     11  O   UNL     1      13.162  -1.587  18.411  1.00  0.00    -0.545 OA
ENDBRANCH   8   9
ENDBRANCH   1   7
BRANCH   4  12
ATOM     12  O   UNL     1       7.080   1.521  17.440  1.00  0.00    -0.504 OA
ATOM     13  H   UNL     1       7.212   2.190  16.689  1.00  0.00     0.293 HD
ENDBRANCH   4  12
BRANCH   6  14
ATOM     14  O   UNL     1       8.486   3.579  18.772  1.00  0.00    -0.504 OA
ATOM     15  H   UNL     1       8.517   4.266  19.517  1.00  0.00     0.293 HD
ENDBRANCH   6  14
TORSDOF 4
ENDMDL
MODEL 7
REMARK VINA RESULT:    -4.393      9.316     10.471
REMARK INTER + INTRA:          -5.176
REMARK INTER:                  -4.889
REMARK INTRA:                  -0.287
REMARK UNBOUND:                -0.013
REMARK SMILES O=C([O-])C=Cc1ccc(O)c(O)c1
REMARK SMILES IDX 6 1 13 2 7 3 11 4 8 5 9 6 5 7 4 8 2 9 1 10 3 11 12 12 10 14
REMARK H PARENT 12 13 10 15
REMARK Flexibility Score: inf
ROOT
ATOM      1  C   UNL     1      18.968  -6.765  19.375  1.00  0.00    -0.022 A 
ATOM      2  C   UNL     1      20.122  -7.495  19.706  1.00  0.00     0.058 A 
ATOM      3  C   UNL     1      18.215  -7.141  18.255  1.00  0.00     0.012 A 
ATOM      4  C   UNL     1      20.489  -8.621  18.955  1.00  0.00     0.157 A 
ATOM      5  C   UNL     1      18.579  -8.262  17.505  1.00  0.00     0.051 A 
ATOM      6  C   UNL     1      19.710  -9.009  17.852  1.00  0.00     0.157 A 
ENDROOT
BRANCH   1   7
ATOM      7  C   UNL     1      18.593  -5.545  20.122  1.00  0.00     0.010 C 
ATOM      8  C   UNL     1      18.937  -4.292  19.787  1.00  0.00     0.025 C 
BRANCH   8   9
ATOM      9  C   UNL     1      19.893  -3.913  18.728  1.00  0.00     0.064 C 
ATOM     10  O   UNL     1      19.518  -3.720  17.541  1.00  0.00    -0.545 OA
ATOM     11  O   UNL     1      21.244  -3.833  19.034  1.00  0.00    -0.545 OA
ENDBRANCH   8   9
ENDBRANCH   1   7
BRANCH   4  12
ATOM     12  O   UNL     1      21.626  -9.351  19.298  1.00  0.00    -0.504 OA
ATOM     13  H   UNL     1      22.537  -9.128  18.912  1.00  0.00     0.293 HD
ENDBRANCH   4  12
BRANCH   6  14
ATOM     14  O   UNL     1      20.046 -10.125  17.087  1.00  0.00    -0.504 OA
ATOM     15  H   UNL     1      21.009 -10.394  16.923  1.00  0.00     0.293 HD
ENDBRANCH   6  14
TORSDOF 4
ENDMDL
MODEL 8
REMARK VINA RESULT:    -4.364      8.956     10.498
REMARK INTER + INTRA:          -5.143
REMARK INTER:                  -5.180
REMARK INTRA:                   0.038
REMARK UNBOUND:                -0.013
REMARK SMILES O=C([O-])C=Cc1ccc(O)c(O)c1
REMARK SMILES IDX 6 1 13 2 7 3 11 4 8 5 9 6 5 7 4 8 2 9 1 10 3 11 12 12 10 14
REMARK H PARENT 12 13 10 15
REMARK Flexibility Score: inf
ROOT
ATOM      1  C   UNL     1      20.119  -5.457  19.398  1.00  0.00    -0.022 A 
ATOM      2  C   UNL     1      20.020  -4.242  20.098  1.00  0.00     0.058 A 
ATOM      3  C   UNL     1      19.792  -5.493  18.036  1.00  0.00     0.012 A 
ATOM      4  C   UNL     1      19.651  -3.066  19.429  1.00  0.00     0.157 A 
ATOM      5  C   UNL     1      19.425  -4.323  17.368  1.00  0.00     0.051 A 
ATOM      6  C   UNL     1      19.357  -3.107  18.056  1.00  0.00     0.157 A 
ENDROOT
BRANCH   1   7
ATOM      7  C   UNL     1      20.456  -6.716  20.095  1.00  0.00     0.010 C 
ATOM      8  C   UNL     1      19.730  -7.845  20.056  1.00  0.00     0.025 C 
BRANCH   8   9
ATOM      9  C   UNL     1      18.384  -7.985  19.467  1.00  0.00     0.064 C 
ATOM     10  O   UNL     1      17.349  -7.654  20.102  1.00  0.00    -0.545 OA
ATOM     11  O   UNL     1      18.253  -8.558  18.209  1.00  0.00    -0.545 OA
ENDBRANCH   8   9
ENDBRANCH   1   7
BRANCH   4  12
ATOM     12  O   UNL     1      19.572  -1.860  20.125  1.00  0.00    -0.504 OA
ATOM     13  H   UNL     1      19.562  -1.832  21.139  1.00  0.00     0.293 HD
ENDBRANCH   4  12
BRANCH   6  14
ATOM     14  O   UNL     1      18.990  -1.955  17.362  1.00  0.00    -0.504 OA
ATOM     15  H   UNL     1      19.562  -1.569  16.619  1.00  0.00     0.293 HD
ENDBRANCH   6  14
TORSDOF 4
ENDMDL
MODEL 9
REMARK VINA RESULT:    -4.251      9.018     10.855
REMARK INTER + INTRA:          -5.010
REMARK INTER:                  -4.867
REMARK INTRA:                  -0.143
REMARK UNBOUND:                -0.013
REMARK SMILES O=C([O-])C=Cc1ccc(O)c(O)c1
REMARK SMILES IDX 6 1 13 2 7 3 11 4 8 5 9 6 5 7 4 8 2 9 1 10 3 11 12 12 10 14
REMARK H PARENT 12 13 10 15
REMARK Flexibility Score: inf
ROOT
ATOM      1  C   UNL     1      18.893  -7.800  20.043  1.00  0.00    -0.022 A 
ATOM      2  C   UNL     1      20.138  -7.148  20.033  1.00  0.00     0.058 A 
ATOM      3  C   UNL     1      17.720  -7.037  20.116  1.00  0.00     0.012 A 
ATOM      4  C   UNL     1      20.206  -5.747  20.042  1.00  0.00     0.157 A 
ATOM      5  C   UNL     1      17.785  -5.642  20.125  1.00  0.00     0.051 A 
ATOM      6  C   UNL     1      19.023  -4.991  20.083  1.00  0.00     0.157 A 
ENDROOT
BRANCH   1   7
ATOM      7  C   UNL     1      18.802  -9.274  20.087  1.00  0.00     0.010 C 
ATOM      8  C   UNL     1      19.106 -10.103  19.076  1.00  0.00     0.025 C 
BRANCH   8   9
ATOM      9  C   UNL     1      19.411  -9.697  17.689  1.00  0.00     0.064 C 
ATOM     10  O   UNL     1      20.520  -9.962  17.155  1.00  0.00    -0.545 OA
ATOM     11  O   UNL     1      18.479  -8.949  16.983  1.00  0.00    -0.545 OA
ENDBRANCH   8   9
ENDBRANCH   1   7
BRANCH   4  12
ATOM     12  O   UNL     1      21.444  -5.106  20.015  1.00  0.00    -0.504 OA
ATOM     13  H   UNL     1      21.980  -4.949  20.862  1.00  0.00     0.293 HD
ENDBRANCH   4  12
BRANCH   6  14
ATOM     14  O   UNL     1      19.056  -3.598  20.090  1.00  0.00    -0.504 OA
ATOM     15  H   UNL     1      19.028  -3.063  20.950  1.00  0.00     0.293 HD
ENDBRANCH   6  14
TORSDOF 4
ENDMDL
