MODEL 1
REMARK VINA RESULT:    -3.356      0.000      0.000
REMARK INTER + INTRA:          -4.134
REMARK INTER:                  -4.043
REMARK INTRA:                  -0.091
REMARK UNBOUND:                -0.091
REMARK SMILES O=c1c(O)c(-c2ccc(O)c(O)c2)oc2cc(O)cc(O)c12
REMARK SMILES IDX 5 1 3 2 2 3 1 4 22 5 20 6 19 7 17 8 16 9 15 10 14 11 6 12
REMARK SMILES IDX 7 13 8 14 9 15 13 16 11 17 10 18 12 20 4 22 21 24 18 26
REMARK H PARENT 10 19 12 21 4 23 21 25 18 27
REMARK Flexibility Score: inf
ROOT
ATOM      1  C   UNL     1       9.470 -17.814   7.850  1.00  0.00     0.180 A 
ATOM      2  C   UNL     1       9.954 -18.417   6.675  1.00  0.00     0.208 A 
ATOM      3  C   UNL     1      11.323 -18.329   6.380  1.00  0.00     0.238 A 
ATOM      4  O   UNL     1      11.759 -18.918   5.356  1.00  0.00    -0.285 OA
ATOM      5  C   UNL     1      12.189 -17.627   7.252  1.00  0.00     0.111 A 
ATOM      6  C   UNL     1      13.587 -17.442   7.031  1.00  0.00     0.134 A 
ATOM      7  C   UNL     1      14.370 -16.842   8.025  1.00  0.00     0.093 A 
ATOM      8  C   UNL     1      13.797 -16.363   9.203  1.00  0.00     0.123 A 
ATOM      9  C   UNL     1      12.421 -16.486   9.404  1.00  0.00     0.094 A 
ATOM     10  C   UNL     1      11.619 -17.112   8.446  1.00  0.00     0.146 A 
ATOM     11  O   UNL     1      10.317 -17.219   8.681  1.00  0.00    -0.452 OA
ENDROOT
BRANCH   1  12
ATOM     12  C   UNL     1       8.035 -17.842   8.216  1.00  0.00     0.025 A 
ATOM     13  C   UNL     1       7.401 -19.076   8.429  1.00  0.00     0.016 A 
ATOM     14  C   UNL     1       6.054 -19.124   8.796  1.00  0.00     0.051 A 
ATOM     15  C   UNL     1       5.325 -17.940   8.970  1.00  0.00     0.157 A 
ATOM     16  C   UNL     1       7.307 -16.655   8.412  1.00  0.00     0.062 A 
ATOM     17  C   UNL     1       5.957 -16.700   8.781  1.00  0.00     0.158 A 
BRANCH  15  18
ATOM     18  O   UNL     1       3.980 -17.992   9.334  1.00  0.00    -0.504 OA
ATOM     19  H   UNL     1       3.692 -17.964  10.306  1.00  0.00     0.293 HD
ENDBRANCH  15  18
BRANCH  17  20
ATOM     20  O   UNL     1       5.264 -15.504   8.961  1.00  0.00    -0.504 OA
ATOM     21  H   UNL     1       5.625 -14.754   9.539  1.00  0.00     0.293 HD
ENDBRANCH  17  20
ENDBRANCH   1  12
BRANCH   2  22
ATOM     22  O   UNL     1       9.085 -19.125   5.840  1.00  0.00    -0.502 OA
ATOM     23  H   UNL     1       8.216 -19.525   6.172  1.00  0.00     0.293 HD
ENDBRANCH   2  22
BRANCH   6  24
ATOM     24  O   UNL     1      14.245 -17.800   5.850  1.00  0.00    -0.507 OA
ATOM     25  H   UNL     1      14.275 -18.734   5.471  1.00  0.00     0.293 HD
ENDBRANCH   6  24
BRANCH   8  26
ATOM     26  O   UNL     1      14.604 -15.759  10.164  1.00  0.00    -0.508 OA
ATOM     27  H   UNL     1      15.277 -15.043   9.916  1.00  0.00     0.293 HD
ENDBRANCH   8  26
TORSDOF 6
ENDMDL
MODEL 2
REMARK VINA RESULT:    -3.164      1.922      2.503
REMARK INTER + INTRA:          -3.902
REMARK INTER:                  -3.948
REMARK INTRA:                   0.046
REMARK UNBOUND:                -0.091
REMARK SMILES O=c1c(O)c(-c2ccc(O)c(O)c2)oc2cc(O)cc(O)c12
REMARK SMILES IDX 5 1 3 2 2 3 1 4 22 5 20 6 19 7 17 8 16 9 15 10 14 11 6 12
REMARK SMILES IDX 7 13 8 14 9 15 13 16 11 17 10 18 12 20 4 22 21 24 18 26
REMARK H PARENT 10 19 12 21 4 23 21 25 18 27
REMARK Flexibility Score: inf
ROOT
ATOM      1  C   UNL     1       9.911 -16.899   8.328  1.00  0.00     0.180 A 
ATOM      2  C   UNL     1      10.692 -18.002   8.714  1.00  0.00     0.208 A 
ATOM      3  C   UNL     1      12.085 -17.940   8.553  1.00  0.00     0.238 A 
ATOM      4  O   UNL     1      12.784 -18.908   8.951  1.00  0.00    -0.285 OA
ATOM      5  C   UNL     1      12.679 -16.783   7.992  1.00  0.00     0.111 A 
ATOM      6  C   UNL     1      14.076 -16.628   7.746  1.00  0.00     0.134 A 
ATOM      7  C   UNL     1      14.567 -15.391   7.308  1.00  0.00     0.093 A 
ATOM      8  C   UNL     1      13.705 -14.326   7.046  1.00  0.00     0.123 A 
ATOM      9  C   UNL     1      12.331 -14.486   7.227  1.00  0.00     0.094 A 
ATOM     10  C   UNL     1      11.815 -15.696   7.697  1.00  0.00     0.146 A 
ATOM     11  O   UNL     1      10.503 -15.804   7.866  1.00  0.00    -0.452 OA
ENDROOT
BRANCH   1  12
ATOM     12  C   UNL     1       8.434 -16.900   8.443  1.00  0.00     0.025 A 
ATOM     13  C   UNL     1       7.778 -15.752   8.915  1.00  0.00     0.016 A 
ATOM     14  C   UNL     1       6.385 -15.724   9.012  1.00  0.00     0.051 A 
ATOM     15  C   UNL     1       5.626 -16.836   8.625  1.00  0.00     0.157 A 
ATOM     16  C   UNL     1       7.669 -18.007   8.036  1.00  0.00     0.062 A 
ATOM     17  C   UNL     1       6.272 -17.982   8.131  1.00  0.00     0.158 A 
BRANCH  15  18
ATOM     18  O   UNL     1       4.236 -16.806   8.725  1.00  0.00    -0.504 OA
ATOM     19  H   UNL     1       3.648 -17.364   8.117  1.00  0.00     0.293 HD
ENDBRANCH  15  18
BRANCH  17  20
ATOM     20  O   UNL     1       5.545 -19.100   7.724  1.00  0.00    -0.504 OA
ATOM     21  H   UNL     1       4.553 -19.190   7.902  1.00  0.00     0.293 HD
ENDBRANCH  17  20
ENDBRANCH   1  12
BRANCH   2  22
ATOM     22  O   UNL     1      10.088 -19.125   9.287  1.00  0.00    -0.502 OA
ATOM     23  H   UNL     1      10.623 -19.880   9.699  1.00  0.00     0.293 HD
ENDBRANCH   2  22
BRANCH   6  24
ATOM     24  O   UNL     1      15.013 -17.656   7.887  1.00  0.00    -0.507 OA
ATOM     25  H   UNL     1      15.940 -17.645   7.489  1.00  0.00     0.293 HD
ENDBRANCH   6  24
BRANCH   8  26
ATOM     26  O   UNL     1      14.226 -13.115   6.598  1.00  0.00    -0.508 OA
ATOM     27  H   UNL     1      15.224 -12.938   6.587  1.00  0.00     0.293 HD
ENDBRANCH   8  26
TORSDOF 6
ENDMDL
MODEL 3
REMARK VINA RESULT:    -2.547      1.737      6.765
REMARK INTER + INTRA:          -3.158
REMARK INTER:                  -3.192
REMARK INTRA:                   0.034
REMARK UNBOUND:                -0.091
REMARK SMILES O=c1c(O)c(-c2ccc(O)c(O)c2)oc2cc(O)cc(O)c12
REMARK SMILES IDX 5 1 3 2 2 3 1 4 22 5 20 6 19 7 17 8 16 9 15 10 14 11 6 12
REMARK SMILES IDX 7 13 8 14 9 15 13 16 11 17 10 18 12 20 4 22 21 24 18 26
REMARK H PARENT 10 19 12 21 4 23 21 25 18 27
REMARK Flexibility Score: inf
ROOT
ATOM      1  C   UNL     1       9.577 -18.456   7.550  1.00  0.00     0.180 A 
ATOM      2  C   UNL     1       8.764 -18.401   6.404  1.00  0.00     0.208 A 
ATOM      3  C   UNL     1       7.376 -18.547   6.547  1.00  0.00     0.238 A 
ATOM      4  O   UNL     1       6.648 -18.443   5.525  1.00  0.00    -0.285 OA
ATOM      5  C   UNL     1       6.817 -18.762   7.830  1.00  0.00     0.111 A 
ATOM      6  C   UNL     1       5.428 -18.963   8.086  1.00  0.00     0.134 A 
ATOM      7  C   UNL     1       4.973 -19.037   9.409  1.00  0.00     0.093 A 
ATOM      8  C   UNL     1       5.863 -18.982  10.481  1.00  0.00     0.123 A 
ATOM      9  C   UNL     1       7.231 -18.846  10.240  1.00  0.00     0.094 A 
ATOM     10  C   UNL     1       7.711 -18.733   8.932  1.00  0.00     0.146 A 
ATOM     11  O   UNL     1       9.018 -18.594   8.746  1.00  0.00    -0.452 OA
ENDROOT
BRANCH   1  12
ATOM     12  C   UNL     1      11.051 -18.336   7.477  1.00  0.00     0.025 A 
ATOM     13  C   UNL     1      11.761 -19.109   6.545  1.00  0.00     0.016 A 
ATOM     14  C   UNL     1      13.150 -18.996   6.445  1.00  0.00     0.051 A 
ATOM     15  C   UNL     1      13.848 -18.098   7.263  1.00  0.00     0.157 A 
ATOM     16  C   UNL     1      11.752 -17.420   8.282  1.00  0.00     0.062 A 
ATOM     17  C   UNL     1      13.144 -17.304   8.183  1.00  0.00     0.158 A 
BRANCH  15  18
ATOM     18  O   UNL     1      15.234 -17.989   7.162  1.00  0.00    -0.504 OA
ATOM     19  H   UNL     1      15.675 -17.555   6.359  1.00  0.00     0.293 HD
ENDBRANCH  15  18
BRANCH  17  20
ATOM     20  O   UNL     1      13.806 -16.390   9.001  1.00  0.00    -0.504 OA
ATOM     21  H   UNL     1      14.489 -16.681   9.691  1.00  0.00     0.293 HD
ENDBRANCH  17  20
ENDBRANCH   1  12
BRANCH   2  22
ATOM     22  O   UNL     1       9.333 -18.165   5.150  1.00  0.00    -0.502 OA
ATOM     23  H   UNL     1       9.016 -17.422   4.539  1.00  0.00     0.293 HD
ENDBRANCH   2  22
BRANCH   6  24
ATOM     24  O   UNL     1       4.464 -19.124   7.086  1.00  0.00    -0.507 OA
ATOM     25  H   UNL     1       3.614 -18.585   7.016  1.00  0.00     0.293 HD
ENDBRANCH   6  24
BRANCH   8  26
ATOM     26  O   UNL     1       5.378 -19.074  11.783  1.00  0.00    -0.508 OA
ATOM     27  H   UNL     1       4.467 -18.709  12.036  1.00  0.00     0.293 HD
ENDBRANCH   8  26
TORSDOF 6
ENDMDL
MODEL 4
REMARK VINA RESULT:    -1.715      1.698      6.827
REMARK INTER + INTRA:          -2.157
REMARK INTER:                  -1.825
REMARK INTRA:                  -0.332
REMARK UNBOUND:                -0.091
REMARK SMILES O=c1c(O)c(-c2ccc(O)c(O)c2)oc2cc(O)cc(O)c12
REMARK SMILES IDX 5 1 3 2 2 3 1 4 22 5 20 6 19 7 17 8 16 9 15 10 14 11 6 12
REMARK SMILES IDX 7 13 8 14 9 15 13 16 11 17 10 18 12 20 4 22 21 24 18 26
REMARK H PARENT 10 19 12 21 4 23 21 25 18 27
REMARK Flexibility Score: inf
ROOT
ATOM      1  C   UNL     1       9.797 -16.507   7.790  1.00  0.00     0.180 A 
ATOM      2  C   UNL     1       9.539 -17.648   7.010  1.00  0.00     0.208 A 
ATOM      3  C   UNL     1       8.226 -18.136   6.933  1.00  0.00     0.238 A 
ATOM      4  O   UNL     1       7.991 -19.125   6.190  1.00  0.00    -0.285 OA
ATOM      5  C   UNL     1       7.190 -17.489   7.649  1.00  0.00     0.111 A 
ATOM      6  C   UNL     1       5.830 -17.922   7.674  1.00  0.00     0.134 A 
ATOM      7  C   UNL     1       4.865 -17.131   8.311  1.00  0.00     0.093 A 
ATOM      8  C   UNL     1       5.221 -15.958   8.977  1.00  0.00     0.123 A 
ATOM      9  C   UNL     1       6.557 -15.556   9.008  1.00  0.00     0.094 A 
ATOM     10  C   UNL     1       7.537 -16.306   8.352  1.00  0.00     0.146 A 
ATOM     11  O   UNL     1       8.794 -15.884   8.396  1.00  0.00    -0.452 OA
ENDROOT
BRANCH   1  12
ATOM     12  C   UNL     1      11.161 -15.948   7.940  1.00  0.00     0.025 A 
ATOM     13  C   UNL     1      11.564 -14.882   7.120  1.00  0.00     0.016 A 
ATOM     14  C   UNL     1      12.838 -14.326   7.259  1.00  0.00     0.051 A 
ATOM     15  C   UNL     1      13.721 -14.815   8.230  1.00  0.00     0.157 A 
ATOM     16  C   UNL     1      12.042 -16.423   8.928  1.00  0.00     0.062 A 
ATOM     17  C   UNL     1      13.319 -15.866   9.071  1.00  0.00     0.158 A 
BRANCH  15  18
ATOM     18  O   UNL     1      14.993 -14.259   8.365  1.00  0.00    -0.504 OA
ATOM     19  H   UNL     1      15.418 -13.719   7.620  1.00  0.00     0.293 HD
ENDBRANCH  15  18
BRANCH  17  20
ATOM     20  O   UNL     1      14.168 -16.366  10.057  1.00  0.00    -0.504 OA
ATOM     21  H   UNL     1      13.817 -16.753  10.924  1.00  0.00     0.293 HD
ENDBRANCH  17  20
ENDBRANCH   1  12
BRANCH   2  22
ATOM     22  O   UNL     1      10.572 -18.258   6.293  1.00  0.00    -0.502 OA
ATOM     23  H   UNL     1      10.503 -18.460   5.303  1.00  0.00     0.293 HD
ENDBRANCH   2  22
BRANCH   6  24
ATOM     24  O   UNL     1       5.382 -19.125   7.120  1.00  0.00    -0.507 OA
ATOM     25  H   UNL     1       5.952 -19.949   6.999  1.00  0.00     0.293 HD
ENDBRANCH   6  24
BRANCH   8  26
ATOM     26  O   UNL     1       4.237 -15.203   9.612  1.00  0.00    -0.508 OA
ATOM     27  H   UNL     1       3.369 -14.965   9.147  1.00  0.00     0.293 HD
ENDBRANCH   8  26
TORSDOF 6
ENDMDL
MODEL 5
REMARK VINA RESULT:    -1.594      1.885      2.737
REMARK INTER + INTRA:          -2.011
REMARK INTER:                  -1.727
REMARK INTRA:                  -0.284
REMARK UNBOUND:                -0.091
REMARK SMILES O=c1c(O)c(-c2ccc(O)c(O)c2)oc2cc(O)cc(O)c12
REMARK SMILES IDX 5 1 3 2 2 3 1 4 22 5 20 6 19 7 17 8 16 9 15 10 14 11 6 12
REMARK SMILES IDX 7 13 8 14 9 15 13 16 11 17 10 18 12 20 4 22 21 24 18 26
REMARK H PARENT 10 19 12 21 4 23 21 25 18 27
REMARK Flexibility Score: inf
ROOT
ATOM      1  C   UNL     1      10.011 -16.972   7.562  1.00  0.00     0.180 A 
ATOM      2  C   UNL     1      10.277 -15.591   7.529  1.00  0.00     0.208 A 
ATOM      3  C   UNL     1      11.610 -15.157   7.472  1.00  0.00     0.238 A 
ATOM      4  O   UNL     1      11.841 -13.923   7.387  1.00  0.00    -0.285 OA
ATOM      5  C   UNL     1      12.662 -16.105   7.465  1.00  0.00     0.111 A 
ATOM      6  C   UNL     1      14.050 -15.776   7.449  1.00  0.00     0.134 A 
ATOM      7  C   UNL     1      15.001 -16.796   7.313  1.00  0.00     0.093 A 
ATOM      8  C   UNL     1      14.617 -18.135   7.257  1.00  0.00     0.123 A 
ATOM      9  C   UNL     1      13.264 -18.473   7.331  1.00  0.00     0.094 A 
ATOM     10  C   UNL     1      12.291 -17.475   7.432  1.00  0.00     0.146 A 
ATOM     11  O   UNL     1      11.015 -17.837   7.489  1.00  0.00    -0.452 OA
ENDROOT
BRANCH   1  12
ATOM     12  C   UNL     1       8.632 -17.506   7.648  1.00  0.00     0.025 A 
ATOM     13  C   UNL     1       8.052 -18.105   6.519  1.00  0.00     0.016 A 
ATOM     14  C   UNL     1       6.762 -18.635   6.584  1.00  0.00     0.051 A 
ATOM     15  C   UNL     1       6.037 -18.588   7.782  1.00  0.00     0.157 A 
ATOM     16  C   UNL     1       7.911 -17.480   8.855  1.00  0.00     0.062 A 
ATOM     17  C   UNL     1       6.617 -18.011   8.924  1.00  0.00     0.158 A 
BRANCH  15  18
ATOM     18  O   UNL     1       4.748 -19.115   7.843  1.00  0.00    -0.504 OA
ATOM     19  H   UNL     1       4.225 -19.337   7.004  1.00  0.00     0.293 HD
ENDBRANCH  15  18
BRANCH  17  20
ATOM     20  O   UNL     1       5.929 -17.962  10.135  1.00  0.00    -0.504 OA
ATOM     21  H   UNL     1       5.479 -17.116  10.465  1.00  0.00     0.293 HD
ENDBRANCH  17  20
ENDBRANCH   1  12
BRANCH   2  22
ATOM     22  O   UNL     1       9.224 -14.673   7.513  1.00  0.00    -0.502 OA
ATOM     23  H   UNL     1       9.337 -13.710   7.806  1.00  0.00     0.293 HD
ENDBRANCH   2  22
BRANCH   6  24
ATOM     24  O   UNL     1      14.547 -14.477   7.592  1.00  0.00    -0.507 OA
ATOM     25  H   UNL     1      15.466 -14.249   7.940  1.00  0.00     0.293 HD
ENDBRANCH   6  24
BRANCH   8  26
ATOM     26  O   UNL     1      15.589 -19.125   7.136  1.00  0.00    -0.508 OA
ATOM     27  H   UNL     1      16.571 -18.894   7.037  1.00  0.00     0.293 HD
ENDBRANCH   8  26
TORSDOF 6
ENDMDL
