MODEL 1
REMARK VINA RESULT:     0.181      0.000      0.000
REMARK INTER + INTRA:          -0.056
REMARK INTER:                   0.392
REMARK INTRA:                  -0.448
REMARK UNBOUND:                -0.448
REMARK SMILES CCCCCCCCCCCCCCCCCCCCCC(=O)[O-]
REMARK SMILES IDX 12 1 11 2 10 3 9 4 8 5 7 6 6 7 5 8 4 9 3 10 2 11 1 12 13 13
REMARK SMILES IDX 14 14 15 15 16 16 17 17 18 18 19 19 20 20 21 21 22 22 23 23
REMARK SMILES IDX 24 24
REMARK H PARENT
REMARK Flexibility Score: inf
ROOT
ATOM      1  C   UNL     1      -9.939  16.696 -11.650  1.00  0.00     0.000 C 
ENDROOT
BRANCH   1   2
ATOM      2  C   UNL     1      -9.661  15.606 -12.697  1.00  0.00     0.000 C 
BRANCH   2   3
ATOM      3  C   UNL     1      -8.303  14.919 -12.488  1.00  0.00     0.000 C 
BRANCH   3   4
ATOM      4  C   UNL     1      -8.250  13.511 -13.102  1.00  0.00    -0.000 C 
BRANCH   4   5
ATOM      5  C   UNL     1      -7.084  12.671 -12.536  1.00  0.00    -0.000 C 
BRANCH   5   6
ATOM      6  C   UNL     1      -6.435  11.734 -13.573  1.00  0.00    -0.000 C 
BRANCH   6   7
ATOM      7  C   UNL     1      -5.875  12.435 -14.826  1.00  0.00    -0.000 C 
BRANCH   7   8
ATOM      8  C   UNL     1      -6.663  12.170 -16.125  1.00  0.00    -0.000 C 
BRANCH   8   9
ATOM      9  C   UNL     1      -8.103  11.691 -15.866  1.00  0.00    -0.000 C 
BRANCH   9  10
ATOM     10  C   UNL     1      -9.114  12.859 -15.879  1.00  0.00    -0.000 C 
BRANCH  10  11
ATOM     11  C   UNL     1     -10.582  12.403 -15.873  1.00  0.00    -0.003 C 
ATOM     12  C   UNL     1     -10.733  10.892 -16.058  1.00  0.00     0.004 C 
ENDBRANCH  10  11
ENDBRANCH   9  10
ENDBRANCH   8   9
ENDBRANCH   7   8
ENDBRANCH   6   7
ENDBRANCH   5   6
ENDBRANCH   4   5
ENDBRANCH   3   4
ENDBRANCH   2   3
ENDBRANCH   1   2
BRANCH   1  13
ATOM     13  C   UNL     1      -9.881  18.112 -12.242  1.00  0.00     0.000 C 
BRANCH  13  14
ATOM     14  C   UNL     1      -8.449  18.543 -12.612  1.00  0.00     0.000 C 
BRANCH  14  15
ATOM     15  C   UNL     1      -8.246  20.054 -12.420  1.00  0.00     0.000 C 
BRANCH  15  16
ATOM     16  C   UNL     1      -7.903  20.775 -13.741  1.00  0.00     0.000 C 
BRANCH  16  17
ATOM     17  C   UNL     1      -6.403  21.089 -13.864  1.00  0.00     0.000 C 
BRANCH  17  18
ATOM     18  C   UNL     1      -5.904  20.910 -15.311  1.00  0.00     0.000 C 
BRANCH  18  19
ATOM     19  C   UNL     1      -6.699  19.852 -16.089  1.00  0.00     0.000 C 
BRANCH  19  20
ATOM     20  C   UNL     1      -6.037  18.467 -16.056  1.00  0.00     0.006 C 
BRANCH  20  21
ATOM     21  C   UNL     1      -6.804  17.518 -15.128  1.00  0.00     0.053 C 
BRANCH  21  22
ATOM     22  C   UNL     1      -8.200  17.304 -15.623  1.00  0.00     0.041 C 
ATOM     23  O   UNL     1      -8.983  18.283 -15.752  1.00  0.00    -0.550 OA
ATOM     24  O   UNL     1      -8.637  16.023 -15.949  1.00  0.00    -0.550 OA
ENDBRANCH  21  22
ENDBRANCH  20  21
ENDBRANCH  19  20
ENDBRANCH  18  19
ENDBRANCH  17  18
ENDBRANCH  16  17
ENDBRANCH  15  16
ENDBRANCH  14  15
ENDBRANCH  13  14
ENDBRANCH   1  13
TORSDOF 20
ENDMDL
MODEL 2
REMARK VINA RESULT:     1.336      1.483      6.346
REMARK INTER + INTRA:           2.451
REMARK INTER:                   3.544
REMARK INTRA:                  -1.093
REMARK UNBOUND:                -0.448
REMARK SMILES CCCCCCCCCCCCCCCCCCCCCC(=O)[O-]
REMARK SMILES IDX 12 1 11 2 10 3 9 4 8 5 7 6 6 7 5 8 4 9 3 10 2 11 1 12 13 13
REMARK SMILES IDX 14 14 15 15 16 16 17 17 18 18 19 19 20 20 21 21 22 22 23 23
REMARK SMILES IDX 24 24
REMARK H PARENT
REMARK Flexibility Score: inf
ROOT
ATOM      1  C   UNL     1     -10.052  15.482 -11.932  1.00  0.00     0.000 C 
ENDROOT
BRANCH   1   2
ATOM      2  C   UNL     1      -9.897  16.721 -12.828  1.00  0.00     0.000 C 
BRANCH   2   3
ATOM      3  C   UNL     1      -9.162  17.872 -12.125  1.00  0.00     0.000 C 
BRANCH   3   4
ATOM      4  C   UNL     1      -8.878  19.055 -13.063  1.00  0.00    -0.000 C 
BRANCH   4   5
ATOM      5  C   UNL     1      -7.448  19.613 -12.884  1.00  0.00    -0.000 C 
BRANCH   5   6
ATOM      6  C   UNL     1      -7.230  20.985 -13.551  1.00  0.00    -0.000 C 
BRANCH   6   7
ATOM      7  C   UNL     1      -6.157  21.009 -14.657  1.00  0.00    -0.000 C 
BRANCH   7   8
ATOM      8  C   UNL     1      -6.620  20.467 -16.024  1.00  0.00    -0.000 C 
BRANCH   8   9
ATOM      9  C   UNL     1      -7.126  19.015 -15.953  1.00  0.00    -0.000 C 
BRANCH   9  10
ATOM     10  C   UNL     1      -6.041  18.047 -15.431  1.00  0.00    -0.000 C 
BRANCH  10  11
ATOM     11  C   UNL     1      -6.336  16.569 -15.733  1.00  0.00    -0.003 C 
ATOM     12  C   UNL     1      -7.808  16.314 -16.063  1.00  0.00     0.004 C 
ENDBRANCH  10  11
ENDBRANCH   9  10
ENDBRANCH   8   9
ENDBRANCH   7   8
ENDBRANCH   6   7
ENDBRANCH   5   6
ENDBRANCH   4   5
ENDBRANCH   3   4
ENDBRANCH   2   3
ENDBRANCH   1   2
BRANCH   1  13
ATOM     13  C   UNL     1      -8.777  14.627 -11.883  1.00  0.00     0.000 C 
BRANCH  13  14
ATOM     14  C   UNL     1      -7.499  15.473 -11.731  1.00  0.00     0.000 C 
BRANCH  14  15
ATOM     15  C   UNL     1      -6.553  15.289 -12.928  1.00  0.00     0.000 C 
BRANCH  15  16
ATOM     16  C   UNL     1      -6.049  13.837 -13.062  1.00  0.00     0.000 C 
BRANCH  16  17
ATOM     17  C   UNL     1      -6.027  13.357 -14.523  1.00  0.00     0.000 C 
BRANCH  17  18
ATOM     18  C   UNL     1      -5.876  11.826 -14.613  1.00  0.00     0.000 C 
BRANCH  18  19
ATOM     19  C   UNL     1      -6.872  11.186 -15.591  1.00  0.00     0.000 C 
BRANCH  19  20
ATOM     20  C   UNL     1      -7.909  12.186 -16.124  1.00  0.00     0.006 C 
BRANCH  20  21
ATOM     21  C   UNL     1      -9.321  11.594 -16.057  1.00  0.00     0.053 C 
BRANCH  21  22
ATOM     22  C   UNL     1     -10.305  12.618 -15.585  1.00  0.00     0.041 C 
ATOM     23  O   UNL     1     -11.540  12.433 -15.755  1.00  0.00    -0.550 OA
ATOM     24  O   UNL     1      -9.861  13.773 -14.949  1.00  0.00    -0.550 OA
ENDBRANCH  21  22
ENDBRANCH  20  21
ENDBRANCH  19  20
ENDBRANCH  18  19
ENDBRANCH  17  18
ENDBRANCH  16  17
ENDBRANCH  15  16
ENDBRANCH  14  15
ENDBRANCH  13  14
ENDBRANCH   1  13
TORSDOF 20
ENDMDL
MODEL 3
REMARK VINA RESULT:     1.738      1.679      7.037
REMARK INTER + INTRA:           3.321
REMARK INTER:                   1.035
REMARK INTRA:                   2.286
REMARK UNBOUND:                -0.448
REMARK SMILES CCCCCCCCCCCCCCCCCCCCCC(=O)[O-]
REMARK SMILES IDX 12 1 11 2 10 3 9 4 8 5 7 6 6 7 5 8 4 9 3 10 2 11 1 12 13 13
REMARK SMILES IDX 14 14 15 15 16 16 17 17 18 18 19 19 20 20 21 21 22 22 23 23
REMARK SMILES IDX 24 24
REMARK H PARENT
REMARK Flexibility Score: inf
ROOT
ATOM      1  C   UNL     1      -8.612  14.981 -15.041  1.00  0.00     0.000 C 
ENDROOT
BRANCH   1   2
ATOM      2  C   UNL     1      -8.030  15.915 -16.114  1.00  0.00     0.000 C 
BRANCH   2   3
ATOM      3  C   UNL     1      -6.494  15.933 -16.112  1.00  0.00     0.000 C 
BRANCH   3   4
ATOM      4  C   UNL     1      -5.917  17.253 -15.575  1.00  0.00    -0.000 C 
BRANCH   4   5
ATOM      5  C   UNL     1      -6.675  18.485 -16.118  1.00  0.00    -0.000 C 
BRANCH   5   6
ATOM      6  C   UNL     1      -5.875  19.799 -16.015  1.00  0.00    -0.000 C 
BRANCH   6   7
ATOM      7  C   UNL     1      -6.717  21.085 -16.124  1.00  0.00    -0.000 C 
BRANCH   7   8
ATOM      8  C   UNL     1      -8.172  20.953 -15.632  1.00  0.00    -0.000 C 
BRANCH   8   9
ATOM      9  C   UNL     1      -8.359  19.818 -14.609  1.00  0.00    -0.000 C 
BRANCH   9  10
ATOM     10  C   UNL     1      -8.410  20.347 -13.158  1.00  0.00    -0.000 C 
BRANCH  10  11
ATOM     11  C   UNL     1      -7.204  19.924 -12.304  1.00  0.00    -0.003 C 
ATOM     12  C   UNL     1      -6.069  20.949 -12.335  1.00  0.00     0.004 C 
ENDBRANCH  10  11
ENDBRANCH   9  10
ENDBRANCH   8   9
ENDBRANCH   7   8
ENDBRANCH   6   7
ENDBRANCH   5   6
ENDBRANCH   4   5
ENDBRANCH   3   4
ENDBRANCH   2   3
ENDBRANCH   1   2
BRANCH   1  13
ATOM     13  C   UNL     1      -8.330  13.500 -15.334  1.00  0.00     0.000 C 
BRANCH  13  14
ATOM     14  C   UNL     1      -6.892  13.254 -15.828  1.00  0.00     0.000 C 
BRANCH  14  15
ATOM     15  C   UNL     1      -6.087  12.412 -14.826  1.00  0.00     0.000 C 
BRANCH  15  16
ATOM     16  C   UNL     1      -6.932  11.972 -13.612  1.00  0.00     0.000 C 
BRANCH  16  17
ATOM     17  C   UNL     1      -6.787  12.930 -12.419  1.00  0.00     0.000 C 
BRANCH  17  18
ATOM     18  C   UNL     1      -8.127  13.127 -11.684  1.00  0.00     0.000 C 
BRANCH  18  19
ATOM     19  C   UNL     1      -8.623  14.579 -11.728  1.00  0.00     0.000 C 
BRANCH  19  20
ATOM     20  C   UNL     1      -7.522  15.572 -12.128  1.00  0.00     0.006 C 
BRANCH  20  21
ATOM     21  C   UNL     1      -8.053  16.598 -13.136  1.00  0.00     0.053 C 
BRANCH  21  22
ATOM     22  C   UNL     1      -9.325  17.216 -12.646  1.00  0.00     0.041 C 
ATOM     23  O   UNL     1      -9.338  17.864 -11.566  1.00  0.00    -0.550 OA
ATOM     24  O   UNL     1     -10.496  17.084 -13.387  1.00  0.00    -0.550 OA
ENDBRANCH  21  22
ENDBRANCH  20  21
ENDBRANCH  19  20
ENDBRANCH  18  19
ENDBRANCH  17  18
ENDBRANCH  16  17
ENDBRANCH  15  16
ENDBRANCH  14  15
ENDBRANCH  13  14
ENDBRANCH   1  13
TORSDOF 20
ENDMDL
MODEL 4
REMARK VINA RESULT:     2.284      1.465      2.603
REMARK INTER + INTRA:           4.506
REMARK INTER:                   4.106
REMARK INTRA:                   0.400
REMARK UNBOUND:                -0.448
REMARK SMILES CCCCCCCCCCCCCCCCCCCCCC(=O)[O-]
REMARK SMILES IDX 12 1 11 2 10 3 9 4 8 5 7 6 6 7 5 8 4 9 3 10 2 11 1 12 13 13
REMARK SMILES IDX 14 14 15 15 16 16 17 17 18 18 19 19 20 20 21 21 22 22 23 23
REMARK SMILES IDX 24 24
REMARK H PARENT
REMARK Flexibility Score: inf
ROOT
ATOM      1  C   UNL     1      -9.111  17.824 -13.298  1.00  0.00     0.000 C 
ENDROOT
BRANCH   1   2
ATOM      2  C   UNL     1      -8.617  16.440 -12.846  1.00  0.00     0.000 C 
BRANCH   2   3
ATOM      3  C   UNL     1      -9.764  15.521 -12.398  1.00  0.00     0.000 C 
BRANCH   3   4
ATOM      4  C   UNL     1      -9.883  14.257 -13.265  1.00  0.00    -0.000 C 
BRANCH   4   5
ATOM      5  C   UNL     1      -8.801  14.200 -14.366  1.00  0.00    -0.000 C 
BRANCH   5   6
ATOM      6  C   UNL     1      -9.226  13.397 -15.611  1.00  0.00    -0.000 C 
BRANCH   6   7
ATOM      7  C   UNL     1      -8.238  12.296 -16.045  1.00  0.00    -0.000 C 
BRANCH   7   8
ATOM      8  C   UNL     1      -6.756  12.717 -16.047  1.00  0.00    -0.000 C 
BRANCH   8   9
ATOM      9  C   UNL     1      -5.882  11.842 -15.130  1.00  0.00    -0.000 C 
BRANCH   9  10
ATOM     10  C   UNL     1      -5.897  12.340 -13.667  1.00  0.00    -0.000 C 
BRANCH  10  11
ATOM     11  C   UNL     1      -6.991  11.688 -12.806  1.00  0.00    -0.003 C 
ATOM     12  C   UNL     1      -7.709  12.692 -11.902  1.00  0.00     0.004 C 
ENDBRANCH  10  11
ENDBRANCH   9  10
ENDBRANCH   8   9
ENDBRANCH   7   8
ENDBRANCH   6   7
ENDBRANCH   5   6
ENDBRANCH   4   5
ENDBRANCH   3   4
ENDBRANCH   2   3
ENDBRANCH   1   2
BRANCH   1  13
ATOM     13  C   UNL     1      -8.887  18.907 -12.233  1.00  0.00     0.000 C 
BRANCH  13  14
ATOM     14  C   UNL     1      -7.614  19.737 -12.489  1.00  0.00     0.000 C 
BRANCH  14  15
ATOM     15  C   UNL     1      -7.945  21.101 -13.113  1.00  0.00     0.000 C 
BRANCH  15  16
ATOM     16  C   UNL     1      -8.980  20.993 -14.252  1.00  0.00     0.000 C 
BRANCH  16  17
ATOM     17  C   UNL     1      -8.338  20.599 -15.592  1.00  0.00     0.000 C 
BRANCH  17  18
ATOM     18  C   UNL     1      -6.885  21.102 -15.693  1.00  0.00     0.000 C 
BRANCH  18  19
ATOM     19  C   UNL     1      -5.898  19.997 -16.094  1.00  0.00     0.000 C 
BRANCH  19  20
ATOM     20  C   UNL     1      -6.532  18.597 -16.075  1.00  0.00     0.006 C 
BRANCH  20  21
ATOM     21  C   UNL     1      -6.321  17.923 -14.715  1.00  0.00     0.053 C 
BRANCH  21  22
ATOM     22  C   UNL     1      -6.234  16.436 -14.866  1.00  0.00     0.041 C 
ATOM     23  O   UNL     1      -6.431  15.903 -15.990  1.00  0.00    -0.550 OA
ATOM     24  O   UNL     1      -5.928  15.640 -13.767  1.00  0.00    -0.550 OA
ENDBRANCH  21  22
ENDBRANCH  20  21
ENDBRANCH  19  20
ENDBRANCH  18  19
ENDBRANCH  17  18
ENDBRANCH  16  17
ENDBRANCH  15  16
ENDBRANCH  14  15
ENDBRANCH  13  14
ENDBRANCH   1  13
TORSDOF 20
ENDMDL
