MODEL 1
REMARK VINA RESULT:    -7.661      0.000      0.000
REMARK INTER + INTRA:          -8.988
REMARK INTER:                  -9.229
REMARK INTRA:                   0.241
REMARK UNBOUND:                 0.241
REMARK SMILES O=c1c(O)c(-c2ccc(O)c(O)c2)oc2cc(O)cc(O)c12
REMARK SMILES IDX 5 1 3 2 2 3 1 4 22 5 20 6 19 7 17 8 16 9 15 10 14 11 6 12
REMARK SMILES IDX 7 13 8 14 9 15 13 16 11 17 10 18 12 20 4 22 21 24 18 26
REMARK H PARENT 10 19 12 21 4 23 21 25 18 27
REMARK Flexibility Score: inf
ROOT
ATOM      1  C   UNL     1     -63.114 -41.695 -33.584  1.00  0.00     0.180 A 
ATOM      2  C   UNL     1     -64.110 -42.340 -32.830  1.00  0.00     0.208 A 
ATOM      3  C   UNL     1     -65.144 -43.013 -33.501  1.00  0.00     0.238 A 
ATOM      4  O   UNL     1     -66.062 -43.541 -32.821  1.00  0.00    -0.285 OA
ATOM      5  C   UNL     1     -65.160 -43.047 -34.916  1.00  0.00     0.111 A 
ATOM      6  C   UNL     1     -66.136 -43.733 -35.699  1.00  0.00     0.134 A 
ATOM      7  C   UNL     1     -66.128 -43.592 -37.093  1.00  0.00     0.093 A 
ATOM      8  C   UNL     1     -65.139 -42.841 -37.734  1.00  0.00     0.123 A 
ATOM      9  C   UNL     1     -64.148 -42.216 -36.983  1.00  0.00     0.094 A 
ATOM     10  C   UNL     1     -64.150 -42.310 -35.588  1.00  0.00     0.146 A 
ATOM     11  O   UNL     1     -63.193 -41.690 -34.909  1.00  0.00    -0.452 OA
ENDROOT
BRANCH   1  12
ATOM     12  C   UNL     1     -61.980 -40.987 -32.948  1.00  0.00     0.025 A 
ATOM     13  C   UNL     1     -61.369 -39.920 -33.620  1.00  0.00     0.016 A 
ATOM     14  C   UNL     1     -60.286 -39.251 -33.047  1.00  0.00     0.051 A 
ATOM     15  C   UNL     1     -59.781 -39.643 -31.802  1.00  0.00     0.157 A 
ATOM     16  C   UNL     1     -61.462 -41.398 -31.708  1.00  0.00     0.062 A 
ATOM     17  C   UNL     1     -60.373 -40.737 -31.127  1.00  0.00     0.158 A 
BRANCH  15  18
ATOM     18  O   UNL     1     -58.700 -38.928 -31.282  1.00  0.00    -0.504 OA
ATOM     19  H   UNL     1     -58.152 -39.232 -30.490  1.00  0.00     0.293 HD
ENDBRANCH  15  18
BRANCH  17  20
ATOM     20  O   UNL     1     -59.912 -41.198 -29.892  1.00  0.00    -0.504 OA
ATOM     21  H   UNL     1     -60.429 -41.113 -29.029  1.00  0.00     0.293 HD
ENDBRANCH  17  20
ENDBRANCH   1  12
BRANCH   2  22
ATOM     22  O   UNL     1     -64.088 -42.274 -31.433  1.00  0.00    -0.502 OA
ATOM     23  H   UNL     1     -63.435 -42.810 -30.874  1.00  0.00     0.293 HD
ENDBRANCH   2  22
BRANCH   6  24
ATOM     24  O   UNL     1     -67.109 -44.582 -35.164  1.00  0.00    -0.507 OA
ATOM     25  H   UNL     1     -66.945 -45.256 -34.432  1.00  0.00     0.293 HD
ENDBRANCH   6  24
BRANCH   8  26
ATOM     26  O   UNL     1     -65.130 -42.718 -39.122  1.00  0.00    -0.508 OA
ATOM     27  H   UNL     1     -65.932 -42.977 -39.683  1.00  0.00     0.293 HD
ENDBRANCH   8  26
TORSDOF 6
ENDMDL
MODEL 2
REMARK VINA RESULT:    -7.429      2.504      6.676
REMARK INTER + INTRA:          -8.709
REMARK INTER:                  -8.437
REMARK INTRA:                  -0.271
REMARK UNBOUND:                 0.241
REMARK SMILES O=c1c(O)c(-c2ccc(O)c(O)c2)oc2cc(O)cc(O)c12
REMARK SMILES IDX 5 1 3 2 2 3 1 4 22 5 20 6 19 7 17 8 16 9 15 10 14 11 6 12
REMARK SMILES IDX 7 13 8 14 9 15 13 16 11 17 10 18 12 20 4 22 21 24 18 26
REMARK H PARENT 10 19 12 21 4 23 21 25 18 27
REMARK Flexibility Score: inf
ROOT
ATOM      1  C   UNL     1     -61.609 -42.703 -35.132  1.00  0.00     0.180 A 
ATOM      2  C   UNL     1     -62.478 -43.467 -34.334  1.00  0.00     0.208 A 
ATOM      3  C   UNL     1     -62.532 -43.217 -32.953  1.00  0.00     0.238 A 
ATOM      4  O   UNL     1     -63.271 -43.941 -32.237  1.00  0.00    -0.285 OA
ATOM      5  C   UNL     1     -61.728 -42.196 -32.390  1.00  0.00     0.111 A 
ATOM      6  C   UNL     1     -61.732 -41.830 -31.011  1.00  0.00     0.134 A 
ATOM      7  C   UNL     1     -60.802 -40.893 -30.542  1.00  0.00     0.093 A 
ATOM      8  C   UNL     1     -59.912 -40.263 -31.416  1.00  0.00     0.123 A 
ATOM      9  C   UNL     1     -59.941 -40.570 -32.774  1.00  0.00     0.094 A 
ATOM     10  C   UNL     1     -60.834 -41.527 -33.266  1.00  0.00     0.146 A 
ATOM     11  O   UNL     1     -60.821 -41.798 -34.565  1.00  0.00    -0.452 OA
ENDROOT
BRANCH   1  12
ATOM     12  C   UNL     1     -61.515 -42.891 -36.597  1.00  0.00     0.025 A 
ATOM     13  C   UNL     1     -60.783 -43.971 -37.109  1.00  0.00     0.016 A 
ATOM     14  C   UNL     1     -60.666 -44.156 -38.488  1.00  0.00     0.051 A 
ATOM     15  C   UNL     1     -61.263 -43.260 -39.382  1.00  0.00     0.157 A 
ATOM     16  C   UNL     1     -62.097 -41.977 -37.492  1.00  0.00     0.062 A 
ATOM     17  C   UNL     1     -61.982 -42.151 -38.877  1.00  0.00     0.158 A 
BRANCH  15  18
ATOM     18  O   UNL     1     -61.113 -43.505 -40.748  1.00  0.00    -0.504 OA
ATOM     19  H   UNL     1     -61.091 -44.429 -41.156  1.00  0.00     0.293 HD
ENDBRANCH  15  18
BRANCH  17  20
ATOM     20  O   UNL     1     -62.586 -41.204 -39.707  1.00  0.00    -0.504 OA
ATOM     21  H   UNL     1     -62.586 -40.211 -39.525  1.00  0.00     0.293 HD
ENDBRANCH  17  20
ENDBRANCH   1  12
BRANCH   2  22
ATOM     22  O   UNL     1     -63.246 -44.485 -34.906  1.00  0.00    -0.502 OA
ATOM     23  H   UNL     1     -64.035 -44.296 -35.512  1.00  0.00     0.293 HD
ENDBRANCH   2  22
BRANCH   6  24
ATOM     24  O   UNL     1     -62.640 -42.331 -30.073  1.00  0.00    -0.507 OA
ATOM     25  H   UNL     1     -62.464 -43.118 -29.468  1.00  0.00     0.293 HD
ENDBRANCH   6  24
BRANCH   8  26
ATOM     26  O   UNL     1     -59.001 -39.321 -30.944  1.00  0.00    -0.508 OA
ATOM     27  H   UNL     1     -59.268 -38.618 -30.265  1.00  0.00     0.293 HD
ENDBRANCH   8  26
TORSDOF 6
ENDMDL
MODEL 3
REMARK VINA RESULT:    -7.020      1.276      2.912
REMARK INTER + INTRA:          -8.215
REMARK INTER:                  -8.266
REMARK INTRA:                   0.051
REMARK UNBOUND:                 0.241
REMARK SMILES O=c1c(O)c(-c2ccc(O)c(O)c2)oc2cc(O)cc(O)c12
REMARK SMILES IDX 5 1 3 2 2 3 1 4 22 5 20 6 19 7 17 8 16 9 15 10 14 11 6 12
REMARK SMILES IDX 7 13 8 14 9 15 13 16 11 17 10 18 12 20 4 22 21 24 18 26
REMARK H PARENT 10 19 12 21 4 23 21 25 18 27
REMARK Flexibility Score: inf
ROOT
ATOM      1  C   UNL     1     -62.980 -41.895 -34.261  1.00  0.00     0.180 A 
ATOM      2  C   UNL     1     -62.917 -42.031 -35.658  1.00  0.00     0.208 A 
ATOM      3  C   UNL     1     -63.948 -42.718 -36.322  1.00  0.00     0.238 A 
ATOM      4  O   UNL     1     -63.859 -42.884 -37.566  1.00  0.00    -0.285 OA
ATOM      5  C   UNL     1     -65.034 -43.244 -35.582  1.00  0.00     0.111 A 
ATOM      6  C   UNL     1     -66.152 -43.921 -36.156  1.00  0.00     0.134 A 
ATOM      7  C   UNL     1     -67.105 -44.513 -35.317  1.00  0.00     0.093 A 
ATOM      8  C   UNL     1     -67.013 -44.396 -33.928  1.00  0.00     0.123 A 
ATOM      9  C   UNL     1     -65.958 -43.687 -33.361  1.00  0.00     0.094 A 
ATOM     10  C   UNL     1     -64.972 -43.115 -34.171  1.00  0.00     0.146 A 
ATOM     11  O   UNL     1     -63.978 -42.456 -33.589  1.00  0.00    -0.452 OA
ENDROOT
BRANCH   1  12
ATOM     12  C   UNL     1     -61.945 -41.164 -33.494  1.00  0.00     0.025 A 
ATOM     13  C   UNL     1     -61.521 -39.904 -33.935  1.00  0.00     0.016 A 
ATOM     14  C   UNL     1     -60.533 -39.206 -33.239  1.00  0.00     0.051 A 
ATOM     15  C   UNL     1     -59.937 -39.759 -32.099  1.00  0.00     0.157 A 
ATOM     16  C   UNL     1     -61.333 -41.732 -32.363  1.00  0.00     0.062 A 
ATOM     17  C   UNL     1     -60.338 -41.043 -31.659  1.00  0.00     0.158 A 
BRANCH  15  18
ATOM     18  O   UNL     1     -58.960 -39.007 -31.444  1.00  0.00    -0.504 OA
ATOM     19  H   UNL     1     -58.231 -38.493 -31.920  1.00  0.00     0.293 HD
ENDBRANCH  15  18
BRANCH  17  20
ATOM     20  O   UNL     1     -59.776 -41.667 -30.544  1.00  0.00    -0.504 OA
ATOM     21  H   UNL     1     -60.306 -41.972 -29.741  1.00  0.00     0.293 HD
ENDBRANCH  17  20
ENDBRANCH   1  12
BRANCH   2  22
ATOM     22  O   UNL     1     -61.824 -41.524 -36.367  1.00  0.00    -0.502 OA
ATOM     23  H   UNL     1     -61.342 -42.060 -37.078  1.00  0.00     0.293 HD
ENDBRANCH   2  22
BRANCH   6  24
ATOM     24  O   UNL     1     -66.386 -44.015 -37.530  1.00  0.00    -0.507 OA
ATOM     25  H   UNL     1     -66.058 -43.352 -38.216  1.00  0.00     0.293 HD
ENDBRANCH   6  24
BRANCH   8  26
ATOM     26  O   UNL     1     -67.974 -44.976 -33.102  1.00  0.00    -0.508 OA
ATOM     27  H   UNL     1     -68.935 -44.657 -33.101  1.00  0.00     0.293 HD
ENDBRANCH   8  26
TORSDOF 6
ENDMDL
MODEL 4
REMARK VINA RESULT:    -7.011      3.329      7.483
REMARK INTER + INTRA:          -8.205
REMARK INTER:                  -7.889
REMARK INTRA:                  -0.316
REMARK UNBOUND:                 0.241
REMARK SMILES O=c1c(O)c(-c2ccc(O)c(O)c2)oc2cc(O)cc(O)c12
REMARK SMILES IDX 5 1 3 2 2 3 1 4 22 5 20 6 19 7 17 8 16 9 15 10 14 11 6 12
REMARK SMILES IDX 7 13 8 14 9 15 13 16 11 17 10 18 12 20 4 22 21 24 18 26
REMARK H PARENT 10 19 12 21 4 23 21 25 18 27
REMARK Flexibility Score: inf
ROOT
ATOM      1  C   UNL     1     -61.584 -43.329 -36.472  1.00  0.00     0.180 A 
ATOM      2  C   UNL     1     -62.233 -42.198 -35.946  1.00  0.00     0.208 A 
ATOM      3  C   UNL     1     -61.953 -41.806 -34.626  1.00  0.00     0.238 A 
ATOM      4  O   UNL     1     -62.578 -40.826 -34.143  1.00  0.00    -0.285 OA
ATOM      5  C   UNL     1     -61.017 -42.538 -33.857  1.00  0.00     0.111 A 
ATOM      6  C   UNL     1     -60.628 -42.205 -32.525  1.00  0.00     0.134 A 
ATOM      7  C   UNL     1     -59.791 -43.075 -31.813  1.00  0.00     0.093 A 
ATOM      8  C   UNL     1     -59.279 -44.230 -32.409  1.00  0.00     0.123 A 
ATOM      9  C   UNL     1     -59.606 -44.532 -33.728  1.00  0.00     0.094 A 
ATOM     10  C   UNL     1     -60.467 -43.702 -34.452  1.00  0.00     0.146 A 
ATOM     11  O   UNL     1     -60.762 -44.032 -35.704  1.00  0.00    -0.452 OA
ENDROOT
BRANCH   1  12
ATOM     12  C   UNL     1     -61.808 -43.789 -37.861  1.00  0.00     0.025 A 
ATOM     13  C   UNL     1     -62.654 -44.881 -38.098  1.00  0.00     0.016 A 
ATOM     14  C   UNL     1     -62.864 -45.344 -39.398  1.00  0.00     0.051 A 
ATOM     15  C   UNL     1     -62.223 -44.737 -40.485  1.00  0.00     0.157 A 
ATOM     16  C   UNL     1     -61.146 -43.192 -38.948  1.00  0.00     0.062 A 
ATOM     17  C   UNL     1     -61.346 -43.651 -40.255  1.00  0.00     0.158 A 
BRANCH  15  18
ATOM     18  O   UNL     1     -62.481 -45.244 -41.760  1.00  0.00    -0.504 OA
ATOM     19  H   UNL     1     -62.368 -44.713 -42.612  1.00  0.00     0.293 HD
ENDBRANCH  15  18
BRANCH  17  20
ATOM     20  O   UNL     1     -60.657 -43.008 -41.286  1.00  0.00    -0.504 OA
ATOM     21  H   UNL     1     -61.065 -42.307 -41.887  1.00  0.00     0.293 HD
ENDBRANCH  17  20
ENDBRANCH   1  12
BRANCH   2  22
ATOM     22  O   UNL     1     -63.170 -41.503 -36.715  1.00  0.00    -0.502 OA
ATOM     23  H   UNL     1     -64.127 -41.366 -36.413  1.00  0.00     0.293 HD
ENDBRANCH   2  22
BRANCH   6  24
ATOM     24  O   UNL     1     -61.008 -41.031 -31.870  1.00  0.00    -0.507 OA
ATOM     25  H   UNL     1     -61.956 -40.791 -31.625  1.00  0.00     0.293 HD
ENDBRANCH   6  24
BRANCH   8  26
ATOM     26  O   UNL     1     -58.435 -45.081 -31.698  1.00  0.00    -0.508 OA
ATOM     27  H   UNL     1     -58.736 -46.002 -31.404  1.00  0.00     0.293 HD
ENDBRANCH   8  26
TORSDOF 6
ENDMDL
MODEL 5
REMARK VINA RESULT:    -6.950      2.418      3.697
REMARK INTER + INTRA:          -8.131
REMARK INTER:                  -7.850
REMARK INTRA:                  -0.280
REMARK UNBOUND:                 0.241
REMARK SMILES O=c1c(O)c(-c2ccc(O)c(O)c2)oc2cc(O)cc(O)c12
REMARK SMILES IDX 5 1 3 2 2 3 1 4 22 5 20 6 19 7 17 8 16 9 15 10 14 11 6 12
REMARK SMILES IDX 7 13 8 14 9 15 13 16 11 17 10 18 12 20 4 22 21 24 18 26
REMARK H PARENT 10 19 12 21 4 23 21 25 18 27
REMARK Flexibility Score: inf
ROOT
ATOM      1  C   UNL     1     -61.675 -42.382 -34.537  1.00  0.00     0.180 A 
ATOM      2  C   UNL     1     -60.770 -43.307 -35.087  1.00  0.00     0.208 A 
ATOM      3  C   UNL     1     -60.900 -43.663 -36.440  1.00  0.00     0.238 A 
ATOM      4  O   UNL     1     -60.122 -44.532 -36.912  1.00  0.00    -0.285 OA
ATOM      5  C   UNL     1     -61.920 -43.078 -37.229  1.00  0.00     0.111 A 
ATOM      6  C   UNL     1     -62.117 -43.335 -38.618  1.00  0.00     0.134 A 
ATOM      7  C   UNL     1     -63.238 -42.800 -39.267  1.00  0.00     0.093 A 
ATOM      8  C   UNL     1     -64.131 -41.965 -38.591  1.00  0.00     0.123 A 
ATOM      9  C   UNL     1     -63.914 -41.661 -37.250  1.00  0.00     0.094 A 
ATOM     10  C   UNL     1     -62.824 -42.208 -36.566  1.00  0.00     0.146 A 
ATOM     11  O   UNL     1     -62.660 -41.901 -35.285  1.00  0.00    -0.452 OA
ENDROOT
BRANCH   1  12
ATOM     12  C   UNL     1     -61.587 -41.939 -33.127  1.00  0.00     0.025 A 
ATOM     13  C   UNL     1     -62.540 -42.386 -32.203  1.00  0.00     0.016 A 
ATOM     14  C   UNL     1     -62.487 -41.966 -30.873  1.00  0.00     0.051 A 
ATOM     15  C   UNL     1     -61.493 -41.079 -30.443  1.00  0.00     0.157 A 
ATOM     16  C   UNL     1     -60.601 -41.030 -32.704  1.00  0.00     0.062 A 
ATOM     17  C   UNL     1     -60.542 -40.599 -31.374  1.00  0.00     0.158 A 
BRANCH  15  18
ATOM     18  O   UNL     1     -61.493 -40.702 -29.098  1.00  0.00    -0.504 OA
ATOM     19  H   UNL     1     -60.870 -41.089 -28.404  1.00  0.00     0.293 HD
ENDBRANCH  15  18
BRANCH  17  20
ATOM     20  O   UNL     1     -59.534 -39.697 -31.024  1.00  0.00    -0.504 OA
ATOM     21  H   UNL     1     -59.661 -38.696 -30.986  1.00  0.00     0.293 HD
ENDBRANCH  17  20
ENDBRANCH   1  12
BRANCH   2  22
ATOM     22  O   UNL     1     -59.785 -43.889 -34.286  1.00  0.00    -0.502 OA
ATOM     23  H   UNL     1     -59.660 -44.892 -34.220  1.00  0.00     0.293 HD
ENDBRANCH   2  22
BRANCH   6  24
ATOM     24  O   UNL     1     -61.235 -44.079 -39.407  1.00  0.00    -0.507 OA
ATOM     25  H   UNL     1     -60.949 -45.025 -39.212  1.00  0.00     0.293 HD
ENDBRANCH   6  24
BRANCH   8  26
ATOM     26  O   UNL     1     -65.234 -41.425 -39.248  1.00  0.00    -0.508 OA
ATOM     27  H   UNL     1     -66.164 -41.808 -39.127  1.00  0.00     0.293 HD
ENDBRANCH   8  26
TORSDOF 6
ENDMDL
MODEL 6
REMARK VINA RESULT:    -6.900      2.266      7.101
REMARK INTER + INTRA:          -8.072
REMARK INTER:                  -7.762
REMARK INTRA:                  -0.310
REMARK UNBOUND:                 0.241
REMARK SMILES O=c1c(O)c(-c2ccc(O)c(O)c2)oc2cc(O)cc(O)c12
REMARK SMILES IDX 5 1 3 2 2 3 1 4 22 5 20 6 19 7 17 8 16 9 15 10 14 11 6 12
REMARK SMILES IDX 7 13 8 14 9 15 13 16 11 17 10 18 12 20 4 22 21 24 18 26
REMARK H PARENT 10 19 12 21 4 23 21 25 18 27
REMARK Flexibility Score: inf
ROOT
ATOM      1  C   UNL     1     -62.486 -42.697 -35.476  1.00  0.00     0.180 A 
ATOM      2  C   UNL     1     -61.507 -43.705 -35.525  1.00  0.00     0.208 A 
ATOM      3  C   UNL     1     -60.625 -43.850 -34.442  1.00  0.00     0.238 A 
ATOM      4  O   UNL     1     -59.716 -44.717 -34.515  1.00  0.00    -0.285 OA
ATOM      5  C   UNL     1     -60.743 -42.997 -33.317  1.00  0.00     0.111 A 
ATOM      6  C   UNL     1     -59.930 -43.081 -32.148  1.00  0.00     0.134 A 
ATOM      7  C   UNL     1     -60.049 -42.104 -31.152  1.00  0.00     0.093 A 
ATOM      8  C   UNL     1     -60.998 -41.083 -31.255  1.00  0.00     0.123 A 
ATOM      9  C   UNL     1     -61.837 -41.027 -32.365  1.00  0.00     0.094 A 
ATOM     10  C   UNL     1     -61.717 -41.968 -33.392  1.00  0.00     0.146 A 
ATOM     11  O   UNL     1     -62.529 -41.872 -34.437  1.00  0.00    -0.452 OA
ENDROOT
BRANCH   1  12
ATOM     12  C   UNL     1     -63.467 -42.499 -36.568  1.00  0.00     0.025 A 
ATOM     13  C   UNL     1     -64.614 -43.302 -36.619  1.00  0.00     0.016 A 
ATOM     14  C   UNL     1     -65.541 -43.145 -37.651  1.00  0.00     0.051 A 
ATOM     15  C   UNL     1     -65.336 -42.195 -38.658  1.00  0.00     0.157 A 
ATOM     16  C   UNL     1     -63.246 -41.559 -37.590  1.00  0.00     0.062 A 
ATOM     17  C   UNL     1     -64.168 -41.397 -38.631  1.00  0.00     0.158 A 
BRANCH  15  18
ATOM     18  O   UNL     1     -66.305 -42.085 -39.657  1.00  0.00    -0.504 OA
ATOM     19  H   UNL     1     -66.655 -42.866 -40.192  1.00  0.00     0.293 HD
ENDBRANCH  15  18
BRANCH  17  20
ATOM     20  O   UNL     1     -63.884 -40.444 -39.612  1.00  0.00    -0.504 OA
ATOM     21  H   UNL     1     -64.554 -39.770 -39.955  1.00  0.00     0.293 HD
ENDBRANCH  17  20
ENDBRANCH   1  12
BRANCH   2  22
ATOM     22  O   UNL     1     -61.393 -44.521 -36.654  1.00  0.00    -0.502 OA
ATOM     23  H   UNL     1     -60.766 -45.315 -36.689  1.00  0.00     0.293 HD
ENDBRANCH   2  22
BRANCH   6  24
ATOM     24  O   UNL     1     -59.017 -44.111 -31.905  1.00  0.00    -0.507 OA
ATOM     25  H   UNL     1     -58.365 -44.473 -32.583  1.00  0.00     0.293 HD
ENDBRANCH   6  24
BRANCH   8  26
ATOM     26  O   UNL     1     -61.121 -40.124 -30.252  1.00  0.00    -0.508 OA
ATOM     27  H   UNL     1     -61.905 -39.484 -30.223  1.00  0.00     0.293 HD
ENDBRANCH   8  26
TORSDOF 6
ENDMDL
MODEL 7
REMARK VINA RESULT:    -6.895      3.570      7.481
REMARK INTER + INTRA:          -8.065
REMARK INTER:                  -8.105
REMARK INTRA:                   0.040
REMARK UNBOUND:                 0.241
REMARK SMILES O=c1c(O)c(-c2ccc(O)c(O)c2)oc2cc(O)cc(O)c12
REMARK SMILES IDX 5 1 3 2 2 3 1 4 22 5 20 6 19 7 17 8 16 9 15 10 14 11 6 12
REMARK SMILES IDX 7 13 8 14 9 15 13 16 11 17 10 18 12 20 4 22 21 24 18 26
REMARK H PARENT 10 19 12 21 4 23 21 25 18 27
REMARK Flexibility Score: inf
ROOT
ATOM      1  C   UNL     1     -61.187 -43.665 -36.619  1.00  0.00     0.180 A 
ATOM      2  C   UNL     1     -60.831 -44.633 -35.664  1.00  0.00     0.208 A 
ATOM      3  C   UNL     1     -60.531 -44.221 -34.355  1.00  0.00     0.238 A 
ATOM      4  O   UNL     1     -60.160 -45.086 -33.520  1.00  0.00    -0.285 OA
ATOM      5  C   UNL     1     -60.606 -42.849 -34.014  1.00  0.00     0.111 A 
ATOM      6  C   UNL     1     -60.363 -42.324 -32.710  1.00  0.00     0.134 A 
ATOM      7  C   UNL     1     -60.339 -40.937 -32.517  1.00  0.00     0.093 A 
ATOM      8  C   UNL     1     -60.614 -40.059 -33.569  1.00  0.00     0.123 A 
ATOM      9  C   UNL     1     -60.910 -40.563 -34.832  1.00  0.00     0.094 A 
ATOM     10  C   UNL     1     -60.907 -41.942 -35.063  1.00  0.00     0.146 A 
ATOM     11  O   UNL     1     -61.185 -42.380 -36.285  1.00  0.00    -0.452 OA
ENDROOT
BRANCH   1  12
ATOM     12  C   UNL     1     -61.541 -44.025 -38.011  1.00  0.00     0.025 A 
ATOM     13  C   UNL     1     -62.456 -45.059 -38.245  1.00  0.00     0.016 A 
ATOM     14  C   UNL     1     -62.789 -45.428 -39.549  1.00  0.00     0.051 A 
ATOM     15  C   UNL     1     -62.204 -44.783 -40.645  1.00  0.00     0.157 A 
ATOM     16  C   UNL     1     -60.935 -43.390 -39.109  1.00  0.00     0.062 A 
ATOM     17  C   UNL     1     -61.258 -43.754 -40.421  1.00  0.00     0.158 A 
BRANCH  15  18
ATOM     18  O   UNL     1     -62.585 -45.195 -41.924  1.00  0.00    -0.504 OA
ATOM     19  H   UNL     1     -61.933 -45.452 -42.651  1.00  0.00     0.293 HD
ENDBRANCH  15  18
BRANCH  17  20
ATOM     20  O   UNL     1     -60.618 -43.080 -41.463  1.00  0.00    -0.504 OA
ATOM     21  H   UNL     1     -59.940 -42.344 -41.327  1.00  0.00     0.293 HD
ENDBRANCH  17  20
ENDBRANCH   1  12
BRANCH   2  22
ATOM     22  O   UNL     1     -60.741 -45.980 -36.028  1.00  0.00    -0.502 OA
ATOM     23  H   UNL     1     -60.721 -46.727 -35.345  1.00  0.00     0.293 HD
ENDBRANCH   2  22
BRANCH   6  24
ATOM     24  O   UNL     1     -60.169 -43.115 -31.574  1.00  0.00    -0.507 OA
ATOM     25  H   UNL     1     -60.330 -44.110 -31.532  1.00  0.00     0.293 HD
ENDBRANCH   6  24
BRANCH   8  26
ATOM     26  O   UNL     1     -60.603 -38.681 -33.364  1.00  0.00    -0.508 OA
ATOM     27  H   UNL     1     -60.574 -38.283 -32.433  1.00  0.00     0.293 HD
ENDBRANCH   8  26
TORSDOF 6
ENDMDL
MODEL 8
REMARK VINA RESULT:    -6.832      2.961      3.735
REMARK INTER + INTRA:          -7.989
REMARK INTER:                  -7.945
REMARK INTRA:                  -0.044
REMARK UNBOUND:                 0.241
REMARK SMILES O=c1c(O)c(-c2ccc(O)c(O)c2)oc2cc(O)cc(O)c12
REMARK SMILES IDX 5 1 3 2 2 3 1 4 22 5 20 6 19 7 17 8 16 9 15 10 14 11 6 12
REMARK SMILES IDX 7 13 8 14 9 15 13 16 11 17 10 18 12 20 4 22 21 24 18 26
REMARK H PARENT 10 19 12 21 4 23 21 25 18 27
REMARK Flexibility Score: inf
ROOT
ATOM      1  C   UNL     1     -61.603 -42.903 -35.580  1.00  0.00     0.180 A 
ATOM      2  C   UNL     1     -62.629 -43.853 -35.431  1.00  0.00     0.208 A 
ATOM      3  C   UNL     1     -63.070 -44.561 -36.561  1.00  0.00     0.238 A 
ATOM      4  O   UNL     1     -64.025 -45.370 -36.432  1.00  0.00    -0.285 OA
ATOM      5  C   UNL     1     -62.469 -44.324 -37.821  1.00  0.00     0.111 A 
ATOM      6  C   UNL     1     -62.809 -45.012 -39.023  1.00  0.00     0.134 A 
ATOM      7  C   UNL     1     -62.241 -44.605 -40.237  1.00  0.00     0.093 A 
ATOM      8  C   UNL     1     -61.296 -43.575 -40.280  1.00  0.00     0.123 A 
ATOM      9  C   UNL     1     -60.914 -42.937 -39.103  1.00  0.00     0.094 A 
ATOM     10  C   UNL     1     -61.490 -43.298 -37.882  1.00  0.00     0.146 A 
ATOM     11  O   UNL     1     -61.105 -42.656 -36.785  1.00  0.00    -0.452 OA
ENDROOT
BRANCH   1  12
ATOM     12  C   UNL     1     -61.068 -42.136 -34.432  1.00  0.00     0.025 A 
ATOM     13  C   UNL     1     -60.595 -42.820 -33.305  1.00  0.00     0.016 A 
ATOM     14  C   UNL     1     -60.105 -42.116 -32.204  1.00  0.00     0.051 A 
ATOM     15  C   UNL     1     -60.091 -40.716 -32.199  1.00  0.00     0.157 A 
ATOM     16  C   UNL     1     -61.077 -40.730 -34.422  1.00  0.00     0.062 A 
ATOM     17  C   UNL     1     -60.592 -40.014 -33.322  1.00  0.00     0.158 A 
BRANCH  15  18
ATOM     18  O   UNL     1     -59.582 -40.072 -31.070  1.00  0.00    -0.504 OA
ATOM     19  H   UNL     1     -60.110 -39.919 -30.223  1.00  0.00     0.293 HD
ENDBRANCH  15  18
BRANCH  17  20
ATOM     20  O   UNL     1     -60.630 -38.619 -33.382  1.00  0.00    -0.504 OA
ATOM     21  H   UNL     1     -60.699 -38.093 -34.240  1.00  0.00     0.293 HD
ENDBRANCH  17  20
ENDBRANCH   1  12
BRANCH   2  22
ATOM     22  O   UNL     1     -63.224 -44.056 -34.183  1.00  0.00    -0.502 OA
ATOM     23  H   UNL     1     -63.868 -43.391 -33.773  1.00  0.00     0.293 HD
ENDBRANCH   2  22
BRANCH   6  24
ATOM     24  O   UNL     1     -63.670 -46.112 -39.076  1.00  0.00    -0.507 OA
ATOM     25  H   UNL     1     -64.435 -46.273 -38.440  1.00  0.00     0.293 HD
ENDBRANCH   6  24
BRANCH   8  26
ATOM     26  O   UNL     1     -60.725 -43.187 -41.490  1.00  0.00    -0.508 OA
ATOM     27  H   UNL     1     -61.137 -43.444 -42.378  1.00  0.00     0.293 HD
ENDBRANCH   8  26
TORSDOF 6
ENDMDL
MODEL 9
REMARK VINA RESULT:    -6.641      5.285      7.199
REMARK INTER + INTRA:          -7.759
REMARK INTER:                  -7.564
REMARK INTRA:                  -0.195
REMARK UNBOUND:                 0.241
REMARK SMILES O=c1c(O)c(-c2ccc(O)c(O)c2)oc2cc(O)cc(O)c12
REMARK SMILES IDX 5 1 3 2 2 3 1 4 22 5 20 6 19 7 17 8 16 9 15 10 14 11 6 12
REMARK SMILES IDX 7 13 8 14 9 15 13 16 11 17 10 18 12 20 4 22 21 24 18 26
REMARK H PARENT 10 19 12 21 4 23 21 25 18 27
REMARK Flexibility Score: inf
ROOT
ATOM      1  C   UNL     1     -58.977 -44.929 -33.104  1.00  0.00     0.180 A 
ATOM      2  C   UNL     1     -59.732 -44.883 -34.289  1.00  0.00     0.208 A 
ATOM      3  C   UNL     1     -60.627 -43.819 -34.484  1.00  0.00     0.238 A 
ATOM      4  O   UNL     1     -61.340 -43.812 -35.521  1.00  0.00    -0.285 OA
ATOM      5  C   UNL     1     -60.744 -42.806 -33.501  1.00  0.00     0.111 A 
ATOM      6  C   UNL     1     -61.589 -41.662 -33.614  1.00  0.00     0.134 A 
ATOM      7  C   UNL     1     -61.722 -40.792 -32.523  1.00  0.00     0.093 A 
ATOM      8  C   UNL     1     -60.990 -40.991 -31.350  1.00  0.00     0.123 A 
ATOM      9  C   UNL     1     -60.118 -42.072 -31.253  1.00  0.00     0.094 A 
ATOM     10  C   UNL     1     -59.991 -42.978 -32.311  1.00  0.00     0.146 A 
ATOM     11  O   UNL     1     -59.157 -44.001 -32.173  1.00  0.00    -0.452 OA
ENDROOT
BRANCH   1  12
ATOM     12  C   UNL     1     -57.995 -46.005 -32.837  1.00  0.00     0.025 A 
ATOM     13  C   UNL     1     -58.180 -46.851 -31.736  1.00  0.00     0.016 A 
ATOM     14  C   UNL     1     -57.257 -47.859 -31.455  1.00  0.00     0.051 A 
ATOM     15  C   UNL     1     -56.124 -48.034 -32.258  1.00  0.00     0.157 A 
ATOM     16  C   UNL     1     -56.847 -46.164 -33.633  1.00  0.00     0.062 A 
ATOM     17  C   UNL     1     -55.913 -47.169 -33.358  1.00  0.00     0.158 A 
BRANCH  15  18
ATOM     18  O   UNL     1     -55.242 -49.065 -31.926  1.00  0.00    -0.504 OA
ATOM     19  H   UNL     1     -54.688 -49.572 -32.602  1.00  0.00     0.293 HD
ENDBRANCH  15  18
BRANCH  17  20
ATOM     20  O   UNL     1     -54.796 -47.269 -34.191  1.00  0.00    -0.504 OA
ATOM     21  H   UNL     1     -54.724 -47.917 -34.962  1.00  0.00     0.293 HD
ENDBRANCH  17  20
ENDBRANCH   1  12
BRANCH   2  22
ATOM     22  O   UNL     1     -59.618 -45.905 -35.236  1.00  0.00    -0.502 OA
ATOM     23  H   UNL     1     -59.694 -46.884 -34.991  1.00  0.00     0.293 HD
ENDBRANCH   2  22
BRANCH   6  24
ATOM     24  O   UNL     1     -62.291 -41.321 -34.773  1.00  0.00    -0.507 OA
ATOM     25  H   UNL     1     -62.822 -40.473 -34.894  1.00  0.00     0.293 HD
ENDBRANCH   6  24
BRANCH   8  26
ATOM     26  O   UNL     1     -61.117 -40.113 -30.276  1.00  0.00    -0.508 OA
ATOM     27  H   UNL     1     -61.391 -40.436 -29.356  1.00  0.00     0.293 HD
ENDBRANCH   8  26
TORSDOF 6
ENDMDL
