MODEL 1
REMARK VINA RESULT:    -5.875      0.000      0.000
REMARK INTER + INTRA:          -7.178
REMARK INTER:                  -6.906
REMARK INTRA:                  -0.272
REMARK UNBOUND:                -0.272
REMARK SMILES O=c1c(O)c(-c2ccc(O)cc2)oc2cc(O)cc(O)c12
REMARK SMILES IDX 5 1 3 2 2 3 1 4 21 5 19 6 18 7 16 8 15 9 14 10 13 11 6 12
REMARK SMILES IDX 7 13 8 14 9 15 12 16 11 17 10 18 4 20 20 22 17 24
REMARK H PARENT 10 19 4 21 20 23 17 25
REMARK Flexibility Score: inf
ROOT
ATOM      1  C   UNL     1      24.651  -0.985  16.825  1.00  0.00     0.180 A 
ATOM      2  C   UNL     1      23.644  -1.957  16.947  1.00  0.00     0.208 A 
ATOM      3  C   UNL     1      23.028  -2.147  18.194  1.00  0.00     0.238 A 
ATOM      4  O   UNL     1      22.076  -2.967  18.277  1.00  0.00    -0.285 OA
ATOM      5  C   UNL     1      23.465  -1.404  19.318  1.00  0.00     0.111 A 
ATOM      6  C   UNL     1      22.943  -1.548  20.639  1.00  0.00     0.134 A 
ATOM      7  C   UNL     1      23.379  -0.682  21.651  1.00  0.00     0.093 A 
ATOM      8  C   UNL     1      24.361   0.275  21.405  1.00  0.00     0.123 A 
ATOM      9  C   UNL     1      24.917   0.388  20.131  1.00  0.00     0.094 A 
ATOM     10  C   UNL     1      24.476  -0.435  19.092  1.00  0.00     0.146 A 
ATOM     11  O   UNL     1      25.017  -0.280  17.890  1.00  0.00    -0.452 OA
ENDROOT
BRANCH   1  12
ATOM     12  C   UNL     1      25.336  -0.715  15.541  1.00  0.00     0.021 A 
ATOM     13  C   UNL     1      24.886   0.337  14.726  1.00  0.00     0.016 A 
ATOM     14  C   UNL     1      25.503   0.596  13.499  1.00  0.00     0.047 A 
ATOM     15  C   UNL     1      26.567  -0.203  13.064  1.00  0.00     0.115 A 
ATOM     16  C   UNL     1      26.394  -1.525  15.088  1.00  0.00     0.016 A 
ATOM     17  C   UNL     1      27.008  -1.264  13.860  1.00  0.00     0.047 A 
BRANCH  15  18
ATOM     18  O   UNL     1      27.192   0.046  11.842  1.00  0.00    -0.508 OA
ATOM     19  H   UNL     1      28.199   0.004  11.745  1.00  0.00     0.293 HD
ENDBRANCH  15  18
ENDBRANCH   1  12
BRANCH   2  20
ATOM     20  O   UNL     1      23.279  -2.735  15.844  1.00  0.00    -0.502 OA
ATOM     21  H   UNL     1      23.629  -3.674  15.701  1.00  0.00     0.293 HD
ENDBRANCH   2  20
BRANCH   6  22
ATOM     22  O   UNL     1      22.023  -2.530  21.015  1.00  0.00    -0.507 OA
ATOM     23  H   UNL     1      22.140  -3.520  20.865  1.00  0.00     0.293 HD
ENDBRANCH   6  22
BRANCH   8  24
ATOM     24  O   UNL     1      24.783   1.108  22.441  1.00  0.00    -0.508 OA
ATOM     25  H   UNL     1      24.822   0.781  23.400  1.00  0.00     0.293 HD
ENDBRANCH   8  24
TORSDOF 5
ENDMDL
MODEL 2
REMARK VINA RESULT:    -5.837      2.868      7.216
REMARK INTER + INTRA:          -7.133
REMARK INTER:                  -6.836
REMARK INTRA:                  -0.297
REMARK UNBOUND:                -0.272
REMARK SMILES O=c1c(O)c(-c2ccc(O)cc2)oc2cc(O)cc(O)c12
REMARK SMILES IDX 5 1 3 2 2 3 1 4 21 5 19 6 18 7 16 8 15 9 14 10 13 11 6 12
REMARK SMILES IDX 7 13 8 14 9 15 12 16 11 17 10 18 4 20 20 22 17 24
REMARK H PARENT 10 19 4 21 20 23 17 25
REMARK Flexibility Score: inf
ROOT
ATOM      1  C   UNL     1      25.719  -0.483  14.662  1.00  0.00     0.180 A 
ATOM      2  C   UNL     1      26.326  -1.088  13.549  1.00  0.00     0.208 A 
ATOM      3  C   UNL     1      26.098  -0.551  12.272  1.00  0.00     0.238 A 
ATOM      4  O   UNL     1      26.704  -1.053  11.290  1.00  0.00    -0.285 OA
ATOM      5  C   UNL     1      25.222   0.551  12.116  1.00  0.00     0.111 A 
ATOM      6  C   UNL     1      24.883   1.149  10.865  1.00  0.00     0.134 A 
ATOM      7  C   UNL     1      24.089   2.302  10.843  1.00  0.00     0.093 A 
ATOM      8  C   UNL     1      23.570   2.841  12.019  1.00  0.00     0.123 A 
ATOM      9  C   UNL     1      23.849   2.233  13.243  1.00  0.00     0.094 A 
ATOM     10  C   UNL     1      24.670   1.105  13.301  1.00  0.00     0.146 A 
ATOM     11  O   UNL     1      24.929   0.570  14.488  1.00  0.00    -0.452 OA
ENDROOT
BRANCH   1  12
ATOM     12  C   UNL     1      25.923  -0.982  16.041  1.00  0.00     0.021 A 
ATOM     13  C   UNL     1      25.010  -1.901  16.585  1.00  0.00     0.016 A 
ATOM     14  C   UNL     1      25.170  -2.369  17.892  1.00  0.00     0.047 A 
ATOM     15  C   UNL     1      26.236  -1.912  18.678  1.00  0.00     0.115 A 
ATOM     16  C   UNL     1      26.980  -0.513  16.843  1.00  0.00     0.016 A 
ATOM     17  C   UNL     1      27.137  -0.982  18.150  1.00  0.00     0.047 A 
BRANCH  15  18
ATOM     18  O   UNL     1      26.407  -2.372  19.982  1.00  0.00    -0.508 OA
ATOM     19  H   UNL     1      26.166  -1.797  20.781  1.00  0.00     0.293 HD
ENDBRANCH  15  18
ENDBRANCH   1  12
BRANCH   2  20
ATOM     20  O   UNL     1      27.126  -2.223  13.714  1.00  0.00    -0.502 OA
ATOM     21  H   UNL     1      26.805  -3.154  13.483  1.00  0.00     0.293 HD
ENDBRANCH   2  20
BRANCH   6  22
ATOM     22  O   UNL     1      25.274   0.641   9.623  1.00  0.00    -0.507 OA
ATOM     23  H   UNL     1      24.931  -0.215   9.214  1.00  0.00     0.293 HD
ENDBRANCH   6  22
BRANCH   8  24
ATOM     24  O   UNL     1      22.769   3.980  11.958  1.00  0.00    -0.508 OA
ATOM     25  H   UNL     1      22.056   4.089  11.245  1.00  0.00     0.293 HD
ENDBRANCH   8  24
TORSDOF 5
ENDMDL
MODEL 3
REMARK VINA RESULT:    -5.768      1.785      3.804
REMARK INTER + INTRA:          -7.052
REMARK INTER:                  -6.799
REMARK INTRA:                  -0.253
REMARK UNBOUND:                -0.272
REMARK SMILES O=c1c(O)c(-c2ccc(O)cc2)oc2cc(O)cc(O)c12
REMARK SMILES IDX 5 1 3 2 2 3 1 4 21 5 19 6 18 7 16 8 15 9 14 10 13 11 6 12
REMARK SMILES IDX 7 13 8 14 9 15 12 16 11 17 10 18 4 20 20 22 17 24
REMARK H PARENT 10 19 4 21 20 23 17 25
REMARK Flexibility Score: inf
ROOT
ATOM      1  C   UNL     1      24.339  -1.511  16.260  1.00  0.00     0.180 A 
ATOM      2  C   UNL     1      24.220  -0.990  17.560  1.00  0.00     0.208 A 
ATOM      3  C   UNL     1      23.390  -1.646  18.483  1.00  0.00     0.238 A 
ATOM      4  O   UNL     1      23.347  -1.218  19.666  1.00  0.00    -0.285 OA
ATOM      5  C   UNL     1      22.645  -2.781  18.080  1.00  0.00     0.111 A 
ATOM      6  C   UNL     1      21.739  -3.498  18.920  1.00  0.00     0.134 A 
ATOM      7  C   UNL     1      21.138  -4.670  18.444  1.00  0.00     0.093 A 
ATOM      8  C   UNL     1      21.360  -5.116  17.142  1.00  0.00     0.123 A 
ATOM      9  C   UNL     1      22.200  -4.393  16.295  1.00  0.00     0.094 A 
ATOM     10  C   UNL     1      22.844  -3.242  16.753  1.00  0.00     0.146 A 
ATOM     11  O   UNL     1      23.653  -2.596  15.921  1.00  0.00    -0.452 OA
ENDROOT
BRANCH   1  12
ATOM     12  C   UNL     1      25.205  -0.885  15.236  1.00  0.00     0.021 A 
ATOM     13  C   UNL     1      24.747   0.249  14.543  1.00  0.00     0.016 A 
ATOM     14  C   UNL     1      25.539   0.844  13.557  1.00  0.00     0.047 A 
ATOM     15  C   UNL     1      26.791   0.303  13.239  1.00  0.00     0.115 A 
ATOM     16  C   UNL     1      26.456  -1.433  14.897  1.00  0.00     0.016 A 
ATOM     17  C   UNL     1      27.245  -0.837  13.909  1.00  0.00     0.047 A 
BRANCH  15  18
ATOM     18  O   UNL     1      27.590   0.888  12.257  1.00  0.00    -0.508 OA
ATOM     19  H   UNL     1      27.655   1.894  12.159  1.00  0.00     0.293 HD
ENDBRANCH  15  18
ENDBRANCH   1  12
BRANCH   2  20
ATOM     20  O   UNL     1      24.904   0.176  17.916  1.00  0.00    -0.502 OA
ATOM     21  H   UNL     1      25.237   0.345  18.857  1.00  0.00     0.293 HD
ENDBRANCH   2  20
BRANCH   6  22
ATOM     22  O   UNL     1      21.377  -3.093  20.207  1.00  0.00    -0.507 OA
ATOM     23  H   UNL     1      22.000  -3.057  20.999  1.00  0.00     0.293 HD
ENDBRANCH   6  22
BRANCH   8  24
ATOM     24  O   UNL     1      20.731  -6.278  16.697  1.00  0.00    -0.508 OA
ATOM     25  H   UNL     1      19.725  -6.388  16.750  1.00  0.00     0.293 HD
ENDBRANCH   8  24
TORSDOF 5
ENDMDL
MODEL 4
REMARK VINA RESULT:    -5.585      3.276      5.212
REMARK INTER + INTRA:          -6.836
REMARK INTER:                  -6.739
REMARK INTRA:                  -0.097
REMARK UNBOUND:                -0.272
REMARK SMILES O=c1c(O)c(-c2ccc(O)cc2)oc2cc(O)cc(O)c12
REMARK SMILES IDX 5 1 3 2 2 3 1 4 21 5 19 6 18 7 16 8 15 9 14 10 13 11 6 12
REMARK SMILES IDX 7 13 8 14 9 15 12 16 11 17 10 18 4 20 20 22 17 24
REMARK H PARENT 10 19 4 21 20 23 17 25
REMARK Flexibility Score: inf
ROOT
ATOM      1  C   UNL     1      22.799  -3.068  18.018  1.00  0.00     0.180 A 
ATOM      2  C   UNL     1      21.989  -2.118  18.664  1.00  0.00     0.208 A 
ATOM      3  C   UNL     1      22.595  -1.006  19.271  1.00  0.00     0.238 A 
ATOM      4  O   UNL     1      21.859  -0.123  19.782  1.00  0.00    -0.285 OA
ATOM      5  C   UNL     1      24.006  -0.886  19.274  1.00  0.00     0.111 A 
ATOM      6  C   UNL     1      24.729   0.176  19.897  1.00  0.00     0.134 A 
ATOM      7  C   UNL     1      26.120   0.247  19.744  1.00  0.00     0.093 A 
ATOM      8  C   UNL     1      26.818  -0.736  19.045  1.00  0.00     0.123 A 
ATOM      9  C   UNL     1      26.128  -1.808  18.479  1.00  0.00     0.094 A 
ATOM     10  C   UNL     1      24.737  -1.886  18.582  1.00  0.00     0.146 A 
ATOM     11  O   UNL     1      24.117  -2.911  18.009  1.00  0.00    -0.452 OA
ENDROOT
BRANCH   1  12
ATOM     12  C   UNL     1      22.233  -4.258  17.343  1.00  0.00     0.021 A 
ATOM     13  C   UNL     1      21.544  -5.220  18.101  1.00  0.00     0.016 A 
ATOM     14  C   UNL     1      21.021  -6.362  17.489  1.00  0.00     0.047 A 
ATOM     15  C   UNL     1      21.194  -6.566  16.114  1.00  0.00     0.115 A 
ATOM     16  C   UNL     1      22.419  -4.479  15.967  1.00  0.00     0.016 A 
ATOM     17  C   UNL     1      21.895  -5.623  15.357  1.00  0.00     0.047 A 
BRANCH  15  18
ATOM     18  O   UNL     1      20.676  -7.700  15.492  1.00  0.00    -0.508 OA
ATOM     19  H   UNL     1      21.214  -8.555  15.419  1.00  0.00     0.293 HD
ENDBRANCH  15  18
ENDBRANCH   1  12
BRANCH   2  20
ATOM     20  O   UNL     1      20.603  -2.294  18.717  1.00  0.00    -0.502 OA
ATOM     21  H   UNL     1      19.999  -2.099  17.929  1.00  0.00     0.293 HD
ENDBRANCH   2  20
BRANCH   6  22
ATOM     22  O   UNL     1      24.141   1.163  20.693  1.00  0.00    -0.507 OA
ATOM     23  H   UNL     1      23.428   1.805  20.383  1.00  0.00     0.293 HD
ENDBRANCH   6  22
BRANCH   8  24
ATOM     24  O   UNL     1      28.204  -0.641  18.928  1.00  0.00    -0.508 OA
ATOM     25  H   UNL     1      28.684  -0.923  18.080  1.00  0.00     0.293 HD
ENDBRANCH   8  24
TORSDOF 5
ENDMDL
MODEL 5
REMARK VINA RESULT:    -5.389      2.741      6.906
REMARK INTER + INTRA:          -6.607
REMARK INTER:                  -6.330
REMARK INTRA:                  -0.277
REMARK UNBOUND:                -0.272
REMARK SMILES O=c1c(O)c(-c2ccc(O)cc2)oc2cc(O)cc(O)c12
REMARK SMILES IDX 5 1 3 2 2 3 1 4 21 5 19 6 18 7 16 8 15 9 14 10 13 11 6 12
REMARK SMILES IDX 7 13 8 14 9 15 12 16 11 17 10 18 4 20 20 22 17 24
REMARK H PARENT 10 19 4 21 20 23 17 25
REMARK Flexibility Score: inf
ROOT
ATOM      1  C   UNL     1      23.894  -1.817  16.031  1.00  0.00     0.180 A 
ATOM      2  C   UNL     1      25.273  -1.742  16.293  1.00  0.00     0.208 A 
ATOM      3  C   UNL     1      26.069  -0.885  15.516  1.00  0.00     0.238 A 
ATOM      4  O   UNL     1      27.288  -0.767  15.805  1.00  0.00    -0.285 OA
ATOM      5  C   UNL     1      25.488  -0.156  14.450  1.00  0.00     0.111 A 
ATOM      6  C   UNL     1      26.207   0.708  13.569  1.00  0.00     0.134 A 
ATOM      7  C   UNL     1      25.508   1.460  12.616  1.00  0.00     0.093 A 
ATOM      8  C   UNL     1      24.128   1.333  12.470  1.00  0.00     0.123 A 
ATOM      9  C   UNL     1      23.422   0.451  13.289  1.00  0.00     0.094 A 
ATOM     10  C   UNL     1      24.085  -0.284  14.273  1.00  0.00     0.146 A 
ATOM     11  O   UNL     1      23.373  -1.095  15.045  1.00  0.00    -0.452 OA
ENDROOT
BRANCH   1  12
ATOM     12  C   UNL     1      22.988  -2.684  16.816  1.00  0.00     0.021 A 
ATOM     13  C   UNL     1      22.485  -2.225  18.045  1.00  0.00     0.016 A 
ATOM     14  C   UNL     1      21.646  -3.035  18.814  1.00  0.00     0.047 A 
ATOM     15  C   UNL     1      21.311  -4.322  18.373  1.00  0.00     0.115 A 
ATOM     16  C   UNL     1      22.663  -3.985  16.389  1.00  0.00     0.016 A 
ATOM     17  C   UNL     1      21.824  -4.793  17.160  1.00  0.00     0.047 A 
BRANCH  15  18
ATOM     18  O   UNL     1      20.475  -5.139  19.130  1.00  0.00    -0.508 OA
ATOM     19  H   UNL     1      19.825  -5.781  18.692  1.00  0.00     0.293 HD
ENDBRANCH  15  18
ENDBRANCH   1  12
BRANCH   2  20
ATOM     20  O   UNL     1      25.842  -2.528  17.299  1.00  0.00    -0.502 OA
ATOM     21  H   UNL     1      26.385  -3.359  17.100  1.00  0.00     0.293 HD
ENDBRANCH   2  20
BRANCH   6  22
ATOM     22  O   UNL     1      27.598   0.844  13.569  1.00  0.00    -0.507 OA
ATOM     23  H   UNL     1      28.110   1.547  14.078  1.00  0.00     0.293 HD
ENDBRANCH   6  22
BRANCH   8  24
ATOM     24  O   UNL     1      23.468   2.086  11.500  1.00  0.00    -0.508 OA
ATOM     25  H   UNL     1      23.824   2.984  11.194  1.00  0.00     0.293 HD
ENDBRANCH   8  24
TORSDOF 5
ENDMDL
MODEL 6
REMARK VINA RESULT:    -5.353      3.485      6.124
REMARK INTER + INTRA:          -6.564
REMARK INTER:                  -6.351
REMARK INTRA:                  -0.213
REMARK UNBOUND:                -0.272
REMARK SMILES O=c1c(O)c(-c2ccc(O)cc2)oc2cc(O)cc(O)c12
REMARK SMILES IDX 5 1 3 2 2 3 1 4 21 5 19 6 18 7 16 8 15 9 14 10 13 11 6 12
REMARK SMILES IDX 7 13 8 14 9 15 12 16 11 17 10 18 4 20 20 22 17 24
REMARK H PARENT 10 19 4 21 20 23 17 25
REMARK Flexibility Score: inf
ROOT
ATOM      1  C   UNL     1      23.004  -3.102  17.141  1.00  0.00     0.180 A 
ATOM      2  C   UNL     1      21.748  -2.624  17.554  1.00  0.00     0.208 A 
ATOM      3  C   UNL     1      20.594  -3.335  17.186  1.00  0.00     0.238 A 
ATOM      4  O   UNL     1      19.480  -2.942  17.622  1.00  0.00    -0.285 OA
ATOM      5  C   UNL     1      20.704  -4.483  16.365  1.00  0.00     0.111 A 
ATOM      6  C   UNL     1      19.599  -5.255  15.895  1.00  0.00     0.134 A 
ATOM      7  C   UNL     1      19.835  -6.433  15.175  1.00  0.00     0.093 A 
ATOM      8  C   UNL     1      21.132  -6.833  14.855  1.00  0.00     0.123 A 
ATOM      9  C   UNL     1      22.217  -6.057  15.262  1.00  0.00     0.094 A 
ATOM     10  C   UNL     1      22.015  -4.897  16.013  1.00  0.00     0.146 A 
ATOM     11  O   UNL     1      23.077  -4.200  16.399  1.00  0.00    -0.452 OA
ENDROOT
BRANCH   1  12
ATOM     12  C   UNL     1      24.265  -2.417  17.501  1.00  0.00     0.021 A 
ATOM     13  C   UNL     1      25.019  -1.786  16.497  1.00  0.00     0.016 A 
ATOM     14  C   UNL     1      26.225  -1.152  16.810  1.00  0.00     0.047 A 
ATOM     15  C   UNL     1      26.700  -1.154  18.127  1.00  0.00     0.115 A 
ATOM     16  C   UNL     1      24.759  -2.430  18.819  1.00  0.00     0.016 A 
ATOM     17  C   UNL     1      25.965  -1.796  19.128  1.00  0.00     0.047 A 
BRANCH  15  18
ATOM     18  O   UNL     1      27.901  -0.524  18.452  1.00  0.00    -0.508 OA
ATOM     19  H   UNL     1      27.925   0.289  19.056  1.00  0.00     0.293 HD
ENDBRANCH  15  18
ENDBRANCH   1  12
BRANCH   2  20
ATOM     20  O   UNL     1      21.654  -1.445  18.300  1.00  0.00    -0.502 OA
ATOM     21  H   UNL     1      20.871  -1.249  18.911  1.00  0.00     0.293 HD
ENDBRANCH   2  20
BRANCH   6  22
ATOM     22  O   UNL     1      18.260  -4.900  16.082  1.00  0.00    -0.507 OA
ATOM     23  H   UNL     1      17.583  -4.786  15.343  1.00  0.00     0.293 HD
ENDBRANCH   6  22
BRANCH   8  24
ATOM     24  O   UNL     1      21.328  -8.002  14.122  1.00  0.00    -0.508 OA
ATOM     25  H   UNL     1      21.043  -8.074  13.153  1.00  0.00     0.293 HD
ENDBRANCH   8  24
TORSDOF 5
ENDMDL
MODEL 7
REMARK VINA RESULT:    -5.341      3.606      5.424
REMARK INTER + INTRA:          -6.550
REMARK INTER:                  -6.252
REMARK INTRA:                  -0.298
REMARK UNBOUND:                -0.272
REMARK SMILES O=c1c(O)c(-c2ccc(O)cc2)oc2cc(O)cc(O)c12
REMARK SMILES IDX 5 1 3 2 2 3 1 4 21 5 19 6 18 7 16 8 15 9 14 10 13 11 6 12
REMARK SMILES IDX 7 13 8 14 9 15 12 16 11 17 10 18 4 20 20 22 17 24
REMARK H PARENT 10 19 4 21 20 23 17 25
REMARK Flexibility Score: inf
ROOT
ATOM      1  C   UNL     1      22.230  -4.457  17.065  1.00  0.00     0.180 A 
ATOM      2  C   UNL     1      21.136  -3.980  17.808  1.00  0.00     0.208 A 
ATOM      3  C   UNL     1      21.294  -2.821  18.585  1.00  0.00     0.238 A 
ATOM      4  O   UNL     1      20.290  -2.359  19.187  1.00  0.00    -0.285 OA
ATOM      5  C   UNL     1      22.556  -2.184  18.654  1.00  0.00     0.111 A 
ATOM      6  C   UNL     1      22.841  -1.029  19.444  1.00  0.00     0.134 A 
ATOM      7  C   UNL     1      24.101  -0.422  19.351  1.00  0.00     0.093 A 
ATOM      8  C   UNL     1      25.103  -0.964  18.548  1.00  0.00     0.123 A 
ATOM      9  C   UNL     1      24.853  -2.123  17.814  1.00  0.00     0.094 A 
ATOM     10  C   UNL     1      23.595  -2.729  17.856  1.00  0.00     0.146 A 
ATOM     11  O   UNL     1      23.393  -3.819  17.125  1.00  0.00    -0.452 OA
ENDROOT
BRANCH   1  12
ATOM     12  C   UNL     1      22.138  -5.663  16.212  1.00  0.00     0.021 A 
ATOM     13  C   UNL     1      22.544  -6.906  16.727  1.00  0.00     0.016 A 
ATOM     14  C   UNL     1      22.487  -8.054  15.932  1.00  0.00     0.047 A 
ATOM     15  C   UNL     1      22.039  -7.972  14.608  1.00  0.00     0.115 A 
ATOM     16  C   UNL     1      21.708  -5.585  14.875  1.00  0.00     0.016 A 
ATOM     17  C   UNL     1      21.653  -6.735  14.082  1.00  0.00     0.047 A 
BRANCH  15  18
ATOM     18  O   UNL     1      21.977  -9.110  13.805  1.00  0.00    -0.508 OA
ATOM     19  H   UNL     1      22.634  -9.873  13.919  1.00  0.00     0.293 HD
ENDBRANCH  15  18
ENDBRANCH   1  12
BRANCH   2  20
ATOM     20  O   UNL     1      19.919  -4.667  17.788  1.00  0.00    -0.502 OA
ATOM     21  H   UNL     1      19.428  -4.878  16.928  1.00  0.00     0.293 HD
ENDBRANCH   2  20
BRANCH   6  22
ATOM     22  O   UNL     1      21.942  -0.457  20.348  1.00  0.00    -0.507 OA
ATOM     23  H   UNL     1      21.057  -0.042  20.099  1.00  0.00     0.293 HD
ENDBRANCH   6  22
BRANCH   8  24
ATOM     24  O   UNL     1      26.349  -0.342  18.493  1.00  0.00    -0.508 OA
ATOM     25  H   UNL     1      26.443   0.664  18.564  1.00  0.00     0.293 HD
ENDBRANCH   8  24
TORSDOF 5
ENDMDL
MODEL 8
REMARK VINA RESULT:    -5.108      3.975      5.903
REMARK INTER + INTRA:          -6.276
REMARK INTER:                  -6.007
REMARK INTRA:                  -0.269
REMARK UNBOUND:                -0.272
REMARK SMILES O=c1c(O)c(-c2ccc(O)cc2)oc2cc(O)cc(O)c12
REMARK SMILES IDX 5 1 3 2 2 3 1 4 21 5 19 6 18 7 16 8 15 9 14 10 13 11 6 12
REMARK SMILES IDX 7 13 8 14 9 15 12 16 11 17 10 18 4 20 20 22 17 24
REMARK H PARENT 10 19 4 21 20 23 17 25
REMARK Flexibility Score: inf
ROOT
ATOM      1  C   UNL     1      21.873  -4.765  17.322  1.00  0.00     0.180 A 
ATOM      2  C   UNL     1      22.781  -3.693  17.370  1.00  0.00     0.208 A 
ATOM      3  C   UNL     1      22.679  -2.760  18.414  1.00  0.00     0.238 A 
ATOM      4  O   UNL     1      23.541  -1.846  18.493  1.00  0.00    -0.285 OA
ATOM      5  C   UNL     1      21.636  -2.876  19.365  1.00  0.00     0.111 A 
ATOM      6  C   UNL     1      21.410  -1.963  20.439  1.00  0.00     0.134 A 
ATOM      7  C   UNL     1      20.411  -2.239  21.381  1.00  0.00     0.093 A 
ATOM      8  C   UNL     1      19.590  -3.358  21.254  1.00  0.00     0.123 A 
ATOM      9  C   UNL     1      19.767  -4.228  20.178  1.00  0.00     0.094 A 
ATOM     10  C   UNL     1      20.779  -4.001  19.243  1.00  0.00     0.146 A 
ATOM     11  O   UNL     1      20.927  -4.866  18.247  1.00  0.00    -0.452 OA
ENDROOT
BRANCH   1  12
ATOM     12  C   UNL     1      21.927  -5.796  16.262  1.00  0.00     0.021 A 
ATOM     13  C   UNL     1      22.590  -7.010  16.512  1.00  0.00     0.016 A 
ATOM     14  C   UNL     1      22.673  -7.990  15.519  1.00  0.00     0.047 A 
ATOM     15  C   UNL     1      22.107  -7.763  14.258  1.00  0.00     0.115 A 
ATOM     16  C   UNL     1      21.379  -5.569  14.987  1.00  0.00     0.016 A 
ATOM     17  C   UNL     1      21.463  -6.550  13.995  1.00  0.00     0.047 A 
BRANCH  15  18
ATOM     18  O   UNL     1      22.182  -8.733  13.260  1.00  0.00    -0.508 OA
ATOM     19  H   UNL     1      22.036  -9.715  13.464  1.00  0.00     0.293 HD
ENDBRANCH  15  18
ENDBRANCH   1  12
BRANCH   2  20
ATOM     20  O   UNL     1      23.756  -3.551  16.378  1.00  0.00    -0.502 OA
ATOM     21  H   UNL     1      24.102  -2.648  16.080  1.00  0.00     0.293 HD
ENDBRANCH   2  20
BRANCH   6  22
ATOM     22  O   UNL     1      22.113  -0.767  20.611  1.00  0.00    -0.507 OA
ATOM     23  H   UNL     1      22.353  -0.361  21.502  1.00  0.00     0.293 HD
ENDBRANCH   6  22
BRANCH   8  24
ATOM     24  O   UNL     1      18.595  -3.592  22.202  1.00  0.00    -0.508 OA
ATOM     25  H   UNL     1      18.768  -4.163  23.021  1.00  0.00     0.293 HD
ENDBRANCH   8  24
TORSDOF 5
ENDMDL
MODEL 9
REMARK VINA RESULT:    -5.064      2.979      5.060
REMARK INTER + INTRA:          -6.224
REMARK INTER:                  -6.576
REMARK INTRA:                   0.352
REMARK UNBOUND:                -0.272
REMARK SMILES O=c1c(O)c(-c2ccc(O)cc2)oc2cc(O)cc(O)c12
REMARK SMILES IDX 5 1 3 2 2 3 1 4 21 5 19 6 18 7 16 8 15 9 14 10 13 11 6 12
REMARK SMILES IDX 7 13 8 14 9 15 12 16 11 17 10 18 4 20 20 22 17 24
REMARK H PARENT 10 19 4 21 20 23 17 25
REMARK Flexibility Score: inf
ROOT
ATOM      1  C   UNL     1      22.802  -3.216  18.066  1.00  0.00     0.180 A 
ATOM      2  C   UNL     1      23.940  -2.522  17.622  1.00  0.00     0.208 A 
ATOM      3  C   UNL     1      24.399  -1.421  18.363  1.00  0.00     0.238 A 
ATOM      4  O   UNL     1      25.461  -0.851  18.001  1.00  0.00    -0.285 OA
ATOM      5  C   UNL     1      23.682  -0.992  19.507  1.00  0.00     0.111 A 
ATOM      6  C   UNL     1      24.030   0.138  20.307  1.00  0.00     0.134 A 
ATOM      7  C   UNL     1      23.308   0.404  21.478  1.00  0.00     0.093 A 
ATOM      8  C   UNL     1      22.214  -0.379  21.842  1.00  0.00     0.123 A 
ATOM      9  C   UNL     1      21.831  -1.453  21.038  1.00  0.00     0.094 A 
ATOM     10  C   UNL     1      22.555  -1.767  19.886  1.00  0.00     0.146 A 
ATOM     11  O   UNL     1      22.170  -2.810  19.161  1.00  0.00    -0.452 OA
ENDROOT
BRANCH   1  12
ATOM     12  C   UNL     1      22.267  -4.395  17.348  1.00  0.00     0.021 A 
ATOM     13  C   UNL     1      22.414  -4.479  15.953  1.00  0.00     0.016 A 
ATOM     14  C   UNL     1      21.898  -5.572  15.251  1.00  0.00     0.047 A 
ATOM     15  C   UNL     1      21.214  -6.586  15.932  1.00  0.00     0.115 A 
ATOM     16  C   UNL     1      21.562  -5.408  18.022  1.00  0.00     0.016 A 
ATOM     17  C   UNL     1      21.046  -6.500  17.318  1.00  0.00     0.047 A 
BRANCH  15  18
ATOM     18  O   UNL     1      20.696  -7.682  15.244  1.00  0.00    -0.508 OA
ATOM     19  H   UNL     1      20.646  -7.695  14.232  1.00  0.00     0.293 HD
ENDBRANCH  15  18
ENDBRANCH   1  12
BRANCH   2  20
ATOM     20  O   UNL     1      24.590  -2.913  16.448  1.00  0.00    -0.502 OA
ATOM     21  H   UNL     1      25.438  -2.467  16.120  1.00  0.00     0.293 HD
ENDBRANCH   2  20
BRANCH   6  22
ATOM     22  O   UNL     1      25.049   1.039  19.988  1.00  0.00    -0.507 OA
ATOM     23  H   UNL     1      25.500   1.108  19.089  1.00  0.00     0.293 HD
ENDBRANCH   6  22
BRANCH   8  24
ATOM     24  O   UNL     1      21.508  -0.074  23.005  1.00  0.00    -0.508 OA
ATOM     25  H   UNL     1      20.506   0.077  22.992  1.00  0.00     0.293 HD
ENDBRANCH   8  24
TORSDOF 5
ENDMDL
