MODEL 1
REMARK VINA RESULT:    -5.501      0.000      0.000
REMARK INTER + INTRA:         -10.817
REMARK INTER:                 -10.004
REMARK INTRA:                  -0.813
REMARK UNBOUND:                -0.813
REMARK SMILES CCCCCCCCCCCCCCCC(=O)[O-]
REMARK SMILES IDX 9 1 10 2 11 3 12 4 13 5 14 6 15 7 16 8 17 9 18 10 8 11 7 12
REMARK SMILES IDX 6 13 5 14 4 15 3 16 2 17 1 18
REMARK H PARENT
REMARK Flexibility Score: inf
ROOT
ATOM      1  C   UNL     1      57.229 143.738 -30.256  1.00  0.00     0.000 C 
ENDROOT
BRANCH   1   2
ATOM      2  C   UNL     1      56.930 144.103 -28.794  1.00  0.00     0.000 C 
BRANCH   2   3
ATOM      3  C   UNL     1      55.422 144.164 -28.501  1.00  0.00     0.000 C 
BRANCH   3   4
ATOM      4  C   UNL     1      54.916 142.926 -27.739  1.00  0.00     0.000 C 
BRANCH   4   5
ATOM      5  C   UNL     1      55.872 142.518 -26.598  1.00  0.00     0.000 C 
BRANCH   5   6
ATOM      6  C   UNL     1      55.248 142.649 -25.198  1.00  0.00     0.006 C 
BRANCH   6   7
ATOM      7  C   UNL     1      55.411 144.051 -24.599  1.00  0.00     0.053 C 
BRANCH   7   8
ATOM      8  C   UNL     1      54.214 144.410 -23.777  1.00  0.00     0.041 C 
ATOM      9  O   UNL     1      53.383 143.524 -23.446  1.00  0.00    -0.550 OA
ATOM     10  O   UNL     1      53.991 145.733 -23.415  1.00  0.00    -0.550 OA
ENDBRANCH   7   8
ENDBRANCH   6   7
ENDBRANCH   5   6
ENDBRANCH   4   5
ENDBRANCH   3   4
ENDBRANCH   2   3
ENDBRANCH   1   2
BRANCH   1  11
ATOM     11  C   UNL     1      58.697 144.029 -30.603  1.00  0.00     0.000 C 
BRANCH  11  12
ATOM     12  C   UNL     1      58.895 144.426 -32.076  1.00  0.00    -0.000 C 
BRANCH  12  13
ATOM     13  C   UNL     1      59.923 143.577 -32.852  1.00  0.00    -0.000 C 
BRANCH  13  14
ATOM     14  C   UNL     1      60.483 144.227 -34.130  1.00  0.00    -0.000 C 
BRANCH  14  15
ATOM     15  C   UNL     1      61.288 145.507 -33.847  1.00  0.00    -0.000 C 
BRANCH  15  16
ATOM     16  C   UNL     1      61.095 146.587 -34.928  1.00  0.00    -0.000 C 
BRANCH  16  17
ATOM     17  C   UNL     1      60.586 147.944 -34.412  1.00  0.00    -0.003 C 
ATOM     18  C   UNL     1      59.868 147.843 -33.067  1.00  0.00     0.004 C 
ENDBRANCH  16  17
ENDBRANCH  15  16
ENDBRANCH  14  15
ENDBRANCH  13  14
ENDBRANCH  12  13
ENDBRANCH  11  12
ENDBRANCH   1  11
TORSDOF 14
ENDMDL
MODEL 2
REMARK VINA RESULT:    -4.869     12.930     17.031
REMARK INTER + INTRA:          -9.667
REMARK INTER:                  -8.860
REMARK INTRA:                  -0.808
REMARK UNBOUND:                -0.813
REMARK SMILES CCCCCCCCCCCCCCCC(=O)[O-]
REMARK SMILES IDX 9 1 10 2 11 3 12 4 13 5 14 6 15 7 16 8 17 9 18 10 8 11 7 12
REMARK SMILES IDX 6 13 5 14 4 15 3 16 2 17 1 18
REMARK H PARENT
REMARK Flexibility Score: inf
ROOT
ATOM      1  C   UNL     1      49.079 153.037 -20.724  1.00  0.00     0.000 C 
ENDROOT
BRANCH   1   2
ATOM      2  C   UNL     1      49.365 153.159 -22.229  1.00  0.00     0.000 C 
BRANCH   2   3
ATOM      3  C   UNL     1      50.828 152.839 -22.577  1.00  0.00     0.000 C 
BRANCH   3   4
ATOM      4  C   UNL     1      51.139 153.043 -24.071  1.00  0.00     0.000 C 
BRANCH   4   5
ATOM      5  C   UNL     1      51.726 154.441 -24.355  1.00  0.00     0.000 C 
BRANCH   5   6
ATOM      6  C   UNL     1      50.758 155.374 -25.102  1.00  0.00     0.006 C 
BRANCH   6   7
ATOM      7  C   UNL     1      51.028 155.434 -26.610  1.00  0.00     0.053 C 
BRANCH   7   8
ATOM      8  C   UNL     1      49.987 154.665 -27.359  1.00  0.00     0.041 C 
ATOM      9  O   UNL     1      50.321 153.884 -28.288  1.00  0.00    -0.550 OA
ATOM     10  O   UNL     1      48.641 154.845 -27.062  1.00  0.00    -0.550 OA
ENDBRANCH   7   8
ENDBRANCH   6   7
ENDBRANCH   5   6
ENDBRANCH   4   5
ENDBRANCH   3   4
ENDBRANCH   2   3
ENDBRANCH   1   2
BRANCH   1  11
ATOM     11  C   UNL     1      50.262 153.565 -19.898  1.00  0.00     0.000 C 
BRANCH  11  12
ATOM     12  C   UNL     1      49.816 154.318 -18.632  1.00  0.00    -0.000 C 
BRANCH  12  13
ATOM     13  C   UNL     1      49.388 153.422 -17.452  1.00  0.00    -0.000 C 
BRANCH  13  14
ATOM     14  C   UNL     1      49.147 154.156 -16.121  1.00  0.00    -0.000 C 
BRANCH  14  15
ATOM     15  C   UNL     1      49.413 153.269 -14.892  1.00  0.00    -0.000 C 
BRANCH  15  16
ATOM     16  C   UNL     1      49.266 151.766 -15.196  1.00  0.00    -0.000 C 
BRANCH  16  17
ATOM     17  C   UNL     1      50.523 150.921 -14.926  1.00  0.00    -0.003 C 
ATOM     18  C   UNL     1      51.815 151.612 -15.358  1.00  0.00     0.004 C 
ENDBRANCH  16  17
ENDBRANCH  15  16
ENDBRANCH  14  15
ENDBRANCH  13  14
ENDBRANCH  12  13
ENDBRANCH  11  12
ENDBRANCH   1  11
TORSDOF 14
ENDMDL
MODEL 3
REMARK VINA RESULT:    -4.658      1.811      2.239
REMARK INTER + INTRA:          -9.284
REMARK INTER:                  -8.509
REMARK INTRA:                  -0.775
REMARK UNBOUND:                -0.813
REMARK SMILES CCCCCCCCCCCCCCCC(=O)[O-]
REMARK SMILES IDX 9 1 10 2 11 3 12 4 13 5 14 6 15 7 16 8 17 9 18 10 8 11 7 12
REMARK SMILES IDX 6 13 5 14 4 15 3 16 2 17 1 18
REMARK H PARENT
REMARK Flexibility Score: inf
ROOT
ATOM      1  C   UNL     1      56.774 143.750 -30.526  1.00  0.00     0.000 C 
ENDROOT
BRANCH   1   2
ATOM      2  C   UNL     1      56.240 143.403 -29.127  1.00  0.00     0.000 C 
BRANCH   2   3
ATOM      3  C   UNL     1      56.549 144.497 -28.092  1.00  0.00     0.000 C 
BRANCH   3   4
ATOM      4  C   UNL     1      55.711 144.351 -26.809  1.00  0.00     0.000 C 
BRANCH   4   5
ATOM      5  C   UNL     1      56.264 143.252 -25.879  1.00  0.00     0.000 C 
BRANCH   5   6
ATOM      6  C   UNL     1      55.259 142.120 -25.601  1.00  0.00     0.006 C 
BRANCH   6   7
ATOM      7  C   UNL     1      55.935 140.812 -25.172  1.00  0.00     0.053 C 
BRANCH   7   8
ATOM      8  C   UNL     1      55.791 140.608 -23.698  1.00  0.00     0.041 C 
ATOM      9  O   UNL     1      56.338 141.405 -22.891  1.00  0.00    -0.550 OA
ATOM     10  O   UNL     1      55.093 139.509 -23.213  1.00  0.00    -0.550 OA
ENDBRANCH   7   8
ENDBRANCH   6   7
ENDBRANCH   5   6
ENDBRANCH   4   5
ENDBRANCH   3   4
ENDBRANCH   2   3
ENDBRANCH   1   2
BRANCH   1  11
ATOM     11  C   UNL     1      58.302 143.902 -30.507  1.00  0.00     0.000 C 
BRANCH  11  12
ATOM     12  C   UNL     1      58.858 144.504 -31.808  1.00  0.00    -0.000 C 
BRANCH  12  13
ATOM     13  C   UNL     1      59.814 143.588 -32.599  1.00  0.00    -0.000 C 
BRANCH  13  14
ATOM     14  C   UNL     1      60.349 144.176 -33.918  1.00  0.00    -0.000 C 
BRANCH  14  15
ATOM     15  C   UNL     1      61.210 145.433 -33.707  1.00  0.00    -0.000 C 
BRANCH  15  16
ATOM     16  C   UNL     1      61.105 146.433 -34.873  1.00  0.00    -0.000 C 
BRANCH  16  17
ATOM     17  C   UNL     1      60.389 147.754 -34.536  1.00  0.00    -0.003 C 
ATOM     18  C   UNL     1      59.945 147.841 -33.077  1.00  0.00     0.004 C 
ENDBRANCH  16  17
ENDBRANCH  15  16
ENDBRANCH  14  15
ENDBRANCH  13  14
ENDBRANCH  12  13
ENDBRANCH  11  12
ENDBRANCH   1  11
TORSDOF 14
ENDMDL
MODEL 4
REMARK VINA RESULT:    -4.465     10.794     12.212
REMARK INTER + INTRA:          -8.933
REMARK INTER:                  -7.829
REMARK INTRA:                  -1.104
REMARK UNBOUND:                -0.813
REMARK SMILES CCCCCCCCCCCCCCCC(=O)[O-]
REMARK SMILES IDX 9 1 10 2 11 3 12 4 13 5 14 6 15 7 16 8 17 9 18 10 8 11 7 12
REMARK SMILES IDX 6 13 5 14 4 15 3 16 2 17 1 18
REMARK H PARENT
REMARK Flexibility Score: inf
ROOT
ATOM      1  C   UNL     1      50.001 153.331 -30.095  1.00  0.00     0.000 C 
ENDROOT
BRANCH   1   2
ATOM      2  C   UNL     1      50.228 153.744 -28.633  1.00  0.00     0.000 C 
BRANCH   2   3
ATOM      3  C   UNL     1      49.352 154.937 -28.216  1.00  0.00     0.000 C 
BRANCH   3   4
ATOM      4  C   UNL     1      50.121 155.970 -27.373  1.00  0.00     0.000 C 
BRANCH   4   5
ATOM      5  C   UNL     1      51.196 155.309 -26.487  1.00  0.00     0.000 C 
BRANCH   5   6
ATOM      6  C   UNL     1      50.664 154.842 -25.121  1.00  0.00     0.006 C 
BRANCH   6   7
ATOM      7  C   UNL     1      51.692 154.029 -24.324  1.00  0.00     0.053 C 
BRANCH   7   8
ATOM      8  C   UNL     1      51.488 152.565 -24.549  1.00  0.00     0.041 C 
ATOM      9  O   UNL     1      52.069 151.983 -25.503  1.00  0.00    -0.550 OA
ATOM     10  O   UNL     1      50.620 151.850 -23.734  1.00  0.00    -0.550 OA
ENDBRANCH   7   8
ENDBRANCH   6   7
ENDBRANCH   5   6
ENDBRANCH   4   5
ENDBRANCH   3   4
ENDBRANCH   2   3
ENDBRANCH   1   2
BRANCH   1  11
ATOM     11  C   UNL     1      48.598 152.735 -30.285  1.00  0.00     0.000 C 
BRANCH  11  12
ATOM     12  C   UNL     1      47.802 153.427 -31.405  1.00  0.00    -0.000 C 
BRANCH  12  13
ATOM     13  C   UNL     1      48.651 154.225 -32.416  1.00  0.00    -0.000 C 
BRANCH  13  14
ATOM     14  C   UNL     1      49.151 153.424 -33.633  1.00  0.00    -0.000 C 
BRANCH  14  15
ATOM     15  C   UNL     1      50.567 153.831 -34.075  1.00  0.00    -0.000 C 
BRANCH  15  16
ATOM     16  C   UNL     1      51.198 154.895 -33.157  1.00  0.00    -0.000 C 
BRANCH  16  17
ATOM     17  C   UNL     1      52.654 155.265 -33.493  1.00  0.00    -0.003 C 
ATOM     18  C   UNL     1      53.621 154.091 -33.348  1.00  0.00     0.004 C 
ENDBRANCH  16  17
ENDBRANCH  15  16
ENDBRANCH  14  15
ENDBRANCH  13  14
ENDBRANCH  12  13
ENDBRANCH  11  12
ENDBRANCH   1  11
TORSDOF 14
ENDMDL
MODEL 5
REMARK VINA RESULT:    -4.320     11.332     13.176
REMARK INTER + INTRA:          -8.668
REMARK INTER:                  -7.257
REMARK INTRA:                  -1.412
REMARK UNBOUND:                -0.813
REMARK SMILES CCCCCCCCCCCCCCCC(=O)[O-]
REMARK SMILES IDX 9 1 10 2 11 3 12 4 13 5 14 6 15 7 16 8 17 9 18 10 8 11 7 12
REMARK SMILES IDX 6 13 5 14 4 15 3 16 2 17 1 18
REMARK H PARENT
REMARK Flexibility Score: inf
ROOT
ATOM      1  C   UNL     1      48.389 156.435 -26.979  1.00  0.00     0.000 C 
ENDROOT
BRANCH   1   2
ATOM      2  C   UNL     1      49.423 156.826 -25.911  1.00  0.00     0.000 C 
BRANCH   2   3
ATOM      3  C   UNL     1      50.831 157.016 -26.498  1.00  0.00     0.000 C 
BRANCH   3   4
ATOM      4  C   UNL     1      51.870 156.076 -25.861  1.00  0.00     0.000 C 
BRANCH   4   5
ATOM      5  C   UNL     1      51.223 155.086 -24.869  1.00  0.00     0.000 C 
BRANCH   5   6
ATOM      6  C   UNL     1      51.831 153.674 -24.927  1.00  0.00     0.006 C 
BRANCH   6   7
ATOM      7  C   UNL     1      52.487 153.359 -26.276  1.00  0.00     0.053 C 
BRANCH   7   8
ATOM      8  C   UNL     1      52.500 151.884 -26.520  1.00  0.00     0.041 C 
ATOM      9  O   UNL     1      52.159 151.088 -25.607  1.00  0.00    -0.550 OA
ATOM     10  O   UNL     1      52.935 151.385 -27.742  1.00  0.00    -0.550 OA
ENDBRANCH   7   8
ENDBRANCH   6   7
ENDBRANCH   5   6
ENDBRANCH   4   5
ENDBRANCH   3   4
ENDBRANCH   2   3
ENDBRANCH   1   2
BRANCH   1  11
ATOM     11  C   UNL     1      48.628 155.000 -27.472  1.00  0.00     0.000 C 
BRANCH  11  12
ATOM     12  C   UNL     1      49.062 154.940 -28.946  1.00  0.00    -0.000 C 
BRANCH  12  13
ATOM     13  C   UNL     1      49.790 153.647 -29.364  1.00  0.00    -0.000 C 
BRANCH  13  14
ATOM     14  C   UNL     1      48.991 152.708 -30.286  1.00  0.00    -0.000 C 
BRANCH  14  15
ATOM     15  C   UNL     1      47.721 153.366 -30.853  1.00  0.00    -0.000 C 
BRANCH  15  16
ATOM     16  C   UNL     1      47.891 153.839 -32.308  1.00  0.00    -0.000 C 
BRANCH  16  17
ATOM     17  C   UNL     1      49.303 153.655 -32.893  1.00  0.00    -0.003 C 
ATOM     18  C   UNL     1      49.294 153.232 -34.361  1.00  0.00     0.004 C 
ENDBRANCH  16  17
ENDBRANCH  15  16
ENDBRANCH  14  15
ENDBRANCH  13  14
ENDBRANCH  12  13
ENDBRANCH  11  12
ENDBRANCH   1  11
TORSDOF 14
ENDMDL
MODEL 6
REMARK VINA RESULT:    -4.316     11.998     14.723
REMARK INTER + INTRA:          -8.661
REMARK INTER:                  -7.691
REMARK INTRA:                  -0.970
REMARK UNBOUND:                -0.813
REMARK SMILES CCCCCCCCCCCCCCCC(=O)[O-]
REMARK SMILES IDX 9 1 10 2 11 3 12 4 13 5 14 6 15 7 16 8 17 9 18 10 8 11 7 12
REMARK SMILES IDX 6 13 5 14 4 15 3 16 2 17 1 18
REMARK H PARENT
REMARK Flexibility Score: inf
ROOT
ATOM      1  C   UNL     1      49.902 153.712 -29.457  1.00  0.00     0.000 C 
ENDROOT
BRANCH   1   2
ATOM      2  C   UNL     1      49.026 152.810 -30.340  1.00  0.00     0.000 C 
BRANCH   2   3
ATOM      3  C   UNL     1      47.967 153.604 -31.122  1.00  0.00     0.000 C 
BRANCH   3   4
ATOM      4  C   UNL     1      48.561 154.353 -32.329  1.00  0.00     0.000 C 
BRANCH   4   5
ATOM      5  C   UNL     1      49.088 153.386 -33.409  1.00  0.00     0.000 C 
BRANCH   5   6
ATOM      6  C   UNL     1      50.471 153.773 -33.959  1.00  0.00     0.006 C 
BRANCH   6   7
ATOM      7  C   UNL     1      51.231 154.738 -33.042  1.00  0.00     0.053 C 
BRANCH   7   8
ATOM      8  C   UNL     1      52.623 154.952 -33.546  1.00  0.00     0.041 C 
ATOM      9  O   UNL     1      53.256 154.005 -34.082  1.00  0.00    -0.550 OA
ATOM     10  O   UNL     1      53.240 156.186 -33.382  1.00  0.00    -0.550 OA
ENDBRANCH   7   8
ENDBRANCH   6   7
ENDBRANCH   5   6
ENDBRANCH   4   5
ENDBRANCH   3   4
ENDBRANCH   2   3
ENDBRANCH   1   2
BRANCH   1  11
ATOM     11  C   UNL     1      49.039 154.552 -28.504  1.00  0.00     0.000 C 
BRANCH  11  12
ATOM     12  C   UNL     1      49.868 155.524 -27.648  1.00  0.00    -0.000 C 
BRANCH  12  13
ATOM     13  C   UNL     1      50.181 155.036 -26.219  1.00  0.00    -0.000 C 
BRANCH  13  14
ATOM     14  C   UNL     1      51.499 154.257 -26.062  1.00  0.00    -0.000 C 
BRANCH  14  15
ATOM     15  C   UNL     1      51.905 154.058 -24.592  1.00  0.00    -0.000 C 
BRANCH  15  16
ATOM     16  C   UNL     1      51.070 152.977 -23.882  1.00  0.00    -0.000 C 
BRANCH  16  17
ATOM     17  C   UNL     1      50.815 153.228 -22.385  1.00  0.00    -0.003 C 
ATOM     18  C   UNL     1      49.402 152.849 -21.944  1.00  0.00     0.004 C 
ENDBRANCH  16  17
ENDBRANCH  15  16
ENDBRANCH  14  15
ENDBRANCH  13  14
ENDBRANCH  12  13
ENDBRANCH  11  12
ENDBRANCH   1  11
TORSDOF 14
ENDMDL
MODEL 7
REMARK VINA RESULT:    -4.211     11.640     12.923
REMARK INTER + INTRA:          -8.471
REMARK INTER:                  -7.117
REMARK INTRA:                  -1.354
REMARK UNBOUND:                -0.813
REMARK SMILES CCCCCCCCCCCCCCCC(=O)[O-]
REMARK SMILES IDX 9 1 10 2 11 3 12 4 13 5 14 6 15 7 16 8 17 9 18 10 8 11 7 12
REMARK SMILES IDX 6 13 5 14 4 15 3 16 2 17 1 18
REMARK H PARENT
REMARK Flexibility Score: inf
ROOT
ATOM      1  C   UNL     1      47.644 155.688 -28.656  1.00  0.00     0.000 C 
ENDROOT
BRANCH   1   2
ATOM      2  C   UNL     1      48.997 156.223 -28.161  1.00  0.00     0.000 C 
BRANCH   2   3
ATOM      3  C   UNL     1      49.816 155.153 -27.419  1.00  0.00     0.000 C 
BRANCH   3   4
ATOM      4  C   UNL     1      50.631 155.738 -26.252  1.00  0.00     0.000 C 
BRANCH   4   5
ATOM      5  C   UNL     1      52.052 155.140 -26.181  1.00  0.00     0.000 C 
BRANCH   5   6
ATOM      6  C   UNL     1      52.127 153.828 -25.382  1.00  0.00     0.006 C 
BRANCH   6   7
ATOM      7  C   UNL     1      51.537 153.950 -23.972  1.00  0.00     0.053 C 
BRANCH   7   8
ATOM      8  C   UNL     1      50.605 152.815 -23.695  1.00  0.00     0.041 C 
ATOM      9  O   UNL     1      49.652 152.960 -22.884  1.00  0.00    -0.550 OA
ATOM     10  O   UNL     1      50.815 151.580 -24.295  1.00  0.00    -0.550 OA
ENDBRANCH   7   8
ENDBRANCH   6   7
ENDBRANCH   5   6
ENDBRANCH   4   5
ENDBRANCH   3   4
ENDBRANCH   2   3
ENDBRANCH   1   2
BRANCH   1  11
ATOM     11  C   UNL     1      47.544 154.171 -28.441  1.00  0.00     0.000 C 
BRANCH  11  12
ATOM     12  C   UNL     1      47.461 153.385 -29.761  1.00  0.00    -0.000 C 
BRANCH  12  13
ATOM     13  C   UNL     1      48.736 152.605 -30.141  1.00  0.00    -0.000 C 
BRANCH  13  14
ATOM     14  C   UNL     1      49.922 153.467 -30.609  1.00  0.00    -0.000 C 
BRANCH  14  15
ATOM     15  C   UNL     1      49.522 154.509 -31.668  1.00  0.00    -0.000 C 
BRANCH  15  16
ATOM     16  C   UNL     1      50.573 154.664 -32.782  1.00  0.00    -0.000 C 
BRANCH  16  17
ATOM     17  C   UNL     1      50.343 153.781 -34.022  1.00  0.00    -0.003 C 
ATOM     18  C   UNL     1      48.904 153.286 -34.148  1.00  0.00     0.004 C 
ENDBRANCH  16  17
ENDBRANCH  15  16
ENDBRANCH  14  15
ENDBRANCH  13  14
ENDBRANCH  12  13
ENDBRANCH  11  12
ENDBRANCH   1  11
TORSDOF 14
ENDMDL
MODEL 8
REMARK VINA RESULT:    -4.202      6.083     11.009
REMARK INTER + INTRA:          -8.454
REMARK INTER:                  -7.584
REMARK INTRA:                  -0.870
REMARK UNBOUND:                -0.813
REMARK SMILES CCCCCCCCCCCCCCCC(=O)[O-]
REMARK SMILES IDX 9 1 10 2 11 3 12 4 13 5 14 6 15 7 16 8 17 9 18 10 8 11 7 12
REMARK SMILES IDX 6 13 5 14 4 15 3 16 2 17 1 18
REMARK H PARENT
REMARK Flexibility Score: inf
ROOT
ATOM      1  C   UNL     1      58.425 143.284 -21.941  1.00  0.00     0.000 C 
ENDROOT
BRANCH   1   2
ATOM      2  C   UNL     1      58.566 141.837 -22.438  1.00  0.00     0.000 C 
BRANCH   2   3
ATOM      3  C   UNL     1      57.212 141.114 -22.531  1.00  0.00     0.000 C 
BRANCH   3   4
ATOM      4  C   UNL     1      56.476 141.405 -23.851  1.00  0.00     0.000 C 
BRANCH   4   5
ATOM      5  C   UNL     1      55.261 142.333 -23.644  1.00  0.00     0.000 C 
BRANCH   5   6
ATOM      6  C   UNL     1      55.443 143.731 -24.259  1.00  0.00     0.006 C 
BRANCH   6   7
ATOM      7  C   UNL     1      56.275 143.715 -25.547  1.00  0.00     0.053 C 
BRANCH   7   8
ATOM      8  C   UNL     1      55.381 143.720 -26.746  1.00  0.00     0.041 C 
ATOM      9  O   UNL     1      55.208 144.780 -27.403  1.00  0.00    -0.550 OA
ATOM     10  O   UNL     1      54.701 142.565 -27.112  1.00  0.00    -0.550 OA
ENDBRANCH   7   8
ENDBRANCH   6   7
ENDBRANCH   5   6
ENDBRANCH   4   5
ENDBRANCH   3   4
ENDBRANCH   2   3
ENDBRANCH   1   2
BRANCH   1  11
ATOM     11  C   UNL     1      58.667 143.369 -20.427  1.00  0.00     0.000 C 
BRANCH  11  12
ATOM     12  C   UNL     1      59.681 144.461 -20.045  1.00  0.00    -0.000 C 
BRANCH  12  13
ATOM     13  C   UNL     1      59.274 145.345 -18.848  1.00  0.00    -0.000 C 
BRANCH  13  14
ATOM     14  C   UNL     1      60.323 146.382 -18.408  1.00  0.00    -0.000 C 
BRANCH  14  15
ATOM     15  C   UNL     1      60.512 146.430 -16.882  1.00  0.00    -0.000 C 
BRANCH  15  16
ATOM     16  C   UNL     1      60.218 147.819 -16.286  1.00  0.00    -0.000 C 
BRANCH  16  17
ATOM     17  C   UNL     1      59.309 148.718 -17.144  1.00  0.00    -0.003 C 
ATOM     18  C   UNL     1      58.520 149.734 -16.321  1.00  0.00     0.004 C 
ENDBRANCH  16  17
ENDBRANCH  15  16
ENDBRANCH  14  15
ENDBRANCH  13  14
ENDBRANCH  12  13
ENDBRANCH  11  12
ENDBRANCH   1  11
TORSDOF 14
ENDMDL
MODEL 9
REMARK VINA RESULT:    -4.112     12.264     14.632
REMARK INTER + INTRA:          -8.290
REMARK INTER:                  -6.922
REMARK INTRA:                  -1.368
REMARK UNBOUND:                -0.813
REMARK SMILES CCCCCCCCCCCCCCCC(=O)[O-]
REMARK SMILES IDX 9 1 10 2 11 3 12 4 13 5 14 6 15 7 16 8 17 9 18 10 8 11 7 12
REMARK SMILES IDX 6 13 5 14 4 15 3 16 2 17 1 18
REMARK H PARENT
REMARK Flexibility Score: inf
ROOT
ATOM      1  C   UNL     1      48.764 155.449 -27.231  1.00  0.00     0.000 C 
ENDROOT
BRANCH   1   2
ATOM      2  C   UNL     1      49.254 155.063 -28.634  1.00  0.00     0.000 C 
BRANCH   2   3
ATOM      3  C   UNL     1      50.231 153.876 -28.610  1.00  0.00     0.000 C 
BRANCH   3   4
ATOM      4  C   UNL     1      50.147 153.013 -29.882  1.00  0.00     0.000 C 
BRANCH   4   5
ATOM      5  C   UNL     1      48.694 152.847 -30.373  1.00  0.00     0.000 C 
BRANCH   5   6
ATOM      6  C   UNL     1      48.445 153.444 -31.769  1.00  0.00     0.006 C 
BRANCH   6   7
ATOM      7  C   UNL     1      49.710 154.039 -32.399  1.00  0.00     0.053 C 
BRANCH   7   8
ATOM      8  C   UNL     1      49.844 153.597 -33.821  1.00  0.00     0.041 C 
ATOM      9  O   UNL     1      50.906 153.823 -34.458  1.00  0.00    -0.550 OA
ATOM     10  O   UNL     1      48.777 152.977 -34.460  1.00  0.00    -0.550 OA
ENDBRANCH   7   8
ENDBRANCH   6   7
ENDBRANCH   5   6
ENDBRANCH   4   5
ENDBRANCH   3   4
ENDBRANCH   2   3
ENDBRANCH   1   2
BRANCH   1  11
ATOM     11  C   UNL     1      49.388 156.778 -26.780  1.00  0.00     0.000 C 
BRANCH  11  12
ATOM     12  C   UNL     1      50.438 156.598 -25.670  1.00  0.00    -0.000 C 
BRANCH  12  13
ATOM     13  C   UNL     1      51.880 156.360 -26.163  1.00  0.00    -0.000 C 
BRANCH  13  14
ATOM     14  C   UNL     1      52.634 155.214 -25.464  1.00  0.00    -0.000 C 
BRANCH  14  15
ATOM     15  C   UNL     1      52.044 153.829 -25.782  1.00  0.00    -0.000 C 
BRANCH  15  16
ATOM     16  C   UNL     1      51.676 153.031 -24.517  1.00  0.00    -0.000 C 
BRANCH  16  17
ATOM     17  C   UNL     1      50.488 153.591 -23.715  1.00  0.00    -0.003 C 
ATOM     18  C   UNL     1      50.595 153.320 -22.216  1.00  0.00     0.004 C 
ENDBRANCH  16  17
ENDBRANCH  15  16
ENDBRANCH  14  15
ENDBRANCH  13  14
ENDBRANCH  12  13
ENDBRANCH  11  12
ENDBRANCH   1  11
TORSDOF 14
ENDMDL
