MODEL 1
REMARK VINA RESULT:    -5.366      0.000      0.000
REMARK INTER + INTRA:         -14.237
REMARK INTER:                 -11.641
REMARK INTRA:                  -2.597
REMARK UNBOUND:                -2.597
REMARK SMILES CCCCCCCCCCCCCCCCCCCCCC(=O)[O-]
REMARK SMILES IDX 12 1 11 2 10 3 9 4 8 5 7 6 6 7 5 8 4 9 3 10 2 11 1 12 13 13
REMARK SMILES IDX 14 14 15 15 16 16 17 17 18 18 19 19 20 20 21 21 22 22 23 23
REMARK SMILES IDX 24 24
REMARK H PARENT
REMARK Flexibility Score: inf
ROOT
ATOM      1  C   UNL     1      20.695  12.974  44.542  1.00  0.00     0.000 C 
ENDROOT
BRANCH   1   2
ATOM      2  C   UNL     1      19.490  12.541  45.397  1.00  0.00     0.000 C 
BRANCH   2   3
ATOM      3  C   UNL     1      19.792  11.312  46.271  1.00  0.00     0.000 C 
BRANCH   3   4
ATOM      4  C   UNL     1      19.903  10.014  45.454  1.00  0.00    -0.000 C 
BRANCH   4   5
ATOM      5  C   UNL     1      21.341   9.571  45.118  1.00  0.00    -0.000 C 
BRANCH   5   6
ATOM      6  C   UNL     1      21.525   9.105  43.658  1.00  0.00    -0.000 C 
BRANCH   6   7
ATOM      7  C   UNL     1      20.606   7.921  43.305  1.00  0.00    -0.000 C 
BRANCH   7   8
ATOM      8  C   UNL     1      20.089   7.990  41.859  1.00  0.00    -0.000 C 
BRANCH   8   9
ATOM      9  C   UNL     1      20.399   9.339  41.185  1.00  0.00    -0.000 C 
BRANCH   9  10
ATOM     10  C   UNL     1      19.418   9.654  40.036  1.00  0.00    -0.000 C 
BRANCH  10  11
ATOM     11  C   UNL     1      18.850   8.399  39.352  1.00  0.00    -0.003 C 
ATOM     12  C   UNL     1      17.336   8.267  39.507  1.00  0.00     0.004 C 
ENDBRANCH  10  11
ENDBRANCH   9  10
ENDBRANCH   8   9
ENDBRANCH   7   8
ENDBRANCH   6   7
ENDBRANCH   5   6
ENDBRANCH   4   5
ENDBRANCH   3   4
ENDBRANCH   2   3
ENDBRANCH   1   2
BRANCH   1  13
ATOM     13  C   UNL     1      20.644  12.527  43.067  1.00  0.00     0.000 C 
BRANCH  13  14
ATOM     14  C   UNL     1      21.994  12.573  42.324  1.00  0.00     0.000 C 
BRANCH  14  15
ATOM     15  C   UNL     1      23.202  12.988  43.188  1.00  0.00     0.000 C 
BRANCH  15  16
ATOM     16  C   UNL     1      24.359  13.651  42.417  1.00  0.00     0.000 C 
BRANCH  16  17
ATOM     17  C   UNL     1      24.220  15.181  42.334  1.00  0.00     0.000 C 
BRANCH  17  18
ATOM     18  C   UNL     1      23.634  15.661  40.993  1.00  0.00     0.000 C 
BRANCH  18  19
ATOM     19  C   UNL     1      22.098  15.774  40.943  1.00  0.00     0.000 C 
BRANCH  19  20
ATOM     20  C   UNL     1      21.488  16.882  41.826  1.00  0.00     0.006 C 
BRANCH  20  21
ATOM     21  C   UNL     1      20.634  16.351  42.993  1.00  0.00     0.053 C 
BRANCH  21  22
ATOM     22  C   UNL     1      19.199  16.143  42.613  1.00  0.00     0.041 C 
ATOM     23  O   UNL     1      18.746  14.978  42.458  1.00  0.00    -0.550 OA
ATOM     24  O   UNL     1      18.371  17.236  42.387  1.00  0.00    -0.550 OA
ENDBRANCH  21  22
ENDBRANCH  20  21
ENDBRANCH  19  20
ENDBRANCH  18  19
ENDBRANCH  17  18
ENDBRANCH  16  17
ENDBRANCH  15  16
ENDBRANCH  14  15
ENDBRANCH  13  14
ENDBRANCH   1  13
TORSDOF 20
ENDMDL
MODEL 2
REMARK VINA RESULT:    -5.233     10.884     14.448
REMARK INTER + INTRA:         -13.949
REMARK INTER:                 -11.001
REMARK INTRA:                  -2.948
REMARK UNBOUND:                -2.597
REMARK SMILES CCCCCCCCCCCCCCCCCCCCCC(=O)[O-]
REMARK SMILES IDX 12 1 11 2 10 3 9 4 8 5 7 6 6 7 5 8 4 9 3 10 2 11 1 12 13 13
REMARK SMILES IDX 14 14 15 15 16 16 17 17 18 18 19 19 20 20 21 21 22 22 23 23
REMARK SMILES IDX 24 24
REMARK H PARENT
REMARK Flexibility Score: inf
ROOT
ATOM      1  C   UNL     1      10.007  13.017  39.457  1.00  0.00     0.000 C 
ENDROOT
BRANCH   1   2
ATOM      2  C   UNL     1       8.714  13.373  40.212  1.00  0.00     0.000 C 
BRANCH   2   3
ATOM      3  C   UNL     1       8.739  12.919  41.682  1.00  0.00     0.000 C 
BRANCH   3   4
ATOM      4  C   UNL     1       7.336  12.860  42.310  1.00  0.00    -0.000 C 
BRANCH   4   5
ATOM      5  C   UNL     1       6.168  13.065  41.326  1.00  0.00    -0.000 C 
BRANCH   5   6
ATOM      6  C   UNL     1       5.028  13.942  41.885  1.00  0.00    -0.000 C 
BRANCH   6   7
ATOM      7  C   UNL     1       5.549  15.051  42.817  1.00  0.00    -0.000 C 
BRANCH   7   8
ATOM      8  C   UNL     1       5.594  16.425  42.128  1.00  0.00    -0.000 C 
BRANCH   8   9
ATOM      9  C   UNL     1       6.558  17.402  42.824  1.00  0.00    -0.000 C 
BRANCH   9  10
ATOM     10  C   UNL     1       7.950  16.777  43.060  1.00  0.00    -0.000 C 
BRANCH  10  11
ATOM     11  C   UNL     1       8.744  16.542  41.764  1.00  0.00    -0.003 C 
ATOM     12  C   UNL     1      10.255  16.653  41.959  1.00  0.00     0.004 C 
ENDBRANCH  10  11
ENDBRANCH   9  10
ENDBRANCH   8   9
ENDBRANCH   7   8
ENDBRANCH   6   7
ENDBRANCH   5   6
ENDBRANCH   4   5
ENDBRANCH   3   4
ENDBRANCH   2   3
ENDBRANCH   1   2
BRANCH   1  13
ATOM     13  C   UNL     1       9.873  11.871  38.434  1.00  0.00     0.000 C 
BRANCH  13  14
ATOM     14  C   UNL     1       9.634  10.476  39.044  1.00  0.00     0.000 C 
BRANCH  14  15
ATOM     15  C   UNL     1       8.294   9.815  38.660  1.00  0.00     0.000 C 
BRANCH  15  16
ATOM     16  C   UNL     1       7.176   9.948  39.711  1.00  0.00     0.000 C 
BRANCH  16  17
ATOM     17  C   UNL     1       7.155   8.778  40.710  1.00  0.00     0.000 C 
BRANCH  17  18
ATOM     18  C   UNL     1       7.132   9.241  42.179  1.00  0.00     0.000 C 
BRANCH  18  19
ATOM     19  C   UNL     1       8.274   8.701  43.062  1.00  0.00     0.000 C 
BRANCH  19  20
ATOM     20  C   UNL     1       8.452   9.410  44.420  1.00  0.00     0.006 C 
BRANCH  20  21
ATOM     21  C   UNL     1       9.396   8.675  45.390  1.00  0.00     0.053 C 
BRANCH  21  22
ATOM     22  C   UNL     1      10.770   9.273  45.426  1.00  0.00     0.041 C 
ATOM     23  O   UNL     1      10.921  10.521  45.339  1.00  0.00    -0.550 OA
ATOM     24  O   UNL     1      11.888   8.451  45.511  1.00  0.00    -0.550 OA
ENDBRANCH  21  22
ENDBRANCH  20  21
ENDBRANCH  19  20
ENDBRANCH  18  19
ENDBRANCH  17  18
ENDBRANCH  16  17
ENDBRANCH  15  16
ENDBRANCH  14  15
ENDBRANCH  13  14
ENDBRANCH   1  13
TORSDOF 20
ENDMDL
MODEL 3
REMARK VINA RESULT:    -5.147      1.954      3.763
REMARK INTER + INTRA:         -13.762
REMARK INTER:                 -11.303
REMARK INTRA:                  -2.459
REMARK UNBOUND:                -2.597
REMARK SMILES CCCCCCCCCCCCCCCCCCCCCC(=O)[O-]
REMARK SMILES IDX 12 1 11 2 10 3 9 4 8 5 7 6 6 7 5 8 4 9 3 10 2 11 1 12 13 13
REMARK SMILES IDX 14 14 15 15 16 16 17 17 18 18 19 19 20 20 21 21 22 22 23 23
REMARK SMILES IDX 24 24
REMARK H PARENT
REMARK Flexibility Score: inf
ROOT
ATOM      1  C   UNL     1      23.442  13.155  42.425  1.00  0.00     0.000 C 
ENDROOT
BRANCH   1   2
ATOM      2  C   UNL     1      23.755  12.549  43.804  1.00  0.00     0.000 C 
BRANCH   2   3
ATOM      3  C   UNL     1      23.895  11.017  43.763  1.00  0.00     0.000 C 
BRANCH   3   4
ATOM      4  C   UNL     1      23.031  10.312  44.822  1.00  0.00    -0.000 C 
BRANCH   4   5
ATOM      5  C   UNL     1      22.814   8.803  44.593  1.00  0.00    -0.000 C 
BRANCH   5   6
ATOM      6  C   UNL     1      22.137   8.468  43.248  1.00  0.00    -0.000 C 
BRANCH   6   7
ATOM      7  C   UNL     1      20.805   9.216  43.063  1.00  0.00    -0.000 C 
BRANCH   7   8
ATOM      8  C   UNL     1      20.678   9.855  41.671  1.00  0.00    -0.000 C 
BRANCH   8   9
ATOM      9  C   UNL     1      21.164   8.923  40.547  1.00  0.00    -0.000 C 
BRANCH   9  10
ATOM     10  C   UNL     1      20.230   8.956  39.319  1.00  0.00    -0.000 C 
BRANCH  10  11
ATOM     11  C   UNL     1      18.790   9.380  39.654  1.00  0.00    -0.003 C 
ATOM     12  C   UNL     1      17.805   8.212  39.648  1.00  0.00     0.004 C 
ENDBRANCH  10  11
ENDBRANCH   9  10
ENDBRANCH   8   9
ENDBRANCH   7   8
ENDBRANCH   6   7
ENDBRANCH   5   6
ENDBRANCH   4   5
ENDBRANCH   3   4
ENDBRANCH   2   3
ENDBRANCH   1   2
BRANCH   1  13
ATOM     13  C   UNL     1      24.414  14.259  41.960  1.00  0.00     0.000 C 
BRANCH  13  14
ATOM     14  C   UNL     1      23.796  15.329  41.039  1.00  0.00     0.000 C 
BRANCH  14  15
ATOM     15  C   UNL     1      22.903  16.367  41.749  1.00  0.00     0.000 C 
BRANCH  15  16
ATOM     16  C   UNL     1      21.467  16.478  41.202  1.00  0.00     0.000 C 
BRANCH  16  17
ATOM     17  C   UNL     1      20.449  16.882  42.283  1.00  0.00     0.000 C 
BRANCH  17  18
ATOM     18  C   UNL     1      19.370  15.809  42.524  1.00  0.00     0.000 C 
BRANCH  18  19
ATOM     19  C   UNL     1      19.899  14.396  42.837  1.00  0.00     0.000 C 
BRANCH  19  20
ATOM     20  C   UNL     1      19.462  13.812  44.195  1.00  0.00     0.006 C 
BRANCH  20  21
ATOM     21  C   UNL     1      20.194  12.513  44.582  1.00  0.00     0.053 C 
BRANCH  21  22
ATOM     22  C   UNL     1      19.648  11.890  45.831  1.00  0.00     0.041 C 
ATOM     23  O   UNL     1      19.131  12.610  46.726  1.00  0.00    -0.550 OA
ATOM     24  O   UNL     1      19.748  10.517  46.028  1.00  0.00    -0.550 OA
ENDBRANCH  21  22
ENDBRANCH  20  21
ENDBRANCH  19  20
ENDBRANCH  18  19
ENDBRANCH  17  18
ENDBRANCH  16  17
ENDBRANCH  15  16
ENDBRANCH  14  15
ENDBRANCH  13  14
ENDBRANCH   1  13
TORSDOF 20
ENDMDL
MODEL 4
REMARK VINA RESULT:    -5.033     10.909     14.343
REMARK INTER + INTRA:         -13.514
REMARK INTER:                 -11.157
REMARK INTRA:                  -2.357
REMARK UNBOUND:                -2.597
REMARK SMILES CCCCCCCCCCCCCCCCCCCCCC(=O)[O-]
REMARK SMILES IDX 12 1 11 2 10 3 9 4 8 5 7 6 6 7 5 8 4 9 3 10 2 11 1 12 13 13
REMARK SMILES IDX 14 14 15 15 16 16 17 17 18 18 19 19 20 20 21 21 22 22 23 23
REMARK SMILES IDX 24 24
REMARK H PARENT
REMARK Flexibility Score: inf
ROOT
ATOM      1  C   UNL     1       9.558  10.746  38.340  1.00  0.00     0.000 C 
ENDROOT
BRANCH   1   2
ATOM      2  C   UNL     1      10.135  11.789  39.315  1.00  0.00     0.000 C 
BRANCH   2   3
ATOM      3  C   UNL     1       9.386  13.132  39.260  1.00  0.00     0.000 C 
BRANCH   3   4
ATOM      4  C   UNL     1       8.553  13.400  40.525  1.00  0.00    -0.000 C 
BRANCH   4   5
ATOM      5  C   UNL     1       9.367  13.564  41.824  1.00  0.00    -0.000 C 
BRANCH   5   6
ATOM      6  C   UNL     1      10.130  14.902  41.916  1.00  0.00    -0.000 C 
BRANCH   6   7
ATOM      7  C   UNL     1       9.254  16.102  41.512  1.00  0.00    -0.000 C 
BRANCH   7   8
ATOM      8  C   UNL     1       8.410  16.634  42.682  1.00  0.00    -0.000 C 
BRANCH   8   9
ATOM      9  C   UNL     1       7.228  17.499  42.210  1.00  0.00    -0.000 C 
BRANCH   9  10
ATOM     10  C   UNL     1       5.873  16.961  42.720  1.00  0.00    -0.000 C 
BRANCH  10  11
ATOM     11  C   UNL     1       5.940  15.510  43.223  1.00  0.00    -0.003 C 
ATOM     12  C   UNL     1       5.443  14.496  42.193  1.00  0.00     0.004 C 
ENDBRANCH  10  11
ENDBRANCH   9  10
ENDBRANCH   8   9
ENDBRANCH   7   8
ENDBRANCH   6   7
ENDBRANCH   5   6
ENDBRANCH   4   5
ENDBRANCH   3   4
ENDBRANCH   2   3
ENDBRANCH   1   2
BRANCH   1  13
ATOM     13  C   UNL     1       8.404   9.892  38.904  1.00  0.00     0.000 C 
BRANCH  13  14
ATOM     14  C   UNL     1       8.794   8.948  40.058  1.00  0.00     0.000 C 
BRANCH  14  15
ATOM     15  C   UNL     1       8.487   9.482  41.472  1.00  0.00     0.000 C 
BRANCH  15  16
ATOM     16  C   UNL     1       7.073   9.167  41.996  1.00  0.00     0.000 C 
BRANCH  16  17
ATOM     17  C   UNL     1       6.643  10.097  43.144  1.00  0.00     0.000 C 
BRANCH  17  18
ATOM     18  C   UNL     1       6.350   9.341  44.454  1.00  0.00     0.000 C 
BRANCH  18  19
ATOM     19  C   UNL     1       7.403   9.509  45.566  1.00  0.00     0.000 C 
BRANCH  19  20
ATOM     20  C   UNL     1       8.412   8.350  45.703  1.00  0.00     0.006 C 
BRANCH  20  21
ATOM     21  C   UNL     1       9.589   8.427  44.711  1.00  0.00     0.053 C 
BRANCH  21  22
ATOM     22  C   UNL     1      10.782   9.133  45.282  1.00  0.00     0.041 C 
ATOM     23  O   UNL     1      11.780   8.475  45.676  1.00  0.00    -0.550 OA
ATOM     24  O   UNL     1      10.774  10.516  45.420  1.00  0.00    -0.550 OA
ENDBRANCH  21  22
ENDBRANCH  20  21
ENDBRANCH  19  20
ENDBRANCH  18  19
ENDBRANCH  17  18
ENDBRANCH  16  17
ENDBRANCH  15  16
ENDBRANCH  14  15
ENDBRANCH  13  14
ENDBRANCH   1  13
TORSDOF 20
ENDMDL
MODEL 5
REMARK VINA RESULT:    -4.938      2.205      4.417
REMARK INTER + INTRA:         -13.308
REMARK INTER:                 -11.246
REMARK INTRA:                  -2.062
REMARK UNBOUND:                -2.597
REMARK SMILES CCCCCCCCCCCCCCCCCCCCCC(=O)[O-]
REMARK SMILES IDX 12 1 11 2 10 3 9 4 8 5 7 6 6 7 5 8 4 9 3 10 2 11 1 12 13 13
REMARK SMILES IDX 14 14 15 15 16 16 17 17 18 18 19 19 20 20 21 21 22 22 23 23
REMARK SMILES IDX 24 24
REMARK H PARENT
REMARK Flexibility Score: inf
ROOT
ATOM      1  C   UNL     1      24.318  14.922  42.042  1.00  0.00     0.000 C 
ENDROOT
BRANCH   1   2
ATOM      2  C   UNL     1      24.842  13.919  43.085  1.00  0.00     0.000 C 
BRANCH   2   3
ATOM      3  C   UNL     1      23.796  12.857  43.467  1.00  0.00     0.000 C 
BRANCH   3   4
ATOM      4  C   UNL     1      23.856  11.612  42.566  1.00  0.00    -0.000 C 
BRANCH   4   5
ATOM      5  C   UNL     1      23.395  10.299  43.229  1.00  0.00    -0.000 C 
BRANCH   5   6
ATOM      6  C   UNL     1      22.892   9.237  42.229  1.00  0.00    -0.000 C 
BRANCH   6   7
ATOM      7  C   UNL     1      21.980   9.843  41.146  1.00  0.00    -0.000 C 
BRANCH   7   8
ATOM      8  C   UNL     1      22.195   9.197  39.768  1.00  0.00    -0.000 C 
BRANCH   8   9
ATOM      9  C   UNL     1      20.934   8.487  39.246  1.00  0.00    -0.000 C 
BRANCH   9  10
ATOM     10  C   UNL     1      19.728   8.672  40.192  1.00  0.00    -0.000 C 
BRANCH  10  11
ATOM     11  C   UNL     1      18.417   9.002  39.459  1.00  0.00    -0.003 C 
ATOM     12  C   UNL     1      17.260   8.089  39.860  1.00  0.00     0.004 C 
ENDBRANCH  10  11
ENDBRANCH   9  10
ENDBRANCH   8   9
ENDBRANCH   7   8
ENDBRANCH   6   7
ENDBRANCH   5   6
ENDBRANCH   4   5
ENDBRANCH   3   4
ENDBRANCH   2   3
ENDBRANCH   1   2
BRANCH   1  13
ATOM     13  C   UNL     1      24.368  16.401  42.475  1.00  0.00     0.000 C 
BRANCH  13  14
ATOM     14  C   UNL     1      23.475  17.353  41.654  1.00  0.00     0.000 C 
BRANCH  14  15
ATOM     15  C   UNL     1      22.041  16.846  41.399  1.00  0.00     0.000 C 
BRANCH  15  16
ATOM     16  C   UNL     1      21.166  16.698  42.658  1.00  0.00     0.000 C 
BRANCH  16  17
ATOM     17  C   UNL     1      19.677  16.497  42.328  1.00  0.00     0.000 C 
BRANCH  17  18
ATOM     18  C   UNL     1      19.133  15.137  42.805  1.00  0.00     0.000 C 
BRANCH  18  19
ATOM     19  C   UNL     1      20.185  14.024  42.971  1.00  0.00     0.000 C 
BRANCH  19  20
ATOM     20  C   UNL     1      20.193  13.320  44.343  1.00  0.00     0.006 C 
BRANCH  20  21
ATOM     21  C   UNL     1      20.334  11.788  44.259  1.00  0.00     0.053 C 
BRANCH  21  22
ATOM     22  C   UNL     1      20.098  11.111  45.575  1.00  0.00     0.041 C 
ATOM     23  O   UNL     1      20.656  10.012  45.833  1.00  0.00    -0.550 OA
ATOM     24  O   UNL     1      19.226  11.671  46.501  1.00  0.00    -0.550 OA
ENDBRANCH  21  22
ENDBRANCH  20  21
ENDBRANCH  19  20
ENDBRANCH  18  19
ENDBRANCH  17  18
ENDBRANCH  16  17
ENDBRANCH  15  16
ENDBRANCH  14  15
ENDBRANCH  13  14
ENDBRANCH   1  13
TORSDOF 20
ENDMDL
MODEL 6
REMARK VINA RESULT:    -4.905     10.887     13.742
REMARK INTER + INTRA:         -13.237
REMARK INTER:                 -10.740
REMARK INTRA:                  -2.496
REMARK UNBOUND:                -2.597
REMARK SMILES CCCCCCCCCCCCCCCCCCCCCC(=O)[O-]
REMARK SMILES IDX 12 1 11 2 10 3 9 4 8 5 7 6 6 7 5 8 4 9 3 10 2 11 1 12 13 13
REMARK SMILES IDX 14 14 15 15 16 16 17 17 18 18 19 19 20 20 21 21 22 22 23 23
REMARK SMILES IDX 24 24
REMARK H PARENT
REMARK Flexibility Score: inf
ROOT
ATOM      1  C   UNL     1       4.969  13.390  41.321  1.00  0.00     0.000 C 
ENDROOT
BRANCH   1   2
ATOM      2  C   UNL     1       5.035  11.855  41.428  1.00  0.00     0.000 C 
BRANCH   2   3
ATOM      3  C   UNL     1       5.114  11.166  40.055  1.00  0.00     0.000 C 
BRANCH   3   4
ATOM      4  C   UNL     1       5.480   9.676  40.157  1.00  0.00    -0.000 C 
BRANCH   4   5
ATOM      5  C   UNL     1       6.693   9.359  41.054  1.00  0.00    -0.000 C 
BRANCH   5   6
ATOM      6  C   UNL     1       6.338   8.552  42.321  1.00  0.00    -0.000 C 
BRANCH   6   7
ATOM      7  C   UNL     1       7.591   8.065  43.071  1.00  0.00    -0.000 C 
BRANCH   7   8
ATOM      8  C   UNL     1       8.795   9.000  42.874  1.00  0.00    -0.000 C 
BRANCH   8   9
ATOM      9  C   UNL     1       8.920  10.045  43.996  1.00  0.00    -0.000 C 
BRANCH   9  10
ATOM     10  C   UNL     1       9.445   9.429  45.311  1.00  0.00    -0.000 C 
BRANCH  10  11
ATOM     11  C   UNL     1      10.979   9.420  45.414  1.00  0.00    -0.003 C 
ATOM     12  C   UNL     1      11.588   8.043  45.153  1.00  0.00     0.004 C 
ENDBRANCH  10  11
ENDBRANCH   9  10
ENDBRANCH   8   9
ENDBRANCH   7   8
ENDBRANCH   6   7
ENDBRANCH   5   6
ENDBRANCH   4   5
ENDBRANCH   3   4
ENDBRANCH   2   3
ENDBRANCH   1   2
BRANCH   1  13
ATOM     13  C   UNL     1       5.724  14.155  42.427  1.00  0.00     0.000 C 
BRANCH  13  14
ATOM     14  C   UNL     1       5.610  15.690  42.353  1.00  0.00     0.000 C 
BRANCH  14  15
ATOM     15  C   UNL     1       6.850  16.463  42.846  1.00  0.00     0.000 C 
BRANCH  15  16
ATOM     16  C   UNL     1       7.638  17.203  41.749  1.00  0.00     0.000 C 
BRANCH  16  17
ATOM     17  C   UNL     1       9.099  16.732  41.645  1.00  0.00     0.000 C 
BRANCH  17  18
ATOM     18  C   UNL     1       9.353  15.395  42.367  1.00  0.00     0.000 C 
BRANCH  18  19
ATOM     19  C   UNL     1       9.821  14.234  41.468  1.00  0.00     0.000 C 
BRANCH  19  20
ATOM     20  C   UNL     1       8.725  13.590  40.596  1.00  0.00     0.006 C 
BRANCH  20  21
ATOM     21  C   UNL     1       8.831  12.057  40.490  1.00  0.00     0.053 C 
BRANCH  21  22
ATOM     22  C   UNL     1       9.574  11.611  39.267  1.00  0.00     0.041 C 
ATOM     23  O   UNL     1      10.104  12.459  38.502  1.00  0.00    -0.550 OA
ATOM     24  O   UNL     1       9.646  10.260  38.947  1.00  0.00    -0.550 OA
ENDBRANCH  21  22
ENDBRANCH  20  21
ENDBRANCH  19  20
ENDBRANCH  18  19
ENDBRANCH  17  18
ENDBRANCH  16  17
ENDBRANCH  15  16
ENDBRANCH  14  15
ENDBRANCH  13  14
ENDBRANCH   1  13
TORSDOF 20
ENDMDL
MODEL 7
REMARK VINA RESULT:    -4.768      1.964      2.886
REMARK INTER + INTRA:         -12.939
REMARK INTER:                 -11.368
REMARK INTRA:                  -1.571
REMARK UNBOUND:                -2.597
REMARK SMILES CCCCCCCCCCCCCCCCCCCCCC(=O)[O-]
REMARK SMILES IDX 12 1 11 2 10 3 9 4 8 5 7 6 6 7 5 8 4 9 3 10 2 11 1 12 13 13
REMARK SMILES IDX 14 14 15 15 16 16 17 17 18 18 19 19 20 20 21 21 22 22 23 23
REMARK SMILES IDX 24 24
REMARK H PARENT
REMARK Flexibility Score: inf
ROOT
ATOM      1  C   UNL     1      19.439  13.068  44.953  1.00  0.00     0.000 C 
ENDROOT
BRANCH   1   2
ATOM      2  C   UNL     1      19.426  11.990  46.051  1.00  0.00     0.000 C 
BRANCH   2   3
ATOM      3  C   UNL     1      20.535  10.939  45.867  1.00  0.00     0.000 C 
BRANCH   3   4
ATOM      4  C   UNL     1      20.011   9.619  45.276  1.00  0.00    -0.000 C 
BRANCH   4   5
ATOM      5  C   UNL     1      21.082   8.536  45.041  1.00  0.00    -0.000 C 
BRANCH   5   6
ATOM      6  C   UNL     1      21.736   8.598  43.645  1.00  0.00    -0.000 C 
BRANCH   6   7
ATOM      7  C   UNL     1      21.590   9.985  42.994  1.00  0.00    -0.000 C 
BRANCH   7   8
ATOM      8  C   UNL     1      21.146   9.902  41.525  1.00  0.00    -0.000 C 
BRANCH   8   9
ATOM      9  C   UNL     1      20.160   8.748  41.271  1.00  0.00    -0.000 C 
BRANCH   9  10
ATOM     10  C   UNL     1      19.795   8.612  39.778  1.00  0.00    -0.000 C 
BRANCH  10  11
ATOM     11  C   UNL     1      18.369   9.086  39.449  1.00  0.00    -0.003 C 
ATOM     12  C   UNL     1      17.300   8.050  39.791  1.00  0.00     0.004 C 
ENDBRANCH  10  11
ENDBRANCH   9  10
ENDBRANCH   8   9
ENDBRANCH   7   8
ENDBRANCH   6   7
ENDBRANCH   5   6
ENDBRANCH   4   5
ENDBRANCH   3   4
ENDBRANCH   2   3
ENDBRANCH   1   2
BRANCH   1  13
ATOM     13  C   UNL     1      20.790  13.249  44.231  1.00  0.00     0.000 C 
BRANCH  13  14
ATOM     14  C   UNL     1      20.693  13.471  42.709  1.00  0.00     0.000 C 
BRANCH  14  15
ATOM     15  C   UNL     1      21.931  14.124  42.062  1.00  0.00     0.000 C 
BRANCH  15  16
ATOM     16  C   UNL     1      21.747  15.592  41.634  1.00  0.00     0.000 C 
BRANCH  16  17
ATOM     17  C   UNL     1      21.072  16.448  42.719  1.00  0.00     0.000 C 
BRANCH  17  18
ATOM     18  C   UNL     1      19.868  17.250  42.190  1.00  0.00     0.000 C 
BRANCH  18  19
ATOM     19  C   UNL     1      18.495  16.572  42.359  1.00  0.00     0.000 C 
BRANCH  19  20
ATOM     20  C   UNL     1      17.276  17.452  42.014  1.00  0.00     0.006 C 
BRANCH  20  21
ATOM     21  C   UNL     1      15.920  16.802  42.351  1.00  0.00     0.053 C 
BRANCH  21  22
ATOM     22  C   UNL     1      14.806  17.800  42.444  1.00  0.00     0.041 C 
ATOM     23  O   UNL     1      15.052  19.000  42.738  1.00  0.00    -0.550 OA
ATOM     24  O   UNL     1      13.490  17.398  42.248  1.00  0.00    -0.550 OA
ENDBRANCH  21  22
ENDBRANCH  20  21
ENDBRANCH  19  20
ENDBRANCH  18  19
ENDBRANCH  17  18
ENDBRANCH  16  17
ENDBRANCH  15  16
ENDBRANCH  14  15
ENDBRANCH  13  14
ENDBRANCH   1  13
TORSDOF 20
ENDMDL
MODEL 8
REMARK VINA RESULT:    -4.746      2.588      6.940
REMARK INTER + INTRA:         -12.893
REMARK INTER:                 -10.102
REMARK INTRA:                  -2.791
REMARK UNBOUND:                -2.597
REMARK SMILES CCCCCCCCCCCCCCCCCCCCCC(=O)[O-]
REMARK SMILES IDX 12 1 11 2 10 3 9 4 8 5 7 6 6 7 5 8 4 9 3 10 2 11 1 12 13 13
REMARK SMILES IDX 14 14 15 15 16 16 17 17 18 18 19 19 20 20 21 21 22 22 23 23
REMARK SMILES IDX 24 24
REMARK H PARENT
REMARK Flexibility Score: inf
ROOT
ATOM      1  C   UNL     1      19.148  15.441  42.748  1.00  0.00     0.000 C 
ENDROOT
BRANCH   1   2
ATOM      2  C   UNL     1      19.954  16.701  42.386  1.00  0.00     0.000 C 
BRANCH   2   3
ATOM      3  C   UNL     1      21.018  16.437  41.306  1.00  0.00     0.000 C 
BRANCH   3   4
ATOM      4  C   UNL     1      22.401  16.991  41.686  1.00  0.00    -0.000 C 
BRANCH   4   5
ATOM      5  C   UNL     1      23.594  16.085  41.320  1.00  0.00    -0.000 C 
BRANCH   5   6
ATOM      6  C   UNL     1      23.378  14.598  41.672  1.00  0.00    -0.000 C 
BRANCH   6   7
ATOM      7  C   UNL     1      24.700  13.879  41.997  1.00  0.00    -0.000 C 
BRANCH   7   8
ATOM      8  C   UNL     1      24.986  13.830  43.506  1.00  0.00    -0.000 C 
BRANCH   8   9
ATOM      9  C   UNL     1      24.345  12.609  44.189  1.00  0.00    -0.000 C 
BRANCH   9  10
ATOM     10  C   UNL     1      24.655  11.294  43.441  1.00  0.00    -0.000 C 
BRANCH  10  11
ATOM     11  C   UNL     1      23.759  10.120  43.869  1.00  0.00    -0.003 C 
ATOM     12  C   UNL     1      24.063   9.617  45.279  1.00  0.00     0.004 C 
ENDBRANCH  10  11
ENDBRANCH   9  10
ENDBRANCH   8   9
ENDBRANCH   7   8
ENDBRANCH   6   7
ENDBRANCH   5   6
ENDBRANCH   4   5
ENDBRANCH   3   4
ENDBRANCH   2   3
ENDBRANCH   1   2
BRANCH   1  13
ATOM     13  C   UNL     1      19.928  14.114  42.650  1.00  0.00     0.000 C 
BRANCH  13  14
ATOM     14  C   UNL     1      20.596  13.651  43.959  1.00  0.00     0.000 C 
BRANCH  14  15
ATOM     15  C   UNL     1      20.668  12.123  44.152  1.00  0.00     0.000 C 
BRANCH  15  16
ATOM     16  C   UNL     1      19.865  11.576  45.347  1.00  0.00     0.000 C 
BRANCH  16  17
ATOM     17  C   UNL     1      20.405  10.229  45.861  1.00  0.00     0.000 C 
BRANCH  17  18
ATOM     18  C   UNL     1      19.774   9.018  45.148  1.00  0.00     0.000 C 
BRANCH  18  19
ATOM     19  C   UNL     1      20.739   8.179  44.289  1.00  0.00     0.000 C 
BRANCH  19  20
ATOM     20  C   UNL     1      20.256   7.875  42.856  1.00  0.00     0.006 C 
BRANCH  20  21
ATOM     21  C   UNL     1      20.845   8.814  41.786  1.00  0.00     0.053 C 
BRANCH  21  22
ATOM     22  C   UNL     1      20.054   8.808  40.512  1.00  0.00     0.041 C 
ATOM     23  O   UNL     1      18.817   8.574  40.535  1.00  0.00    -0.550 OA
ATOM     24  O   UNL     1      20.691   9.018  39.295  1.00  0.00    -0.550 OA
ENDBRANCH  21  22
ENDBRANCH  20  21
ENDBRANCH  19  20
ENDBRANCH  18  19
ENDBRANCH  17  18
ENDBRANCH  16  17
ENDBRANCH  15  16
ENDBRANCH  14  15
ENDBRANCH  13  14
ENDBRANCH   1  13
TORSDOF 20
ENDMDL
MODEL 9
REMARK VINA RESULT:    -4.578      2.552      4.845
REMARK INTER + INTRA:         -12.528
REMARK INTER:                 -10.305
REMARK INTRA:                  -2.223
REMARK UNBOUND:                -2.597
REMARK SMILES CCCCCCCCCCCCCCCCCCCCCC(=O)[O-]
REMARK SMILES IDX 12 1 11 2 10 3 9 4 8 5 7 6 6 7 5 8 4 9 3 10 2 11 1 12 13 13
REMARK SMILES IDX 14 14 15 15 16 16 17 17 18 18 19 19 20 20 21 21 22 22 23 23
REMARK SMILES IDX 24 24
REMARK H PARENT
REMARK Flexibility Score: inf
ROOT
ATOM      1  C   UNL     1      23.343  14.104  42.742  1.00  0.00     0.000 C 
ENDROOT
BRANCH   1   2
ATOM      2  C   UNL     1      24.266  12.926  42.383  1.00  0.00     0.000 C 
BRANCH   2   3
ATOM      3  C   UNL     1      23.542  11.569  42.423  1.00  0.00     0.000 C 
BRANCH   3   4
ATOM      4  C   UNL     1      24.397  10.457  43.053  1.00  0.00    -0.000 C 
BRANCH   4   5
ATOM      5  C   UNL     1      24.501   9.160  42.226  1.00  0.00    -0.000 C 
BRANCH   5   6
ATOM      6  C   UNL     1      23.146   8.654  41.686  1.00  0.00    -0.000 C 
BRANCH   6   7
ATOM      7  C   UNL     1      23.010   8.860  40.167  1.00  0.00    -0.000 C 
BRANCH   7   8
ATOM      8  C   UNL     1      21.663   8.358  39.624  1.00  0.00    -0.000 C 
BRANCH   8   9
ATOM      9  C   UNL     1      20.617   8.157  40.735  1.00  0.00    -0.000 C 
BRANCH   9  10
ATOM     10  C   UNL     1      19.495   9.216  40.677  1.00  0.00    -0.000 C 
BRANCH  10  11
ATOM     11  C   UNL     1      18.596   9.089  39.436  1.00  0.00    -0.003 C 
ATOM     12  C   UNL     1      17.626   7.912  39.518  1.00  0.00     0.004 C 
ENDBRANCH  10  11
ENDBRANCH   9  10
ENDBRANCH   8   9
ENDBRANCH   7   8
ENDBRANCH   6   7
ENDBRANCH   5   6
ENDBRANCH   4   5
ENDBRANCH   3   4
ENDBRANCH   2   3
ENDBRANCH   1   2
BRANCH   1  13
ATOM     13  C   UNL     1      22.978  15.032  41.565  1.00  0.00     0.000 C 
BRANCH  13  14
ATOM     14  C   UNL     1      22.195  16.301  41.952  1.00  0.00     0.000 C 
BRANCH  14  15
ATOM     15  C   UNL     1      21.083  16.090  43.000  1.00  0.00     0.000 C 
BRANCH  15  16
ATOM     16  C   UNL     1      19.747  15.570  42.438  1.00  0.00     0.000 C 
BRANCH  16  17
ATOM     17  C   UNL     1      19.328  14.222  43.050  1.00  0.00     0.000 C 
BRANCH  17  18
ATOM     18  C   UNL     1      20.225  13.789  44.225  1.00  0.00     0.000 C 
BRANCH  18  19
ATOM     19  C   UNL     1      19.495  13.121  45.405  1.00  0.00     0.000 C 
BRANCH  19  20
ATOM     20  C   UNL     1      19.866  11.646  45.662  1.00  0.00     0.006 C 
BRANCH  20  21
ATOM     21  C   UNL     1      20.694  11.004  44.533  1.00  0.00     0.053 C 
BRANCH  21  22
ATOM     22  C   UNL     1      20.897   9.531  44.729  1.00  0.00     0.041 C 
ATOM     23  O   UNL     1      19.956   8.726  44.500  1.00  0.00    -0.550 OA
ATOM     24  O   UNL     1      22.110   9.051  45.206  1.00  0.00    -0.550 OA
ENDBRANCH  21  22
ENDBRANCH  20  21
ENDBRANCH  19  20
ENDBRANCH  18  19
ENDBRANCH  17  18
ENDBRANCH  16  17
ENDBRANCH  15  16
ENDBRANCH  14  15
ENDBRANCH  13  14
ENDBRANCH   1  13
TORSDOF 20
ENDMDL
