MODEL 1
REMARK VINA RESULT:    -5.915      0.000      0.000
REMARK INTER + INTRA:          -6.087
REMARK INTER:                  -6.087
REMARK INTRA:                   0.000
REMARK UNBOUND:                 0.000
REMARK SMILES O=c1ccc2ccc(O)cc2o1
REMARK SMILES IDX 6 1 7 2 8 3 10 4 11 5 5 6 4 7 3 8 2 9 1 10 12 11 9 12
REMARK H PARENT 9 13
REMARK Flexibility Score: inf
ROOT
ATOM      1  C   UNL     1     -10.442  -5.834  -8.412  1.00  0.00     0.016 A 
ATOM      2  C   UNL     1     -10.497  -4.771  -9.319  1.00  0.00     0.047 A 
ATOM      3  C   UNL     1     -11.278  -3.642  -9.042  1.00  0.00     0.119 A 
ATOM      4  C   UNL     1     -12.011  -3.575  -7.847  1.00  0.00     0.094 A 
ATOM      5  C   UNL     1     -11.963  -4.634  -6.934  1.00  0.00     0.142 A 
ATOM      6  C   UNL     1     -11.174  -5.770  -7.218  1.00  0.00     0.018 A 
ATOM      7  C   UNL     1     -11.145  -6.811  -6.285  1.00  0.00     0.019 A 
ATOM      8  C   UNL     1     -11.891  -6.700  -5.112  1.00  0.00     0.094 A 
ATOM      9  C   UNL     1     -12.651  -5.545  -4.898  1.00  0.00     0.336 A 
ATOM     10  O   UNL     1     -13.330  -5.425  -3.845  1.00  0.00    -0.246 OA
ATOM     11  O   UNL     1     -12.659  -4.568  -5.802  1.00  0.00    -0.423 OA
ENDROOT
BRANCH   3  12
ATOM     12  O   UNL     1     -11.319  -2.594  -9.959  1.00  0.00    -0.508 OA
ATOM     13  H   UNL     1     -11.030  -2.722 -10.922  1.00  0.00     0.293 HD
ENDBRANCH   3  12
TORSDOF 1
ENDMDL
MODEL 2
REMARK VINA RESULT:    -5.575      0.782      4.221
REMARK INTER + INTRA:          -5.738
REMARK INTER:                  -5.738
REMARK INTRA:                   0.000
REMARK UNBOUND:                 0.000
REMARK SMILES O=c1ccc2ccc(O)cc2o1
REMARK SMILES IDX 6 1 7 2 8 3 10 4 11 5 5 6 4 7 3 8 2 9 1 10 12 11 9 12
REMARK H PARENT 9 13
REMARK Flexibility Score: inf
ROOT
ATOM      1  C   UNL     1     -11.171  -6.755  -6.251  1.00  0.00     0.016 A 
ATOM      2  C   UNL     1     -11.856  -6.522  -5.054  1.00  0.00     0.047 A 
ATOM      3  C   UNL     1     -12.535  -5.314  -4.851  1.00  0.00     0.119 A 
ATOM      4  C   UNL     1     -12.528  -4.331  -5.851  1.00  0.00     0.094 A 
ATOM      5  C   UNL     1     -11.845  -4.555  -7.052  1.00  0.00     0.142 A 
ATOM      6  C   UNL     1     -11.163  -5.775  -7.253  1.00  0.00     0.018 A 
ATOM      7  C   UNL     1     -10.490  -5.970  -8.463  1.00  0.00     0.019 A 
ATOM      8  C   UNL     1     -10.511  -4.964  -9.428  1.00  0.00     0.094 A 
ATOM      9  C   UNL     1     -11.208  -3.781  -9.159  1.00  0.00     0.336 A 
ATOM     10  O   UNL     1     -11.240  -2.861 -10.017  1.00  0.00    -0.246 OA
ATOM     11  O   UNL     1     -11.841  -3.621  -7.999  1.00  0.00    -0.423 OA
ENDROOT
BRANCH   3  12
ATOM     12  O   UNL     1     -13.211  -5.101  -3.651  1.00  0.00    -0.508 OA
ATOM     13  H   UNL     1     -14.219  -5.190  -3.589  1.00  0.00     0.293 HD
ENDBRANCH   3  12
TORSDOF 1
ENDMDL
MODEL 3
REMARK VINA RESULT:    -5.363      2.133      4.763
REMARK INTER + INTRA:          -5.520
REMARK INTER:                  -5.520
REMARK INTRA:                   0.000
REMARK UNBOUND:                 0.000
REMARK SMILES O=c1ccc2ccc(O)cc2o1
REMARK SMILES IDX 6 1 7 2 8 3 10 4 11 5 5 6 4 7 3 8 2 9 1 10 12 11 9 12
REMARK H PARENT 9 13
REMARK Flexibility Score: inf
ROOT
ATOM      1  C   UNL     1     -11.600  -4.585  -5.819  1.00  0.00     0.016 A 
ATOM      2  C   UNL     1     -10.894  -5.496  -5.026  1.00  0.00     0.047 A 
ATOM      3  C   UNL     1      -9.937  -6.342  -5.601  1.00  0.00     0.119 A 
ATOM      4  C   UNL     1      -9.684  -6.277  -6.979  1.00  0.00     0.094 A 
ATOM      5  C   UNL     1     -10.385  -5.370  -7.780  1.00  0.00     0.142 A 
ATOM      6  C   UNL     1     -11.349  -4.518  -7.197  1.00  0.00     0.018 A 
ATOM      7  C   UNL     1     -12.033  -3.622  -8.023  1.00  0.00     0.019 A 
ATOM      8  C   UNL     1     -11.748  -3.595  -9.388  1.00  0.00     0.094 A 
ATOM      9  C   UNL     1     -10.780  -4.468  -9.896  1.00  0.00     0.336 A 
ATOM     10  O   UNL     1     -10.507  -4.458 -11.125  1.00  0.00    -0.246 OA
ATOM     11  O   UNL     1     -10.142  -5.311  -9.087  1.00  0.00    -0.423 OA
ENDROOT
BRANCH   3  12
ATOM     12  O   UNL     1      -9.245  -7.242  -4.793  1.00  0.00    -0.508 OA
ATOM     13  H   UNL     1      -8.231  -7.259  -4.769  1.00  0.00     0.293 HD
ENDBRANCH   3  12
TORSDOF 1
ENDMDL
MODEL 4
REMARK VINA RESULT:    -4.807      1.934      2.621
REMARK INTER + INTRA:          -4.948
REMARK INTER:                  -4.948
REMARK INTRA:                   0.000
REMARK UNBOUND:                 0.000
REMARK SMILES O=c1ccc2ccc(O)cc2o1
REMARK SMILES IDX 6 1 7 2 8 3 10 4 11 5 5 6 4 7 3 8 2 9 1 10 12 11 9 12
REMARK H PARENT 9 13
REMARK Flexibility Score: inf
ROOT
ATOM      1  C   UNL     1     -10.539  -5.827  -6.906  1.00  0.00     0.016 A 
ATOM      2  C   UNL     1     -10.727  -4.443  -6.836  1.00  0.00     0.047 A 
ATOM      3  C   UNL     1     -11.814  -3.911  -6.129  1.00  0.00     0.119 A 
ATOM      4  C   UNL     1     -12.719  -4.770  -5.489  1.00  0.00     0.094 A 
ATOM      5  C   UNL     1     -12.539  -6.156  -5.554  1.00  0.00     0.142 A 
ATOM      6  C   UNL     1     -11.442  -6.687  -6.267  1.00  0.00     0.018 A 
ATOM      7  C   UNL     1     -11.289  -8.076  -6.314  1.00  0.00     0.019 A 
ATOM      8  C   UNL     1     -12.215  -8.890  -5.662  1.00  0.00     0.094 A 
ATOM      9  C   UNL     1     -13.277  -8.293  -4.975  1.00  0.00     0.336 A 
ATOM     10  O   UNL     1     -14.123  -9.010  -4.380  1.00  0.00    -0.246 OA
ATOM     11  O   UNL     1     -13.400  -6.968  -4.945  1.00  0.00    -0.423 OA
ENDROOT
BRANCH   3  12
ATOM     12  O   UNL     1     -11.983  -2.529  -6.071  1.00  0.00    -0.508 OA
ATOM     13  H   UNL     1     -11.493  -1.909  -6.706  1.00  0.00     0.293 HD
ENDBRANCH   3  12
TORSDOF 1
ENDMDL
MODEL 5
REMARK VINA RESULT:    -4.721      7.810      8.362
REMARK INTER + INTRA:          -4.859
REMARK INTER:                  -4.859
REMARK INTRA:                   0.000
REMARK UNBOUND:                 0.000
REMARK SMILES O=c1ccc2ccc(O)cc2o1
REMARK SMILES IDX 6 1 7 2 8 3 10 4 11 5 5 6 4 7 3 8 2 9 1 10 12 11 9 12
REMARK H PARENT 9 13
REMARK Flexibility Score: inf
ROOT
ATOM      1  C   UNL     1      -7.544 -10.239  -5.111  1.00  0.00     0.016 A 
ATOM      2  C   UNL     1      -6.234 -10.005  -5.540  1.00  0.00     0.047 A 
ATOM      3  C   UNL     1      -5.685 -10.760  -6.584  1.00  0.00     0.119 A 
ATOM      4  C   UNL     1      -6.452 -11.757  -7.204  1.00  0.00     0.094 A 
ATOM      5  C   UNL     1      -7.763 -11.999  -6.782  1.00  0.00     0.142 A 
ATOM      6  C   UNL     1      -8.313 -11.235  -5.729  1.00  0.00     0.018 A 
ATOM      7  C   UNL     1      -9.627 -11.499  -5.330  1.00  0.00     0.019 A 
ATOM      8  C   UNL     1     -10.350 -12.501  -5.976  1.00  0.00     0.094 A 
ATOM      9  C   UNL     1      -9.740 -13.217  -7.011  1.00  0.00     0.336 A 
ATOM     10  O   UNL     1     -10.377 -14.125  -7.608  1.00  0.00    -0.246 OA
ATOM     11  O   UNL     1      -8.489 -12.945  -7.373  1.00  0.00    -0.423 OA
ENDROOT
BRANCH   3  12
ATOM     12  O   UNL     1      -4.377 -10.511  -6.996  1.00  0.00    -0.508 OA
ATOM     13  H   UNL     1      -4.094 -10.635  -7.961  1.00  0.00     0.293 HD
ENDBRANCH   3  12
TORSDOF 1
ENDMDL
MODEL 6
REMARK VINA RESULT:    -4.603      6.982      8.047
REMARK INTER + INTRA:          -4.738
REMARK INTER:                  -4.738
REMARK INTRA:                   0.000
REMARK UNBOUND:                 0.000
REMARK SMILES O=c1ccc2ccc(O)cc2o1
REMARK SMILES IDX 6 1 7 2 8 3 10 4 11 5 5 6 4 7 3 8 2 9 1 10 12 11 9 12
REMARK H PARENT 9 13
REMARK Flexibility Score: inf
ROOT
ATOM      1  C   UNL     1      -6.618 -12.758  -7.644  1.00  0.00     0.016 A 
ATOM      2  C   UNL     1      -5.383 -12.108  -7.551  1.00  0.00     0.047 A 
ATOM      3  C   UNL     1      -5.236 -10.980  -6.735  1.00  0.00     0.119 A 
ATOM      4  C   UNL     1      -6.333 -10.497  -6.006  1.00  0.00     0.094 A 
ATOM      5  C   UNL     1      -7.572 -11.139  -6.093  1.00  0.00     0.142 A 
ATOM      6  C   UNL     1      -7.716 -12.277  -6.917  1.00  0.00     0.018 A 
ATOM      7  C   UNL     1      -8.966 -12.899  -6.983  1.00  0.00     0.019 A 
ATOM      8  C   UNL     1     -10.028 -12.382  -6.240  1.00  0.00     0.094 A 
ATOM      9  C   UNL     1      -9.811 -11.251  -5.446  1.00  0.00     0.336 A 
ATOM     10  O   UNL     1     -10.756 -10.769  -4.767  1.00  0.00    -0.246 OA
ATOM     11  O   UNL     1      -8.610 -10.679  -5.400  1.00  0.00    -0.423 OA
ENDROOT
BRANCH   3  12
ATOM     12  O   UNL     1      -3.997 -10.347  -6.656  1.00  0.00    -0.508 OA
ATOM     13  H   UNL     1      -3.733  -9.801  -5.845  1.00  0.00     0.293 HD
ENDBRANCH   3  12
TORSDOF 1
ENDMDL
MODEL 7
REMARK VINA RESULT:    -4.588      7.125      8.670
REMARK INTER + INTRA:          -4.722
REMARK INTER:                  -4.722
REMARK INTRA:                   0.000
REMARK UNBOUND:                 0.000
REMARK SMILES O=c1ccc2ccc(O)cc2o1
REMARK SMILES IDX 6 1 7 2 8 3 10 4 11 5 5 6 4 7 3 8 2 9 1 10 12 11 9 12
REMARK H PARENT 9 13
REMARK Flexibility Score: inf
ROOT
ATOM      1  C   UNL     1      -9.432 -11.668  -5.960  1.00  0.00     0.016 A 
ATOM      2  C   UNL     1      -9.485 -10.554  -5.117  1.00  0.00     0.047 A 
ATOM      3  C   UNL     1      -8.343  -9.773  -4.903  1.00  0.00     0.119 A 
ATOM      4  C   UNL     1      -7.137 -10.108  -5.536  1.00  0.00     0.094 A 
ATOM      5  C   UNL     1      -7.073 -11.222  -6.380  1.00  0.00     0.142 A 
ATOM      6  C   UNL     1      -8.228 -12.006  -6.594  1.00  0.00     0.018 A 
ATOM      7  C   UNL     1      -8.134 -13.113  -7.444  1.00  0.00     0.019 A 
ATOM      8  C   UNL     1      -6.913 -13.408  -8.051  1.00  0.00     0.094 A 
ATOM      9  C   UNL     1      -5.811 -12.585  -7.792  1.00  0.00     0.336 A 
ATOM     10  O   UNL     1      -4.701 -12.834  -8.331  1.00  0.00    -0.246 OA
ATOM     11  O   UNL     1      -5.928 -11.538  -6.980  1.00  0.00    -0.423 OA
ENDROOT
BRANCH   3  12
ATOM     12  O   UNL     1      -8.417  -8.666  -4.059  1.00  0.00    -0.508 OA
ATOM     13  H   UNL     1      -7.832  -8.590  -3.234  1.00  0.00     0.293 HD
ENDBRANCH   3  12
TORSDOF 1
ENDMDL
MODEL 8
REMARK VINA RESULT:    -4.428      7.164      8.781
REMARK INTER + INTRA:          -4.557
REMARK INTER:                  -4.557
REMARK INTRA:                   0.000
REMARK UNBOUND:                 0.000
REMARK SMILES O=c1ccc2ccc(O)cc2o1
REMARK SMILES IDX 6 1 7 2 8 3 10 4 11 5 5 6 4 7 3 8 2 9 1 10 12 11 9 12
REMARK H PARENT 9 13
REMARK Flexibility Score: inf
ROOT
ATOM      1  C   UNL     1      -8.134 -10.001  -5.137  1.00  0.00     0.016 A 
ATOM      2  C   UNL     1      -9.473 -10.403  -5.115  1.00  0.00     0.047 A 
ATOM      3  C   UNL     1      -9.888 -11.524  -5.845  1.00  0.00     0.119 A 
ATOM      4  C   UNL     1      -8.956 -12.249  -6.603  1.00  0.00     0.094 A 
ATOM      5  C   UNL     1      -7.615 -11.854  -6.632  1.00  0.00     0.142 A 
ATOM      6  C   UNL     1      -7.201 -10.724  -5.894  1.00  0.00     0.018 A 
ATOM      7  C   UNL     1      -5.853 -10.354  -5.941  1.00  0.00     0.019 A 
ATOM      8  C   UNL     1      -4.964 -11.105  -6.710  1.00  0.00     0.094 A 
ATOM      9  C   UNL     1      -5.446 -12.213  -7.415  1.00  0.00     0.336 A 
ATOM     10  O   UNL     1      -4.659 -12.905  -8.113  1.00  0.00    -0.246 OA
ATOM     11  O   UNL     1      -6.733 -12.544  -7.351  1.00  0.00    -0.423 OA
ENDROOT
BRANCH   3  12
ATOM     12  O   UNL     1     -11.227 -11.908  -5.810  1.00  0.00    -0.508 OA
ATOM     13  H   UNL     1     -11.659 -12.240  -4.955  1.00  0.00     0.293 HD
ENDBRANCH   3  12
TORSDOF 1
ENDMDL
