MODEL 1
REMARK VINA RESULT:    -6.118      0.000      0.000
REMARK INTER + INTRA:          -7.679
REMARK INTER:                  -7.369
REMARK INTRA:                  -0.310
REMARK UNBOUND:                -0.310
REMARK SMILES O=c1c(O)c(-c2ccc(O)c(O)c2)oc2cc(O)cc(O)c12
REMARK SMILES IDX 5 1 3 2 2 3 1 4 22 5 20 6 19 7 17 8 16 9 15 10 14 11 6 12
REMARK SMILES IDX 7 13 8 14 9 15 13 16 11 17 10 18 12 20 4 22 21 24 18 26
REMARK H PARENT 10 19 12 21 4 23 21 25 18 27
REMARK Flexibility Score: inf
ROOT
ATOM      1  C   UNL     1      15.543 -21.103  18.055  1.00  0.00     0.180 A 
ATOM      2  C   UNL     1      14.717 -20.767  16.966  1.00  0.00     0.208 A 
ATOM      3  C   UNL     1      14.492 -19.411  16.678  1.00  0.00     0.238 A 
ATOM      4  O   UNL     1      13.745 -19.099  15.711  1.00  0.00    -0.285 OA
ATOM      5  C   UNL     1      15.111 -18.419  17.464  1.00  0.00     0.111 A 
ATOM      6  C   UNL     1      14.941 -17.032  17.237  1.00  0.00     0.134 A 
ATOM      7  C   UNL     1      15.600 -16.106  18.060  1.00  0.00     0.093 A 
ATOM      8  C   UNL     1      16.423 -16.538  19.102  1.00  0.00     0.123 A 
ATOM      9  C   UNL     1      16.595 -17.907  19.331  1.00  0.00     0.094 A 
ATOM     10  C   UNL     1      15.947 -18.846  18.524  1.00  0.00     0.146 A 
ATOM     11  O   UNL     1      16.123 -20.140  18.767  1.00  0.00    -0.452 OA
ENDROOT
BRANCH   1  12
ATOM     12  C   UNL     1      15.813 -22.507  18.435  1.00  0.00     0.025 A 
ATOM     13  C   UNL     1      17.045 -23.090  18.097  1.00  0.00     0.016 A 
ATOM     14  C   UNL     1      17.329 -24.408  18.463  1.00  0.00     0.051 A 
ATOM     15  C   UNL     1      16.392 -25.158  19.186  1.00  0.00     0.157 A 
ATOM     16  C   UNL     1      14.883 -23.258  19.178  1.00  0.00     0.062 A 
ATOM     17  C   UNL     1      15.168 -24.580  19.548  1.00  0.00     0.158 A 
BRANCH  15  18
ATOM     18  O   UNL     1      16.669 -26.474  19.552  1.00  0.00    -0.504 OA
ATOM     19  H   UNL     1      17.621 -26.819  19.603  1.00  0.00     0.293 HD
ENDBRANCH  15  18
BRANCH  17  20
ATOM     20  O   UNL     1      14.243 -25.323  20.278  1.00  0.00    -0.504 OA
ATOM     21  H   UNL     1      13.793 -24.946  21.104  1.00  0.00     0.293 HD
ENDBRANCH  17  20
ENDBRANCH   1  12
BRANCH   2  22
ATOM     22  O   UNL     1      14.154 -21.769  16.171  1.00  0.00    -0.502 OA
ATOM     23  H   UNL     1      13.606 -21.562  15.346  1.00  0.00     0.293 HD
ENDBRANCH   2  22
BRANCH   6  24
ATOM     24  O   UNL     1      14.125 -16.568  16.204  1.00  0.00    -0.507 OA
ATOM     25  H   UNL     1      14.513 -16.186  15.349  1.00  0.00     0.293 HD
ENDBRANCH   6  24
BRANCH   8  26
ATOM     26  O   UNL     1      17.067 -15.598  19.904  1.00  0.00    -0.508 OA
ATOM     27  H   UNL     1      16.619 -15.204  20.723  1.00  0.00     0.293 HD
ENDBRANCH   8  26
TORSDOF 6
ENDMDL
MODEL 2
REMARK VINA RESULT:    -6.083      2.182      7.495
REMARK INTER + INTRA:          -7.638
REMARK INTER:                  -7.328
REMARK INTRA:                  -0.310
REMARK UNBOUND:                -0.310
REMARK SMILES O=c1c(O)c(-c2ccc(O)c(O)c2)oc2cc(O)cc(O)c12
REMARK SMILES IDX 5 1 3 2 2 3 1 4 22 5 20 6 19 7 17 8 16 9 15 10 14 11 6 12
REMARK SMILES IDX 7 13 8 14 9 15 13 16 11 17 10 18 12 20 4 22 21 24 18 26
REMARK H PARENT 10 19 12 21 4 23 21 25 18 27
REMARK Flexibility Score: inf
ROOT
ATOM      1  C   UNL     1      15.878 -16.981  17.561  1.00  0.00     0.180 A 
ATOM      2  C   UNL     1      14.815 -17.365  16.720  1.00  0.00     0.208 A 
ATOM      3  C   UNL     1      14.562 -18.733  16.528  1.00  0.00     0.238 A 
ATOM      4  O   UNL     1      13.620 -19.088  15.769  1.00  0.00    -0.285 OA
ATOM      5  C   UNL     1      15.356 -19.689  17.192  1.00  0.00     0.111 A 
ATOM      6  C   UNL     1      15.163 -21.085  17.056  1.00  0.00     0.134 A 
ATOM      7  C   UNL     1      15.991 -21.973  17.759  1.00  0.00     0.093 A 
ATOM      8  C   UNL     1      17.004 -21.495  18.593  1.00  0.00     0.123 A 
ATOM      9  C   UNL     1      17.200 -20.117  18.731  1.00  0.00     0.094 A 
ATOM     10  C   UNL     1      16.386 -19.215  18.038  1.00  0.00     0.146 A 
ATOM     11  O   UNL     1      16.597 -17.912  18.183  1.00  0.00    -0.452 OA
ENDROOT
BRANCH   1  12
ATOM     12  C   UNL     1      16.220 -15.562  17.798  1.00  0.00     0.025 A 
ATOM     13  C   UNL     1      15.839 -14.951  19.005  1.00  0.00     0.016 A 
ATOM     14  C   UNL     1      16.170 -13.618  19.259  1.00  0.00     0.051 A 
ATOM     15  C   UNL     1      16.899 -12.879  18.318  1.00  0.00     0.157 A 
ATOM     16  C   UNL     1      16.970 -14.822  16.865  1.00  0.00     0.062 A 
ATOM     17  C   UNL     1      17.304 -13.484  17.120  1.00  0.00     0.158 A 
BRANCH  15  18
ATOM     18  O   UNL     1      17.230 -11.548  18.566  1.00  0.00    -0.504 OA
ATOM     19  H   UNL     1      17.834 -11.288  19.337  1.00  0.00     0.293 HD
ENDBRANCH  15  18
BRANCH  17  20
ATOM     20  O   UNL     1      18.041 -12.752  16.192  1.00  0.00    -0.504 OA
ATOM     21  H   UNL     1      17.627 -11.989  15.669  1.00  0.00     0.293 HD
ENDBRANCH  17  20
ENDBRANCH   1  12
BRANCH   2  22
ATOM     22  O   UNL     1      14.011 -16.397  16.112  1.00  0.00    -0.502 OA
ATOM     23  H   UNL     1      13.001 -16.466  16.091  1.00  0.00     0.293 HD
ENDBRANCH   2  22
BRANCH   6  24
ATOM     24  O   UNL     1      14.159 -21.595  16.232  1.00  0.00    -0.507 OA
ATOM     25  H   UNL     1      13.392 -21.018  15.908  1.00  0.00     0.293 HD
ENDBRANCH   6  24
BRANCH   8  26
ATOM     26  O   UNL     1      17.812 -22.398  19.280  1.00  0.00    -0.508 OA
ATOM     27  H   UNL     1      18.231 -22.163  20.173  1.00  0.00     0.293 HD
ENDBRANCH   8  26
TORSDOF 6
ENDMDL
MODEL 3
REMARK VINA RESULT:    -6.036      1.955      3.147
REMARK INTER + INTRA:          -7.581
REMARK INTER:                  -7.295
REMARK INTRA:                  -0.286
REMARK UNBOUND:                -0.310
REMARK SMILES O=c1c(O)c(-c2ccc(O)c(O)c2)oc2cc(O)cc(O)c12
REMARK SMILES IDX 5 1 3 2 2 3 1 4 22 5 20 6 19 7 17 8 16 9 15 10 14 11 6 12
REMARK SMILES IDX 7 13 8 14 9 15 13 16 11 17 10 18 12 20 4 22 21 24 18 26
REMARK H PARENT 10 19 12 21 4 23 21 25 18 27
REMARK Flexibility Score: inf
ROOT
ATOM      1  C   UNL     1      15.477 -22.357  18.221  1.00  0.00     0.180 A 
ATOM      2  C   UNL     1      14.961 -22.033  19.491  1.00  0.00     0.208 A 
ATOM      3  C   UNL     1      14.668 -20.691  19.782  1.00  0.00     0.238 A 
ATOM      4  O   UNL     1      14.216 -20.388  20.920  1.00  0.00    -0.285 OA
ATOM      5  C   UNL     1      14.872 -19.704  18.797  1.00  0.00     0.111 A 
ATOM      6  C   UNL     1      14.596 -18.330  19.009  1.00  0.00     0.134 A 
ATOM      7  C   UNL     1      14.818 -17.409  17.974  1.00  0.00     0.093 A 
ATOM      8  C   UNL     1      15.307 -17.832  16.737  1.00  0.00     0.123 A 
ATOM      9  C   UNL     1      15.581 -19.187  16.522  1.00  0.00     0.094 A 
ATOM     10  C   UNL     1      15.369 -20.120  17.540  1.00  0.00     0.146 A 
ATOM     11  O   UNL     1      15.642 -21.400  17.312  1.00  0.00    -0.452 OA
ENDROOT
BRANCH   1  12
ATOM     12  C   UNL     1      15.829 -23.744  17.845  1.00  0.00     0.025 A 
ATOM     13  C   UNL     1      15.005 -24.448  16.952  1.00  0.00     0.016 A 
ATOM     14  C   UNL     1      15.330 -25.752  16.567  1.00  0.00     0.051 A 
ATOM     15  C   UNL     1      16.491 -26.364  17.057  1.00  0.00     0.157 A 
ATOM     16  C   UNL     1      17.005 -24.356  18.318  1.00  0.00     0.062 A 
ATOM     17  C   UNL     1      17.332 -25.663  17.930  1.00  0.00     0.158 A 
BRANCH  15  18
ATOM     18  O   UNL     1      16.818 -27.665  16.678  1.00  0.00    -0.504 OA
ATOM     19  H   UNL     1      16.160 -28.251  16.177  1.00  0.00     0.293 HD
ENDBRANCH  15  18
BRANCH  17  20
ATOM     20  O   UNL     1      18.494 -26.269  18.405  1.00  0.00    -0.504 OA
ATOM     21  H   UNL     1      18.463 -27.133  18.933  1.00  0.00     0.293 HD
ENDBRANCH  17  20
ENDBRANCH   1  12
BRANCH   2  22
ATOM     22  O   UNL     1      14.722 -23.038  20.432  1.00  0.00    -0.502 OA
ATOM     23  H   UNL     1      14.094 -22.907  21.216  1.00  0.00     0.293 HD
ENDBRANCH   2  22
BRANCH   6  24
ATOM     24  O   UNL     1      14.106 -17.877  20.234  1.00  0.00    -0.507 OA
ATOM     25  H   UNL     1      13.180 -17.476  20.322  1.00  0.00     0.293 HD
ENDBRANCH   6  24
BRANCH   8  26
ATOM     26  O   UNL     1      15.517 -16.897  15.725  1.00  0.00    -0.508 OA
ATOM     27  H   UNL     1      16.282 -16.991  15.067  1.00  0.00     0.293 HD
ENDBRANCH   8  26
TORSDOF 6
ENDMDL
MODEL 4
REMARK VINA RESULT:    -6.007      3.171      5.774
REMARK INTER + INTRA:          -7.546
REMARK INTER:                  -7.218
REMARK INTRA:                  -0.328
REMARK UNBOUND:                -0.310
REMARK SMILES O=c1c(O)c(-c2ccc(O)c(O)c2)oc2cc(O)cc(O)c12
REMARK SMILES IDX 5 1 3 2 2 3 1 4 22 5 20 6 19 7 17 8 16 9 15 10 14 11 6 12
REMARK SMILES IDX 7 13 8 14 9 15 13 16 11 17 10 18 12 20 4 22 21 24 18 26
REMARK H PARENT 10 19 12 21 4 23 21 25 18 27
REMARK Flexibility Score: inf
ROOT
ATOM      1  C   UNL     1      16.483 -16.442  17.187  1.00  0.00     0.180 A 
ATOM      2  C   UNL     1      16.169 -15.658  18.314  1.00  0.00     0.208 A 
ATOM      3  C   UNL     1      16.775 -14.399  18.455  1.00  0.00     0.238 A 
ATOM      4  O   UNL     1      16.509 -13.693  19.465  1.00  0.00    -0.285 OA
ATOM      5  C   UNL     1      17.663 -13.938  17.463  1.00  0.00     0.111 A 
ATOM      6  C   UNL     1      18.311 -12.680  17.527  1.00  0.00     0.134 A 
ATOM      7  C   UNL     1      19.175 -12.290  16.493  1.00  0.00     0.093 A 
ATOM      8  C   UNL     1      19.404 -13.128  15.400  1.00  0.00     0.123 A 
ATOM      9  C   UNL     1      18.766 -14.372  15.331  1.00  0.00     0.094 A 
ATOM     10  C   UNL     1      17.903 -14.780  16.351  1.00  0.00     0.146 A 
ATOM     11  O   UNL     1      17.315 -15.968  16.263  1.00  0.00    -0.452 OA
ENDROOT
BRANCH   1  12
ATOM     12  C   UNL     1      15.901 -17.786  16.977  1.00  0.00     0.025 A 
ATOM     13  C   UNL     1      14.693 -17.914  16.272  1.00  0.00     0.016 A 
ATOM     14  C   UNL     1      14.136 -19.175  16.044  1.00  0.00     0.051 A 
ATOM     15  C   UNL     1      14.787 -20.328  16.503  1.00  0.00     0.157 A 
ATOM     16  C   UNL     1      16.561 -18.948  17.419  1.00  0.00     0.062 A 
ATOM     17  C   UNL     1      16.004 -20.214  17.188  1.00  0.00     0.158 A 
BRANCH  15  18
ATOM     18  O   UNL     1      14.234 -21.588  16.280  1.00  0.00    -0.504 OA
ATOM     19  H   UNL     1      13.668 -22.050  16.983  1.00  0.00     0.293 HD
ENDBRANCH  15  18
BRANCH  17  20
ATOM     20  O   UNL     1      16.655 -21.363  17.632  1.00  0.00    -0.504 OA
ATOM     21  H   UNL     1      17.666 -21.436  17.626  1.00  0.00     0.293 HD
ENDBRANCH  17  20
ENDBRANCH   1  12
BRANCH   2  22
ATOM     22  O   UNL     1      15.247 -16.117  19.258  1.00  0.00    -0.502 OA
ATOM     23  H   UNL     1      14.668 -15.488  19.800  1.00  0.00     0.293 HD
ENDBRANCH   2  22
BRANCH   6  24
ATOM     24  O   UNL     1      18.104 -11.820  18.605  1.00  0.00    -0.507 OA
ATOM     25  H   UNL     1      17.173 -11.565  18.913  1.00  0.00     0.293 HD
ENDBRANCH   6  24
BRANCH   8  26
ATOM     26  O   UNL     1      20.265 -12.716  14.386  1.00  0.00    -0.508 OA
ATOM     27  H   UNL     1      20.947 -13.346  13.980  1.00  0.00     0.293 HD
ENDBRANCH   8  26
TORSDOF 6
ENDMDL
MODEL 5
REMARK VINA RESULT:    -5.885      2.354      7.575
REMARK INTER + INTRA:          -7.399
REMARK INTER:                  -7.075
REMARK INTRA:                  -0.325
REMARK UNBOUND:                -0.310
REMARK SMILES O=c1c(O)c(-c2ccc(O)c(O)c2)oc2cc(O)cc(O)c12
REMARK SMILES IDX 5 1 3 2 2 3 1 4 22 5 20 6 19 7 17 8 16 9 15 10 14 11 6 12
REMARK SMILES IDX 7 13 8 14 9 15 13 16 11 17 10 18 12 20 4 22 21 24 18 26
REMARK H PARENT 10 19 12 21 4 23 21 25 18 27
REMARK Flexibility Score: inf
ROOT
ATOM      1  C   UNL     1      16.259 -22.188  18.107  1.00  0.00     0.180 A 
ATOM      2  C   UNL     1      17.083 -22.194  19.249  1.00  0.00     0.208 A 
ATOM      3  C   UNL     1      17.642 -23.409  19.676  1.00  0.00     0.238 A 
ATOM      4  O   UNL     1      18.373 -23.427  20.704  1.00  0.00    -0.285 OA
ATOM      5  C   UNL     1      17.387 -24.588  18.948  1.00  0.00     0.111 A 
ATOM      6  C   UNL     1      17.916 -25.851  19.309  1.00  0.00     0.134 A 
ATOM      7  C   UNL     1      17.623 -26.978  18.526  1.00  0.00     0.093 A 
ATOM      8  C   UNL     1      16.815 -26.867  17.392  1.00  0.00     0.123 A 
ATOM      9  C   UNL     1      16.289 -25.621  17.030  1.00  0.00     0.094 A 
ATOM     10  C   UNL     1      16.568 -24.487  17.798  1.00  0.00     0.146 A 
ATOM     11  O   UNL     1      16.052 -23.318  17.436  1.00  0.00    -0.452 OA
ENDROOT
BRANCH   1  12
ATOM     12  C   UNL     1      15.618 -20.953  17.606  1.00  0.00     0.025 A 
ATOM     13  C   UNL     1      14.350 -20.588  18.088  1.00  0.00     0.016 A 
ATOM     14  C   UNL     1      13.735 -19.414  17.644  1.00  0.00     0.051 A 
ATOM     15  C   UNL     1      14.384 -18.581  16.723  1.00  0.00     0.157 A 
ATOM     16  C   UNL     1      16.275 -20.102  16.697  1.00  0.00     0.062 A 
ATOM     17  C   UNL     1      15.658 -18.924  16.253  1.00  0.00     0.158 A 
BRANCH  15  18
ATOM     18  O   UNL     1      13.774 -17.411  16.276  1.00  0.00    -0.504 OA
ATOM     19  H   UNL     1      12.888 -17.431  15.783  1.00  0.00     0.293 HD
ENDBRANCH  15  18
BRANCH  17  20
ATOM     20  O   UNL     1      16.308 -18.086  15.348  1.00  0.00    -0.504 OA
ATOM     21  H   UNL     1      16.818 -17.267  15.656  1.00  0.00     0.293 HD
ENDBRANCH  17  20
ENDBRANCH   1  12
BRANCH   2  22
ATOM     22  O   UNL     1      17.360 -21.002  19.925  1.00  0.00    -0.502 OA
ATOM     23  H   UNL     1      17.460 -20.962  20.932  1.00  0.00     0.293 HD
ENDBRANCH   2  22
BRANCH   6  24
ATOM     24  O   UNL     1      18.727 -25.995  20.435  1.00  0.00    -0.507 OA
ATOM     25  H   UNL     1      19.218 -25.208  20.843  1.00  0.00     0.293 HD
ENDBRANCH   6  24
BRANCH   8  26
ATOM     26  O   UNL     1      16.540 -28.000  16.631  1.00  0.00    -0.508 OA
ATOM     27  H   UNL     1      15.807 -28.650  16.892  1.00  0.00     0.293 HD
ENDBRANCH   8  26
TORSDOF 6
ENDMDL
MODEL 6
REMARK VINA RESULT:    -5.884      3.659      6.204
REMARK INTER + INTRA:          -7.398
REMARK INTER:                  -7.081
REMARK INTRA:                  -0.316
REMARK UNBOUND:                -0.310
REMARK SMILES O=c1c(O)c(-c2ccc(O)c(O)c2)oc2cc(O)cc(O)c12
REMARK SMILES IDX 5 1 3 2 2 3 1 4 22 5 20 6 19 7 17 8 16 9 15 10 14 11 6 12
REMARK SMILES IDX 7 13 8 14 9 15 13 16 11 17 10 18 12 20 4 22 21 24 18 26
REMARK H PARENT 10 19 12 21 4 23 21 25 18 27
REMARK Flexibility Score: inf
ROOT
ATOM      1  C   UNL     1      16.069 -15.814  18.340  1.00  0.00     0.180 A 
ATOM      2  C   UNL     1      17.248 -15.812  19.109  1.00  0.00     0.208 A 
ATOM      3  C   UNL     1      17.691 -14.601  19.667  1.00  0.00     0.238 A 
ATOM      4  O   UNL     1      18.752 -14.585  20.349  1.00  0.00    -0.285 OA
ATOM      5  C   UNL     1      16.941 -13.426  19.467  1.00  0.00     0.111 A 
ATOM      6  C   UNL     1      17.316 -12.168  19.999  1.00  0.00     0.134 A 
ATOM      7  C   UNL     1      16.510 -11.044  19.761  1.00  0.00     0.093 A 
ATOM      8  C   UNL     1      15.341 -11.152  19.005  1.00  0.00     0.123 A 
ATOM      9  C   UNL     1      14.965 -12.393  18.477  1.00  0.00     0.094 A 
ATOM     10  C   UNL     1      15.755 -13.524  18.701  1.00  0.00     0.146 A 
ATOM     11  O   UNL     1      15.379 -14.688  18.184  1.00  0.00    -0.452 OA
ENDROOT
BRANCH   1  12
ATOM     12  C   UNL     1      15.549 -17.044  17.702  1.00  0.00     0.025 A 
ATOM     13  C   UNL     1      15.917 -17.347  16.381  1.00  0.00     0.016 A 
ATOM     14  C   UNL     1      15.454 -18.513  15.766  1.00  0.00     0.051 A 
ATOM     15  C   UNL     1      14.629 -19.402  16.469  1.00  0.00     0.157 A 
ATOM     16  C   UNL     1      14.737 -17.950  18.410  1.00  0.00     0.062 A 
ATOM     17  C   UNL     1      14.274 -19.122  17.794  1.00  0.00     0.158 A 
BRANCH  15  18
ATOM     18  O   UNL     1      14.164 -20.565  15.859  1.00  0.00    -0.504 OA
ATOM     19  H   UNL     1      13.405 -20.544  15.188  1.00  0.00     0.293 HD
ENDBRANCH  15  18
BRANCH  17  20
ATOM     20  O   UNL     1      13.465 -20.014  18.495  1.00  0.00    -0.504 OA
ATOM     21  H   UNL     1      13.181 -20.900  18.094  1.00  0.00     0.293 HD
ENDBRANCH  17  20
ENDBRANCH   1  12
BRANCH   2  22
ATOM     22  O   UNL     1      17.947 -17.001  19.335  1.00  0.00    -0.502 OA
ATOM     23  H   UNL     1      18.721 -17.293  18.751  1.00  0.00     0.293 HD
ENDBRANCH   2  22
BRANCH   6  24
ATOM     24  O   UNL     1      18.478 -12.026  20.758  1.00  0.00    -0.507 OA
ATOM     25  H   UNL     1      18.535 -12.359  21.713  1.00  0.00     0.293 HD
ENDBRANCH   6  24
BRANCH   8  26
ATOM     26  O   UNL     1      14.557 -10.022  18.785  1.00  0.00    -0.508 OA
ATOM     27  H   UNL     1      14.935  -9.087  18.888  1.00  0.00     0.293 HD
ENDBRANCH   8  26
TORSDOF 6
ENDMDL
MODEL 7
REMARK VINA RESULT:    -5.753     13.847     15.071
REMARK INTER + INTRA:          -7.240
REMARK INTER:                  -7.111
REMARK INTRA:                  -0.129
REMARK UNBOUND:                -0.310
REMARK SMILES O=c1c(O)c(-c2ccc(O)c(O)c2)oc2cc(O)cc(O)c12
REMARK SMILES IDX 5 1 3 2 2 3 1 4 22 5 20 6 19 7 17 8 16 9 15 10 14 11 6 12
REMARK SMILES IDX 7 13 8 14 9 15 13 16 11 17 10 18 12 20 4 22 21 24 18 26
REMARK H PARENT 10 19 12 21 4 23 21 25 18 27
REMARK Flexibility Score: inf
ROOT
ATOM      1  C   UNL     1       6.335 -24.557   7.055  1.00  0.00     0.180 A 
ATOM      2  C   UNL     1       5.821 -23.247   7.088  1.00  0.00     0.208 A 
ATOM      3  C   UNL     1       6.678 -22.174   6.792  1.00  0.00     0.238 A 
ATOM      4  O   UNL     1       6.231 -20.996   6.829  1.00  0.00    -0.285 OA
ATOM      5  C   UNL     1       8.021 -22.429   6.450  1.00  0.00     0.111 A 
ATOM      6  C   UNL     1       8.947 -21.405   6.134  1.00  0.00     0.134 A 
ATOM      7  C   UNL     1      10.266 -21.742   5.794  1.00  0.00     0.093 A 
ATOM      8  C   UNL     1      10.676 -23.076   5.764  1.00  0.00     0.123 A 
ATOM      9  C   UNL     1       9.766 -24.092   6.075  1.00  0.00     0.094 A 
ATOM     10  C   UNL     1       8.447 -23.778   6.417  1.00  0.00     0.146 A 
ATOM     11  O   UNL     1       7.605 -24.761   6.714  1.00  0.00    -0.452 OA
ENDROOT
BRANCH   1  12
ATOM     12  C   UNL     1       5.501 -25.737   7.373  1.00  0.00     0.025 A 
ATOM     13  C   UNL     1       4.405 -26.050   6.553  1.00  0.00     0.016 A 
ATOM     14  C   UNL     1       3.616 -27.171   6.822  1.00  0.00     0.051 A 
ATOM     15  C   UNL     1       3.921 -28.006   7.906  1.00  0.00     0.157 A 
ATOM     16  C   UNL     1       5.816 -26.590   8.448  1.00  0.00     0.062 A 
ATOM     17  C   UNL     1       5.026 -27.717   8.717  1.00  0.00     0.158 A 
BRANCH  15  18
ATOM     18  O   UNL     1       3.136 -29.124   8.179  1.00  0.00    -0.504 OA
ATOM     19  H   UNL     1       3.343 -29.738   8.960  1.00  0.00     0.293 HD
ENDBRANCH  15  18
BRANCH  17  20
ATOM     20  O   UNL     1       5.336 -28.556   9.786  1.00  0.00    -0.504 OA
ATOM     21  H   UNL     1       5.798 -28.207  10.617  1.00  0.00     0.293 HD
ENDBRANCH  17  20
ENDBRANCH   1  12
BRANCH   2  22
ATOM     22  O   UNL     1       4.473 -23.025   7.382  1.00  0.00    -0.502 OA
ATOM     23  H   UNL     1       3.799 -23.778   7.436  1.00  0.00     0.293 HD
ENDBRANCH   2  22
BRANCH   6  24
ATOM     24  O   UNL     1       8.569 -20.063   6.155  1.00  0.00    -0.507 OA
ATOM     25  H   UNL     1       9.208 -19.324   5.886  1.00  0.00     0.293 HD
ENDBRANCH   6  24
BRANCH   8  26
ATOM     26  O   UNL     1      11.991 -23.383   5.422  1.00  0.00    -0.508 OA
ATOM     27  H   UNL     1      12.588 -23.922   6.038  1.00  0.00     0.293 HD
ENDBRANCH   8  26
TORSDOF 6
ENDMDL
MODEL 8
REMARK VINA RESULT:    -5.742      1.781      7.152
REMARK INTER + INTRA:          -7.227
REMARK INTER:                  -6.935
REMARK INTRA:                  -0.293
REMARK UNBOUND:                -0.310
REMARK SMILES O=c1c(O)c(-c2ccc(O)c(O)c2)oc2cc(O)cc(O)c12
REMARK SMILES IDX 5 1 3 2 2 3 1 4 22 5 20 6 19 7 17 8 16 9 15 10 14 11 6 12
REMARK SMILES IDX 7 13 8 14 9 15 13 16 11 17 10 18 12 20 4 22 21 24 18 26
REMARK H PARENT 10 19 12 21 4 23 21 25 18 27
REMARK Flexibility Score: inf
ROOT
ATOM      1  C   UNL     1      15.228 -21.743  18.822  1.00  0.00     0.180 A 
ATOM      2  C   UNL     1      16.412 -22.471  18.598  1.00  0.00     0.208 A 
ATOM      3  C   UNL     1      16.594 -23.691  19.269  1.00  0.00     0.238 A 
ATOM      4  O   UNL     1      17.655 -24.347  19.085  1.00  0.00    -0.285 OA
ATOM      5  C   UNL     1      15.587 -24.171  20.130  1.00  0.00     0.111 A 
ATOM      6  C   UNL     1      15.691 -25.392  20.840  1.00  0.00     0.134 A 
ATOM      7  C   UNL     1      14.639 -25.805  21.672  1.00  0.00     0.093 A 
ATOM      8  C   UNL     1      13.490 -25.024  21.809  1.00  0.00     0.123 A 
ATOM      9  C   UNL     1      13.381 -23.816  21.110  1.00  0.00     0.094 A 
ATOM     10  C   UNL     1      14.418 -23.386  20.277  1.00  0.00     0.146 A 
ATOM     11  O   UNL     1      14.293 -22.233  19.631  1.00  0.00    -0.452 OA
ENDROOT
BRANCH   1  12
ATOM     12  C   UNL     1      14.971 -20.440  18.168  1.00  0.00     0.025 A 
ATOM     13  C   UNL     1      14.502 -20.413  16.844  1.00  0.00     0.016 A 
ATOM     14  C   UNL     1      14.233 -19.195  16.213  1.00  0.00     0.051 A 
ATOM     15  C   UNL     1      14.413 -17.988  16.902  1.00  0.00     0.157 A 
ATOM     16  C   UNL     1      15.130 -19.227  18.862  1.00  0.00     0.062 A 
ATOM     17  C   UNL     1      14.858 -18.005  18.230  1.00  0.00     0.158 A 
BRANCH  15  18
ATOM     18  O   UNL     1      14.147 -16.771  16.277  1.00  0.00    -0.504 OA
ATOM     19  H   UNL     1      14.525 -15.901  16.632  1.00  0.00     0.293 HD
ENDBRANCH  15  18
BRANCH  17  20
ATOM     20  O   UNL     1      15.023 -16.804  18.918  1.00  0.00    -0.504 OA
ATOM     21  H   UNL     1      15.932 -16.364  19.008  1.00  0.00     0.293 HD
ENDBRANCH  17  20
ENDBRANCH   1  12
BRANCH   2  22
ATOM     22  O   UNL     1      17.373 -21.998  17.701  1.00  0.00    -0.502 OA
ATOM     23  H   UNL     1      17.847 -22.606  17.045  1.00  0.00     0.293 HD
ENDBRANCH   2  22
BRANCH   6  24
ATOM     24  O   UNL     1      16.826 -26.195  20.725  1.00  0.00    -0.507 OA
ATOM     25  H   UNL     1      16.807 -27.181  20.958  1.00  0.00     0.293 HD
ENDBRANCH   6  24
BRANCH   8  26
ATOM     26  O   UNL     1      12.460 -25.457  22.640  1.00  0.00    -0.508 OA
ATOM     27  H   UNL     1      12.043 -24.844  23.332  1.00  0.00     0.293 HD
ENDBRANCH   8  26
TORSDOF 6
ENDMDL
MODEL 9
REMARK VINA RESULT:    -5.674      2.502      3.002
REMARK INTER + INTRA:          -7.145
REMARK INTER:                  -6.843
REMARK INTRA:                  -0.302
REMARK UNBOUND:                -0.310
REMARK SMILES O=c1c(O)c(-c2ccc(O)c(O)c2)oc2cc(O)cc(O)c12
REMARK SMILES IDX 5 1 3 2 2 3 1 4 22 5 20 6 19 7 17 8 16 9 15 10 14 11 6 12
REMARK SMILES IDX 7 13 8 14 9 15 13 16 11 17 10 18 12 20 4 22 21 24 18 26
REMARK H PARENT 10 19 12 21 4 23 21 25 18 27
REMARK Flexibility Score: inf
ROOT
ATOM      1  C   UNL     1      15.693 -20.136  17.910  1.00  0.00     0.180 A 
ATOM      2  C   UNL     1      14.887 -18.982  17.902  1.00  0.00     0.208 A 
ATOM      3  C   UNL     1      15.423 -17.783  17.405  1.00  0.00     0.238 A 
ATOM      4  O   UNL     1      14.713 -16.741  17.403  1.00  0.00    -0.285 OA
ATOM      5  C   UNL     1      16.741 -17.763  16.906  1.00  0.00     0.111 A 
ATOM      6  C   UNL     1      17.353 -16.597  16.384  1.00  0.00     0.134 A 
ATOM      7  C   UNL     1      18.668 -16.661  15.898  1.00  0.00     0.093 A 
ATOM      8  C   UNL     1      19.380 -17.862  15.923  1.00  0.00     0.123 A 
ATOM      9  C   UNL     1      18.780 -19.017  16.438  1.00  0.00     0.094 A 
ATOM     10  C   UNL     1      17.472 -18.974  16.929  1.00  0.00     0.146 A 
ATOM     11  O   UNL     1      16.928 -20.083  17.418  1.00  0.00    -0.452 OA
ENDROOT
BRANCH   1  12
ATOM     12  C   UNL     1      15.208 -21.432  18.435  1.00  0.00     0.025 A 
ATOM     13  C   UNL     1      15.506 -21.796  19.759  1.00  0.00     0.016 A 
ATOM     14  C   UNL     1      15.041 -23.005  20.282  1.00  0.00     0.051 A 
ATOM     15  C   UNL     1      14.257 -23.860  19.496  1.00  0.00     0.157 A 
ATOM     16  C   UNL     1      14.404 -22.284  17.656  1.00  0.00     0.062 A 
ATOM     17  C   UNL     1      13.935 -23.497  18.182  1.00  0.00     0.158 A 
BRANCH  15  18
ATOM     18  O   UNL     1      13.792 -25.068  20.013  1.00  0.00    -0.504 OA
ATOM     19  H   UNL     1      12.909 -25.465  19.717  1.00  0.00     0.293 HD
ENDBRANCH  15  18
BRANCH  17  20
ATOM     20  O   UNL     1      13.145 -24.343  17.407  1.00  0.00    -0.504 OA
ATOM     21  H   UNL     1      13.102 -25.339  17.584  1.00  0.00     0.293 HD
ENDBRANCH  17  20
ENDBRANCH   1  12
BRANCH   2  22
ATOM     22  O   UNL     1      13.566 -19.041  18.357  1.00  0.00    -0.502 OA
ATOM     23  H   UNL     1      13.321 -18.896  19.328  1.00  0.00     0.293 HD
ENDBRANCH   2  22
BRANCH   6  24
ATOM     24  O   UNL     1      16.669 -15.383  16.344  1.00  0.00    -0.507 OA
ATOM     25  H   UNL     1      16.369 -14.968  15.470  1.00  0.00     0.293 HD
ENDBRANCH   6  24
BRANCH   8  26
ATOM     26  O   UNL     1      20.683 -17.899  15.433  1.00  0.00    -0.508 OA
ATOM     27  H   UNL     1      20.882 -18.160  14.474  1.00  0.00     0.293 HD
ENDBRANCH   8  26
TORSDOF 6
ENDMDL
