MODEL 1
REMARK VINA RESULT:    -6.820      0.000      0.000
REMARK INTER + INTRA:          -7.998
REMARK INTER:                  -8.216
REMARK INTRA:                   0.218
REMARK UNBOUND:                 0.218
REMARK SMILES Oc1cc(O)c2cc(O)c(-c3ccc(O)c(O)c3)[o+]c2c1
REMARK SMILES IDX 10 1 19 2 20 3 21 4 2 5 3 6 4 7 6 8 7 9 8 10 11 11 12 12
REMARK SMILES IDX 13 13 14 14 18 15 16 16 15 17 17 19 9 21 1 23 5 25
REMARK H PARENT 15 18 17 20 9 22 1 24 5 26
REMARK Flexibility Score: inf
ROOT
ATOM      1  C   UNL     1       1.971  24.137  48.373  1.00  0.00     0.402 A 
ATOM      2  O   UNL     1       2.180  23.252  47.400  1.00  0.00    -0.202 OA
ATOM      3  C   UNL     1       2.347  23.593  46.127  1.00  0.00     0.368 A 
ATOM      4  C   UNL     1       2.564  22.590  45.178  1.00  0.00     0.162 A 
ATOM      5  C   UNL     1       2.744  22.921  43.832  1.00  0.00     0.128 A 
ATOM      6  C   UNL     1       2.711  24.259  43.434  1.00  0.00     0.093 A 
ATOM      7  C   UNL     1       2.496  25.282  44.366  1.00  0.00     0.136 A 
ATOM      8  C   UNL     1       2.308  24.951  45.733  1.00  0.00     0.125 A 
ATOM      9  C   UNL     1       2.073  25.909  46.733  1.00  0.00     0.078 A 
ATOM     10  C   UNL     1       1.893  25.507  48.060  1.00  0.00     0.223 A 
ENDROOT
BRANCH   1  11
ATOM     11  C   UNL     1       1.810  23.633  49.755  1.00  0.00     0.087 A 
ATOM     12  C   UNL     1       0.914  24.274  50.624  1.00  0.00     0.022 A 
ATOM     13  C   UNL     1       0.730  23.804  51.927  1.00  0.00     0.051 A 
ATOM     14  C   UNL     1       1.427  22.678  52.376  1.00  0.00     0.157 A 
ATOM     15  C   UNL     1       2.494  22.487  50.202  1.00  0.00     0.068 A 
ATOM     16  C   UNL     1       2.310  22.013  51.509  1.00  0.00     0.158 A 
BRANCH  14  17
ATOM     17  O   UNL     1       1.226  22.233  53.682  1.00  0.00    -0.504 OA
ATOM     18  H   UNL     1       0.935  22.857  54.425  1.00  0.00     0.293 HD
ENDBRANCH  14  17
BRANCH  16  19
ATOM     19  O   UNL     1       2.997  20.881  51.946  1.00  0.00    -0.504 OA
ATOM     20  H   UNL     1       2.610  19.950  51.839  1.00  0.00     0.293 HD
ENDBRANCH  16  19
ENDBRANCH   1  11
BRANCH  10  21
ATOM     21  O   UNL     1       1.610  26.452  49.046  1.00  0.00    -0.500 OA
ATOM     22  H   UNL     1       0.939  27.196  48.892  1.00  0.00     0.294 HD
ENDBRANCH  10  21
BRANCH   5  23
ATOM     23  O   UNL     1       2.961  21.926  42.880  1.00  0.00    -0.507 OA
ATOM     24  H   UNL     1       2.991  22.140  41.889  1.00  0.00     0.293 HD
ENDBRANCH   5  23
BRANCH   7  25
ATOM     25  O   UNL     1       2.478  26.595  43.887  1.00  0.00    -0.507 OA
ATOM     26  H   UNL     1       1.723  26.995  43.349  1.00  0.00     0.293 HD
ENDBRANCH   7  25
TORSDOF 6
ENDMDL
MODEL 2
REMARK VINA RESULT:    -6.499      8.830     11.267
REMARK INTER + INTRA:          -7.611
REMARK INTER:                  -7.778
REMARK INTRA:                   0.168
REMARK UNBOUND:                 0.218
REMARK SMILES Oc1cc(O)c2cc(O)c(-c3ccc(O)c(O)c3)[o+]c2c1
REMARK SMILES IDX 10 1 19 2 20 3 21 4 2 5 3 6 4 7 6 8 7 9 8 10 11 11 12 12
REMARK SMILES IDX 13 13 14 14 18 15 16 16 15 17 17 19 9 21 1 23 5 25
REMARK H PARENT 15 18 17 20 9 22 1 24 5 26
REMARK Flexibility Score: inf
ROOT
ATOM      1  C   UNL     1       3.162  21.780  57.292  1.00  0.00     0.402 A 
ATOM      2  O   UNL     1       3.432  20.768  58.114  1.00  0.00    -0.202 OA
ATOM      3  C   UNL     1       4.633  20.208  58.211  1.00  0.00     0.368 A 
ATOM      4  C   UNL     1       4.819  19.151  59.107  1.00  0.00     0.162 A 
ATOM      5  C   UNL     1       6.072  18.545  59.231  1.00  0.00     0.128 A 
ATOM      6  C   UNL     1       7.144  18.999  58.459  1.00  0.00     0.093 A 
ATOM      7  C   UNL     1       6.983  20.057  57.555  1.00  0.00     0.136 A 
ATOM      8  C   UNL     1       5.712  20.673  57.422  1.00  0.00     0.125 A 
ATOM      9  C   UNL     1       5.455  21.729  56.533  1.00  0.00     0.078 A 
ATOM     10  C   UNL     1       4.174  22.284  56.454  1.00  0.00     0.223 A 
ENDROOT
BRANCH   1  11
ATOM     11  C   UNL     1       1.785  22.325  57.281  1.00  0.00     0.087 A 
ATOM     12  C   UNL     1       1.082  22.448  58.490  1.00  0.00     0.022 A 
ATOM     13  C   UNL     1      -0.210  22.978  58.507  1.00  0.00     0.051 A 
ATOM     14  C   UNL     1      -0.813  23.408  57.321  1.00  0.00     0.157 A 
ATOM     15  C   UNL     1       1.186  22.779  56.092  1.00  0.00     0.068 A 
ATOM     16  C   UNL     1      -0.111  23.313  56.107  1.00  0.00     0.158 A 
BRANCH  14  17
ATOM     17  O   UNL     1      -2.105  23.931  57.368  1.00  0.00    -0.504 OA
ATOM     18  H   UNL     1      -2.522  24.260  58.230  1.00  0.00     0.293 HD
ENDBRANCH  14  17
BRANCH  16  19
ATOM     19  O   UNL     1      -0.700  23.754  54.923  1.00  0.00    -0.504 OA
ATOM     20  H   UNL     1      -1.241  23.131  54.335  1.00  0.00     0.293 HD
ENDBRANCH  16  19
ENDBRANCH   1  11
BRANCH  10  21
ATOM     21  O   UNL     1       3.906  23.299  55.535  1.00  0.00    -0.500 OA
ATOM     22  H   UNL     1       4.642  23.727  54.986  1.00  0.00     0.294 HD
ENDBRANCH  10  21
BRANCH   5  23
ATOM     23  O   UNL     1       6.265  17.490  60.121  1.00  0.00    -0.507 OA
ATOM     24  H   UNL     1       6.323  16.531  59.801  1.00  0.00     0.293 HD
ENDBRANCH   5  23
BRANCH   7  25
ATOM     25  O   UNL     1       8.105  20.452  56.821  1.00  0.00    -0.507 OA
ATOM     26  H   UNL     1       8.098  21.168  56.110  1.00  0.00     0.293 HD
ENDBRANCH   7  25
TORSDOF 6
ENDMDL
MODEL 3
REMARK VINA RESULT:    -6.489     10.005     12.078
REMARK INTER + INTRA:          -7.599
REMARK INTER:                  -7.252
REMARK INTRA:                  -0.347
REMARK UNBOUND:                 0.218
REMARK SMILES Oc1cc(O)c2cc(O)c(-c3ccc(O)c(O)c3)[o+]c2c1
REMARK SMILES IDX 10 1 19 2 20 3 21 4 2 5 3 6 4 7 6 8 7 9 8 10 11 11 12 12
REMARK SMILES IDX 13 13 14 14 18 15 16 16 15 17 17 19 9 21 1 23 5 25
REMARK H PARENT 15 18 17 20 9 22 1 24 5 26
REMARK Flexibility Score: inf
ROOT
ATOM      1  C   UNL     1       3.015  21.566  58.720  1.00  0.00     0.402 A 
ATOM      2  O   UNL     1       4.122  21.573  57.981  1.00  0.00    -0.202 OA
ATOM      3  C   UNL     1       5.105  20.692  58.131  1.00  0.00     0.368 A 
ATOM      4  C   UNL     1       6.229  20.779  57.304  1.00  0.00     0.162 A 
ATOM      5  C   UNL     1       7.276  19.864  57.439  1.00  0.00     0.128 A 
ATOM      6  C   UNL     1       7.198  18.854  58.402  1.00  0.00     0.093 A 
ATOM      7  C   UNL     1       6.083  18.745  59.242  1.00  0.00     0.136 A 
ATOM      8  C   UNL     1       5.018  19.675  59.111  1.00  0.00     0.125 A 
ATOM      9  C   UNL     1       3.869  19.650  59.918  1.00  0.00     0.078 A 
ATOM     10  C   UNL     1       2.863  20.603  59.734  1.00  0.00     0.223 A 
ENDROOT
BRANCH   1  11
ATOM     11  C   UNL     1       1.987  22.597  58.450  1.00  0.00     0.087 A 
ATOM     12  C   UNL     1       2.032  23.816  59.144  1.00  0.00     0.022 A 
ATOM     13  C   UNL     1       1.084  24.810  58.891  1.00  0.00     0.051 A 
ATOM     14  C   UNL     1       0.087  24.609  57.932  1.00  0.00     0.157 A 
ATOM     15  C   UNL     1       0.996  22.404  57.470  1.00  0.00     0.068 A 
ATOM     16  C   UNL     1       0.044  23.402  57.214  1.00  0.00     0.158 A 
BRANCH  14  17
ATOM     17  O   UNL     1      -0.847  25.619  57.703  1.00  0.00    -0.504 OA
ATOM     18  H   UNL     1      -1.491  25.931  58.421  1.00  0.00     0.293 HD
ENDBRANCH  14  17
BRANCH  16  19
ATOM     19  O   UNL     1      -0.938  23.201  56.246  1.00  0.00    -0.504 OA
ATOM     20  H   UNL     1      -0.764  22.641  55.419  1.00  0.00     0.293 HD
ENDBRANCH  16  19
ENDBRANCH   1  11
BRANCH  10  21
ATOM     21  O   UNL     1       1.744  20.609  60.568  1.00  0.00    -0.500 OA
ATOM     22  H   UNL     1       0.814  20.790  60.209  1.00  0.00     0.294 HD
ENDBRANCH  10  21
BRANCH   5  23
ATOM     23  O   UNL     1       8.400  19.945  56.619  1.00  0.00    -0.507 OA
ATOM     24  H   UNL     1       8.350  20.351  55.692  1.00  0.00     0.293 HD
ENDBRANCH   5  23
BRANCH   7  25
ATOM     25  O   UNL     1       6.082  17.707  60.177  1.00  0.00    -0.507 OA
ATOM     26  H   UNL     1       5.257  17.200  60.466  1.00  0.00     0.293 HD
ENDBRANCH   7  25
TORSDOF 6
ENDMDL
MODEL 4
REMARK VINA RESULT:    -6.452      5.298      9.447
REMARK INTER + INTRA:          -7.554
REMARK INTER:                  -7.380
REMARK INTRA:                  -0.174
REMARK UNBOUND:                 0.218
REMARK SMILES Oc1cc(O)c2cc(O)c(-c3ccc(O)c(O)c3)[o+]c2c1
REMARK SMILES IDX 10 1 19 2 20 3 21 4 2 5 3 6 4 7 6 8 7 9 8 10 11 11 12 12
REMARK SMILES IDX 13 13 14 14 18 15 16 16 15 17 17 19 9 21 1 23 5 25
REMARK H PARENT 15 18 17 20 9 22 1 24 5 26
REMARK Flexibility Score: inf
ROOT
ATOM      1  C   UNL     1       2.552  23.000  54.606  1.00  0.00     0.402 A 
ATOM      2  O   UNL     1       1.406  23.662  54.460  1.00  0.00    -0.202 OA
ATOM      3  C   UNL     1       0.474  23.724  55.405  1.00  0.00     0.368 A 
ATOM      4  C   UNL     1      -0.697  24.446  55.159  1.00  0.00     0.162 A 
ATOM      5  C   UNL     1      -1.692  24.529  56.136  1.00  0.00     0.128 A 
ATOM      6  C   UNL     1      -1.516  23.890  57.366  1.00  0.00     0.093 A 
ATOM      7  C   UNL     1      -0.352  23.161  57.637  1.00  0.00     0.136 A 
ATOM      8  C   UNL     1       0.661  23.070  56.646  1.00  0.00     0.125 A 
ATOM      9  C   UNL     1       1.853  22.350  56.825  1.00  0.00     0.078 A 
ATOM     10  C   UNL     1       2.804  22.302  55.802  1.00  0.00     0.223 A 
ENDROOT
BRANCH   1  11
ATOM     11  C   UNL     1       3.516  23.014  53.483  1.00  0.00     0.087 A 
ATOM     12  C   UNL     1       3.109  22.563  52.217  1.00  0.00     0.022 A 
ATOM     13  C   UNL     1       3.995  22.586  51.138  1.00  0.00     0.051 A 
ATOM     14  C   UNL     1       5.296  23.071  51.302  1.00  0.00     0.157 A 
ATOM     15  C   UNL     1       4.818  23.522  53.641  1.00  0.00     0.068 A 
ATOM     16  C   UNL     1       5.709  23.547  52.558  1.00  0.00     0.158 A 
BRANCH  14  17
ATOM     17  O   UNL     1       6.160  23.080  50.207  1.00  0.00    -0.504 OA
ATOM     18  H   UNL     1       6.968  22.471  50.154  1.00  0.00     0.293 HD
ENDBRANCH  14  17
BRANCH  16  19
ATOM     19  O   UNL     1       7.000  24.047  52.725  1.00  0.00    -0.504 OA
ATOM     20  H   UNL     1       7.172  24.933  53.186  1.00  0.00     0.293 HD
ENDBRANCH  16  19
ENDBRANCH   1  11
BRANCH  10  21
ATOM     21  O   UNL     1       3.965  21.546  55.960  1.00  0.00    -0.500 OA
ATOM     22  H   UNL     1       4.627  21.737  56.702  1.00  0.00     0.294 HD
ENDBRANCH  10  21
BRANCH   5  23
ATOM     23  O   UNL     1      -2.863  25.248  55.897  1.00  0.00    -0.507 OA
ATOM     24  H   UNL     1      -3.458  25.041  55.104  1.00  0.00     0.293 HD
ENDBRANCH   5  23
BRANCH   7  25
ATOM     25  O   UNL     1      -0.252  22.553  58.891  1.00  0.00    -0.507 OA
ATOM     26  H   UNL     1      -1.040  22.342  59.487  1.00  0.00     0.293 HD
ENDBRANCH   7  25
TORSDOF 6
ENDMDL
MODEL 5
REMARK VINA RESULT:    -6.450      1.236      6.825
REMARK INTER + INTRA:          -7.551
REMARK INTER:                  -7.549
REMARK INTRA:                  -0.002
REMARK UNBOUND:                 0.218
REMARK SMILES Oc1cc(O)c2cc(O)c(-c3ccc(O)c(O)c3)[o+]c2c1
REMARK SMILES IDX 10 1 19 2 20 3 21 4 2 5 3 6 4 7 6 8 7 9 8 10 11 11 12 12
REMARK SMILES IDX 13 13 14 14 18 15 16 16 15 17 17 19 9 21 1 23 5 25
REMARK H PARENT 15 18 17 20 9 22 1 24 5 26
REMARK Flexibility Score: inf
ROOT
ATOM      1  C   UNL     1       1.798  24.485  48.808  1.00  0.00     0.402 A 
ATOM      2  O   UNL     1       2.367  23.399  49.328  1.00  0.00    -0.202 OA
ATOM      3  C   UNL     1       2.250  23.054  50.606  1.00  0.00     0.368 A 
ATOM      4  C   UNL     1       2.882  21.893  51.057  1.00  0.00     0.162 A 
ATOM      5  C   UNL     1       2.773  21.506  52.396  1.00  0.00     0.128 A 
ATOM      6  C   UNL     1       2.027  22.282  53.286  1.00  0.00     0.093 A 
ATOM      7  C   UNL     1       1.383  23.450  52.858  1.00  0.00     0.136 A 
ATOM      8  C   UNL     1       1.493  23.849  51.500  1.00  0.00     0.125 A 
ATOM      9  C   UNL     1       0.894  25.010  50.986  1.00  0.00     0.078 A 
ATOM     10  C   UNL     1       1.051  25.342  49.637  1.00  0.00     0.223 A 
ENDROOT
BRANCH   1  11
ATOM     11  C   UNL     1       1.995  24.756  47.366  1.00  0.00     0.087 A 
ATOM     12  C   UNL     1       2.450  26.019  46.957  1.00  0.00     0.022 A 
ATOM     13  C   UNL     1       2.662  26.291  45.603  1.00  0.00     0.051 A 
ATOM     14  C   UNL     1       2.437  25.303  44.640  1.00  0.00     0.157 A 
ATOM     15  C   UNL     1       1.790  23.756  46.397  1.00  0.00     0.068 A 
ATOM     16  C   UNL     1       2.004  24.027  45.038  1.00  0.00     0.158 A 
BRANCH  14  17
ATOM     17  O   UNL     1       2.655  25.604  43.296  1.00  0.00    -0.504 OA
ATOM     18  H   UNL     1       1.910  25.574  42.610  1.00  0.00     0.293 HD
ENDBRANCH  14  17
BRANCH  16  19
ATOM     19  O   UNL     1       1.792  23.033  44.084  1.00  0.00    -0.504 OA
ATOM     20  H   UNL     1       1.248  23.206  43.247  1.00  0.00     0.293 HD
ENDBRANCH  16  19
ENDBRANCH   1  11
BRANCH  10  21
ATOM     21  O   UNL     1       0.498  26.521  49.137  1.00  0.00    -0.500 OA
ATOM     22  H   UNL     1      -0.351  26.916  49.524  1.00  0.00     0.294 HD
ENDBRANCH  10  21
BRANCH   5  23
ATOM     23  O   UNL     1       3.402  20.349  52.853  1.00  0.00    -0.507 OA
ATOM     24  H   UNL     1       3.448  19.512  52.285  1.00  0.00     0.293 HD
ENDBRANCH   5  23
BRANCH   7  25
ATOM     25  O   UNL     1       0.655  24.168  53.810  1.00  0.00    -0.507 OA
ATOM     26  H   UNL     1       0.585  23.914  54.784  1.00  0.00     0.293 HD
ENDBRANCH   7  25
TORSDOF 6
ENDMDL
MODEL 6
REMARK VINA RESULT:    -6.375      5.480      8.357
REMARK INTER + INTRA:          -7.461
REMARK INTER:                  -7.109
REMARK INTRA:                  -0.352
REMARK UNBOUND:                 0.218
REMARK SMILES Oc1cc(O)c2cc(O)c(-c3ccc(O)c(O)c3)[o+]c2c1
REMARK SMILES IDX 10 1 19 2 20 3 21 4 2 5 3 6 4 7 6 8 7 9 8 10 11 11 12 12
REMARK SMILES IDX 13 13 14 14 18 15 16 16 15 17 17 19 9 21 1 23 5 25
REMARK H PARENT 15 18 17 20 9 22 1 24 5 26
REMARK Flexibility Score: inf
ROOT
ATOM      1  C   UNL     1       4.836  22.077  55.728  1.00  0.00     0.402 A 
ATOM      2  O   UNL     1       4.489  21.696  54.500  1.00  0.00    -0.202 OA
ATOM      3  C   UNL     1       3.946  22.517  53.608  1.00  0.00     0.368 A 
ATOM      4  C   UNL     1       3.618  22.024  52.341  1.00  0.00     0.162 A 
ATOM      5  C   UNL     1       3.049  22.867  51.383  1.00  0.00     0.128 A 
ATOM      6  C   UNL     1       2.808  24.208  51.690  1.00  0.00     0.093 A 
ATOM      7  C   UNL     1       3.128  24.726  52.952  1.00  0.00     0.136 A 
ATOM      8  C   UNL     1       3.704  23.874  53.930  1.00  0.00     0.125 A 
ATOM      9  C   UNL     1       4.044  24.303  55.223  1.00  0.00     0.078 A 
ATOM     10  C   UNL     1       4.604  23.404  56.135  1.00  0.00     0.223 A 
ENDROOT
BRANCH   1  11
ATOM     11  C   UNL     1       5.442  21.070  56.628  1.00  0.00     0.087 A 
ATOM     12  C   UNL     1       4.612  20.178  57.324  1.00  0.00     0.022 A 
ATOM     13  C   UNL     1       5.162  19.206  58.164  1.00  0.00     0.051 A 
ATOM     14  C   UNL     1       6.549  19.101  58.310  1.00  0.00     0.157 A 
ATOM     15  C   UNL     1       6.838  20.949  56.759  1.00  0.00     0.068 A 
ATOM     16  C   UNL     1       7.392  19.973  57.600  1.00  0.00     0.158 A 
BRANCH  14  17
ATOM     17  O   UNL     1       7.070  18.123  59.156  1.00  0.00    -0.504 OA
ATOM     18  H   UNL     1       7.801  17.488  58.859  1.00  0.00     0.293 HD
ENDBRANCH  14  17
BRANCH  16  19
ATOM     19  O   UNL     1       8.776  19.864  57.729  1.00  0.00    -0.504 OA
ATOM     20  H   UNL     1       9.222  19.798  58.636  1.00  0.00     0.293 HD
ENDBRANCH  16  19
ENDBRANCH   1  11
BRANCH  10  21
ATOM     21  O   UNL     1       4.896  23.816  57.436  1.00  0.00    -0.500 OA
ATOM     22  H   UNL     1       5.633  23.383  57.978  1.00  0.00     0.294 HD
ENDBRANCH  10  21
BRANCH   5  23
ATOM     23  O   UNL     1       2.718  22.382  50.119  1.00  0.00    -0.507 OA
ATOM     24  H   UNL     1       1.988  22.810  49.562  1.00  0.00     0.293 HD
ENDBRANCH   5  23
BRANCH   7  25
ATOM     25  O   UNL     1       2.858  26.079  53.178  1.00  0.00    -0.507 OA
ATOM     26  H   UNL     1       2.978  26.807  52.489  1.00  0.00     0.293 HD
ENDBRANCH   7  25
TORSDOF 6
ENDMDL
MODEL 7
REMARK VINA RESULT:    -6.366      3.791      7.007
REMARK INTER + INTRA:          -7.450
REMARK INTER:                  -7.111
REMARK INTRA:                  -0.340
REMARK UNBOUND:                 0.218
REMARK SMILES Oc1cc(O)c2cc(O)c(-c3ccc(O)c(O)c3)[o+]c2c1
REMARK SMILES IDX 10 1 19 2 20 3 21 4 2 5 3 6 4 7 6 8 7 9 8 10 11 11 12 12
REMARK SMILES IDX 13 13 14 14 18 15 16 16 15 17 17 19 9 21 1 23 5 25
REMARK H PARENT 15 18 17 20 9 22 1 24 5 26
REMARK Flexibility Score: inf
ROOT
ATOM      1  C   UNL     1       0.522  24.196  54.331  1.00  0.00     0.402 A 
ATOM      2  O   UNL     1       0.634  24.784  53.142  1.00  0.00    -0.202 OA
ATOM      3  C   UNL     1       1.202  24.202  52.091  1.00  0.00     0.368 A 
ATOM      4  C   UNL     1       1.271  24.900  50.882  1.00  0.00     0.162 A 
ATOM      5  C   UNL     1       1.861  24.310  49.761  1.00  0.00     0.128 A 
ATOM      6  C   UNL     1       2.382  23.017  49.847  1.00  0.00     0.093 A 
ATOM      7  C   UNL     1       2.325  22.297  51.047  1.00  0.00     0.136 A 
ATOM      8  C   UNL     1       1.730  22.892  52.190  1.00  0.00     0.125 A 
ATOM      9  C   UNL     1       1.641  22.251  53.436  1.00  0.00     0.078 A 
ATOM     10  C   UNL     1       1.044  22.903  54.519  1.00  0.00     0.223 A 
ENDROOT
BRANCH   1  11
ATOM     11  C   UNL     1      -0.141  24.945  55.422  1.00  0.00     0.087 A 
ATOM     12  C   UNL     1      -1.535  24.863  55.570  1.00  0.00     0.022 A 
ATOM     13  C   UNL     1      -2.179  25.545  56.604  1.00  0.00     0.051 A 
ATOM     14  C   UNL     1      -1.442  26.307  57.515  1.00  0.00     0.157 A 
ATOM     15  C   UNL     1       0.601  25.695  56.353  1.00  0.00     0.068 A 
ATOM     16  C   UNL     1      -0.044  26.379  57.393  1.00  0.00     0.158 A 
BRANCH  14  17
ATOM     17  O   UNL     1      -2.112  26.979  58.537  1.00  0.00    -0.504 OA
ATOM     18  H   UNL     1      -2.021  27.979  58.674  1.00  0.00     0.293 HD
ENDBRANCH  14  17
BRANCH  16  19
ATOM     19  O   UNL     1       0.699  27.125  58.307  1.00  0.00    -0.504 OA
ATOM     20  H   UNL     1       0.758  26.863  59.284  1.00  0.00     0.293 HD
ENDBRANCH  16  19
ENDBRANCH   1  11
BRANCH  10  21
ATOM     21  O   UNL     1       1.000  22.286  55.770  1.00  0.00    -0.500 OA
ATOM     22  H   UNL     1       0.162  22.296  56.338  1.00  0.00     0.294 HD
ENDBRANCH  10  21
BRANCH   5  23
ATOM     23  O   UNL     1       1.934  25.000  48.552  1.00  0.00    -0.507 OA
ATOM     24  H   UNL     1       2.303  25.943  48.502  1.00  0.00     0.293 HD
ENDBRANCH   5  23
BRANCH   7  25
ATOM     25  O   UNL     1       2.867  21.009  51.050  1.00  0.00    -0.507 OA
ATOM     26  H   UNL     1       3.289  20.570  51.855  1.00  0.00     0.293 HD
ENDBRANCH   7  25
TORSDOF 6
ENDMDL
MODEL 8
REMARK VINA RESULT:    -6.166      7.723     10.075
REMARK INTER + INTRA:          -7.209
REMARK INTER:                  -6.919
REMARK INTRA:                  -0.290
REMARK UNBOUND:                 0.218
REMARK SMILES Oc1cc(O)c2cc(O)c(-c3ccc(O)c(O)c3)[o+]c2c1
REMARK SMILES IDX 10 1 19 2 20 3 21 4 2 5 3 6 4 7 6 8 7 9 8 10 11 11 12 12
REMARK SMILES IDX 13 13 14 14 18 15 16 16 15 17 17 19 9 21 1 23 5 25
REMARK H PARENT 15 18 17 20 9 22 1 24 5 26
REMARK Flexibility Score: inf
ROOT
ATOM      1  C   UNL     1       4.695  22.407  57.168  1.00  0.00     0.402 A 
ATOM      2  O   UNL     1       3.619  22.242  56.401  1.00  0.00    -0.202 OA
ATOM      3  C   UNL     1       2.840  23.245  56.012  1.00  0.00     0.368 A 
ATOM      4  C   UNL     1       1.732  22.972  55.204  1.00  0.00     0.162 A 
ATOM      5  C   UNL     1       0.898  24.009  54.779  1.00  0.00     0.128 A 
ATOM      6  C   UNL     1       1.172  25.325  55.160  1.00  0.00     0.093 A 
ATOM      7  C   UNL     1       2.276  25.624  55.969  1.00  0.00     0.136 A 
ATOM      8  C   UNL     1       3.125  24.574  56.406  1.00  0.00     0.125 A 
ATOM      9  C   UNL     1       4.244  24.779  57.229  1.00  0.00     0.078 A 
ATOM     10  C   UNL     1       5.032  23.695  57.624  1.00  0.00     0.223 A 
ENDROOT
BRANCH   1  11
ATOM     11  C   UNL     1       5.489  21.210  57.527  1.00  0.00     0.087 A 
ATOM     12  C   UNL     1       4.945  20.256  58.401  1.00  0.00     0.022 A 
ATOM     13  C   UNL     1       5.668  19.110  58.738  1.00  0.00     0.051 A 
ATOM     14  C   UNL     1       6.938  18.890  58.195  1.00  0.00     0.157 A 
ATOM     15  C   UNL     1       6.758  20.977  56.965  1.00  0.00     0.068 A 
ATOM     16  C   UNL     1       7.485  19.825  57.300  1.00  0.00     0.158 A 
BRANCH  14  17
ATOM     17  O   UNL     1       7.638  17.738  58.551  1.00  0.00    -0.504 OA
ATOM     18  H   UNL     1       7.226  16.815  58.482  1.00  0.00     0.293 HD
ENDBRANCH  14  17
BRANCH  16  19
ATOM     19  O   UNL     1       8.744  19.606  56.744  1.00  0.00    -0.504 OA
ATOM     20  H   UNL     1       9.144  18.677  56.683  1.00  0.00     0.293 HD
ENDBRANCH  16  19
ENDBRANCH   1  11
BRANCH  10  21
ATOM     21  O   UNL     1       6.115  23.891  58.482  1.00  0.00    -0.500 OA
ATOM     22  H   UNL     1       7.042  23.553  58.254  1.00  0.00     0.294 HD
ENDBRANCH  10  21
BRANCH   5  23
ATOM     23  O   UNL     1      -0.209  23.744  53.973  1.00  0.00    -0.507 OA
ATOM     24  H   UNL     1      -0.254  22.915  53.393  1.00  0.00     0.293 HD
ENDBRANCH   5  23
BRANCH   7  25
ATOM     25  O   UNL     1       2.481  26.965  56.304  1.00  0.00    -0.507 OA
ATOM     26  H   UNL     1       3.298  27.499  56.043  1.00  0.00     0.293 HD
ENDBRANCH   7  25
TORSDOF 6
ENDMDL
MODEL 9
REMARK VINA RESULT:    -6.158      5.580     10.645
REMARK INTER + INTRA:          -7.200
REMARK INTER:                  -6.848
REMARK INTRA:                  -0.352
REMARK UNBOUND:                 0.218
REMARK SMILES Oc1cc(O)c2cc(O)c(-c3ccc(O)c(O)c3)[o+]c2c1
REMARK SMILES IDX 10 1 19 2 20 3 21 4 2 5 3 6 4 7 6 8 7 9 8 10 11 11 12 12
REMARK SMILES IDX 13 13 14 14 18 15 16 16 15 17 17 19 9 21 1 23 5 25
REMARK H PARENT 15 18 17 20 9 22 1 24 5 26
REMARK Flexibility Score: inf
ROOT
ATOM      1  C   UNL     1       4.354  22.219  55.436  1.00  0.00     0.402 A 
ATOM      2  O   UNL     1       4.966  21.104  55.829  1.00  0.00    -0.202 OA
ATOM      3  C   UNL     1       5.274  20.848  57.096  1.00  0.00     0.368 A 
ATOM      4  C   UNL     1       5.915  19.647  57.411  1.00  0.00     0.162 A 
ATOM      5  C   UNL     1       6.247  19.352  58.736  1.00  0.00     0.128 A 
ATOM      6  C   UNL     1       5.936  20.260  59.751  1.00  0.00     0.093 A 
ATOM      7  C   UNL     1       5.293  21.470  59.461  1.00  0.00     0.136 A 
ATOM      8  C   UNL     1       4.956  21.776  58.117  1.00  0.00     0.125 A 
ATOM      9  C   UNL     1       4.325  22.970  57.732  1.00  0.00     0.078 A 
ATOM     10  C   UNL     1       4.027  23.204  56.386  1.00  0.00     0.223 A 
ENDROOT
BRANCH   1  11
ATOM     11  C   UNL     1       4.056  22.383  53.995  1.00  0.00     0.087 A 
ATOM     12  C   UNL     1       5.062  22.843  53.130  1.00  0.00     0.022 A 
ATOM     13  C   UNL     1       4.810  22.987  51.764  1.00  0.00     0.051 A 
ATOM     14  C   UNL     1       3.555  22.660  51.238  1.00  0.00     0.157 A 
ATOM     15  C   UNL     1       2.802  22.034  53.461  1.00  0.00     0.068 A 
ATOM     16  C   UNL     1       2.547  22.177  52.090  1.00  0.00     0.158 A 
BRANCH  14  17
ATOM     17  O   UNL     1       3.332  22.815  49.871  1.00  0.00    -0.504 OA
ATOM     18  H   UNL     1       3.892  23.437  49.301  1.00  0.00     0.293 HD
ENDBRANCH  14  17
BRANCH  16  19
ATOM     19  O   UNL     1       1.300  21.835  51.570  1.00  0.00    -0.504 OA
ATOM     20  H   UNL     1       0.467  22.366  51.794  1.00  0.00     0.293 HD
ENDBRANCH  16  19
ENDBRANCH   1  11
BRANCH  10  21
ATOM     21  O   UNL     1       3.445  24.411  55.997  1.00  0.00    -0.500 OA
ATOM     22  H   UNL     1       4.002  25.181  55.646  1.00  0.00     0.294 HD
ENDBRANCH  10  21
BRANCH   5  23
ATOM     23  O   UNL     1       6.887  18.156  59.058  1.00  0.00    -0.507 OA
ATOM     24  H   UNL     1       6.398  17.405  59.529  1.00  0.00     0.293 HD
ENDBRANCH   5  23
BRANCH   7  25
ATOM     25  O   UNL     1       5.014  22.323  60.533  1.00  0.00    -0.507 OA
ATOM     26  H   UNL     1       5.676  22.975  60.929  1.00  0.00     0.293 HD
ENDBRANCH   7  25
TORSDOF 6
ENDMDL
