MODEL 1
REMARK VINA RESULT:     2.285      0.000      0.000
REMARK INTER + INTRA:           3.954
REMARK INTER:                   4.956
REMARK INTRA:                  -1.002
REMARK UNBOUND:                -1.002
REMARK SMILES CCCCCCCCCCCCCCCCCCCCCC(=O)[O-]
REMARK SMILES IDX 12 1 11 2 10 3 9 4 8 5 7 6 6 7 5 8 4 9 3 10 2 11 1 12 13 13
REMARK SMILES IDX 14 14 15 15 16 16 17 17 18 18 19 19 20 20 21 21 22 22 23 23
REMARK SMILES IDX 24 24
REMARK H PARENT
REMARK Flexibility Score: inf
ROOT
ATOM      1  C   UNL     1     -54.584 120.795  -8.231  1.00  0.00     0.000 C 
ENDROOT
BRANCH   1   2
ATOM      2  C   UNL     1     -53.071 120.527  -8.177  1.00  0.00     0.000 C 
BRANCH   2   3
ATOM      3  C   UNL     1     -52.598 119.588  -9.300  1.00  0.00     0.000 C 
BRANCH   3   4
ATOM      4  C   UNL     1     -52.722 120.221 -10.696  1.00  0.00    -0.000 C 
BRANCH   4   5
ATOM      5  C   UNL     1     -51.408 120.860 -11.178  1.00  0.00    -0.000 C 
BRANCH   5   6
ATOM      6  C   UNL     1     -50.242 120.611 -10.207  1.00  0.00    -0.000 C 
BRANCH   6   7
ATOM      7  C   UNL     1     -49.020 121.491 -10.520  1.00  0.00    -0.000 C 
BRANCH   7   8
ATOM      8  C   UNL     1     -49.110 122.176 -11.896  1.00  0.00    -0.000 C 
BRANCH   8   9
ATOM      9  C   UNL     1     -48.934 123.704 -11.878  1.00  0.00    -0.000 C 
BRANCH   9  10
ATOM     10  C   UNL     1     -48.875 124.284 -10.457  1.00  0.00    -0.000 C 
BRANCH  10  11
ATOM     11  C   UNL     1     -50.164 123.981  -9.686  1.00  0.00    -0.003 C 
ATOM     12  C   UNL     1     -50.025 124.350  -8.212  1.00  0.00     0.004 C 
ENDBRANCH  10  11
ENDBRANCH   9  10
ENDBRANCH   8   9
ENDBRANCH   7   8
ENDBRANCH   6   7
ENDBRANCH   5   6
ENDBRANCH   4   5
ENDBRANCH   3   4
ENDBRANCH   2   3
ENDBRANCH   1   2
BRANCH   1  13
ATOM     13  C   UNL     1     -54.914 122.219  -8.714  1.00  0.00     0.000 C 
BRANCH  13  14
ATOM     14  C   UNL     1     -53.869 123.252  -8.264  1.00  0.00     0.000 C 
BRANCH  14  15
ATOM     15  C   UNL     1     -53.553 124.289  -9.355  1.00  0.00     0.000 C 
BRANCH  15  16
ATOM     16  C   UNL     1     -54.401 124.076 -10.627  1.00  0.00     0.000 C 
BRANCH  16  17
ATOM     17  C   UNL     1     -53.829 123.010 -11.581  1.00  0.00     0.000 C 
BRANCH  17  18
ATOM     18  C   UNL     1     -54.862 122.007 -12.124  1.00  0.00     0.000 C 
BRANCH  18  19
ATOM     19  C   UNL     1     -56.299 122.543 -12.063  1.00  0.00     0.000 C 
BRANCH  19  20
ATOM     20  C   UNL     1     -57.316 121.391 -12.076  1.00  0.00     0.006 C 
BRANCH  20  21
ATOM     21  C   UNL     1     -56.634 120.017 -12.070  1.00  0.00     0.053 C 
BRANCH  21  22
ATOM     22  C   UNL     1     -56.665 119.387 -10.710  1.00  0.00     0.041 C 
ATOM     23  O   UNL     1     -57.654 119.566  -9.952  1.00  0.00    -0.550 OA
ATOM     24  O   UNL     1     -55.620 118.572 -10.295  1.00  0.00    -0.550 OA
ENDBRANCH  21  22
ENDBRANCH  20  21
ENDBRANCH  19  20
ENDBRANCH  18  19
ENDBRANCH  17  18
ENDBRANCH  16  17
ENDBRANCH  15  16
ENDBRANCH  14  15
ENDBRANCH  13  14
ENDBRANCH   1  13
TORSDOF 20
ENDMDL
MODEL 2
REMARK VINA RESULT:     2.572      1.815      3.712
REMARK INTER + INTRA:           4.578
REMARK INTER:                   3.710
REMARK INTRA:                   0.868
REMARK UNBOUND:                -1.002
REMARK SMILES CCCCCCCCCCCCCCCCCCCCCC(=O)[O-]
REMARK SMILES IDX 12 1 11 2 10 3 9 4 8 5 7 6 6 7 5 8 4 9 3 10 2 11 1 12 13 13
REMARK SMILES IDX 14 14 15 15 16 16 17 17 18 18 19 19 20 20 21 21 22 22 23 23
REMARK SMILES IDX 24 24
REMARK H PARENT
REMARK Flexibility Score: inf
ROOT
ATOM      1  C   UNL     1     -55.272 121.906  -8.814  1.00  0.00     0.000 C 
ENDROOT
BRANCH   1   2
ATOM      2  C   UNL     1     -53.840 121.990  -8.261  1.00  0.00     0.000 C 
BRANCH   2   3
ATOM      3  C   UNL     1     -53.251 123.407  -8.364  1.00  0.00     0.000 C 
BRANCH   3   4
ATOM      4  C   UNL     1     -51.719 123.405  -8.508  1.00  0.00    -0.000 C 
BRANCH   4   5
ATOM      5  C   UNL     1     -51.054 124.605  -7.812  1.00  0.00    -0.000 C 
BRANCH   5   6
ATOM      6  C   UNL     1     -49.556 124.718  -8.138  1.00  0.00    -0.000 C 
BRANCH   6   7
ATOM      7  C   UNL     1     -49.184 123.994  -9.444  1.00  0.00    -0.000 C 
BRANCH   7   8
ATOM      8  C   UNL     1     -48.876 124.964 -10.600  1.00  0.00    -0.000 C 
BRANCH   8   9
ATOM      9  C   UNL     1     -48.890 124.332 -12.003  1.00  0.00    -0.000 C 
BRANCH   9  10
ATOM     10  C   UNL     1     -49.725 123.046 -12.073  1.00  0.00    -0.000 C 
BRANCH  10  11
ATOM     11  C   UNL     1     -48.955 121.859 -11.484  1.00  0.00    -0.003 C 
ATOM     12  C   UNL     1     -49.640 121.324 -10.230  1.00  0.00     0.004 C 
ENDBRANCH  10  11
ENDBRANCH   9  10
ENDBRANCH   8   9
ENDBRANCH   7   8
ENDBRANCH   6   7
ENDBRANCH   5   6
ENDBRANCH   4   5
ENDBRANCH   3   4
ENDBRANCH   2   3
ENDBRANCH   1   2
BRANCH   1  13
ATOM     13  C   UNL     1     -55.501 122.853 -10.006  1.00  0.00     0.000 C 
BRANCH  13  14
ATOM     14  C   UNL     1     -55.817 122.097 -11.307  1.00  0.00     0.000 C 
BRANCH  14  15
ATOM     15  C   UNL     1     -57.006 122.704 -12.071  1.00  0.00     0.000 C 
BRANCH  15  16
ATOM     16  C   UNL     1     -58.268 121.820 -11.987  1.00  0.00     0.000 C 
BRANCH  16  17
ATOM     17  C   UNL     1     -57.979 120.313 -12.125  1.00  0.00     0.000 C 
BRANCH  17  18
ATOM     18  C   UNL     1     -57.825 119.560 -10.792  1.00  0.00     0.000 C 
BRANCH  18  19
ATOM     19  C   UNL     1     -56.518 118.758 -10.711  1.00  0.00     0.000 C 
BRANCH  19  20
ATOM     20  C   UNL     1     -55.405 119.440 -11.522  1.00  0.00     0.006 C 
BRANCH  20  21
ATOM     21  C   UNL     1     -54.107 119.584 -10.718  1.00  0.00     0.053 C 
BRANCH  21  22
ATOM     22  C   UNL     1     -52.960 120.007 -11.586  1.00  0.00     0.041 C 
ATOM     23  O   UNL     1     -52.154 119.150 -12.032  1.00  0.00    -0.550 OA
ATOM     24  O   UNL     1     -52.804 121.344 -11.932  1.00  0.00    -0.550 OA
ENDBRANCH  21  22
ENDBRANCH  20  21
ENDBRANCH  19  20
ENDBRANCH  18  19
ENDBRANCH  17  18
ENDBRANCH  16  17
ENDBRANCH  15  16
ENDBRANCH  14  15
ENDBRANCH  13  14
ENDBRANCH   1  13
TORSDOF 20
ENDMDL
MODEL 3
REMARK VINA RESULT:     2.903      1.621      5.774
REMARK INTER + INTRA:           5.296
REMARK INTER:                   4.964
REMARK INTRA:                   0.332
REMARK UNBOUND:                -1.002
REMARK SMILES CCCCCCCCCCCCCCCCCCCCCC(=O)[O-]
REMARK SMILES IDX 12 1 11 2 10 3 9 4 8 5 7 6 6 7 5 8 4 9 3 10 2 11 1 12 13 13
REMARK SMILES IDX 14 14 15 15 16 16 17 17 18 18 19 19 20 20 21 21 22 22 23 23
REMARK SMILES IDX 24 24
REMARK H PARENT
REMARK Flexibility Score: inf
ROOT
ATOM      1  C   UNL     1     -52.830 123.311  -7.627  1.00  0.00     0.000 C 
ENDROOT
BRANCH   1   2
ATOM      2  C   UNL     1     -53.823 123.433  -8.794  1.00  0.00     0.000 C 
BRANCH   2   3
ATOM      3  C   UNL     1     -53.251 122.887 -10.114  1.00  0.00     0.000 C 
BRANCH   3   4
ATOM      4  C   UNL     1     -53.890 123.538 -11.352  1.00  0.00    -0.000 C 
BRANCH   4   5
ATOM      5  C   UNL     1     -54.811 122.576 -12.122  1.00  0.00    -0.000 C 
BRANCH   5   6
ATOM      6  C   UNL     1     -56.296 122.789 -11.787  1.00  0.00    -0.000 C 
BRANCH   6   7
ATOM      7  C   UNL     1     -57.133 121.515 -11.992  1.00  0.00    -0.000 C 
BRANCH   7   8
ATOM      8  C   UNL     1     -56.377 120.231 -11.605  1.00  0.00    -0.000 C 
BRANCH   8   9
ATOM      9  C   UNL     1     -56.844 119.568 -10.297  1.00  0.00    -0.000 C 
BRANCH   9  10
ATOM     10  C   UNL     1     -57.262 120.584  -9.225  1.00  0.00    -0.000 C 
BRANCH  10  11
ATOM     11  C   UNL     1     -56.038 121.284  -8.625  1.00  0.00    -0.003 C 
ATOM     12  C   UNL     1     -54.746 120.579  -9.028  1.00  0.00     0.004 C 
ENDBRANCH  10  11
ENDBRANCH   9  10
ENDBRANCH   8   9
ENDBRANCH   7   8
ENDBRANCH   6   7
ENDBRANCH   5   6
ENDBRANCH   4   5
ENDBRANCH   3   4
ENDBRANCH   2   3
ENDBRANCH   1   2
BRANCH   1  13
ATOM     13  C   UNL     1     -52.090 124.629  -7.340  1.00  0.00     0.000 C 
BRANCH  13  14
ATOM     14  C   UNL     1     -50.763 124.740  -8.108  1.00  0.00     0.000 C 
BRANCH  14  15
ATOM     15  C   UNL     1     -50.240 123.374  -8.585  1.00  0.00     0.000 C 
BRANCH  15  16
ATOM     16  C   UNL     1     -49.062 123.512  -9.573  1.00  0.00     0.000 C 
BRANCH  16  17
ATOM     17  C   UNL     1     -49.418 124.286 -10.857  1.00  0.00     0.000 C 
BRANCH  17  18
ATOM     18  C   UNL     1     -49.578 123.414 -12.114  1.00  0.00     0.000 C 
BRANCH  18  19
ATOM     19  C   UNL     1     -48.879 122.052 -11.986  1.00  0.00     0.000 C 
BRANCH  19  20
ATOM     20  C   UNL     1     -49.892 120.903 -12.099  1.00  0.00     0.006 C 
BRANCH  20  21
ATOM     21  C   UNL     1     -51.312 121.342 -11.721  1.00  0.00     0.053 C 
BRANCH  21  22
ATOM     22  C   UNL     1     -52.145 120.186 -11.253  1.00  0.00     0.041 C 
ATOM     23  O   UNL     1     -52.959 119.634 -12.039  1.00  0.00    -0.550 OA
ATOM     24  O   UNL     1     -51.996 119.696  -9.962  1.00  0.00    -0.550 OA
ENDBRANCH  21  22
ENDBRANCH  20  21
ENDBRANCH  19  20
ENDBRANCH  18  19
ENDBRANCH  17  18
ENDBRANCH  16  17
ENDBRANCH  15  16
ENDBRANCH  14  15
ENDBRANCH  13  14
ENDBRANCH   1  13
TORSDOF 20
ENDMDL
MODEL 4
REMARK VINA RESULT:     3.263      2.484      5.955
REMARK INTER + INTRA:           6.076
REMARK INTER:                   0.388
REMARK INTRA:                   5.689
REMARK UNBOUND:                -1.002
REMARK SMILES CCCCCCCCCCCCCCCCCCCCCC(=O)[O-]
REMARK SMILES IDX 12 1 11 2 10 3 9 4 8 5 7 6 6 7 5 8 4 9 3 10 2 11 1 12 13 13
REMARK SMILES IDX 14 14 15 15 16 16 17 17 18 18 19 19 20 20 21 21 22 22 23 23
REMARK SMILES IDX 24 24
REMARK H PARENT
REMARK Flexibility Score: inf
ROOT
ATOM      1  C   UNL     1     -54.422 121.117  -8.299  1.00  0.00     0.000 C 
ENDROOT
BRANCH   1   2
ATOM      2  C   UNL     1     -54.628 120.349  -9.614  1.00  0.00     0.000 C 
BRANCH   2   3
ATOM      3  C   UNL     1     -53.397 119.513 -10.007  1.00  0.00     0.000 C 
BRANCH   3   4
ATOM      4  C   UNL     1     -52.538 120.192 -11.088  1.00  0.00    -0.000 C 
BRANCH   4   5
ATOM      5  C   UNL     1     -53.354 121.130 -11.994  1.00  0.00    -0.000 C 
BRANCH   5   6
ATOM      6  C   UNL     1     -53.512 122.536 -11.394  1.00  0.00    -0.000 C 
BRANCH   6   7
ATOM      7  C   UNL     1     -54.578 123.370 -12.125  1.00  0.00    -0.000 C 
BRANCH   7   8
ATOM      8  C   UNL     1     -56.003 122.816 -11.942  1.00  0.00    -0.000 C 
BRANCH   8   9
ATOM      9  C   UNL     1     -56.139 121.293 -12.116  1.00  0.00    -0.000 C 
BRANCH   9  10
ATOM     10  C   UNL     1     -57.567 120.786 -11.872  1.00  0.00    -0.000 C 
BRANCH  10  11
ATOM     11  C   UNL     1     -57.671 120.067 -10.522  1.00  0.00    -0.003 C 
ATOM     12  C   UNL     1     -57.243 120.979  -9.376  1.00  0.00     0.004 C 
ENDBRANCH  10  11
ENDBRANCH   9  10
ENDBRANCH   8   9
ENDBRANCH   7   8
ENDBRANCH   6   7
ENDBRANCH   5   6
ENDBRANCH   4   5
ENDBRANCH   3   4
ENDBRANCH   2   3
ENDBRANCH   1   2
BRANCH   1  13
ATOM     13  C   UNL     1     -54.054 122.594  -8.527  1.00  0.00     0.000 C 
BRANCH  13  14
ATOM     14  C   UNL     1     -52.608 122.911  -8.114  1.00  0.00     0.000 C 
BRANCH  14  15
ATOM     15  C   UNL     1     -51.821 123.634  -9.221  1.00  0.00     0.000 C 
BRANCH  15  16
ATOM     16  C   UNL     1     -50.294 123.507  -9.031  1.00  0.00     0.000 C 
BRANCH  16  17
ATOM     17  C   UNL     1     -49.491 124.647  -9.685  1.00  0.00     0.000 C 
BRANCH  17  18
ATOM     18  C   UNL     1     -49.583 124.706 -11.220  1.00  0.00     0.000 C 
BRANCH  18  19
ATOM     19  C   UNL     1     -49.030 123.443 -11.896  1.00  0.00     0.000 C 
BRANCH  19  20
ATOM     20  C   UNL     1     -49.884 122.215 -11.547  1.00  0.00     0.006 C 
BRANCH  20  21
ATOM     21  C   UNL     1     -49.032 121.032 -11.070  1.00  0.00     0.053 C 
BRANCH  21  22
ATOM     22  C   UNL     1     -48.987 120.946  -9.574  1.00  0.00     0.041 C 
ATOM     23  O   UNL     1     -49.016 119.825  -9.003  1.00  0.00    -0.550 OA
ATOM     24  O   UNL     1     -48.875 122.103  -8.813  1.00  0.00    -0.550 OA
ENDBRANCH  21  22
ENDBRANCH  20  21
ENDBRANCH  19  20
ENDBRANCH  18  19
ENDBRANCH  17  18
ENDBRANCH  16  17
ENDBRANCH  15  16
ENDBRANCH  14  15
ENDBRANCH  13  14
ENDBRANCH   1  13
TORSDOF 20
ENDMDL
MODEL 5
REMARK VINA RESULT:     3.574      1.729      3.425
REMARK INTER + INTRA:           6.751
REMARK INTER:                   4.836
REMARK INTRA:                   1.914
REMARK UNBOUND:                -1.002
REMARK SMILES CCCCCCCCCCCCCCCCCCCCCC(=O)[O-]
REMARK SMILES IDX 12 1 11 2 10 3 9 4 8 5 7 6 6 7 5 8 4 9 3 10 2 11 1 12 13 13
REMARK SMILES IDX 14 14 15 15 16 16 17 17 18 18 19 19 20 20 21 21 22 22 23 23
REMARK SMILES IDX 24 24
REMARK H PARENT
REMARK Flexibility Score: inf
ROOT
ATOM      1  C   UNL     1     -54.349 121.749  -8.545  1.00  0.00     0.000 C 
ENDROOT
BRANCH   1   2
ATOM      2  C   UNL     1     -53.366 122.727  -9.207  1.00  0.00     0.000 C 
BRANCH   2   3
ATOM      3  C   UNL     1     -54.034 123.590 -10.292  1.00  0.00     0.000 C 
BRANCH   3   4
ATOM      4  C   UNL     1     -54.032 122.915 -11.674  1.00  0.00    -0.000 C 
BRANCH   4   5
ATOM      5  C   UNL     1     -52.624 122.488 -12.125  1.00  0.00    -0.000 C 
BRANCH   5   6
ATOM      6  C   UNL     1     -51.713 122.123 -10.942  1.00  0.00    -0.000 C 
BRANCH   6   7
ATOM      7  C   UNL     1     -50.422 121.418 -11.391  1.00  0.00    -0.000 C 
BRANCH   7   8
ATOM      8  C   UNL     1     -49.396 122.383 -12.013  1.00  0.00    -0.000 C 
BRANCH   8   9
ATOM      9  C   UNL     1     -48.875 123.479 -11.067  1.00  0.00    -0.000 C 
BRANCH   9  10
ATOM     10  C   UNL     1     -49.259 123.239  -9.600  1.00  0.00    -0.000 C 
BRANCH  10  11
ATOM     11  C   UNL     1     -49.006 124.491  -8.754  1.00  0.00    -0.003 C 
ATOM     12  C   UNL     1     -50.274 124.933  -8.027  1.00  0.00     0.004 C 
ENDBRANCH  10  11
ENDBRANCH   9  10
ENDBRANCH   8   9
ENDBRANCH   7   8
ENDBRANCH   6   7
ENDBRANCH   5   6
ENDBRANCH   4   5
ENDBRANCH   3   4
ENDBRANCH   2   3
ENDBRANCH   1   2
BRANCH   1  13
ATOM     13  C   UNL     1     -55.798 122.268  -8.556  1.00  0.00     0.000 C 
BRANCH  13  14
ATOM     14  C   UNL     1     -56.704 121.467  -9.503  1.00  0.00     0.000 C 
BRANCH  14  15
ATOM     15  C   UNL     1     -56.752 122.062 -10.921  1.00  0.00     0.000 C 
BRANCH  15  16
ATOM     16  C   UNL     1     -57.555 121.178 -11.899  1.00  0.00     0.000 C 
BRANCH  16  17
ATOM     17  C   UNL     1     -57.032 119.733 -12.000  1.00  0.00     0.000 C 
BRANCH  17  18
ATOM     18  C   UNL     1     -55.500 119.597 -12.001  1.00  0.00     0.000 C 
BRANCH  18  19
ATOM     19  C   UNL     1     -54.938 119.204 -10.627  1.00  0.00     0.000 C 
BRANCH  19  20
ATOM     20  C   UNL     1     -53.422 119.447 -10.564  1.00  0.00     0.006 C 
BRANCH  20  21
ATOM     21  C   UNL     1     -52.897 119.463  -9.123  1.00  0.00     0.053 C 
BRANCH  21  22
ATOM     22  C   UNL     1     -52.037 118.270  -8.832  1.00  0.00     0.041 C 
ATOM     23  O   UNL     1     -50.932 118.414  -8.246  1.00  0.00    -0.550 OA
ATOM     24  O   UNL     1     -52.473 116.996  -9.173  1.00  0.00    -0.550 OA
ENDBRANCH  21  22
ENDBRANCH  20  21
ENDBRANCH  19  20
ENDBRANCH  18  19
ENDBRANCH  17  18
ENDBRANCH  16  17
ENDBRANCH  15  16
ENDBRANCH  14  15
ENDBRANCH  13  14
ENDBRANCH   1  13
TORSDOF 20
ENDMDL
