MODEL 1
REMARK VINA RESULT:    -5.644      0.000      0.000
REMARK INTER + INTRA:          -6.952
REMARK INTER:                  -6.634
REMARK INTRA:                  -0.317
REMARK UNBOUND:                -0.317
REMARK SMILES O=c1cc(-c2ccc(O)c(O)c2)oc2cc(O)cc(O)c12
REMARK SMILES IDX 4 1 3 2 2 3 1 4 21 5 19 6 18 7 16 8 15 9 14 10 13 11 5 12
REMARK SMILES IDX 6 13 7 14 8 15 12 16 10 17 9 18 11 20 20 22 17 24
REMARK H PARENT 9 19 11 21 20 23 17 25
REMARK Flexibility Score: inf
ROOT
ATOM      1  C   UNL     1      26.514  -7.942   6.330  1.00  0.00     0.138 A 
ATOM      2  C   UNL     1      27.117  -8.945   5.555  1.00  0.00     0.100 A 
ATOM      3  C   UNL     1      26.705 -10.271   5.707  1.00  0.00     0.197 A 
ATOM      4  O   UNL     1      27.251 -11.164   5.005  1.00  0.00    -0.289 OA
ATOM      5  C   UNL     1      25.688 -10.581   6.632  1.00  0.00     0.107 A 
ATOM      6  C   UNL     1      25.213 -11.897   6.848  1.00  0.00     0.134 A 
ATOM      7  C   UNL     1      24.192 -12.121   7.784  1.00  0.00     0.093 A 
ATOM      8  C   UNL     1      23.639 -11.060   8.504  1.00  0.00     0.123 A 
ATOM      9  C   UNL     1      24.105  -9.758   8.295  1.00  0.00     0.094 A 
ATOM     10  C   UNL     1      25.122  -9.513   7.368  1.00  0.00     0.146 A 
ATOM     11  O   UNL     1      25.548  -8.267   7.187  1.00  0.00    -0.456 OA
ENDROOT
BRANCH   1  12
ATOM     12  C   UNL     1      26.910  -6.515   6.210  1.00  0.00     0.021 A 
ATOM     13  C   UNL     1      28.050  -6.123   5.483  1.00  0.00     0.016 A 
ATOM     14  C   UNL     1      28.406  -4.774   5.395  1.00  0.00     0.051 A 
ATOM     15  C   UNL     1      27.639  -3.797   6.036  1.00  0.00     0.157 A 
ATOM     16  C   UNL     1      26.151  -5.528   6.863  1.00  0.00     0.062 A 
ATOM     17  C   UNL     1      26.506  -4.174   6.774  1.00  0.00     0.158 A 
BRANCH  15  18
ATOM     18  O   UNL     1      28.019  -2.460   5.928  1.00  0.00    -0.504 OA
ATOM     19  H   UNL     1      28.967  -2.154   6.109  1.00  0.00     0.293 HD
ENDBRANCH  15  18
BRANCH  17  20
ATOM     20  O   UNL     1      25.738  -3.205   7.419  1.00  0.00    -0.504 OA
ATOM     21  H   UNL     1      25.733  -3.116   8.428  1.00  0.00     0.293 HD
ENDBRANCH  17  20
ENDBRANCH   1  12
BRANCH   6  22
ATOM     22  O   UNL     1      25.745 -12.976   6.142  1.00  0.00    -0.507 OA
ATOM     23  H   UNL     1      26.558 -13.482   6.476  1.00  0.00     0.293 HD
ENDBRANCH   6  22
BRANCH   8  24
ATOM     24  O   UNL     1      22.627 -11.312   9.428  1.00  0.00    -0.508 OA
ATOM     25  H   UNL     1      21.831 -11.894   9.196  1.00  0.00     0.293 HD
ENDBRANCH   8  24
TORSDOF 5
ENDMDL
MODEL 2
REMARK VINA RESULT:    -5.618      2.041      6.512
REMARK INTER + INTRA:          -6.920
REMARK INTER:                  -6.604
REMARK INTRA:                  -0.316
REMARK UNBOUND:                -0.317
REMARK SMILES O=c1cc(-c2ccc(O)c(O)c2)oc2cc(O)cc(O)c12
REMARK SMILES IDX 4 1 3 2 2 3 1 4 21 5 19 6 18 7 16 8 15 9 14 10 13 11 5 12
REMARK SMILES IDX 6 13 7 14 8 15 12 16 10 17 9 18 11 20 20 22 17 24
REMARK H PARENT 9 19 11 21 20 23 17 25
REMARK Flexibility Score: inf
ROOT
ATOM      1  C   UNL     1      25.987  -8.901   5.834  1.00  0.00     0.138 A 
ATOM      2  C   UNL     1      26.945  -7.962   5.420  1.00  0.00     0.100 A 
ATOM      3  C   UNL     1      26.765  -6.613   5.735  1.00  0.00     0.197 A 
ATOM      4  O   UNL     1      27.631  -5.778   5.361  1.00  0.00    -0.289 OA
ATOM      5  C   UNL     1      25.627  -6.216   6.466  1.00  0.00     0.107 A 
ATOM      6  C   UNL     1      25.368  -4.872   6.825  1.00  0.00     0.134 A 
ATOM      7  C   UNL     1      24.214  -4.559   7.559  1.00  0.00     0.093 A 
ATOM      8  C   UNL     1      23.319  -5.561   7.941  1.00  0.00     0.123 A 
ATOM      9  C   UNL     1      23.570  -6.891   7.588  1.00  0.00     0.094 A 
ATOM     10  C   UNL     1      24.713  -7.224   6.856  1.00  0.00     0.146 A 
ATOM     11  O   UNL     1      24.929  -8.495   6.532  1.00  0.00    -0.456 OA
ENDROOT
BRANCH   1  12
ATOM     12  C   UNL     1      26.128 -10.349   5.530  1.00  0.00     0.021 A 
ATOM     13  C   UNL     1      27.062 -10.819   4.588  1.00  0.00     0.016 A 
ATOM     14  C   UNL     1      27.165 -12.185   4.313  1.00  0.00     0.051 A 
ATOM     15  C   UNL     1      26.336 -13.103   4.964  1.00  0.00     0.157 A 
ATOM     16  C   UNL     1      25.288 -11.276   6.171  1.00  0.00     0.062 A 
ATOM     17  C   UNL     1      25.391 -12.648   5.897  1.00  0.00     0.158 A 
BRANCH  15  18
ATOM     18  O   UNL     1      26.464 -14.459   4.670  1.00  0.00    -0.504 OA
ATOM     19  H   UNL     1      25.998 -15.175   5.214  1.00  0.00     0.293 HD
ENDBRANCH  15  18
BRANCH  17  20
ATOM     20  O   UNL     1      24.559 -13.557   6.548  1.00  0.00    -0.504 OA
ATOM     21  H   UNL     1      24.109 -13.330   7.427  1.00  0.00     0.293 HD
ENDBRANCH  17  20
ENDBRANCH   1  12
BRANCH   6  22
ATOM     22  O   UNL     1      26.244  -3.850   6.459  1.00  0.00    -0.507 OA
ATOM     23  H   UNL     1      26.053  -3.241   5.672  1.00  0.00     0.293 HD
ENDBRANCH   6  22
BRANCH   8  24
ATOM     24  O   UNL     1      22.180  -5.223   8.669  1.00  0.00    -0.508 OA
ATOM     25  H   UNL     1      21.547  -5.931   9.022  1.00  0.00     0.293 HD
ENDBRANCH   8  24
TORSDOF 5
ENDMDL
MODEL 3
REMARK VINA RESULT:    -5.599      2.308      3.950
REMARK INTER + INTRA:          -6.898
REMARK INTER:                  -6.632
REMARK INTRA:                  -0.266
REMARK UNBOUND:                -0.317
REMARK SMILES O=c1cc(-c2ccc(O)c(O)c2)oc2cc(O)cc(O)c12
REMARK SMILES IDX 4 1 3 2 2 3 1 4 21 5 19 6 18 7 16 8 15 9 14 10 13 11 5 12
REMARK SMILES IDX 6 13 7 14 8 15 12 16 10 17 9 18 11 20 20 22 17 24
REMARK H PARENT 9 19 11 21 20 23 17 25
REMARK Flexibility Score: inf
ROOT
ATOM      1  C   UNL     1      25.328  -8.544   6.203  1.00  0.00     0.138 A 
ATOM      2  C   UNL     1      25.334  -9.648   7.070  1.00  0.00     0.100 A 
ATOM      3  C   UNL     1      25.641 -10.914   6.568  1.00  0.00     0.197 A 
ATOM      4  O   UNL     1      25.645 -11.899   7.355  1.00  0.00    -0.289 OA
ATOM      5  C   UNL     1      25.942 -11.065   5.200  1.00  0.00     0.107 A 
ATOM      6  C   UNL     1      26.261 -12.312   4.610  1.00  0.00     0.134 A 
ATOM      7  C   UNL     1      26.555 -12.377   3.240  1.00  0.00     0.093 A 
ATOM      8  C   UNL     1      26.537 -11.224   2.451  1.00  0.00     0.123 A 
ATOM      9  C   UNL     1      26.222  -9.990   3.029  1.00  0.00     0.094 A 
ATOM     10  C   UNL     1      25.925  -9.903   4.392  1.00  0.00     0.146 A 
ATOM     11  O   UNL     1      25.628  -8.719   4.917  1.00  0.00    -0.456 OA
ENDROOT
BRANCH   1  12
ATOM     12  C   UNL     1      25.013  -7.173   6.681  1.00  0.00     0.021 A 
ATOM     13  C   UNL     1      25.936  -6.117   6.561  1.00  0.00     0.016 A 
ATOM     14  C   UNL     1      25.617  -4.840   7.029  1.00  0.00     0.051 A 
ATOM     15  C   UNL     1      24.379  -4.595   7.631  1.00  0.00     0.157 A 
ATOM     16  C   UNL     1      23.775  -6.923   7.299  1.00  0.00     0.062 A 
ATOM     17  C   UNL     1      23.453  -5.641   7.768  1.00  0.00     0.158 A 
BRANCH  15  18
ATOM     18  O   UNL     1      24.089  -3.310   8.086  1.00  0.00    -0.504 OA
ATOM     19  H   UNL     1      24.683  -2.828   8.750  1.00  0.00     0.293 HD
ENDBRANCH  15  18
BRANCH  17  20
ATOM     20  O   UNL     1      22.218  -5.406   8.370  1.00  0.00    -0.504 OA
ATOM     21  H   UNL     1      22.136  -5.236   9.366  1.00  0.00     0.293 HD
ENDBRANCH  17  20
ENDBRANCH   1  12
BRANCH   6  22
ATOM     22  O   UNL     1      26.287 -13.479   5.373  1.00  0.00    -0.507 OA
ATOM     23  H   UNL     1      27.030 -13.665   6.038  1.00  0.00     0.293 HD
ENDBRANCH   6  22
BRANCH   8  24
ATOM     24  O   UNL     1      26.832 -11.317   1.093  1.00  0.00    -0.508 OA
ATOM     25  H   UNL     1      26.113 -11.220   0.386  1.00  0.00     0.293 HD
ENDBRANCH   8  24
TORSDOF 5
ENDMDL
MODEL 4
REMARK VINA RESULT:    -5.597      3.421      8.445
REMARK INTER + INTRA:          -6.896
REMARK INTER:                  -6.631
REMARK INTRA:                  -0.264
REMARK UNBOUND:                -0.317
REMARK SMILES O=c1cc(-c2ccc(O)c(O)c2)oc2cc(O)cc(O)c12
REMARK SMILES IDX 4 1 3 2 2 3 1 4 21 5 19 6 18 7 16 8 15 9 14 10 13 11 5 12
REMARK SMILES IDX 6 13 7 14 8 15 12 16 10 17 9 18 11 20 20 22 17 24
REMARK H PARENT 9 19 11 21 20 23 17 25
REMARK Flexibility Score: inf
ROOT
ATOM      1  C   UNL     1      24.365 -13.324   5.252  1.00  0.00     0.138 A 
ATOM      2  C   UNL     1      24.510 -12.985   3.898  1.00  0.00     0.100 A 
ATOM      3  C   UNL     1      25.176 -11.808   3.552  1.00  0.00     0.197 A 
ATOM      4  O   UNL     1      25.303 -11.513   2.333  1.00  0.00    -0.289 OA
ATOM      5  C   UNL     1      25.697 -10.980   4.566  1.00  0.00     0.107 A 
ATOM      6  C   UNL     1      26.384  -9.771   4.303  1.00  0.00     0.134 A 
ATOM      7  C   UNL     1      26.877  -9.006   5.370  1.00  0.00     0.093 A 
ATOM      8  C   UNL     1      26.699  -9.425   6.690  1.00  0.00     0.123 A 
ATOM      9  C   UNL     1      26.020 -10.619   6.956  1.00  0.00     0.094 A 
ATOM     10  C   UNL     1      25.520 -11.395   5.908  1.00  0.00     0.146 A 
ATOM     11  O   UNL     1      24.878 -12.526   6.186  1.00  0.00    -0.456 OA
ENDROOT
BRANCH   1  12
ATOM     12  C   UNL     1      23.668 -14.564   5.679  1.00  0.00     0.021 A 
ATOM     13  C   UNL     1      24.313 -15.816   5.672  1.00  0.00     0.016 A 
ATOM     14  C   UNL     1      23.630 -16.968   6.068  1.00  0.00     0.051 A 
ATOM     15  C   UNL     1      22.293 -16.896   6.471  1.00  0.00     0.157 A 
ATOM     16  C   UNL     1      22.320 -14.501   6.072  1.00  0.00     0.062 A 
ATOM     17  C   UNL     1      21.633 -15.657   6.472  1.00  0.00     0.158 A 
BRANCH  15  18
ATOM     18  O   UNL     1      21.639 -18.063   6.862  1.00  0.00    -0.504 OA
ATOM     19  H   UNL     1      20.656 -18.072   7.107  1.00  0.00     0.293 HD
ENDBRANCH  15  18
BRANCH  17  20
ATOM     20  O   UNL     1      20.299 -15.577   6.869  1.00  0.00    -0.504 OA
ATOM     21  H   UNL     1      19.558 -16.014   6.333  1.00  0.00     0.293 HD
ENDBRANCH  17  20
ENDBRANCH   1  12
BRANCH   6  22
ATOM     22  O   UNL     1      26.578  -9.328   2.995  1.00  0.00    -0.507 OA
ATOM     23  H   UNL     1      25.923  -9.550   2.253  1.00  0.00     0.293 HD
ENDBRANCH   6  22
BRANCH   8  24
ATOM     24  O   UNL     1      27.198  -8.646   7.731  1.00  0.00    -0.508 OA
ATOM     25  H   UNL     1      28.140  -8.273   7.709  1.00  0.00     0.293 HD
ENDBRANCH   8  24
TORSDOF 5
ENDMDL
MODEL 5
REMARK VINA RESULT:    -5.521      4.872      6.736
REMARK INTER + INTRA:          -6.806
REMARK INTER:                  -6.490
REMARK INTRA:                  -0.316
REMARK UNBOUND:                -0.317
REMARK SMILES O=c1cc(-c2ccc(O)c(O)c2)oc2cc(O)cc(O)c12
REMARK SMILES IDX 4 1 3 2 2 3 1 4 21 5 19 6 18 7 16 8 15 9 14 10 13 11 5 12
REMARK SMILES IDX 6 13 7 14 8 15 12 16 10 17 9 18 11 20 20 22 17 24
REMARK H PARENT 9 19 11 21 20 23 17 25
REMARK Flexibility Score: inf
ROOT
ATOM      1  C   UNL     1      25.684 -12.684   5.835  1.00  0.00     0.138 A 
ATOM      2  C   UNL     1      25.666 -11.714   6.849  1.00  0.00     0.100 A 
ATOM      3  C   UNL     1      24.584 -11.661   7.730  1.00  0.00     0.197 A 
ATOM      4  O   UNL     1      24.578 -10.787   8.638  1.00  0.00    -0.289 OA
ATOM      5  C   UNL     1      23.528 -12.584   7.591  1.00  0.00     0.107 A 
ATOM      6  C   UNL     1      22.395 -12.598   8.439  1.00  0.00     0.134 A 
ATOM      7  C   UNL     1      21.389 -13.555   8.237  1.00  0.00     0.093 A 
ATOM      8  C   UNL     1      21.494 -14.494   7.208  1.00  0.00     0.123 A 
ATOM      9  C   UNL     1      22.611 -14.483   6.367  1.00  0.00     0.094 A 
ATOM     10  C   UNL     1      23.624 -13.538   6.550  1.00  0.00     0.146 A 
ATOM     11  O   UNL     1      24.676 -13.549   5.736  1.00  0.00    -0.456 OA
ENDROOT
BRANCH   1  12
ATOM     12  C   UNL     1      26.809 -12.789   4.870  1.00  0.00     0.021 A 
ATOM     13  C   UNL     1      28.015 -12.089   5.062  1.00  0.00     0.016 A 
ATOM     14  C   UNL     1      29.053 -12.197   4.133  1.00  0.00     0.051 A 
ATOM     15  C   UNL     1      28.906 -12.997   2.997  1.00  0.00     0.157 A 
ATOM     16  C   UNL     1      26.663 -13.582   3.718  1.00  0.00     0.062 A 
ATOM     17  C   UNL     1      27.705 -13.693   2.786  1.00  0.00     0.158 A 
BRANCH  15  18
ATOM     18  O   UNL     1      29.960 -13.086   2.090  1.00  0.00    -0.504 OA
ATOM     19  H   UNL     1      30.677 -12.373   2.026  1.00  0.00     0.293 HD
ENDBRANCH  15  18
BRANCH  17  20
ATOM     20  O   UNL     1      27.549 -14.490   1.653  1.00  0.00    -0.504 OA
ATOM     21  H   UNL     1      28.344 -14.788   1.100  1.00  0.00     0.293 HD
ENDBRANCH  17  20
ENDBRANCH   1  12
BRANCH   6  22
ATOM     22  O   UNL     1      22.264 -11.674   9.475  1.00  0.00    -0.507 OA
ATOM     23  H   UNL     1      22.342 -11.949  10.448  1.00  0.00     0.293 HD
ENDBRANCH   6  22
BRANCH   8  24
ATOM     24  O   UNL     1      20.480 -15.432   7.030  1.00  0.00    -0.508 OA
ATOM     25  H   UNL     1      20.524 -16.127   6.294  1.00  0.00     0.293 HD
ENDBRANCH   8  24
TORSDOF 5
ENDMDL
MODEL 6
REMARK VINA RESULT:    -5.485      4.425      8.426
REMARK INTER + INTRA:          -6.764
REMARK INTER:                  -6.449
REMARK INTRA:                  -0.315
REMARK UNBOUND:                -0.317
REMARK SMILES O=c1cc(-c2ccc(O)c(O)c2)oc2cc(O)cc(O)c12
REMARK SMILES IDX 4 1 3 2 2 3 1 4 21 5 19 6 18 7 16 8 15 9 14 10 13 11 5 12
REMARK SMILES IDX 6 13 7 14 8 15 12 16 10 17 9 18 11 20 20 22 17 24
REMARK H PARENT 9 19 11 21 20 23 17 25
REMARK Flexibility Score: inf
ROOT
ATOM      1  C   UNL     1      24.358 -11.791   2.620  1.00  0.00     0.138 A 
ATOM      2  C   UNL     1      24.713 -10.923   1.575  1.00  0.00     0.100 A 
ATOM      3  C   UNL     1      25.539  -9.830   1.842  1.00  0.00     0.197 A 
ATOM      4  O   UNL     1      25.854  -9.057   0.897  1.00  0.00    -0.289 OA
ATOM      5  C   UNL     1      26.008  -9.615   3.153  1.00  0.00     0.107 A 
ATOM      6  C   UNL     1      26.847  -8.532   3.509  1.00  0.00     0.134 A 
ATOM      7  C   UNL     1      27.275  -8.392   4.837  1.00  0.00     0.093 A 
ATOM      8  C   UNL     1      26.882  -9.311   5.813  1.00  0.00     0.123 A 
ATOM      9  C   UNL     1      26.053 -10.383   5.467  1.00  0.00     0.094 A 
ATOM     10  C   UNL     1      25.614 -10.540   4.150  1.00  0.00     0.146 A 
ATOM     11  O   UNL     1      24.826 -11.566   3.846  1.00  0.00    -0.456 OA
ENDROOT
BRANCH   1  12
ATOM     12  C   UNL     1      23.484 -12.971   2.396  1.00  0.00     0.021 A 
ATOM     13  C   UNL     1      22.675 -13.084   1.249  1.00  0.00     0.016 A 
ATOM     14  C   UNL     1      21.854 -14.200   1.068  1.00  0.00     0.051 A 
ATOM     15  C   UNL     1      21.818 -15.216   2.028  1.00  0.00     0.157 A 
ATOM     16  C   UNL     1      23.433 -13.990   3.363  1.00  0.00     0.062 A 
ATOM     17  C   UNL     1      22.611 -15.111   3.182  1.00  0.00     0.158 A 
BRANCH  15  18
ATOM     18  O   UNL     1      20.990 -16.317   1.818  1.00  0.00    -0.504 OA
ATOM     19  H   UNL     1      20.101 -16.239   1.340  1.00  0.00     0.293 HD
ENDBRANCH  15  18
BRANCH  17  20
ATOM     20  O   UNL     1      22.578 -16.118   4.145  1.00  0.00    -0.504 OA
ATOM     21  H   UNL     1      21.703 -16.466   4.522  1.00  0.00     0.293 HD
ENDBRANCH  17  20
ENDBRANCH   1  12
BRANCH   6  22
ATOM     22  O   UNL     1      27.256  -7.600   2.556  1.00  0.00    -0.507 OA
ATOM     23  H   UNL     1      27.771  -6.765   2.813  1.00  0.00     0.293 HD
ENDBRANCH   6  22
BRANCH   8  24
ATOM     24  O   UNL     1      27.321  -9.148   7.125  1.00  0.00    -0.508 OA
ATOM     25  H   UNL     1      26.726  -8.742   7.837  1.00  0.00     0.293 HD
ENDBRANCH   8  24
TORSDOF 5
ENDMDL
MODEL 7
REMARK VINA RESULT:    -5.452      4.549      7.245
REMARK INTER + INTRA:          -6.725
REMARK INTER:                  -6.461
REMARK INTRA:                  -0.264
REMARK UNBOUND:                -0.317
REMARK SMILES O=c1cc(-c2ccc(O)c(O)c2)oc2cc(O)cc(O)c12
REMARK SMILES IDX 4 1 3 2 2 3 1 4 21 5 19 6 18 7 16 8 15 9 14 10 13 11 5 12
REMARK SMILES IDX 6 13 7 14 8 15 12 16 10 17 9 18 11 20 20 22 17 24
REMARK H PARENT 9 19 11 21 20 23 17 25
REMARK Flexibility Score: inf
ROOT
ATOM      1  C   UNL     1      25.931  -2.092   9.700  1.00  0.00     0.138 A 
ATOM      2  C   UNL     1      24.632  -2.149  10.231  1.00  0.00     0.100 A 
ATOM      3  C   UNL     1      23.724  -3.081   9.726  1.00  0.00     0.197 A 
ATOM      4  O   UNL     1      22.561  -3.125  10.210  1.00  0.00    -0.289 OA
ATOM      5  C   UNL     1      24.124  -3.954   8.695  1.00  0.00     0.107 A 
ATOM      6  C   UNL     1      23.267  -4.926   8.126  1.00  0.00     0.134 A 
ATOM      7  C   UNL     1      23.745  -5.762   7.106  1.00  0.00     0.093 A 
ATOM      8  C   UNL     1      25.058  -5.645   6.645  1.00  0.00     0.123 A 
ATOM      9  C   UNL     1      25.909  -4.685   7.203  1.00  0.00     0.094 A 
ATOM     10  C   UNL     1      25.453  -3.842   8.220  1.00  0.00     0.146 A 
ATOM     11  O   UNL     1      26.281  -2.938   8.734  1.00  0.00    -0.456 OA
ENDROOT
BRANCH   1  12
ATOM     12  C   UNL     1      26.940  -1.123  10.199  1.00  0.00     0.021 A 
ATOM     13  C   UNL     1      27.080   0.157   9.629  1.00  0.00     0.016 A 
ATOM     14  C   UNL     1      28.046   1.045  10.111  1.00  0.00     0.051 A 
ATOM     15  C   UNL     1      28.890   0.673  11.161  1.00  0.00     0.157 A 
ATOM     16  C   UNL     1      27.800  -1.496  11.246  1.00  0.00     0.062 A 
ATOM     17  C   UNL     1      28.768  -0.605  11.732  1.00  0.00     0.158 A 
BRANCH  15  18
ATOM     18  O   UNL     1      29.841   1.581  11.621  1.00  0.00    -0.504 OA
ATOM     19  H   UNL     1      30.814   1.528  11.344  1.00  0.00     0.293 HD
ENDBRANCH  15  18
BRANCH  17  20
ATOM     20  O   UNL     1      29.609  -0.985  12.777  1.00  0.00    -0.504 OA
ATOM     21  H   UNL     1      30.434  -0.448  13.018  1.00  0.00     0.293 HD
ENDBRANCH  17  20
ENDBRANCH   1  12
BRANCH   6  22
ATOM     22  O   UNL     1      21.951  -5.067   8.567  1.00  0.00    -0.507 OA
ATOM     23  H   UNL     1      21.164  -4.796   7.988  1.00  0.00     0.293 HD
ENDBRANCH   6  22
BRANCH   8  24
ATOM     24  O   UNL     1      25.507  -6.487   5.630  1.00  0.00    -0.508 OA
ATOM     25  H   UNL     1      25.142  -6.421   4.687  1.00  0.00     0.293 HD
ENDBRANCH   8  24
TORSDOF 5
ENDMDL
MODEL 8
REMARK VINA RESULT:    -5.420      3.477      6.387
REMARK INTER + INTRA:          -6.688
REMARK INTER:                  -6.370
REMARK INTRA:                  -0.318
REMARK UNBOUND:                -0.317
REMARK SMILES O=c1cc(-c2ccc(O)c(O)c2)oc2cc(O)cc(O)c12
REMARK SMILES IDX 4 1 3 2 2 3 1 4 21 5 19 6 18 7 16 8 15 9 14 10 13 11 5 12
REMARK SMILES IDX 6 13 7 14 8 15 12 16 10 17 9 18 11 20 20 22 17 24
REMARK H PARENT 9 19 11 21 20 23 17 25
REMARK Flexibility Score: inf
ROOT
ATOM      1  C   UNL     1      24.139 -12.915   6.866  1.00  0.00     0.138 A 
ATOM      2  C   UNL     1      23.004 -13.248   7.623  1.00  0.00     0.100 A 
ATOM      3  C   UNL     1      22.351 -14.459   7.384  1.00  0.00     0.197 A 
ATOM      4  O   UNL     1      21.334 -14.750   8.070  1.00  0.00    -0.289 OA
ATOM      5  C   UNL     1      22.842 -15.330   6.391  1.00  0.00     0.107 A 
ATOM      6  C   UNL     1      22.240 -16.574   6.085  1.00  0.00     0.134 A 
ATOM      7  C   UNL     1      22.795 -17.386   5.085  1.00  0.00     0.093 A 
ATOM      8  C   UNL     1      23.936 -16.981   4.388  1.00  0.00     0.123 A 
ATOM      9  C   UNL     1      24.534 -15.752   4.687  1.00  0.00     0.094 A 
ATOM     10  C   UNL     1      23.997 -14.927   5.678  1.00  0.00     0.146 A 
ATOM     11  O   UNL     1      24.584 -13.764   5.943  1.00  0.00    -0.456 OA
ENDROOT
BRANCH   1  12
ATOM     12  C   UNL     1      24.875 -11.642   7.078  1.00  0.00     0.021 A 
ATOM     13  C   UNL     1      24.429 -10.674   7.997  1.00  0.00     0.016 A 
ATOM     14  C   UNL     1      25.134  -9.480   8.168  1.00  0.00     0.051 A 
ATOM     15  C   UNL     1      26.289  -9.227   7.422  1.00  0.00     0.157 A 
ATOM     16  C   UNL     1      26.029 -11.375   6.321  1.00  0.00     0.062 A 
ATOM     17  C   UNL     1      26.740 -10.178   6.493  1.00  0.00     0.158 A 
BRANCH  15  18
ATOM     18  O   UNL     1      26.972  -8.028   7.616  1.00  0.00    -0.504 OA
ATOM     19  H   UNL     1      27.280  -7.452   6.842  1.00  0.00     0.293 HD
ENDBRANCH  15  18
BRANCH  17  20
ATOM     20  O   UNL     1      27.889  -9.932   5.743  1.00  0.00    -0.504 OA
ATOM     21  H   UNL     1      27.923 -10.115   4.747  1.00  0.00     0.293 HD
ENDBRANCH  17  20
ENDBRANCH   1  12
BRANCH   6  22
ATOM     22  O   UNL     1      21.101 -17.005   6.765  1.00  0.00    -0.507 OA
ATOM     23  H   UNL     1      21.086 -17.880   7.277  1.00  0.00     0.293 HD
ENDBRANCH   6  22
BRANCH   8  24
ATOM     24  O   UNL     1      24.465 -17.807   3.400  1.00  0.00    -0.508 OA
ATOM     25  H   UNL     1      24.633 -18.792   3.566  1.00  0.00     0.293 HD
ENDBRANCH   8  24
TORSDOF 5
ENDMDL
MODEL 9
REMARK VINA RESULT:    -5.345      3.600      8.840
REMARK INTER + INTRA:          -6.600
REMARK INTER:                  -6.282
REMARK INTRA:                  -0.318
REMARK UNBOUND:                -0.317
REMARK SMILES O=c1cc(-c2ccc(O)c(O)c2)oc2cc(O)cc(O)c12
REMARK SMILES IDX 4 1 3 2 2 3 1 4 21 5 19 6 18 7 16 8 15 9 14 10 13 11 5 12
REMARK SMILES IDX 6 13 7 14 8 15 12 16 10 17 9 18 11 20 20 22 17 24
REMARK H PARENT 9 19 11 21 20 23 17 25
REMARK Flexibility Score: inf
ROOT
ATOM      1  C   UNL     1      25.061  -3.498   8.068  1.00  0.00     0.138 A 
ATOM      2  C   UNL     1      24.108  -3.165   9.043  1.00  0.00     0.100 A 
ATOM      3  C   UNL     1      24.210  -1.947   9.716  1.00  0.00     0.197 A 
ATOM      4  O   UNL     1      23.347  -1.657  10.589  1.00  0.00    -0.289 OA
ATOM      5  C   UNL     1      25.266  -1.067   9.406  1.00  0.00     0.107 A 
ATOM      6  C   UNL     1      25.444   0.184  10.042  1.00  0.00     0.134 A 
ATOM      7  C   UNL     1      26.520   1.005   9.671  1.00  0.00     0.093 A 
ATOM      8  C   UNL     1      27.417   0.600   8.680  1.00  0.00     0.123 A 
ATOM      9  C   UNL     1      27.246  -0.636   8.049  1.00  0.00     0.094 A 
ATOM     10  C   UNL     1      26.182  -1.469   8.404  1.00  0.00     0.146 A 
ATOM     11  O   UNL     1      26.041  -2.640   7.790  1.00  0.00    -0.456 OA
ENDROOT
BRANCH   1  12
ATOM     12  C   UNL     1      25.002  -4.779   7.318  1.00  0.00     0.021 A 
ATOM     13  C   UNL     1      23.926  -5.674   7.468  1.00  0.00     0.016 A 
ATOM     14  C   UNL     1      23.901  -6.878   6.759  1.00  0.00     0.051 A 
ATOM     15  C   UNL     1      24.947  -7.213   5.895  1.00  0.00     0.157 A 
ATOM     16  C   UNL     1      26.057  -5.128   6.457  1.00  0.00     0.062 A 
ATOM     17  C   UNL     1      26.033  -6.335   5.743  1.00  0.00     0.158 A 
BRANCH  15  18
ATOM     18  O   UNL     1      24.892  -8.419   5.200  1.00  0.00    -0.504 OA
ATOM     19  H   UNL     1      24.040  -8.963   5.132  1.00  0.00     0.293 HD
ENDBRANCH  15  18
BRANCH  17  20
ATOM     20  O   UNL     1      27.082  -6.663   4.886  1.00  0.00    -0.504 OA
ATOM     21  H   UNL     1      27.997  -6.918   5.240  1.00  0.00     0.293 HD
ENDBRANCH  17  20
ENDBRANCH   1  12
BRANCH   6  22
ATOM     22  O   UNL     1      24.563   0.616  11.034  1.00  0.00    -0.507 OA
ATOM     23  H   UNL     1      24.244   1.577  11.081  1.00  0.00     0.293 HD
ENDBRANCH   6  22
BRANCH   8  24
ATOM     24  O   UNL     1      28.477   1.435   8.331  1.00  0.00    -0.508 OA
ATOM     25  H   UNL     1      29.247   1.103   7.763  1.00  0.00     0.293 HD
ENDBRANCH   8  24
TORSDOF 5
ENDMDL
