MODEL 1
REMARK VINA RESULT:    -6.385      0.000      0.000
REMARK INTER + INTRA:          -8.023
REMARK INTER:                  -7.691
REMARK INTRA:                  -0.331
REMARK UNBOUND:                -0.331
REMARK SMILES Oc1cc(O)c2cc(O)c(-c3ccc(O)c(O)c3)[o+]c2c1
REMARK SMILES IDX 10 1 19 2 20 3 21 4 2 5 3 6 4 7 6 8 7 9 8 10 11 11 12 12
REMARK SMILES IDX 13 13 14 14 18 15 16 16 15 17 17 19 9 21 1 23 5 25
REMARK H PARENT 15 18 17 20 9 22 1 24 5 26
REMARK Flexibility Score: inf
ROOT
ATOM      1  C   UNL     1     479.588  37.648 459.442  1.00  0.00     0.402 A 
ATOM      2  O   UNL     1     479.365  36.451 459.978  1.00  0.00    -0.202 OA
ATOM      3  C   UNL     1     478.388  36.210 460.845  1.00  0.00     0.368 A 
ATOM      4  C   UNL     1     478.236  34.918 461.356  1.00  0.00     0.162 A 
ATOM      5  C   UNL     1     477.219  34.637 462.273  1.00  0.00     0.128 A 
ATOM      6  C   UNL     1     476.351  35.653 462.682  1.00  0.00     0.093 A 
ATOM      7  C   UNL     1     476.483  36.956 462.185  1.00  0.00     0.136 A 
ATOM      8  C   UNL     1     477.512  37.245 461.252  1.00  0.00     0.125 A 
ATOM      9  C   UNL     1     477.711  38.518 460.691  1.00  0.00     0.078 A 
ATOM     10  C   UNL     1     478.744  38.726 459.774  1.00  0.00     0.223 A 
ENDROOT
BRANCH   1  11
ATOM     11  C   UNL     1     480.715  37.793 458.492  1.00  0.00     0.087 A 
ATOM     12  C   UNL     1     480.575  37.458 457.134  1.00  0.00     0.022 A 
ATOM     13  C   UNL     1     481.646  37.625 456.251  1.00  0.00     0.051 A 
ATOM     14  C   UNL     1     482.865  38.141 456.710  1.00  0.00     0.157 A 
ATOM     15  C   UNL     1     481.933  38.328 458.942  1.00  0.00     0.068 A 
ATOM     16  C   UNL     1     483.008  38.496 458.057  1.00  0.00     0.158 A 
BRANCH  14  17
ATOM     17  O   UNL     1     483.936  38.307 455.834  1.00  0.00    -0.504 OA
ATOM     18  H   UNL     1     484.894  38.328 456.165  1.00  0.00     0.293 HD
ENDBRANCH  14  17
BRANCH  16  19
ATOM     19  O   UNL     1     484.219  39.016 458.509  1.00  0.00    -0.504 OA
ATOM     20  H   UNL     1     484.517  39.955 458.268  1.00  0.00     0.293 HD
ENDBRANCH  16  19
ENDBRANCH   1  11
BRANCH  10  21
ATOM     21  O   UNL     1     478.911  39.976 459.178  1.00  0.00    -0.500 OA
ATOM     22  H   UNL     1     478.134  40.474 458.758  1.00  0.00     0.294 HD
ENDBRANCH  10  21
BRANCH   5  23
ATOM     23  O   UNL     1     477.061  33.352 462.786  1.00  0.00    -0.507 OA
ATOM     24  H   UNL     1     476.157  33.008 463.086  1.00  0.00     0.293 HD
ENDBRANCH   5  23
BRANCH   7  25
ATOM     25  O   UNL     1     475.577  37.915 462.645  1.00  0.00    -0.507 OA
ATOM     26  H   UNL     1     475.739  38.911 462.622  1.00  0.00     0.293 HD
ENDBRANCH   7  25
TORSDOF 6
ENDMDL
MODEL 2
REMARK VINA RESULT:    -5.801      1.539      7.063
REMARK INTER + INTRA:          -7.319
REMARK INTER:                  -7.043
REMARK INTRA:                  -0.276
REMARK UNBOUND:                -0.331
REMARK SMILES Oc1cc(O)c2cc(O)c(-c3ccc(O)c(O)c3)[o+]c2c1
REMARK SMILES IDX 10 1 19 2 20 3 21 4 2 5 3 6 4 7 6 8 7 9 8 10 11 11 12 12
REMARK SMILES IDX 13 13 14 14 18 15 16 16 15 17 17 19 9 21 1 23 5 25
REMARK H PARENT 15 18 17 20 9 22 1 24 5 26
REMARK Flexibility Score: inf
ROOT
ATOM      1  C   UNL     1     480.186  38.184 459.459  1.00  0.00     0.402 A 
ATOM      2  O   UNL     1     481.406  38.240 459.987  1.00  0.00    -0.202 OA
ATOM      3  C   UNL     1     482.480  38.621 459.303  1.00  0.00     0.368 A 
ATOM      4  C   UNL     1     483.721  38.645 459.945  1.00  0.00     0.162 A 
ATOM      5  C   UNL     1     484.868  39.038 459.248  1.00  0.00     0.128 A 
ATOM      6  C   UNL     1     484.773  39.406 457.905  1.00  0.00     0.093 A 
ATOM      7  C   UNL     1     483.541  39.391 457.238  1.00  0.00     0.136 A 
ATOM      8  C   UNL     1     482.374  38.995 457.942  1.00  0.00     0.125 A 
ATOM      9  C   UNL     1     481.095  38.962 457.360  1.00  0.00     0.078 A 
ATOM     10  C   UNL     1     479.991  38.565 458.118  1.00  0.00     0.223 A 
ENDROOT
BRANCH   1  11
ATOM     11  C   UNL     1     479.069  37.735 460.322  1.00  0.00     0.087 A 
ATOM     12  C   UNL     1     478.114  38.642 460.813  1.00  0.00     0.022 A 
ATOM     13  C   UNL     1     477.054  38.192 461.606  1.00  0.00     0.051 A 
ATOM     14  C   UNL     1     476.928  36.830 461.908  1.00  0.00     0.157 A 
ATOM     15  C   UNL     1     478.925  36.368 460.611  1.00  0.00     0.068 A 
ATOM     16  C   UNL     1     477.863  35.916 461.407  1.00  0.00     0.158 A 
BRANCH  14  17
ATOM     17  O   UNL     1     475.875  36.377 462.700  1.00  0.00    -0.504 OA
ATOM     18  H   UNL     1     475.195  37.017 463.095  1.00  0.00     0.293 HD
ENDBRANCH  14  17
BRANCH  16  19
ATOM     19  O   UNL     1     477.731  34.560 461.703  1.00  0.00    -0.504 OA
ATOM     20  H   UNL     1     478.383  34.085 462.316  1.00  0.00     0.293 HD
ENDBRANCH  16  19
ENDBRANCH   1  11
BRANCH  10  21
ATOM     21  O   UNL     1     478.714  38.580 457.556  1.00  0.00    -0.500 OA
ATOM     22  H   UNL     1     478.387  37.830 456.957  1.00  0.00     0.294 HD
ENDBRANCH  10  21
BRANCH   5  23
ATOM     23  O   UNL     1     486.108  39.064 459.882  1.00  0.00    -0.507 OA
ATOM     24  H   UNL     1     486.543  38.218 460.230  1.00  0.00     0.293 HD
ENDBRANCH   5  23
BRANCH   7  25
ATOM     25  O   UNL     1     483.531  39.771 455.894  1.00  0.00    -0.507 OA
ATOM     26  H   UNL     1     483.543  39.126 455.117  1.00  0.00     0.293 HD
ENDBRANCH   7  25
TORSDOF 6
ENDMDL
MODEL 3
REMARK VINA RESULT:    -5.764      1.526      6.984
REMARK INTER + INTRA:          -7.275
REMARK INTER:                  -7.104
REMARK INTRA:                  -0.172
REMARK UNBOUND:                -0.331
REMARK SMILES Oc1cc(O)c2cc(O)c(-c3ccc(O)c(O)c3)[o+]c2c1
REMARK SMILES IDX 10 1 19 2 20 3 21 4 2 5 3 6 4 7 6 8 7 9 8 10 11 11 12 12
REMARK SMILES IDX 13 13 14 14 18 15 16 16 15 17 17 19 9 21 1 23 5 25
REMARK H PARENT 15 18 17 20 9 22 1 24 5 26
REMARK Flexibility Score: inf
ROOT
ATOM      1  C   UNL     1     479.979  38.013 459.320  1.00  0.00     0.402 A 
ATOM      2  O   UNL     1     481.271  37.943 459.627  1.00  0.00    -0.202 OA
ATOM      3  C   UNL     1     482.223  38.544 458.921  1.00  0.00     0.368 A 
ATOM      4  C   UNL     1     483.555  38.409 459.322  1.00  0.00     0.162 A 
ATOM      5  C   UNL     1     484.577  39.026 458.595  1.00  0.00     0.128 A 
ATOM      6  C   UNL     1     484.265  39.780 457.462  1.00  0.00     0.093 A 
ATOM      7  C   UNL     1     482.939  39.931 457.039  1.00  0.00     0.136 A 
ATOM      8  C   UNL     1     481.898  39.308 457.775  1.00  0.00     0.125 A 
ATOM      9  C   UNL     1     480.539  39.415 457.433  1.00  0.00     0.078 A 
ATOM     10  C   UNL     1     479.569  38.776 458.210  1.00  0.00     0.223 A 
ENDROOT
BRANCH   1  11
ATOM     11  C   UNL     1     479.013  37.292 460.181  1.00  0.00     0.087 A 
ATOM     12  C   UNL     1     479.050  35.893 460.309  1.00  0.00     0.022 A 
ATOM     13  C   UNL     1     478.144  35.236 461.147  1.00  0.00     0.051 A 
ATOM     14  C   UNL     1     477.199  35.968 461.878  1.00  0.00     0.157 A 
ATOM     15  C   UNL     1     478.077  38.022 460.932  1.00  0.00     0.068 A 
ATOM     16  C   UNL     1     477.168  37.365 461.772  1.00  0.00     0.158 A 
BRANCH  14  17
ATOM     17  O   UNL     1     476.293  35.318 462.712  1.00  0.00    -0.504 OA
ATOM     18  H   UNL     1     476.249  35.518 463.706  1.00  0.00     0.293 HD
ENDBRANCH  14  17
BRANCH  16  19
ATOM     19  O   UNL     1     476.232  38.091 462.506  1.00  0.00    -0.504 OA
ATOM     20  H   UNL     1     476.508  38.867 463.097  1.00  0.00     0.293 HD
ENDBRANCH  16  19
ENDBRANCH   1  11
BRANCH  10  21
ATOM     21  O   UNL     1     478.216  38.923 457.901  1.00  0.00    -0.500 OA
ATOM     22  H   UNL     1     477.907  39.491 457.121  1.00  0.00     0.294 HD
ENDBRANCH  10  21
BRANCH   5  23
ATOM     23  O   UNL     1     485.906  38.896 458.989  1.00  0.00    -0.507 OA
ATOM     24  H   UNL     1     486.470  38.107 458.698  1.00  0.00     0.293 HD
ENDBRANCH   5  23
BRANCH   7  25
ATOM     25  O   UNL     1     482.711  40.699 455.894  1.00  0.00    -0.507 OA
ATOM     26  H   UNL     1     482.085  40.439 455.146  1.00  0.00     0.293 HD
ENDBRANCH   7  25
TORSDOF 6
ENDMDL
MODEL 4
REMARK VINA RESULT:    -5.385      1.466      6.943
REMARK INTER + INTRA:          -6.818
REMARK INTER:                  -6.515
REMARK INTRA:                  -0.303
REMARK UNBOUND:                -0.331
REMARK SMILES Oc1cc(O)c2cc(O)c(-c3ccc(O)c(O)c3)[o+]c2c1
REMARK SMILES IDX 10 1 19 2 20 3 21 4 2 5 3 6 4 7 6 8 7 9 8 10 11 11 12 12
REMARK SMILES IDX 13 13 14 14 18 15 16 16 15 17 17 19 9 21 1 23 5 25
REMARK H PARENT 15 18 17 20 9 22 1 24 5 26
REMARK Flexibility Score: inf
ROOT
ATOM      1  C   UNL     1     479.341  37.610 460.487  1.00  0.00     0.402 A 
ATOM      2  O   UNL     1     479.412  37.327 459.189  1.00  0.00    -0.202 OA
ATOM      3  C   UNL     1     480.313  37.865 458.374  1.00  0.00     0.368 A 
ATOM      4  C   UNL     1     480.307  37.506 457.022  1.00  0.00     0.162 A 
ATOM      5  C   UNL     1     481.241  38.060 456.142  1.00  0.00     0.128 A 
ATOM      6  C   UNL     1     482.184  38.975 456.613  1.00  0.00     0.093 A 
ATOM      7  C   UNL     1     482.212  39.350 457.963  1.00  0.00     0.136 A 
ATOM      8  C   UNL     1     481.267  38.790 458.861  1.00  0.00     0.125 A 
ATOM      9  C   UNL     1     481.228  39.097 460.232  1.00  0.00     0.078 A 
ATOM     10  C   UNL     1     480.270  38.501 461.057  1.00  0.00     0.223 A 
ENDROOT
BRANCH   1  11
ATOM     11  C   UNL     1     478.285  36.952 461.291  1.00  0.00     0.087 A 
ATOM     12  C   UNL     1     477.154  37.660 461.734  1.00  0.00     0.022 A 
ATOM     13  C   UNL     1     476.158  37.012 462.471  1.00  0.00     0.051 A 
ATOM     14  C   UNL     1     476.272  35.647 462.763  1.00  0.00     0.157 A 
ATOM     15  C   UNL     1     478.383  35.579 461.570  1.00  0.00     0.068 A 
ATOM     16  C   UNL     1     477.386  34.928 462.309  1.00  0.00     0.158 A 
BRANCH  14  17
ATOM     17  O   UNL     1     475.283  34.997 463.499  1.00  0.00    -0.504 OA
ATOM     18  H   UNL     1     474.298  35.155 463.318  1.00  0.00     0.293 HD
ENDBRANCH  14  17
BRANCH  16  19
ATOM     19  O   UNL     1     477.493  33.568 462.595  1.00  0.00    -0.504 OA
ATOM     20  H   UNL     1     477.890  32.916 461.928  1.00  0.00     0.293 HD
ENDBRANCH  16  19
ENDBRANCH   1  11
BRANCH  10  21
ATOM     21  O   UNL     1     480.263  38.766 462.426  1.00  0.00    -0.500 OA
ATOM     22  H   UNL     1     480.638  39.629 462.803  1.00  0.00     0.294 HD
ENDBRANCH  10  21
BRANCH   5  23
ATOM     23  O   UNL     1     481.240  37.707 454.795  1.00  0.00    -0.507 OA
ATOM     24  H   UNL     1     480.855  38.321 454.086  1.00  0.00     0.293 HD
ENDBRANCH   5  23
BRANCH   7  25
ATOM     25  O   UNL     1     483.185  40.273 458.355  1.00  0.00    -0.507 OA
ATOM     26  H   UNL     1     484.070  40.027 458.773  1.00  0.00     0.293 HD
ENDBRANCH   7  25
TORSDOF 6
ENDMDL
MODEL 5
REMARK VINA RESULT:    -5.364      1.172      2.821
REMARK INTER + INTRA:          -6.793
REMARK INTER:                  -6.498
REMARK INTRA:                  -0.294
REMARK UNBOUND:                -0.331
REMARK SMILES Oc1cc(O)c2cc(O)c(-c3ccc(O)c(O)c3)[o+]c2c1
REMARK SMILES IDX 10 1 19 2 20 3 21 4 2 5 3 6 4 7 6 8 7 9 8 10 11 11 12 12
REMARK SMILES IDX 13 13 14 14 18 15 16 16 15 17 17 19 9 21 1 23 5 25
REMARK H PARENT 15 18 17 20 9 22 1 24 5 26
REMARK Flexibility Score: inf
ROOT
ATOM      1  C   UNL     1     479.625  37.474 459.521  1.00  0.00     0.402 A 
ATOM      2  O   UNL     1     478.969  38.547 459.957  1.00  0.00    -0.202 OA
ATOM      3  C   UNL     1     477.956  38.485 460.815  1.00  0.00     0.368 A 
ATOM      4  C   UNL     1     477.328  39.669 461.212  1.00  0.00     0.162 A 
ATOM      5  C   UNL     1     476.258  39.633 462.110  1.00  0.00     0.128 A 
ATOM      6  C   UNL     1     475.813  38.408 462.612  1.00  0.00     0.093 A 
ATOM      7  C   UNL     1     476.425  37.207 462.230  1.00  0.00     0.136 A 
ATOM      8  C   UNL     1     477.514  37.239 461.320  1.00  0.00     0.125 A 
ATOM      9  C   UNL     1     478.196  36.088 460.892  1.00  0.00     0.078 A 
ATOM     10  C   UNL     1     479.264  36.199 459.996  1.00  0.00     0.223 A 
ENDROOT
BRANCH   1  11
ATOM     11  C   UNL     1     480.732  37.673 458.558  1.00  0.00     0.087 A 
ATOM     12  C   UNL     1     480.598  37.315 457.206  1.00  0.00     0.022 A 
ATOM     13  C   UNL     1     481.649  37.533 456.309  1.00  0.00     0.051 A 
ATOM     14  C   UNL     1     482.840  38.125 456.749  1.00  0.00     0.157 A 
ATOM     15  C   UNL     1     481.921  38.284 458.989  1.00  0.00     0.068 A 
ATOM     16  C   UNL     1     482.975  38.504 458.091  1.00  0.00     0.158 A 
BRANCH  14  17
ATOM     17  O   UNL     1     483.891  38.343 455.860  1.00  0.00    -0.504 OA
ATOM     18  H   UNL     1     483.758  38.280 454.857  1.00  0.00     0.293 HD
ENDBRANCH  14  17
BRANCH  16  19
ATOM     19  O   UNL     1     484.159  39.099 458.524  1.00  0.00    -0.504 OA
ATOM     20  H   UNL     1     485.056  38.851 458.121  1.00  0.00     0.293 HD
ENDBRANCH  16  19
ENDBRANCH   1  11
BRANCH  10  21
ATOM     21  O   UNL     1     479.974  35.063 459.609  1.00  0.00    -0.500 OA
ATOM     22  H   UNL     1     480.118  34.284 460.242  1.00  0.00     0.294 HD
ENDBRANCH  10  21
BRANCH   5  23
ATOM     23  O   UNL     1     475.627  40.808 462.510  1.00  0.00    -0.507 OA
ATOM     24  H   UNL     1     475.615  41.099 463.481  1.00  0.00     0.293 HD
ENDBRANCH   5  23
BRANCH   7  25
ATOM     25  O   UNL     1     475.919  36.024 462.775  1.00  0.00    -0.507 OA
ATOM     26  H   UNL     1     475.702  35.195 462.240  1.00  0.00     0.293 HD
ENDBRANCH   7  25
TORSDOF 6
ENDMDL
MODEL 6
REMARK VINA RESULT:    -5.211      2.641      7.302
REMARK INTER + INTRA:          -6.609
REMARK INTER:                  -6.289
REMARK INTRA:                  -0.319
REMARK UNBOUND:                -0.331
REMARK SMILES Oc1cc(O)c2cc(O)c(-c3ccc(O)c(O)c3)[o+]c2c1
REMARK SMILES IDX 10 1 19 2 20 3 21 4 2 5 3 6 4 7 6 8 7 9 8 10 11 11 12 12
REMARK SMILES IDX 13 13 14 14 18 15 16 16 15 17 17 19 9 21 1 23 5 25
REMARK H PARENT 15 18 17 20 9 22 1 24 5 26
REMARK Flexibility Score: inf
ROOT
ATOM      1  C   UNL     1     480.905  38.750 460.572  1.00  0.00     0.402 A 
ATOM      2  O   UNL     1     481.749  39.274 461.457  1.00  0.00    -0.202 OA
ATOM      3  C   UNL     1     483.047  39.437 461.220  1.00  0.00     0.368 A 
ATOM      4  C   UNL     1     483.855  39.994 462.215  1.00  0.00     0.162 A 
ATOM      5  C   UNL     1     485.223  40.173 461.993  1.00  0.00     0.128 A 
ATOM      6  C   UNL     1     485.786  39.793 460.772  1.00  0.00     0.093 A 
ATOM      7  C   UNL     1     484.998  39.233 459.759  1.00  0.00     0.136 A 
ATOM      8  C   UNL     1     483.607  39.051 459.979  1.00  0.00     0.125 A 
ATOM      9  C   UNL     1     482.738  38.510 459.016  1.00  0.00     0.078 A 
ATOM     10  C   UNL     1     481.378  38.365 459.304  1.00  0.00     0.223 A 
ENDROOT
BRANCH   1  11
ATOM     11  C   UNL     1     479.482  38.612 460.959  1.00  0.00     0.087 A 
ATOM     12  C   UNL     1     478.597  39.703 460.895  1.00  0.00     0.022 A 
ATOM     13  C   UNL     1     477.252  39.543 461.242  1.00  0.00     0.051 A 
ATOM     14  C   UNL     1     476.771  38.290 461.643  1.00  0.00     0.157 A 
ATOM     15  C   UNL     1     478.988  37.354 461.342  1.00  0.00     0.068 A 
ATOM     16  C   UNL     1     477.640  37.193 461.690  1.00  0.00     0.158 A 
BRANCH  14  17
ATOM     17  O   UNL     1     475.432  38.127 461.992  1.00  0.00    -0.504 OA
ATOM     18  H   UNL     1     474.878  37.361 461.625  1.00  0.00     0.293 HD
ENDBRANCH  14  17
BRANCH  16  19
ATOM     19  O   UNL     1     477.156  35.946 462.083  1.00  0.00    -0.504 OA
ATOM     20  H   UNL     1     477.412  35.535 462.974  1.00  0.00     0.293 HD
ENDBRANCH  16  19
ENDBRANCH   1  11
BRANCH  10  21
ATOM     21  O   UNL     1     480.505  37.875 458.331  1.00  0.00    -0.500 OA
ATOM     22  H   UNL     1     479.985  37.016 458.467  1.00  0.00     0.294 HD
ENDBRANCH  10  21
BRANCH   5  23
ATOM     23  O   UNL     1     486.035  40.727 462.980  1.00  0.00    -0.507 OA
ATOM     24  H   UNL     1     485.852  40.574 463.964  1.00  0.00     0.293 HD
ENDBRANCH   5  23
BRANCH   7  25
ATOM     25  O   UNL     1     485.636  38.877 458.569  1.00  0.00    -0.507 OA
ATOM     26  H   UNL     1     486.638  38.823 458.451  1.00  0.00     0.293 HD
ENDBRANCH   7  25
TORSDOF 6
ENDMDL
MODEL 7
REMARK VINA RESULT:    -5.169      3.879      6.668
REMARK INTER + INTRA:          -6.558
REMARK INTER:                  -6.239
REMARK INTRA:                  -0.319
REMARK UNBOUND:                -0.331
REMARK SMILES Oc1cc(O)c2cc(O)c(-c3ccc(O)c(O)c3)[o+]c2c1
REMARK SMILES IDX 10 1 19 2 20 3 21 4 2 5 3 6 4 7 6 8 7 9 8 10 11 11 12 12
REMARK SMILES IDX 13 13 14 14 18 15 16 16 15 17 17 19 9 21 1 23 5 25
REMARK H PARENT 15 18 17 20 9 22 1 24 5 26
REMARK Flexibility Score: inf
ROOT
ATOM      1  C   UNL     1     484.263  39.989 459.777  1.00  0.00     0.402 A 
ATOM      2  O   UNL     1     482.992  39.813 460.129  1.00  0.00    -0.202 OA
ATOM      3  C   UNL     1     482.141  39.061 459.438  1.00  0.00     0.368 A 
ATOM      4  C   UNL     1     480.822  38.940 459.886  1.00  0.00     0.162 A 
ATOM      5  C   UNL     1     479.905  38.159 459.176  1.00  0.00     0.128 A 
ATOM      6  C   UNL     1     480.308  37.498 458.014  1.00  0.00     0.093 A 
ATOM      7  C   UNL     1     481.623  37.603 457.544  1.00  0.00     0.136 A 
ATOM      8  C   UNL     1     482.558  38.393 458.262  1.00  0.00     0.125 A 
ATOM      9  C   UNL     1     483.901  38.545 457.874  1.00  0.00     0.078 A 
ATOM     10  C   UNL     1     484.765  39.337 458.635  1.00  0.00     0.223 A 
ENDROOT
BRANCH   1  11
ATOM     11  C   UNL     1     485.110  40.858 460.626  1.00  0.00     0.087 A 
ATOM     12  C   UNL     1     485.997  40.316 461.573  1.00  0.00     0.022 A 
ATOM     13  C   UNL     1     486.805  41.156 462.346  1.00  0.00     0.051 A 
ATOM     14  C   UNL     1     486.748  42.545 462.173  1.00  0.00     0.157 A 
ATOM     15  C   UNL     1     485.073  42.250 460.444  1.00  0.00     0.068 A 
ATOM     16  C   UNL     1     485.882  43.093 461.218  1.00  0.00     0.158 A 
BRANCH  14  17
ATOM     17  O   UNL     1     487.550  43.385 462.943  1.00  0.00    -0.504 OA
ATOM     18  H   UNL     1     487.247  44.319 463.198  1.00  0.00     0.293 HD
ENDBRANCH  14  17
BRANCH  16  19
ATOM     19  O   UNL     1     485.833  44.475 461.044  1.00  0.00    -0.504 OA
ATOM     20  H   UNL     1     486.652  45.004 460.764  1.00  0.00     0.293 HD
ENDBRANCH  16  19
ENDBRANCH   1  11
BRANCH  10  21
ATOM     21  O   UNL     1     486.109  39.448 458.279  1.00  0.00    -0.500 OA
ATOM     22  H   UNL     1     486.849  39.099 458.877  1.00  0.00     0.294 HD
ENDBRANCH  10  21
BRANCH   5  23
ATOM     23  O   UNL     1     478.590  38.034 459.616  1.00  0.00    -0.507 OA
ATOM     24  H   UNL     1     478.352  37.463 460.418  1.00  0.00     0.293 HD
ENDBRANCH   5  23
BRANCH   7  25
ATOM     25  O   UNL     1     481.946  36.913 456.373  1.00  0.00    -0.507 OA
ATOM     26  H   UNL     1     481.532  37.095 455.470  1.00  0.00     0.293 HD
ENDBRANCH   7  25
TORSDOF 6
ENDMDL
MODEL 8
REMARK VINA RESULT:    -5.114      1.724      2.516
REMARK INTER + INTRA:          -6.492
REMARK INTER:                  -6.251
REMARK INTRA:                  -0.241
REMARK UNBOUND:                -0.331
REMARK SMILES Oc1cc(O)c2cc(O)c(-c3ccc(O)c(O)c3)[o+]c2c1
REMARK SMILES IDX 10 1 19 2 20 3 21 4 2 5 3 6 4 7 6 8 7 9 8 10 11 11 12 12
REMARK SMILES IDX 13 13 14 14 18 15 16 16 15 17 17 19 9 21 1 23 5 25
REMARK H PARENT 15 18 17 20 9 22 1 24 5 26
REMARK Flexibility Score: inf
ROOT
ATOM      1  C   UNL     1     480.636  39.153 460.242  1.00  0.00     0.402 A 
ATOM      2  O   UNL     1     480.120  38.014 460.698  1.00  0.00    -0.202 OA
ATOM      3  C   UNL     1     478.865  37.898 461.118  1.00  0.00     0.368 A 
ATOM      4  C   UNL     1     478.415  36.659 461.583  1.00  0.00     0.162 A 
ATOM      5  C   UNL     1     477.101  36.510 462.034  1.00  0.00     0.128 A 
ATOM      6  C   UNL     1     476.233  37.605 462.023  1.00  0.00     0.093 A 
ATOM      7  C   UNL     1     476.659  38.857 461.562  1.00  0.00     0.136 A 
ATOM      8  C   UNL     1     477.992  39.013 461.100  1.00  0.00     0.125 A 
ATOM      9  C   UNL     1     478.503  40.226 460.608  1.00  0.00     0.078 A 
ATOM     10  C   UNL     1     479.826  40.301 460.166  1.00  0.00     0.223 A 
ENDROOT
BRANCH   1  11
ATOM     11  C   UNL     1     482.053  39.157 459.810  1.00  0.00     0.087 A 
ATOM     12  C   UNL     1     483.025  39.905 460.496  1.00  0.00     0.022 A 
ATOM     13  C   UNL     1     484.361  39.875 460.084  1.00  0.00     0.051 A 
ATOM     14  C   UNL     1     484.745  39.086 458.992  1.00  0.00     0.157 A 
ATOM     15  C   UNL     1     482.448  38.353 458.728  1.00  0.00     0.068 A 
ATOM     16  C   UNL     1     483.787  38.321 458.315  1.00  0.00     0.158 A 
BRANCH  14  17
ATOM     17  O   UNL     1     486.075  39.055 458.577  1.00  0.00    -0.504 OA
ATOM     18  H   UNL     1     486.814  38.727 459.190  1.00  0.00     0.293 HD
ENDBRANCH  14  17
BRANCH  16  19
ATOM     19  O   UNL     1     484.174  37.532 457.233  1.00  0.00    -0.504 OA
ATOM     20  H   UNL     1     483.491  37.107 456.616  1.00  0.00     0.293 HD
ENDBRANCH  16  19
ENDBRANCH   1  11
BRANCH  10  21
ATOM     21  O   UNL     1     480.319  41.492 459.632  1.00  0.00    -0.500 OA
ATOM     22  H   UNL     1     479.954  41.879 458.769  1.00  0.00     0.294 HD
ENDBRANCH  10  21
BRANCH   5  23
ATOM     23  O   UNL     1     476.646  35.279 462.499  1.00  0.00    -0.507 OA
ATOM     24  H   UNL     1     476.649  35.050 463.486  1.00  0.00     0.293 HD
ENDBRANCH   5  23
BRANCH   7  25
ATOM     25  O   UNL     1     475.731  39.902 461.585  1.00  0.00    -0.507 OA
ATOM     26  H   UNL     1     474.918  39.957 460.989  1.00  0.00     0.293 HD
ENDBRANCH   7  25
TORSDOF 6
ENDMDL
MODEL 9
REMARK VINA RESULT:    -5.082      2.293      7.224
REMARK INTER + INTRA:          -6.454
REMARK INTER:                  -6.113
REMARK INTRA:                  -0.341
REMARK UNBOUND:                -0.331
REMARK SMILES Oc1cc(O)c2cc(O)c(-c3ccc(O)c(O)c3)[o+]c2c1
REMARK SMILES IDX 10 1 19 2 20 3 21 4 2 5 3 6 4 7 6 8 7 9 8 10 11 11 12 12
REMARK SMILES IDX 13 13 14 14 18 15 16 16 15 17 17 19 9 21 1 23 5 25
REMARK H PARENT 15 18 17 20 9 22 1 24 5 26
REMARK Flexibility Score: inf
ROOT
ATOM      1  C   UNL     1     480.688  38.990 461.182  1.00  0.00     0.402 A 
ATOM      2  O   UNL     1     481.147  38.640 459.983  1.00  0.00    -0.202 OA
ATOM      3  C   UNL     1     482.430  38.710 459.644  1.00  0.00     0.368 A 
ATOM      4  C   UNL     1     482.816  38.322 458.357  1.00  0.00     0.162 A 
ATOM      5  C   UNL     1     484.158  38.389 457.973  1.00  0.00     0.128 A 
ATOM      6  C   UNL     1     485.118  38.847 458.878  1.00  0.00     0.093 A 
ATOM      7  C   UNL     1     484.758  39.241 460.173  1.00  0.00     0.136 A 
ATOM      8  C   UNL     1     483.397  39.173 460.568  1.00  0.00     0.125 A 
ATOM      9  C   UNL     1     482.946  39.535 461.849  1.00  0.00     0.078 A 
ATOM     10  C   UNL     1     481.589  39.436 462.168  1.00  0.00     0.223 A 
ENDROOT
BRANCH   1  11
ATOM     11  C   UNL     1     479.234  38.875 461.436  1.00  0.00     0.087 A 
ATOM     12  C   UNL     1     478.387  39.996 461.363  1.00  0.00     0.022 A 
ATOM     13  C   UNL     1     477.014  39.859 461.583  1.00  0.00     0.051 A 
ATOM     14  C   UNL     1     476.466  38.601 461.866  1.00  0.00     0.157 A 
ATOM     15  C   UNL     1     478.676  37.614 461.700  1.00  0.00     0.068 A 
ATOM     16  C   UNL     1     477.298  37.476 461.921  1.00  0.00     0.158 A 
BRANCH  14  17
ATOM     17  O   UNL     1     475.098  38.460 462.088  1.00  0.00    -0.504 OA
ATOM     18  H   UNL     1     474.552  37.753 461.608  1.00  0.00     0.293 HD
ENDBRANCH  14  17
BRANCH  16  19
ATOM     19  O   UNL     1     476.749  36.224 462.195  1.00  0.00    -0.504 OA
ATOM     20  H   UNL     1     476.313  35.666 461.470  1.00  0.00     0.293 HD
ENDBRANCH  16  19
ENDBRANCH   1  11
BRANCH  10  21
ATOM     21  O   UNL     1     481.147  39.747 463.454  1.00  0.00    -0.500 OA
ATOM     22  H   UNL     1     481.703  39.532 464.274  1.00  0.00     0.294 HD
ENDBRANCH  10  21
BRANCH   5  23
ATOM     23  O   UNL     1     484.549  38.004 456.693  1.00  0.00    -0.507 OA
ATOM     24  H   UNL     1     485.073  37.152 456.533  1.00  0.00     0.293 HD
ENDBRANCH   5  23
BRANCH   7  25
ATOM     25  O   UNL     1     485.778  39.689 461.016  1.00  0.00    -0.507 OA
ATOM     26  H   UNL     1     486.748  39.768 460.748  1.00  0.00     0.293 HD
ENDBRANCH   7  25
TORSDOF 6
ENDMDL
