MODEL 1
REMARK VINA RESULT:    -5.716      0.000      0.000
REMARK INTER + INTRA:          -6.984
REMARK INTER:                  -6.718
REMARK INTRA:                  -0.266
REMARK UNBOUND:                -0.266
REMARK SMILES O=c1cc(-c2ccc(O)c(O)c2)oc2cc(O)cc(O)c12
REMARK SMILES IDX 4 1 3 2 2 3 1 4 21 5 19 6 18 7 16 8 15 9 14 10 13 11 5 12
REMARK SMILES IDX 6 13 7 14 8 15 12 16 10 17 9 18 11 20 20 22 17 24
REMARK H PARENT 9 19 11 21 20 23 17 25
REMARK Flexibility Score: inf
ROOT
ATOM      1  C   UNL     1      -0.692   9.033  -6.601  1.00  0.00     0.138 A 
ATOM      2  C   UNL     1      -0.661   9.568  -5.305  1.00  0.00     0.100 A 
ATOM      3  C   UNL     1      -1.844   9.667  -4.571  1.00  0.00     0.197 A 
ATOM      4  O   UNL     1      -1.776  10.092  -3.390  1.00  0.00    -0.289 OA
ATOM      5  C   UNL     1      -3.069   9.256  -5.152  1.00  0.00     0.107 A 
ATOM      6  C   UNL     1      -4.342   9.349  -4.513  1.00  0.00     0.134 A 
ATOM      7  C   UNL     1      -5.469   8.804  -5.140  1.00  0.00     0.093 A 
ATOM      8  C   UNL     1      -5.379   8.226  -6.409  1.00  0.00     0.123 A 
ATOM      9  C   UNL     1      -4.150   8.179  -7.063  1.00  0.00     0.094 A 
ATOM     10  C   UNL     1      -3.001   8.682  -6.449  1.00  0.00     0.146 A 
ATOM     11  O   UNL     1      -1.846   8.605  -7.102  1.00  0.00    -0.456 OA
ENDROOT
BRANCH   1  12
ATOM     12  C   UNL     1       0.536   8.906  -7.426  1.00  0.00     0.021 A 
ATOM     13  C   UNL     1       0.769   9.736  -8.537  1.00  0.00     0.016 A 
ATOM     14  C   UNL     1       1.929   9.588  -9.301  1.00  0.00     0.051 A 
ATOM     15  C   UNL     1       2.875   8.609  -8.982  1.00  0.00     0.157 A 
ATOM     16  C   UNL     1       1.480   7.913  -7.114  1.00  0.00     0.062 A 
ATOM     17  C   UNL     1       2.646   7.758  -7.874  1.00  0.00     0.158 A 
BRANCH  15  18
ATOM     18  O   UNL     1       4.013   8.514  -9.785  1.00  0.00    -0.504 OA
ATOM     19  H   UNL     1       4.032   8.063 -10.687  1.00  0.00     0.293 HD
ENDBRANCH  15  18
BRANCH  17  20
ATOM     20  O   UNL     1       3.541   6.754  -7.498  1.00  0.00    -0.504 OA
ATOM     21  H   UNL     1       3.824   6.578  -6.544  1.00  0.00     0.293 HD
ENDBRANCH  17  20
ENDBRANCH   1  12
BRANCH   6  22
ATOM     22  O   UNL     1      -4.555   9.982  -3.285  1.00  0.00    -0.507 OA
ATOM     23  H   UNL     1      -3.827  10.263  -2.646  1.00  0.00     0.293 HD
ENDBRANCH   6  22
BRANCH   8  24
ATOM     24  O   UNL     1      -6.509   7.699  -7.032  1.00  0.00    -0.508 OA
ATOM     25  H   UNL     1      -6.633   7.754  -8.036  1.00  0.00     0.293 HD
ENDBRANCH   8  24
TORSDOF 5
ENDMDL
MODEL 2
REMARK VINA RESULT:    -5.474      2.407      7.444
REMARK INTER + INTRA:          -6.700
REMARK INTER:                  -6.435
REMARK INTRA:                  -0.265
REMARK UNBOUND:                -0.266
REMARK SMILES O=c1cc(-c2ccc(O)c(O)c2)oc2cc(O)cc(O)c12
REMARK SMILES IDX 4 1 3 2 2 3 1 4 21 5 19 6 18 7 16 8 15 9 14 10 13 11 5 12
REMARK SMILES IDX 6 13 7 14 8 15 12 16 10 17 9 18 11 20 20 22 17 24
REMARK H PARENT 9 19 11 21 20 23 17 25
REMARK Flexibility Score: inf
ROOT
ATOM      1  C   UNL     1      -5.442   7.880  -5.743  1.00  0.00     0.138 A 
ATOM      2  C   UNL     1      -5.501   8.658  -4.578  1.00  0.00     0.100 A 
ATOM      3  C   UNL     1      -4.331   9.218  -4.063  1.00  0.00     0.197 A 
ATOM      4  O   UNL     1      -4.424   9.962  -3.053  1.00  0.00    -0.289 OA
ATOM      5  C   UNL     1      -3.092   8.972  -4.702  1.00  0.00     0.107 A 
ATOM      6  C   UNL     1      -1.831   9.457  -4.243  1.00  0.00     0.134 A 
ATOM      7  C   UNL     1      -0.686   9.246  -5.022  1.00  0.00     0.093 A 
ATOM      8  C   UNL     1      -0.748   8.515  -6.211  1.00  0.00     0.123 A 
ATOM      9  C   UNL     1      -1.966   7.991  -6.639  1.00  0.00     0.094 A 
ATOM     10  C   UNL     1      -3.131   8.214  -5.903  1.00  0.00     0.146 A 
ATOM     11  O   UNL     1      -4.275   7.709  -6.354  1.00  0.00    -0.456 OA
ENDROOT
BRANCH   1  12
ATOM     12  C   UNL     1      -6.656   7.260  -6.333  1.00  0.00     0.021 A 
ATOM     13  C   UNL     1      -7.186   7.695  -7.561  1.00  0.00     0.016 A 
ATOM     14  C   UNL     1      -8.334   7.100  -8.086  1.00  0.00     0.051 A 
ATOM     15  C   UNL     1      -8.982   6.068  -7.402  1.00  0.00     0.157 A 
ATOM     16  C   UNL     1      -7.316   6.232  -5.638  1.00  0.00     0.062 A 
ATOM     17  C   UNL     1      -8.468   5.629  -6.159  1.00  0.00     0.158 A 
BRANCH  15  18
ATOM     18  O   UNL     1     -10.125   5.514  -7.983  1.00  0.00    -0.504 OA
ATOM     19  H   UNL     1     -11.003   5.395  -7.501  1.00  0.00     0.293 HD
ENDBRANCH  15  18
BRANCH  17  20
ATOM     20  O   UNL     1      -9.063   4.609  -5.414  1.00  0.00    -0.504 OA
ATOM     21  H   UNL     1      -8.993   3.628  -5.643  1.00  0.00     0.293 HD
ENDBRANCH  17  20
ENDBRANCH   1  12
BRANCH   6  22
ATOM     22  O   UNL     1      -1.646  10.124  -3.029  1.00  0.00    -0.507 OA
ATOM     23  H   UNL     1      -1.230  11.038  -2.930  1.00  0.00     0.293 HD
ENDBRANCH   6  22
BRANCH   8  24
ATOM     24  O   UNL     1       0.398   8.297  -6.972  1.00  0.00    -0.508 OA
ATOM     25  H   UNL     1       0.608   8.863  -7.787  1.00  0.00     0.293 HD
ENDBRANCH   8  24
TORSDOF 5
ENDMDL
MODEL 3
REMARK VINA RESULT:    -5.383      2.724      5.325
REMARK INTER + INTRA:          -6.593
REMARK INTER:                  -6.312
REMARK INTRA:                  -0.281
REMARK UNBOUND:                -0.266
REMARK SMILES O=c1cc(-c2ccc(O)c(O)c2)oc2cc(O)cc(O)c12
REMARK SMILES IDX 4 1 3 2 2 3 1 4 21 5 19 6 18 7 16 8 15 9 14 10 13 11 5 12
REMARK SMILES IDX 6 13 7 14 8 15 12 16 10 17 9 18 11 20 20 22 17 24
REMARK H PARENT 9 19 11 21 20 23 17 25
REMARK Flexibility Score: inf
ROOT
ATOM      1  C   UNL     1      -4.841   7.416  -6.982  1.00  0.00     0.138 A 
ATOM      2  C   UNL     1      -5.189   6.443  -7.930  1.00  0.00     0.100 A 
ATOM      3  C   UNL     1      -6.494   5.949  -7.963  1.00  0.00     0.197 A 
ATOM      4  O   UNL     1      -6.794   5.124  -8.864  1.00  0.00    -0.289 OA
ATOM      5  C   UNL     1      -7.445   6.409  -7.021  1.00  0.00     0.107 A 
ATOM      6  C   UNL     1      -8.792   5.946  -6.933  1.00  0.00     0.134 A 
ATOM      7  C   UNL     1      -9.675   6.558  -6.035  1.00  0.00     0.093 A 
ATOM      8  C   UNL     1      -9.243   7.574  -5.179  1.00  0.00     0.123 A 
ATOM      9  C   UNL     1      -7.916   7.995  -5.219  1.00  0.00     0.094 A 
ATOM     10  C   UNL     1      -7.020   7.429  -6.128  1.00  0.00     0.146 A 
ATOM     11  O   UNL     1      -5.766   7.870  -6.143  1.00  0.00    -0.456 OA
ENDROOT
BRANCH   1  12
ATOM     12  C   UNL     1      -3.467   7.975  -6.902  1.00  0.00     0.021 A 
ATOM     13  C   UNL     1      -2.847   8.573  -8.014  1.00  0.00     0.016 A 
ATOM     14  C   UNL     1      -1.551   9.082  -7.912  1.00  0.00     0.051 A 
ATOM     15  C   UNL     1      -0.842   9.000  -6.710  1.00  0.00     0.157 A 
ATOM     16  C   UNL     1      -2.750   7.880  -5.698  1.00  0.00     0.062 A 
ATOM     17  C   UNL     1      -1.449   8.388  -5.587  1.00  0.00     0.158 A 
BRANCH  15  18
ATOM     18  O   UNL     1       0.449   9.529  -6.675  1.00  0.00    -0.504 OA
ATOM     19  H   UNL     1       0.753  10.234  -6.019  1.00  0.00     0.293 HD
ENDBRANCH  15  18
BRANCH  17  20
ATOM     20  O   UNL     1      -0.803   8.264  -4.355  1.00  0.00    -0.504 OA
ATOM     21  H   UNL     1      -1.095   8.741  -3.514  1.00  0.00     0.293 HD
ENDBRANCH  17  20
ENDBRANCH   1  12
BRANCH   6  22
ATOM     22  O   UNL     1      -9.302   4.881  -7.682  1.00  0.00    -0.507 OA
ATOM     23  H   UNL     1      -9.143   4.740  -8.668  1.00  0.00     0.293 HD
ENDBRANCH   6  22
BRANCH   8  24
ATOM     24  O   UNL     1     -10.125   8.167  -4.277  1.00  0.00    -0.508 OA
ATOM     25  H   UNL     1     -10.295   7.766  -3.362  1.00  0.00     0.293 HD
ENDBRANCH   8  24
TORSDOF 5
ENDMDL
MODEL 4
REMARK VINA RESULT:    -5.357      3.670      6.595
REMARK INTER + INTRA:          -6.563
REMARK INTER:                  -6.298
REMARK INTRA:                  -0.265
REMARK UNBOUND:                -0.266
REMARK SMILES O=c1cc(-c2ccc(O)c(O)c2)oc2cc(O)cc(O)c12
REMARK SMILES IDX 4 1 3 2 2 3 1 4 21 5 19 6 18 7 16 8 15 9 14 10 13 11 5 12
REMARK SMILES IDX 6 13 7 14 8 15 12 16 10 17 9 18 11 20 20 22 17 24
REMARK H PARENT 9 19 11 21 20 23 17 25
REMARK Flexibility Score: inf
ROOT
ATOM      1  C   UNL     1      -6.116   7.893  -6.047  1.00  0.00     0.138 A 
ATOM      2  C   UNL     1      -6.702   8.576  -7.121  1.00  0.00     0.100 A 
ATOM      3  C   UNL     1      -7.834   8.045  -7.742  1.00  0.00     0.197 A 
ATOM      4  O   UNL     1      -8.374   8.712  -8.661  1.00  0.00    -0.289 OA
ATOM      5  C   UNL     1      -8.362   6.808  -7.302  1.00  0.00     0.107 A 
ATOM      6  C   UNL     1      -9.487   6.151  -7.886  1.00  0.00     0.134 A 
ATOM      7  C   UNL     1      -9.990   4.987  -7.293  1.00  0.00     0.093 A 
ATOM      8  C   UNL     1      -9.372   4.423  -6.175  1.00  0.00     0.123 A 
ATOM      9  C   UNL     1      -8.241   5.027  -5.630  1.00  0.00     0.094 A 
ATOM     10  C   UNL     1      -7.736   6.208  -6.178  1.00  0.00     0.146 A 
ATOM     11  O   UNL     1      -6.663   6.759  -5.619  1.00  0.00    -0.456 OA
ENDROOT
BRANCH   1  12
ATOM     12  C   UNL     1      -4.911   8.411  -5.352  1.00  0.00     0.021 A 
ATOM     13  C   UNL     1      -5.003   9.380  -4.336  1.00  0.00     0.016 A 
ATOM     14  C   UNL     1      -3.852   9.857  -3.706  1.00  0.00     0.051 A 
ATOM     15  C   UNL     1      -2.587   9.389  -4.077  1.00  0.00     0.157 A 
ATOM     16  C   UNL     1      -3.639   7.952  -5.734  1.00  0.00     0.062 A 
ATOM     17  C   UNL     1      -2.479   8.425  -5.107  1.00  0.00     0.158 A 
BRANCH  15  18
ATOM     18  O   UNL     1      -1.477   9.905  -3.407  1.00  0.00    -0.504 OA
ATOM     19  H   UNL     1      -0.521   9.727  -3.677  1.00  0.00     0.293 HD
ENDBRANCH  15  18
BRANCH  17  20
ATOM     20  O   UNL     1      -1.252   7.914  -5.536  1.00  0.00    -0.504 OA
ATOM     21  H   UNL     1      -0.356   8.262  -5.226  1.00  0.00     0.293 HD
ENDBRANCH  17  20
ENDBRANCH   1  12
BRANCH   6  22
ATOM     22  O   UNL     1     -10.125   6.584  -9.052  1.00  0.00    -0.507 OA
ATOM     23  H   UNL     1     -10.208   6.044  -9.900  1.00  0.00     0.293 HD
ENDBRANCH   6  22
BRANCH   8  24
ATOM     24  O   UNL     1      -9.871   3.255  -5.600  1.00  0.00    -0.508 OA
ATOM     25  H   UNL     1     -10.279   2.520  -6.165  1.00  0.00     0.293 HD
ENDBRANCH   8  24
TORSDOF 5
ENDMDL
MODEL 5
REMARK VINA RESULT:    -5.346      1.408      2.745
REMARK INTER + INTRA:          -6.549
REMARK INTER:                  -6.251
REMARK INTRA:                  -0.298
REMARK UNBOUND:                -0.266
REMARK SMILES O=c1cc(-c2ccc(O)c(O)c2)oc2cc(O)cc(O)c12
REMARK SMILES IDX 4 1 3 2 2 3 1 4 21 5 19 6 18 7 16 8 15 9 14 10 13 11 5 12
REMARK SMILES IDX 6 13 7 14 8 15 12 16 10 17 9 18 11 20 20 22 17 24
REMARK H PARENT 9 19 11 21 20 23 17 25
REMARK Flexibility Score: inf
ROOT
ATOM      1  C   UNL     1      -0.106   9.155  -7.957  1.00  0.00     0.138 A 
ATOM      2  C   UNL     1      -1.199   9.518  -8.756  1.00  0.00     0.100 A 
ATOM      3  C   UNL     1      -2.467   9.624  -8.182  1.00  0.00     0.197 A 
ATOM      4  O   UNL     1      -3.417  10.012  -8.909  1.00  0.00    -0.289 OA
ATOM      5  C   UNL     1      -2.644   9.335  -6.807  1.00  0.00     0.107 A 
ATOM      6  C   UNL     1      -3.896   9.370  -6.124  1.00  0.00     0.134 A 
ATOM      7  C   UNL     1      -3.931   9.178  -4.737  1.00  0.00     0.093 A 
ATOM      8  C   UNL     1      -2.767   8.892  -4.020  1.00  0.00     0.123 A 
ATOM      9  C   UNL     1      -1.547   8.802  -4.687  1.00  0.00     0.094 A 
ATOM     10  C   UNL     1      -1.475   9.023  -6.064  1.00  0.00     0.146 A 
ATOM     11  O   UNL     1      -0.289   8.941  -6.658  1.00  0.00    -0.456 OA
ENDROOT
BRANCH   1  12
ATOM     12  C   UNL     1       1.264   9.026  -8.516  1.00  0.00     0.021 A 
ATOM     13  C   UNL     1       1.747   9.909  -9.499  1.00  0.00     0.016 A 
ATOM     14  C   UNL     1       3.036   9.757 -10.014  1.00  0.00     0.051 A 
ATOM     15  C   UNL     1       3.867   8.724  -9.571  1.00  0.00     0.157 A 
ATOM     16  C   UNL     1       2.094   7.979  -8.082  1.00  0.00     0.062 A 
ATOM     17  C   UNL     1       3.388   7.820  -8.592  1.00  0.00     0.158 A 
BRANCH  15  18
ATOM     18  O   UNL     1       5.145   8.630 -10.125  1.00  0.00    -0.504 OA
ATOM     19  H   UNL     1       5.970   8.375  -9.602  1.00  0.00     0.293 HD
ENDBRANCH  15  18
BRANCH  17  20
ATOM     20  O   UNL     1       4.156   6.761  -8.105  1.00  0.00    -0.504 OA
ATOM     21  H   UNL     1       5.122   6.601  -8.356  1.00  0.00     0.293 HD
ENDBRANCH  17  20
ENDBRANCH   1  12
BRANCH   6  22
ATOM     22  O   UNL     1      -5.127   9.564  -6.759  1.00  0.00    -0.507 OA
ATOM     23  H   UNL     1      -5.282   9.491  -7.753  1.00  0.00     0.293 HD
ENDBRANCH   6  22
BRANCH   8  24
ATOM     24  O   UNL     1      -2.814   8.687  -2.642  1.00  0.00    -0.508 OA
ATOM     25  H   UNL     1      -3.694   8.644  -2.143  1.00  0.00     0.293 HD
ENDBRANCH   8  24
TORSDOF 5
ENDMDL
MODEL 6
REMARK VINA RESULT:    -5.061      2.882      7.865
REMARK INTER + INTRA:          -6.215
REMARK INTER:                  -5.920
REMARK INTRA:                  -0.295
REMARK UNBOUND:                -0.266
REMARK SMILES O=c1cc(-c2ccc(O)c(O)c2)oc2cc(O)cc(O)c12
REMARK SMILES IDX 4 1 3 2 2 3 1 4 21 5 19 6 18 7 16 8 15 9 14 10 13 11 5 12
REMARK SMILES IDX 6 13 7 14 8 15 12 16 10 17 9 18 11 20 20 22 17 24
REMARK H PARENT 9 19 11 21 20 23 17 25
REMARK Flexibility Score: inf
ROOT
ATOM      1  C   UNL     1      -5.177   7.115  -6.917  1.00  0.00     0.138 A 
ATOM      2  C   UNL     1      -4.555   7.207  -8.170  1.00  0.00     0.100 A 
ATOM      3  C   UNL     1      -3.351   7.903  -8.293  1.00  0.00     0.197 A 
ATOM      4  O   UNL     1      -2.785   7.914  -9.416  1.00  0.00    -0.289 OA
ATOM      5  C   UNL     1      -2.785   8.535  -7.160  1.00  0.00     0.107 A 
ATOM      6  C   UNL     1      -1.583   9.305  -7.175  1.00  0.00     0.134 A 
ATOM      7  C   UNL     1      -1.058   9.787  -5.969  1.00  0.00     0.093 A 
ATOM      8  C   UNL     1      -1.722   9.578  -4.759  1.00  0.00     0.123 A 
ATOM      9  C   UNL     1      -2.924   8.873  -4.741  1.00  0.00     0.094 A 
ATOM     10  C   UNL     1      -3.456   8.350  -5.922  1.00  0.00     0.146 A 
ATOM     11  O   UNL     1      -4.597   7.672  -5.858  1.00  0.00    -0.456 OA
ENDROOT
BRANCH   1  12
ATOM     12  C   UNL     1      -6.459   6.389  -6.730  1.00  0.00     0.021 A 
ATOM     13  C   UNL     1      -7.117   6.360  -5.487  1.00  0.00     0.016 A 
ATOM     14  C   UNL     1      -8.316   5.660  -5.338  1.00  0.00     0.051 A 
ATOM     15  C   UNL     1      -8.881   4.970  -6.415  1.00  0.00     0.157 A 
ATOM     16  C   UNL     1      -7.019   5.683  -7.808  1.00  0.00     0.062 A 
ATOM     17  C   UNL     1      -8.222   4.980  -7.668  1.00  0.00     0.158 A 
BRANCH  15  18
ATOM     18  O   UNL     1     -10.082   4.292  -6.200  1.00  0.00    -0.504 OA
ATOM     19  H   UNL     1     -10.503   3.662  -6.866  1.00  0.00     0.293 HD
ENDBRANCH  15  18
BRANCH  17  20
ATOM     20  O   UNL     1      -8.720   4.310  -8.787  1.00  0.00    -0.504 OA
ATOM     21  H   UNL     1      -9.672   3.984  -8.872  1.00  0.00     0.293 HD
ENDBRANCH  17  20
ENDBRANCH   1  12
BRANCH   6  22
ATOM     22  O   UNL     1      -0.888   9.644  -8.339  1.00  0.00    -0.507 OA
ATOM     23  H   UNL     1      -1.106  10.427  -8.935  1.00  0.00     0.293 HD
ENDBRANCH   6  22
BRANCH   8  24
ATOM     24  O   UNL     1      -1.200  10.073  -3.566  1.00  0.00    -0.508 OA
ATOM     25  H   UNL     1      -1.021  11.062  -3.437  1.00  0.00     0.293 HD
ENDBRANCH   8  24
TORSDOF 5
ENDMDL
MODEL 7
REMARK VINA RESULT:    -4.960      2.738      4.825
REMARK INTER + INTRA:          -6.096
REMARK INTER:                  -5.825
REMARK INTRA:                  -0.271
REMARK UNBOUND:                -0.266
REMARK SMILES O=c1cc(-c2ccc(O)c(O)c2)oc2cc(O)cc(O)c12
REMARK SMILES IDX 4 1 3 2 2 3 1 4 21 5 19 6 18 7 16 8 15 9 14 10 13 11 5 12
REMARK SMILES IDX 6 13 7 14 8 15 12 16 10 17 9 18 11 20 20 22 17 24
REMARK H PARENT 9 19 11 21 20 23 17 25
REMARK Flexibility Score: inf
ROOT
ATOM      1  C   UNL     1      -4.790   7.763  -6.607  1.00  0.00     0.138 A 
ATOM      2  C   UNL     1      -5.617   8.184  -5.556  1.00  0.00     0.100 A 
ATOM      3  C   UNL     1      -6.951   7.774  -5.522  1.00  0.00     0.197 A 
ATOM      4  O   UNL     1      -7.652   8.115  -4.535  1.00  0.00    -0.289 OA
ATOM      5  C   UNL     1      -7.465   6.963  -6.563  1.00  0.00     0.107 A 
ATOM      6  C   UNL     1      -8.818   6.519  -6.654  1.00  0.00     0.134 A 
ATOM      7  C   UNL     1      -9.184   5.626  -7.668  1.00  0.00     0.093 A 
ATOM      8  C   UNL     1      -8.260   5.209  -8.629  1.00  0.00     0.123 A 
ATOM      9  C   UNL     1      -6.949   5.680  -8.580  1.00  0.00     0.094 A 
ATOM     10  C   UNL     1      -6.545   6.544  -7.561  1.00  0.00     0.146 A 
ATOM     11  O   UNL     1      -5.283   6.959  -7.543  1.00  0.00    -0.456 OA
ENDROOT
BRANCH   1  12
ATOM     12  C   UNL     1      -3.364   8.171  -6.692  1.00  0.00     0.021 A 
ATOM     13  C   UNL     1      -2.819   8.709  -7.872  1.00  0.00     0.016 A 
ATOM     14  C   UNL     1      -1.473   9.074  -7.927  1.00  0.00     0.051 A 
ATOM     15  C   UNL     1      -0.640   8.905  -6.817  1.00  0.00     0.157 A 
ATOM     16  C   UNL     1      -2.523   7.987  -5.582  1.00  0.00     0.062 A 
ATOM     17  C   UNL     1      -1.172   8.352  -5.628  1.00  0.00     0.158 A 
BRANCH  15  18
ATOM     18  O   UNL     1       0.696   9.293  -6.938  1.00  0.00    -0.504 OA
ATOM     19  H   UNL     1       1.376   8.807  -7.504  1.00  0.00     0.293 HD
ENDBRANCH  15  18
BRANCH  17  20
ATOM     20  O   UNL     1      -0.402   8.147  -4.482  1.00  0.00    -0.504 OA
ATOM     21  H   UNL     1       0.579   7.905  -4.496  1.00  0.00     0.293 HD
ENDBRANCH  17  20
ENDBRANCH   1  12
BRANCH   6  22
ATOM     22  O   UNL     1      -9.838   6.941  -5.796  1.00  0.00    -0.507 OA
ATOM     23  H   UNL     1     -10.296   7.839  -5.841  1.00  0.00     0.293 HD
ENDBRANCH   6  22
BRANCH   8  24
ATOM     24  O   UNL     1      -8.636   4.331  -9.644  1.00  0.00    -0.508 OA
ATOM     25  H   UNL     1      -8.313   4.453 -10.597  1.00  0.00     0.293 HD
ENDBRANCH   8  24
TORSDOF 5
ENDMDL
MODEL 8
REMARK VINA RESULT:    -4.510      2.457      7.723
REMARK INTER + INTRA:          -5.567
REMARK INTER:                  -5.292
REMARK INTRA:                  -0.275
REMARK UNBOUND:                -0.266
REMARK SMILES O=c1cc(-c2ccc(O)c(O)c2)oc2cc(O)cc(O)c12
REMARK SMILES IDX 4 1 3 2 2 3 1 4 21 5 19 6 18 7 16 8 15 9 14 10 13 11 5 12
REMARK SMILES IDX 6 13 7 14 8 15 12 16 10 17 9 18 11 20 20 22 17 24
REMARK H PARENT 9 19 11 21 20 23 17 25
REMARK Flexibility Score: inf
ROOT
ATOM      1  C   UNL     1      -4.747   8.691  -6.703  1.00  0.00     0.138 A 
ATOM      2  C   UNL     1      -4.438   9.132  -7.997  1.00  0.00     0.100 A 
ATOM      3  C   UNL     1      -3.102   9.267  -8.379  1.00  0.00     0.197 A 
ATOM      4  O   UNL     1      -2.856   9.603  -9.566  1.00  0.00    -0.289 OA
ATOM      5  C   UNL     1      -2.072   8.989  -7.449  1.00  0.00     0.107 A 
ATOM      6  C   UNL     1      -0.677   9.131  -7.714  1.00  0.00     0.134 A 
ATOM      7  C   UNL     1       0.253   8.716  -6.753  1.00  0.00     0.093 A 
ATOM      8  C   UNL     1      -0.162   8.221  -5.515  1.00  0.00     0.123 A 
ATOM      9  C   UNL     1      -1.522   8.129  -5.226  1.00  0.00     0.094 A 
ATOM     10  C   UNL     1      -2.474   8.502  -6.176  1.00  0.00     0.146 A 
ATOM     11  O   UNL     1      -3.761   8.385  -5.865  1.00  0.00    -0.456 OA
ENDROOT
BRANCH   1  12
ATOM     12  C   UNL     1      -6.150   8.531  -6.244  1.00  0.00     0.021 A 
ATOM     13  C   UNL     1      -6.997   9.638  -6.056  1.00  0.00     0.016 A 
ATOM     14  C   UNL     1      -8.309   9.458  -5.614  1.00  0.00     0.051 A 
ATOM     15  C   UNL     1      -8.803   8.179  -5.342  1.00  0.00     0.157 A 
ATOM     16  C   UNL     1      -6.642   7.247  -5.956  1.00  0.00     0.062 A 
ATOM     17  C   UNL     1      -7.957   7.057  -5.513  1.00  0.00     0.158 A 
BRANCH  15  18
ATOM     18  O   UNL     1     -10.125   8.068  -4.905  1.00  0.00    -0.504 OA
ATOM     19  H   UNL     1     -10.508   8.585  -4.127  1.00  0.00     0.293 HD
ENDBRANCH  15  18
BRANCH  17  20
ATOM     20  O   UNL     1      -8.377   5.751  -5.256  1.00  0.00    -0.504 OA
ATOM     21  H   UNL     1      -8.979   5.220  -5.869  1.00  0.00     0.293 HD
ENDBRANCH  17  20
ENDBRANCH   1  12
BRANCH   6  22
ATOM     22  O   UNL     1      -0.158   9.692  -8.884  1.00  0.00    -0.507 OA
ATOM     23  H   UNL     1       0.194   9.167  -9.670  1.00  0.00     0.293 HD
ENDBRANCH   6  22
BRANCH   8  24
ATOM     24  O   UNL     1       0.771   7.824  -4.559  1.00  0.00    -0.508 OA
ATOM     25  H   UNL     1       0.873   8.319  -3.681  1.00  0.00     0.293 HD
ENDBRANCH   8  24
TORSDOF 5
ENDMDL
MODEL 9
REMARK VINA RESULT:    -3.879      2.429      7.584
REMARK INTER + INTRA:          -4.825
REMARK INTER:                  -4.549
REMARK INTRA:                  -0.276
REMARK UNBOUND:                -0.266
REMARK SMILES O=c1cc(-c2ccc(O)c(O)c2)oc2cc(O)cc(O)c12
REMARK SMILES IDX 4 1 3 2 2 3 1 4 21 5 19 6 18 7 16 8 15 9 14 10 13 11 5 12
REMARK SMILES IDX 6 13 7 14 8 15 12 16 10 17 9 18 11 20 20 22 17 24
REMARK H PARENT 9 19 11 21 20 23 17 25
REMARK Flexibility Score: inf
ROOT
ATOM      1  C   UNL     1      -4.229   9.329  -7.514  1.00  0.00     0.138 A 
ATOM      2  C   UNL     1      -3.628   9.643  -8.741  1.00  0.00     0.100 A 
ATOM      3  C   UNL     1      -2.244   9.531  -8.880  1.00  0.00     0.197 A 
ATOM      4  O   UNL     1      -1.741   9.760 -10.010  1.00  0.00    -0.289 OA
ATOM      5  C   UNL     1      -1.456   9.131  -7.774  1.00  0.00     0.107 A 
ATOM      6  C   UNL     1      -0.033   9.022  -7.788  1.00  0.00     0.134 A 
ATOM      7  C   UNL     1       0.630   8.505  -6.668  1.00  0.00     0.093 A 
ATOM      8  C   UNL     1      -0.073   8.151  -5.514  1.00  0.00     0.123 A 
ATOM      9  C   UNL     1      -1.457   8.306  -5.472  1.00  0.00     0.094 A 
ATOM     10  C   UNL     1      -2.151   8.785  -6.585  1.00  0.00     0.146 A 
ATOM     11  O   UNL     1      -3.472   8.904  -6.507  1.00  0.00    -0.456 OA
ENDROOT
BRANCH   1  12
ATOM     12  C   UNL     1      -5.697   9.432  -7.310  1.00  0.00     0.021 A 
ATOM     13  C   UNL     1      -6.243   9.992  -6.142  1.00  0.00     0.016 A 
ATOM     14  C   UNL     1      -7.627  10.067  -5.973  1.00  0.00     0.051 A 
ATOM     15  C   UNL     1      -8.495   9.581  -6.956  1.00  0.00     0.157 A 
ATOM     16  C   UNL     1      -6.569   8.930  -8.291  1.00  0.00     0.062 A 
ATOM     17  C   UNL     1      -7.958   9.002  -8.131  1.00  0.00     0.158 A 
BRANCH  15  18
ATOM     18  O   UNL     1      -9.868   9.687  -6.726  1.00  0.00    -0.504 OA
ATOM     19  H   UNL     1     -10.573   9.260  -7.309  1.00  0.00     0.293 HD
ENDBRANCH  15  18
BRANCH  17  20
ATOM     20  O   UNL     1      -8.760   8.490  -9.153  1.00  0.00    -0.504 OA
ATOM     21  H   UNL     1      -8.746   8.828 -10.105  1.00  0.00     0.293 HD
ENDBRANCH  17  20
ENDBRANCH   1  12
BRANCH   6  22
ATOM     22  O   UNL     1       0.771   9.426  -8.858  1.00  0.00    -0.507 OA
ATOM     23  H   UNL     1       1.588   8.934  -9.185  1.00  0.00     0.293 HD
ENDBRANCH   6  22
BRANCH   8  24
ATOM     24  O   UNL     1       0.596   7.652  -4.398  1.00  0.00    -0.508 OA
ATOM     25  H   UNL     1       0.959   8.267  -3.679  1.00  0.00     0.293 HD
ENDBRANCH   8  24
TORSDOF 5
ENDMDL
