MODEL 1
REMARK VINA RESULT:    19.614      0.000      0.000
REMARK INTER + INTRA:          21.357
REMARK INTER:                  21.334
REMARK INTRA:                   0.023
REMARK UNBOUND:                 0.023
REMARK SMILES CC1(C)CC[C@]2(C(=O)[O-])CC[C@]3(C)C(=CC[C@H]4[C@@]5(C)CC[C@H](O)C(C)(C)[C@H]5CC[C@]43C)[C@@H]2C1
REMARK SMILES IDX 6 1 5 2 10 3 32 4 4 5 11 6 14 7 33 8 2 9 12 10 15 11 1 12
REMARK SMILES IDX 3 13 13 14 30 15 16 16 17 17 29 18 31 19 18 20 28 21 27 22
REMARK SMILES IDX 20 23 19 24 24 25 21 26 22 27 25 28 26 29 7 30 8 31 9 32
REMARK SMILES IDX 23 33
REMARK H PARENT 23 34
REMARK Flexibility Score: inf
ROOT
ATOM      1  C   UNL     1      21.033  34.081  19.387  1.00  0.00     0.017 C 
ATOM      2  C   UNL     1      20.684  35.556  18.988  1.00  0.00     0.014 C 
ATOM      3  C   UNL     1      22.584  33.957  19.545  1.00  0.00     0.014 C 
ATOM      4  C   UNL     1      20.441  33.081  18.320  1.00  0.00     0.028 C 
ATOM      5  C   UNL     1      19.275  35.664  18.390  1.00  0.00     0.007 C 
ATOM      6  C   UNL     1      23.313  33.282  18.365  1.00  0.00     0.013 C 
ATOM      7  C   UNL     1      21.273  31.810  18.158  1.00  0.00    -0.064 C 
ATOM      8  C   UNL     1      20.199  33.746  16.942  1.00  0.00     0.015 C 
ATOM      9  C   UNL     1      19.181  34.928  17.016  1.00  0.00    -0.035 C 
ATOM     10  C   UNL     1      22.787  31.861  17.930  1.00  0.00    -0.006 C 
ATOM     11  C   UNL     1      20.645  30.619  18.161  1.00  0.00    -0.027 C 
ATOM     12  C   UNL     1      19.484  35.927  15.875  1.00  0.00     0.011 C 
ATOM     13  C   UNL     1      17.743  34.395  16.819  1.00  0.00     0.011 C 
ATOM     14  C   UNL     1      23.060  31.756  16.399  1.00  0.00     0.017 C 
ATOM     15  C   UNL     1      23.491  30.628  18.718  1.00  0.00    -0.020 C 
ATOM     16  C   UNL     1      21.367  29.373  17.768  1.00  0.00     0.032 C 
ATOM     17  C   UNL     1      22.743  29.221  18.488  1.00  0.00     0.006 C 
ATOM     18  C   UNL     1      24.983  30.491  18.317  1.00  0.00     0.008 C 
ATOM     19  C   UNL     1      23.447  30.937  20.254  1.00  0.00     0.012 C 
ATOM     20  C   UNL     1      23.592  27.931  17.988  1.00  0.00    -0.025 C 
ATOM     21  C   UNL     1      25.647  29.288  18.973  1.00  0.00     0.005 C 
ATOM     22  C   UNL     1      25.151  27.950  18.378  1.00  0.00     0.003 C 
ATOM     23  C   UNL     1      23.441  27.717  16.452  1.00  0.00     0.010 C 
ATOM     24  C   UNL     1      22.928  26.695  18.678  1.00  0.00     0.012 C 
ATOM     25  C   UNL     1      26.175  27.365  17.298  1.00  0.00    -0.006 C 
ATOM     26  C   UNL     1      24.188  26.499  15.875  1.00  0.00     0.033 C 
ATOM     27  C   UNL     1      25.547  26.167  16.531  1.00  0.00     0.120 C 
ATOM     28  C   UNL     1      26.667  28.410  16.248  1.00  0.00     0.014 C 
ATOM     29  C   UNL     1      27.455  26.844  18.020  1.00  0.00     0.014 C 
ENDROOT
BRANCH   1  30
ATOM     30  C   UNL     1      20.407  33.756  20.747  1.00  0.00     0.048 C 
ATOM     31  O   UNL     1      20.678  32.683  21.354  1.00  0.00    -0.550 OA
ATOM     32  O   UNL     1      19.441  34.598  21.290  1.00  0.00    -0.550 OA
ENDBRANCH   1  30
BRANCH  27  33
ATOM     33  O   UNL     1      25.422  25.053  17.382  1.00  0.00    -0.393 OA
ATOM     34  H   UNL     1      24.457  24.820  17.426  1.00  0.00     0.210 HD
ENDBRANCH  27  33
TORSDOF 2
ENDMDL
MODEL 2
REMARK VINA RESULT:    19.830      1.867      3.567
REMARK INTER + INTRA:          21.592
REMARK INTER:                  21.750
REMARK INTRA:                  -0.159
REMARK UNBOUND:                 0.023
REMARK SMILES CC1(C)CC[C@]2(C(=O)[O-])CC[C@]3(C)C(=CC[C@H]4[C@@]5(C)CC[C@H](O)C(C)(C)[C@H]5CC[C@]43C)[C@@H]2C1
REMARK SMILES IDX 6 1 5 2 10 3 32 4 4 5 11 6 14 7 33 8 2 9 12 10 15 11 1 12
REMARK SMILES IDX 3 13 13 14 30 15 16 16 17 17 29 18 31 19 18 20 28 21 27 22
REMARK SMILES IDX 20 23 19 24 24 25 21 26 22 27 25 28 26 29 7 30 8 31 9 32
REMARK SMILES IDX 23 33
REMARK H PARENT 23 34
REMARK Flexibility Score: inf
ROOT
ATOM      1  C   UNL     1      19.929  34.503  17.688  1.00  0.00     0.017 C 
ATOM      2  C   UNL     1      18.537  35.091  18.101  1.00  0.00     0.014 C 
ATOM      3  C   UNL     1      19.696  33.296  16.722  1.00  0.00     0.014 C 
ATOM      4  C   UNL     1      20.751  34.110  18.976  1.00  0.00     0.028 C 
ATOM      5  C   UNL     1      18.640  35.964  19.360  1.00  0.00     0.007 C 
ATOM      6  C   UNL     1      19.856  31.901  17.361  1.00  0.00     0.013 C 
ATOM      7  C   UNL     1      21.694  32.929  18.754  1.00  0.00    -0.064 C 
ATOM      8  C   UNL     1      19.849  33.856  20.209  1.00  0.00     0.015 C 
ATOM      9  C   UNL     1      19.015  35.113  20.614  1.00  0.00    -0.035 C 
ATOM     10  C   UNL     1      21.212  31.622  18.116  1.00  0.00    -0.006 C 
ATOM     11  C   UNL     1      22.966  33.026  19.182  1.00  0.00    -0.027 C 
ATOM     12  C   UNL     1      17.723  34.651  21.328  1.00  0.00     0.011 C 
ATOM     13  C   UNL     1      19.824  35.984  21.601  1.00  0.00     0.011 C 
ATOM     14  C   UNL     1      20.865  30.616  19.255  1.00  0.00     0.017 C 
ATOM     15  C   UNL     1      22.384  31.023  17.167  1.00  0.00    -0.020 C 
ATOM     16  C   UNL     1      23.856  31.828  19.210  1.00  0.00     0.032 C 
ATOM     17  C   UNL     1      23.832  31.027  17.870  1.00  0.00     0.006 C 
ATOM     18  C   UNL     1      22.041  29.584  16.701  1.00  0.00     0.008 C 
ATOM     19  C   UNL     1      22.483  31.918  15.884  1.00  0.00     0.012 C 
ATOM     20  C   UNL     1      24.705  29.659  17.922  1.00  0.00    -0.025 C 
ATOM     21  C   UNL     1      23.163  28.962  15.881  1.00  0.00     0.005 C 
ATOM     22  C   UNL     1      24.394  28.609  16.747  1.00  0.00     0.003 C 
ATOM     23  C   UNL     1      24.566  28.953  19.304  1.00  0.00     0.010 C 
ATOM     24  C   UNL     1      26.199  30.107  17.800  1.00  0.00     0.012 C 
ATOM     25  C   UNL     1      24.421  27.058  17.136  1.00  0.00    -0.006 C 
ATOM     26  C   UNL     1      25.378  27.654  19.471  1.00  0.00     0.033 C 
ATOM     27  C   UNL     1      25.510  26.773  18.208  1.00  0.00     0.120 C 
ATOM     28  C   UNL     1      23.060  26.507  17.668  1.00  0.00     0.014 C 
ATOM     29  C   UNL     1      24.766  26.208  15.875  1.00  0.00     0.014 C 
ENDROOT
BRANCH   1  30
ATOM     30  C   UNL     1      20.725  35.561  16.916  1.00  0.00     0.048 C 
ATOM     31  O   UNL     1      20.245  36.125  15.894  1.00  0.00    -0.550 OA
ATOM     32  O   UNL     1      22.040  35.842  17.273  1.00  0.00    -0.550 OA
ENDBRANCH   1  30
BRANCH  27  33
ATOM     33  O   UNL     1      26.794  26.910  17.648  1.00  0.00    -0.393 OA
ATOM     34  H   UNL     1      27.183  26.000  17.569  1.00  0.00     0.210 HD
ENDBRANCH  27  33
TORSDOF 2
ENDMDL
MODEL 3
REMARK VINA RESULT:    20.228      2.376      4.605
REMARK INTER + INTRA:          22.024
REMARK INTER:                  22.201
REMARK INTRA:                  -0.177
REMARK UNBOUND:                 0.023
REMARK SMILES CC1(C)CC[C@]2(C(=O)[O-])CC[C@]3(C)C(=CC[C@H]4[C@@]5(C)CC[C@H](O)C(C)(C)[C@H]5CC[C@]43C)[C@@H]2C1
REMARK SMILES IDX 6 1 5 2 10 3 32 4 4 5 11 6 14 7 33 8 2 9 12 10 15 11 1 12
REMARK SMILES IDX 3 13 13 14 30 15 16 16 17 17 29 18 31 19 18 20 28 21 27 22
REMARK SMILES IDX 20 23 19 24 24 25 21 26 22 27 25 28 26 29 7 30 8 31 9 32
REMARK SMILES IDX 23 33
REMARK H PARENT 23 34
REMARK Flexibility Score: inf
ROOT
ATOM      1  C   UNL     1      21.744  31.351  18.083  1.00  0.00     0.017 C 
ATOM      2  C   UNL     1      20.647  31.972  19.016  1.00  0.00     0.014 C 
ATOM      3  C   UNL     1      21.313  29.897  17.703  1.00  0.00     0.014 C 
ATOM      4  C   UNL     1      23.151  31.411  18.794  1.00  0.00     0.028 C 
ATOM      5  C   UNL     1      21.178  33.192  19.782  1.00  0.00     0.007 C 
ATOM      6  C   UNL     1      22.041  28.774  18.471  1.00  0.00     0.013 C 
ATOM      7  C   UNL     1      24.077  30.264  18.395  1.00  0.00    -0.064 C 
ATOM      8  C   UNL     1      23.041  31.503  20.336  1.00  0.00     0.015 C 
ATOM      9  C   UNL     1      22.281  32.783  20.809  1.00  0.00    -0.035 C 
ATOM     10  C   UNL     1      23.617  28.803  18.438  1.00  0.00    -0.006 C 
ATOM     11  C   UNL     1      25.347  30.546  18.050  1.00  0.00    -0.027 C 
ATOM     12  C   UNL     1      21.627  32.502  22.182  1.00  0.00     0.011 C 
ATOM     13  C   UNL     1      23.277  33.952  20.982  1.00  0.00     0.011 C 
ATOM     14  C   UNL     1      24.082  28.178  19.788  1.00  0.00     0.017 C 
ATOM     15  C   UNL     1      24.265  27.998  17.186  1.00  0.00    -0.020 C 
ATOM     16  C   UNL     1      26.355  29.458  17.887  1.00  0.00     0.032 C 
ATOM     17  C   UNL     1      25.838  28.285  16.996  1.00  0.00     0.006 C 
ATOM     18  C   UNL     1      24.033  26.471  17.327  1.00  0.00     0.008 C 
ATOM     19  C   UNL     1      23.542  28.461  15.876  1.00  0.00     0.012 C 
ATOM     20  C   UNL     1      26.877  27.042  16.902  1.00  0.00    -0.025 C 
ATOM     21  C   UNL     1      24.707  25.682  16.213  1.00  0.00     0.005 C 
ATOM     22  C   UNL     1      26.246  25.668  16.355  1.00  0.00     0.003 C 
ATOM     23  C   UNL     1      27.577  26.786  18.270  1.00  0.00     0.010 C 
ATOM     24  C   UNL     1      27.995  27.500  15.908  1.00  0.00     0.012 C 
ATOM     25  C   UNL     1      26.769  24.314  17.025  1.00  0.00    -0.006 C 
ATOM     26  C   UNL     1      28.607  25.639  18.285  1.00  0.00     0.033 C 
ATOM     27  C   UNL     1      28.276  24.422  17.393  1.00  0.00     0.120 C 
ATOM     28  C   UNL     1      25.986  23.888  18.306  1.00  0.00     0.014 C 
ATOM     29  C   UNL     1      26.613  23.137  16.015  1.00  0.00     0.014 C 
ENDROOT
BRANCH   1  30
ATOM     30  C   UNL     1      21.829  32.159  16.784  1.00  0.00     0.048 C 
ATOM     31  O   UNL     1      20.826  32.296  16.031  1.00  0.00    -0.550 OA
ATOM     32  O   UNL     1      23.052  32.670  16.359  1.00  0.00    -0.550 OA
ENDBRANCH   1  30
BRANCH  27  33
ATOM     33  O   UNL     1      29.063  24.442  16.226  1.00  0.00    -0.393 OA
ATOM     34  H   UNL     1      28.998  23.543  15.809  1.00  0.00     0.210 HD
ENDBRANCH  27  33
TORSDOF 2
ENDMDL
MODEL 4
REMARK VINA RESULT:    20.824     10.736     14.567
REMARK INTER + INTRA:          22.672
REMARK INTER:                  22.855
REMARK INTRA:                  -0.182
REMARK UNBOUND:                 0.023
REMARK SMILES CC1(C)CC[C@]2(C(=O)[O-])CC[C@]3(C)C(=CC[C@H]4[C@@]5(C)CC[C@H](O)C(C)(C)[C@H]5CC[C@]43C)[C@@H]2C1
REMARK SMILES IDX 6 1 5 2 10 3 32 4 4 5 11 6 14 7 33 8 2 9 12 10 15 11 1 12
REMARK SMILES IDX 3 13 13 14 30 15 16 16 17 17 29 18 31 19 18 20 28 21 27 22
REMARK SMILES IDX 20 23 19 24 24 25 21 26 22 27 25 28 26 29 7 30 8 31 9 32
REMARK SMILES IDX 23 33
REMARK H PARENT 23 34
REMARK Flexibility Score: inf
ROOT
ATOM      1  C   UNL     1      19.693  33.854  34.304  1.00  0.00     0.017 C 
ATOM      2  C   UNL     1      19.209  32.906  35.455  1.00  0.00     0.014 C 
ATOM      3  C   UNL     1      18.457  34.261  33.438  1.00  0.00     0.014 C 
ATOM      4  C   UNL     1      20.827  33.147  33.466  1.00  0.00     0.028 C 
ATOM      5  C   UNL     1      20.374  32.117  36.069  1.00  0.00     0.007 C 
ATOM      6  C   UNL     1      18.324  33.519  32.092  1.00  0.00     0.013 C 
ATOM      7  C   UNL     1      20.846  33.571  31.999  1.00  0.00    -0.064 C 
ATOM      8  C   UNL     1      20.783  31.602  33.579  1.00  0.00     0.015 C 
ATOM      9  C   UNL     1      20.976  31.102  35.047  1.00  0.00    -0.035 C 
ATOM     10  C   UNL     1      19.579  33.556  31.138  1.00  0.00    -0.006 C 
ATOM     11  C   UNL     1      22.021  33.915  31.439  1.00  0.00    -0.027 C 
ATOM     12  C   UNL     1      20.275  29.733  35.208  1.00  0.00     0.011 C 
ATOM     13  C   UNL     1      22.480  30.909  35.342  1.00  0.00     0.011 C 
ATOM     14  C   UNL     1      19.543  32.220  30.336  1.00  0.00     0.017 C 
ATOM     15  C   UNL     1      19.601  34.825  30.127  1.00  0.00    -0.020 C 
ATOM     16  C   UNL     1      22.138  34.102  29.963  1.00  0.00     0.032 C 
ATOM     17  C   UNL     1      21.014  35.015  29.379  1.00  0.00     0.006 C 
ATOM     18  C   UNL     1      18.470  34.714  29.071  1.00  0.00     0.008 C 
ATOM     19  C   UNL     1      19.334  36.124  30.961  1.00  0.00     0.012 C 
ATOM     20  C   UNL     1      21.059  35.137  27.762  1.00  0.00    -0.025 C 
ATOM     21  C   UNL     1      18.520  35.846  28.053  1.00  0.00     0.005 C 
ATOM     22  C   UNL     1      19.718  35.709  27.085  1.00  0.00     0.003 C 
ATOM     23  C   UNL     1      21.436  33.776  27.103  1.00  0.00     0.010 C 
ATOM     24  C   UNL     1      22.230  36.125  27.445  1.00  0.00     0.012 C 
ATOM     25  C   UNL     1      19.282  35.068  25.687  1.00  0.00    -0.006 C 
ATOM     26  C   UNL     1      21.533  33.787  25.565  1.00  0.00     0.033 C 
ATOM     27  C   UNL     1      20.528  34.703  24.831  1.00  0.00     0.120 C 
ATOM     28  C   UNL     1      18.391  33.792  25.817  1.00  0.00     0.014 C 
ATOM     29  C   UNL     1      18.440  36.100  24.878  1.00  0.00     0.014 C 
ENDROOT
BRANCH   1  30
ATOM     30  C   UNL     1      20.274  35.137  34.908  1.00  0.00     0.048 C 
ATOM     31  O   UNL     1      19.572  35.897  35.631  1.00  0.00    -0.550 OA
ATOM     32  O   UNL     1      21.564  35.541  34.578  1.00  0.00    -0.550 OA
ENDBRANCH   1  30
BRANCH  27  33
ATOM     33  O   UNL     1      21.169  35.871  24.378  1.00  0.00    -0.393 OA
ATOM     34  H   UNL     1      21.186  36.513  25.136  1.00  0.00     0.210 HD
ENDBRANCH  27  33
TORSDOF 2
ENDMDL
MODEL 5
REMARK VINA RESULT:    21.395     10.344     13.968
REMARK INTER + INTRA:          23.294
REMARK INTER:                  23.405
REMARK INTRA:                  -0.111
REMARK UNBOUND:                 0.023
REMARK SMILES CC1(C)CC[C@]2(C(=O)[O-])CC[C@]3(C)C(=CC[C@H]4[C@@]5(C)CC[C@H](O)C(C)(C)[C@H]5CC[C@]43C)[C@@H]2C1
REMARK SMILES IDX 6 1 5 2 10 3 32 4 4 5 11 6 14 7 33 8 2 9 12 10 15 11 1 12
REMARK SMILES IDX 3 13 13 14 30 15 16 16 17 17 29 18 31 19 18 20 28 21 27 22
REMARK SMILES IDX 20 23 19 24 24 25 21 26 22 27 25 28 26 29 7 30 8 31 9 32
REMARK SMILES IDX 23 33
REMARK H PARENT 23 34
REMARK Flexibility Score: inf
ROOT
ATOM      1  C   UNL     1      20.525  32.698  33.666  1.00  0.00     0.017 C 
ATOM      2  C   UNL     1      21.020  33.138  35.086  1.00  0.00     0.014 C 
ATOM      3  C   UNL     1      21.745  32.696  32.688  1.00  0.00     0.014 C 
ATOM      4  C   UNL     1      19.355  33.642  33.188  1.00  0.00     0.028 C 
ATOM      5  C   UNL     1      19.856  33.591  35.979  1.00  0.00     0.007 C 
ATOM      6  C   UNL     1      21.827  33.907  31.736  1.00  0.00     0.013 C 
ATOM      7  C   UNL     1      19.305  33.821  31.672  1.00  0.00    -0.064 C 
ATOM      8  C   UNL     1      19.369  35.021  33.893  1.00  0.00     0.015 C 
ATOM      9  C   UNL     1      19.206  34.906  35.443  1.00  0.00    -0.035 C 
ATOM     10  C   UNL     1      20.548  34.207  30.864  1.00  0.00    -0.006 C 
ATOM     11  C   UNL     1      18.122  33.688  31.042  1.00  0.00    -0.027 C 
ATOM     12  C   UNL     1      19.883  36.125  36.112  1.00  0.00     0.011 C 
ATOM     13  C   UNL     1      17.706  34.924  35.815  1.00  0.00     0.011 C 
ATOM     14  C   UNL     1      20.535  35.750  30.645  1.00  0.00     0.017 C 
ATOM     15  C   UNL     1      20.525  33.431  29.439  1.00  0.00    -0.020 C 
ATOM     16  C   UNL     1      17.970  34.086  29.612  1.00  0.00     0.032 C 
ATOM     17  C   UNL     1      19.096  33.506  28.701  1.00  0.00     0.006 C 
ATOM     18  C   UNL     1      21.624  33.977  28.491  1.00  0.00     0.008 C 
ATOM     19  C   UNL     1      20.841  31.918  29.697  1.00  0.00     0.012 C 
ATOM     20  C   UNL     1      19.011  34.021  27.164  1.00  0.00    -0.025 C 
ATOM     21  C   UNL     1      21.570  33.330  27.114  1.00  0.00     0.005 C 
ATOM     22  C   UNL     1      20.344  33.797  26.296  1.00  0.00     0.003 C 
ATOM     23  C   UNL     1      18.588  35.519  27.093  1.00  0.00     0.010 C 
ATOM     24  C   UNL     1      17.852  33.200  26.507  1.00  0.00     0.012 C 
ATOM     25  C   UNL     1      20.730  34.944  25.250  1.00  0.00    -0.006 C 
ATOM     26  C   UNL     1      18.450  36.104  25.674  1.00  0.00     0.033 C 
ATOM     27  C   UNL     1      19.454  35.576  24.625  1.00  0.00     0.120 C 
ATOM     28  C   UNL     1      21.598  36.094  25.852  1.00  0.00     0.014 C 
ATOM     29  C   UNL     1      21.571  34.332  24.089  1.00  0.00     0.014 C 
ENDROOT
BRANCH   1  30
ATOM     30  C   UNL     1      19.987  31.265  33.731  1.00  0.00     0.048 C 
ATOM     31  O   UNL     1      20.501  30.407  34.501  1.00  0.00    -0.550 OA
ATOM     32  O   UNL     1      18.982  30.856  32.860  1.00  0.00    -0.550 OA
ENDBRANCH   1  30
BRANCH  27  33
ATOM     33  O   UNL     1      18.825  34.657  23.764  1.00  0.00    -0.393 OA
ATOM     34  H   UNL     1      17.974  34.382  24.194  1.00  0.00     0.210 HD
ENDBRANCH  27  33
TORSDOF 2
ENDMDL
