MODEL 1
REMARK VINA RESULT:    -3.778      0.000      0.000
REMARK INTER + INTRA:          -8.389
REMARK INTER:                  -6.428
REMARK INTRA:                  -1.961
REMARK UNBOUND:                -1.961
REMARK SMILES CCCCCCCCCCCCCC(=O)[O-]
REMARK SMILES IDX 8 1 9 2 10 3 11 4 12 5 13 6 14 7 15 8 16 9 7 10 6 11 5 12
REMARK SMILES IDX 4 13 3 14 2 15 1 16
REMARK H PARENT
REMARK Flexibility Score: inf
ROOT
ATOM      1  C   UNL     1      14.208 -33.772   0.152  1.00  0.00     0.000 C 
ENDROOT
BRANCH   1   2
ATOM      2  C   UNL     1      13.853 -35.269   0.085  1.00  0.00     0.000 C 
BRANCH   2   3
ATOM      3  C   UNL     1      14.852 -36.144   0.859  1.00  0.00     0.000 C 
BRANCH   3   4
ATOM      4  C   UNL     1      16.055 -35.344   1.385  1.00  0.00     0.000 C 
BRANCH   4   5
ATOM      5  C   UNL     1      17.270 -36.229   1.716  1.00  0.00     0.006 C 
BRANCH   5   6
ATOM      6  C   UNL     1      17.191 -37.646   1.120  1.00  0.00     0.053 C 
BRANCH   6   7
ATOM      7  C   UNL     1      18.501 -38.371   1.186  1.00  0.00     0.041 C 
ATOM      8  O   UNL     1      19.496 -37.940   0.545  1.00  0.00    -0.550 OA
ATOM      9  O   UNL     1      18.634 -39.502   1.982  1.00  0.00    -0.550 OA
ENDBRANCH   6   7
ENDBRANCH   5   6
ENDBRANCH   4   5
ENDBRANCH   3   4
ENDBRANCH   2   3
ENDBRANCH   1   2
BRANCH   1  10
ATOM     10  C   UNL     1      14.116 -33.080  -1.216  1.00  0.00     0.000 C 
BRANCH  10  11
ATOM     11  C   UNL     1      15.152 -33.618  -2.219  1.00  0.00    -0.000 C 
BRANCH  11  12
ATOM     12  C   UNL     1      16.598 -33.315  -1.792  1.00  0.00    -0.000 C 
BRANCH  12  13
ATOM     13  C   UNL     1      17.531 -34.529  -1.949  1.00  0.00    -0.000 C 
BRANCH  13  14
ATOM     14  C   UNL     1      16.760 -35.844  -2.143  1.00  0.00    -0.000 C 
BRANCH  14  15
ATOM     15  C   UNL     1      17.685 -37.030  -2.453  1.00  0.00    -0.003 C 
ATOM     16  C   UNL     1      16.897 -38.335  -2.532  1.00  0.00     0.004 C 
ENDBRANCH  14  15
ENDBRANCH  13  14
ENDBRANCH  12  13
ENDBRANCH  11  12
ENDBRANCH  10  11
ENDBRANCH   1  10
TORSDOF 12
ENDMDL
MODEL 2
REMARK VINA RESULT:    -3.761      1.151      2.891
REMARK INTER + INTRA:          -8.361
REMARK INTER:                  -6.416
REMARK INTRA:                  -1.945
REMARK UNBOUND:                -1.961
REMARK SMILES CCCCCCCCCCCCCC(=O)[O-]
REMARK SMILES IDX 8 1 9 2 10 3 11 4 12 5 13 6 14 7 15 8 16 9 7 10 6 11 5 12
REMARK SMILES IDX 4 13 3 14 2 15 1 16
REMARK H PARENT
REMARK Flexibility Score: inf
ROOT
ATOM      1  C   UNL     1      14.214 -37.730  -1.214  1.00  0.00     0.000 C 
ENDROOT
BRANCH   1   2
ATOM      2  C   UNL     1      14.021 -36.655  -0.130  1.00  0.00     0.000 C 
BRANCH   2   3
ATOM      3  C   UNL     1      14.582 -37.089   1.234  1.00  0.00     0.000 C 
BRANCH   3   4
ATOM      4  C   UNL     1      15.596 -36.083   1.803  1.00  0.00     0.000 C 
BRANCH   4   5
ATOM      5  C   UNL     1      16.999 -36.685   1.999  1.00  0.00     0.006 C 
BRANCH   5   6
ATOM      6  C   UNL     1      17.104 -38.166   1.591  1.00  0.00     0.053 C 
BRANCH   6   7
ATOM      7  C   UNL     1      18.523 -38.641   1.514  1.00  0.00     0.041 C 
ATOM      8  O   UNL     1      18.881 -39.669   2.148  1.00  0.00    -0.550 OA
ATOM      9  O   UNL     1      19.443 -37.971   0.717  1.00  0.00    -0.550 OA
ENDBRANCH   6   7
ENDBRANCH   5   6
ENDBRANCH   4   5
ENDBRANCH   3   4
ENDBRANCH   2   3
ENDBRANCH   1   2
BRANCH   1  10
ATOM     10  C   UNL     1      15.184 -37.289  -2.321  1.00  0.00     0.000 C 
BRANCH  10  11
ATOM     11  C   UNL     1      16.657 -37.510  -1.936  1.00  0.00    -0.000 C 
BRANCH  11  12
ATOM     12  C   UNL     1      17.544 -36.303  -2.283  1.00  0.00    -0.000 C 
BRANCH  12  13
ATOM     13  C   UNL     1      17.437 -35.169  -1.247  1.00  0.00    -0.000 C 
BRANCH  13  14
ATOM     14  C   UNL     1      17.464 -33.775  -1.893  1.00  0.00    -0.000 C 
BRANCH  14  15
ATOM     15  C   UNL     1      16.065 -33.284  -2.295  1.00  0.00    -0.003 C 
ATOM     16  C   UNL     1      15.111 -33.310  -1.104  1.00  0.00     0.004 C 
ENDBRANCH  14  15
ENDBRANCH  13  14
ENDBRANCH  12  13
ENDBRANCH  11  12
ENDBRANCH  10  11
ENDBRANCH   1  10
TORSDOF 12
ENDMDL
MODEL 3
REMARK VINA RESULT:    -3.661      1.666      2.968
REMARK INTER + INTRA:          -8.191
REMARK INTER:                  -6.745
REMARK INTRA:                  -1.446
REMARK UNBOUND:                -1.961
REMARK SMILES CCCCCCCCCCCCCC(=O)[O-]
REMARK SMILES IDX 8 1 9 2 10 3 11 4 12 5 13 6 14 7 15 8 16 9 7 10 6 11 5 12
REMARK SMILES IDX 4 13 3 14 2 15 1 16
REMARK H PARENT
REMARK Flexibility Score: inf
ROOT
ATOM      1  C   UNL     1      15.655 -32.962  -1.800  1.00  0.00     0.000 C 
ENDROOT
BRANCH   1   2
ATOM      2  C   UNL     1      17.030 -33.577  -2.117  1.00  0.00     0.000 C 
BRANCH   2   3
ATOM      3  C   UNL     1      17.256 -34.915  -1.393  1.00  0.00     0.000 C 
BRANCH   3   4
ATOM      4  C   UNL     1      17.684 -36.039  -2.351  1.00  0.00     0.000 C 
BRANCH   4   5
ATOM      5  C   UNL     1      17.935 -37.378  -1.635  1.00  0.00     0.006 C 
BRANCH   5   6
ATOM      6  C   UNL     1      17.705 -37.325  -0.115  1.00  0.00     0.053 C 
BRANCH   6   7
ATOM      7  C   UNL     1      18.491 -38.367   0.622  1.00  0.00     0.041 C 
ATOM      8  O   UNL     1      19.358 -39.052   0.017  1.00  0.00    -0.550 OA
ATOM      9  O   UNL     1      18.292 -38.560   1.984  1.00  0.00    -0.550 OA
ENDBRANCH   6   7
ENDBRANCH   5   6
ENDBRANCH   4   5
ENDBRANCH   3   4
ENDBRANCH   2   3
ENDBRANCH   1   2
BRANCH   1  10
ATOM     10  C   UNL     1      14.844 -33.805  -0.804  1.00  0.00     0.000 C 
BRANCH  10  11
ATOM     11  C   UNL     1      13.398 -34.042  -1.273  1.00  0.00    -0.000 C 
BRANCH  11  12
ATOM     12  C   UNL     1      13.330 -34.700  -2.662  1.00  0.00    -0.000 C 
BRANCH  12  13
ATOM     13  C   UNL     1      13.058 -36.213  -2.590  1.00  0.00    -0.000 C 
BRANCH  13  14
ATOM     14  C   UNL     1      14.337 -37.030  -2.348  1.00  0.00    -0.000 C 
BRANCH  14  15
ATOM     15  C   UNL     1      14.067 -38.541  -2.277  1.00  0.00    -0.003 C 
ATOM     16  C   UNL     1      15.068 -39.318  -3.126  1.00  0.00     0.004 C 
ENDBRANCH  14  15
ENDBRANCH  13  14
ENDBRANCH  12  13
ENDBRANCH  11  12
ENDBRANCH  10  11
ENDBRANCH   1  10
TORSDOF 12
ENDMDL
MODEL 4
REMARK VINA RESULT:    -3.626      1.452      3.238
REMARK INTER + INTRA:          -8.131
REMARK INTER:                  -6.430
REMARK INTRA:                  -1.700
REMARK UNBOUND:                -1.961
REMARK SMILES CCCCCCCCCCCCCC(=O)[O-]
REMARK SMILES IDX 8 1 9 2 10 3 11 4 12 5 13 6 14 7 15 8 16 9 7 10 6 11 5 12
REMARK SMILES IDX 4 13 3 14 2 15 1 16
REMARK H PARENT
REMARK Flexibility Score: inf
ROOT
ATOM      1  C   UNL     1      16.800 -33.973  -1.300  1.00  0.00     0.000 C 
ENDROOT
BRANCH   1   2
ATOM      2  C   UNL     1      17.650 -34.913  -2.174  1.00  0.00     0.000 C 
BRANCH   2   3
ATOM      3  C   UNL     1      17.054 -36.326  -2.268  1.00  0.00     0.000 C 
BRANCH   3   4
ATOM      4  C   UNL     1      17.935 -37.385  -1.585  1.00  0.00     0.000 C 
BRANCH   4   5
ATOM      5  C   UNL     1      18.133 -37.126  -0.081  1.00  0.00     0.006 C 
BRANCH   5   6
ATOM      6  C   UNL     1      18.907 -38.239   0.647  1.00  0.00     0.053 C 
BRANCH   6   7
ATOM      7  C   UNL     1      18.097 -39.490   0.810  1.00  0.00     0.041 C 
ATOM      8  O   UNL     1      18.651 -40.618   0.725  1.00  0.00    -0.550 OA
ATOM      9  O   UNL     1      16.738 -39.411   1.090  1.00  0.00    -0.550 OA
ENDBRANCH   6   7
ENDBRANCH   5   6
ENDBRANCH   4   5
ENDBRANCH   3   4
ENDBRANCH   2   3
ENDBRANCH   1   2
BRANCH   1  10
ATOM     10  C   UNL     1      15.986 -32.968  -2.130  1.00  0.00     0.000 C 
BRANCH  10  11
ATOM     11  C   UNL     1      14.489 -32.987  -1.776  1.00  0.00    -0.000 C 
BRANCH  11  12
ATOM     12  C   UNL     1      13.657 -33.801  -2.781  1.00  0.00    -0.000 C 
BRANCH  12  13
ATOM     13  C   UNL     1      13.453 -35.262  -2.339  1.00  0.00    -0.000 C 
BRANCH  13  14
ATOM     14  C   UNL     1      13.348 -35.407  -0.814  1.00  0.00    -0.000 C 
BRANCH  14  15
ATOM     15  C   UNL     1      14.082 -36.649  -0.287  1.00  0.00    -0.003 C 
ATOM     16  C   UNL     1      14.665 -36.397   1.100  1.00  0.00     0.004 C 
ENDBRANCH  14  15
ENDBRANCH  13  14
ENDBRANCH  12  13
ENDBRANCH  11  12
ENDBRANCH  10  11
ENDBRANCH   1  10
TORSDOF 12
ENDMDL
MODEL 5
REMARK VINA RESULT:    -3.554      1.563      3.595
REMARK INTER + INTRA:          -8.009
REMARK INTER:                  -6.578
REMARK INTRA:                  -1.431
REMARK UNBOUND:                -1.961
REMARK SMILES CCCCCCCCCCCCCC(=O)[O-]
REMARK SMILES IDX 8 1 9 2 10 3 11 4 12 5 13 6 14 7 15 8 16 9 7 10 6 11 5 12
REMARK SMILES IDX 4 13 3 14 2 15 1 16
REMARK H PARENT
REMARK Flexibility Score: inf
ROOT
ATOM      1  C   UNL     1      15.904 -37.119  -2.157  1.00  0.00     0.000 C 
ENDROOT
BRANCH   1   2
ATOM      2  C   UNL     1      15.998 -38.652  -2.248  1.00  0.00     0.000 C 
BRANCH   2   3
ATOM      3  C   UNL     1      15.163 -39.357  -1.166  1.00  0.00     0.000 C 
BRANCH   3   4
ATOM      4  C   UNL     1      16.015 -40.258  -0.257  1.00  0.00     0.000 C 
BRANCH   4   5
ATOM      5  C   UNL     1      16.079 -39.761   1.198  1.00  0.00     0.006 C 
BRANCH   5   6
ATOM      6  C   UNL     1      17.012 -38.555   1.405  1.00  0.00     0.053 C 
BRANCH   6   7
ATOM      7  C   UNL     1      18.461 -38.938   1.373  1.00  0.00     0.041 C 
ATOM      8  O   UNL     1      18.973 -39.559   2.342  1.00  0.00    -0.550 OA
ATOM      9  O   UNL     1      19.239 -38.641   0.261  1.00  0.00    -0.550 OA
ENDBRANCH   6   7
ENDBRANCH   5   6
ENDBRANCH   4   5
ENDBRANCH   3   4
ENDBRANCH   2   3
ENDBRANCH   1   2
BRANCH   1  10
ATOM     10  C   UNL     1      17.283 -36.440  -2.145  1.00  0.00     0.000 C 
BRANCH  10  11
ATOM     11  C   UNL     1      17.619 -35.813  -0.780  1.00  0.00    -0.000 C 
BRANCH  11  12
ATOM     12  C   UNL     1      17.152 -34.352  -0.673  1.00  0.00    -0.000 C 
BRANCH  12  13
ATOM     13  C   UNL     1      17.141 -33.630  -2.033  1.00  0.00    -0.000 C 
BRANCH  13  14
ATOM     14  C   UNL     1      15.807 -32.920  -2.311  1.00  0.00    -0.000 C 
BRANCH  14  15
ATOM     15  C   UNL     1      14.625 -33.575  -1.581  1.00  0.00    -0.003 C 
ATOM     16  C   UNL     1      13.603 -34.124  -2.572  1.00  0.00     0.004 C 
ENDBRANCH  14  15
ENDBRANCH  13  14
ENDBRANCH  12  13
ENDBRANCH  11  12
ENDBRANCH  10  11
ENDBRANCH   1  10
TORSDOF 12
ENDMDL
MODEL 6
REMARK VINA RESULT:    -3.553      1.719      2.816
REMARK INTER + INTRA:          -8.007
REMARK INTER:                  -6.048
REMARK INTRA:                  -1.959
REMARK UNBOUND:                -1.961
REMARK SMILES CCCCCCCCCCCCCC(=O)[O-]
REMARK SMILES IDX 8 1 9 2 10 3 11 4 12 5 13 6 14 7 15 8 16 9 7 10 6 11 5 12
REMARK SMILES IDX 4 13 3 14 2 15 1 16
REMARK H PARENT
REMARK Flexibility Score: inf
ROOT
ATOM      1  C   UNL     1      17.891 -35.425   0.485  1.00  0.00     0.000 C 
ENDROOT
BRANCH   1   2
ATOM      2  C   UNL     1      16.969 -35.476   1.715  1.00  0.00     0.000 C 
BRANCH   2   3
ATOM      3  C   UNL     1      15.590 -36.074   1.392  1.00  0.00     0.000 C 
BRANCH   3   4
ATOM      4  C   UNL     1      15.340 -37.407   2.117  1.00  0.00     0.000 C 
BRANCH   4   5
ATOM      5  C   UNL     1      16.586 -38.309   2.168  1.00  0.00     0.006 C 
BRANCH   5   6
ATOM      6  C   UNL     1      16.810 -39.135   0.889  1.00  0.00     0.053 C 
BRANCH   6   7
ATOM      7  C   UNL     1      18.235 -39.573   0.730  1.00  0.00     0.041 C 
ATOM      8  O   UNL     1      18.600 -40.703   1.149  1.00  0.00    -0.550 OA
ATOM      9  O   UNL     1      19.152 -38.749   0.088  1.00  0.00    -0.550 OA
ENDBRANCH   6   7
ENDBRANCH   5   6
ENDBRANCH   4   5
ENDBRANCH   3   4
ENDBRANCH   2   3
ENDBRANCH   1   2
BRANCH   1  10
ATOM     10  C   UNL     1      17.430 -34.396  -0.560  1.00  0.00     0.000 C 
BRANCH  10  11
ATOM     11  C   UNL     1      17.030 -35.050  -1.894  1.00  0.00    -0.000 C 
BRANCH  11  12
ATOM     12  C   UNL     1      17.815 -36.342  -2.175  1.00  0.00    -0.000 C 
BRANCH  12  13
ATOM     13  C   UNL     1      16.899 -37.562  -2.376  1.00  0.00    -0.000 C 
BRANCH  13  14
ATOM     14  C   UNL     1      15.418 -37.233  -2.136  1.00  0.00    -0.000 C 
BRANCH  14  15
ATOM     15  C   UNL     1      14.544 -38.491  -2.021  1.00  0.00    -0.003 C 
ATOM     16  C   UNL     1      13.478 -38.323  -0.942  1.00  0.00     0.004 C 
ENDBRANCH  14  15
ENDBRANCH  13  14
ENDBRANCH  12  13
ENDBRANCH  11  12
ENDBRANCH  10  11
ENDBRANCH   1  10
TORSDOF 12
ENDMDL
MODEL 7
REMARK VINA RESULT:    -3.525      1.308      3.467
REMARK INTER + INTRA:          -7.959
REMARK INTER:                  -6.320
REMARK INTRA:                  -1.639
REMARK UNBOUND:                -1.961
REMARK SMILES CCCCCCCCCCCCCC(=O)[O-]
REMARK SMILES IDX 8 1 9 2 10 3 11 4 12 5 13 6 14 7 15 8 16 9 7 10 6 11 5 12
REMARK SMILES IDX 4 13 3 14 2 15 1 16
REMARK H PARENT
REMARK Flexibility Score: inf
ROOT
ATOM      1  C   UNL     1      17.638 -35.624  -1.352  1.00  0.00     0.000 C 
ENDROOT
BRANCH   1   2
ATOM      2  C   UNL     1      17.222 -34.696  -0.196  1.00  0.00     0.000 C 
BRANCH   2   3
ATOM      3  C   UNL     1      17.757 -35.174   1.163  1.00  0.00     0.000 C 
BRANCH   3   4
ATOM      4  C   UNL     1      16.641 -35.687   2.089  1.00  0.00     0.000 C 
BRANCH   4   5
ATOM      5  C   UNL     1      16.924 -37.090   2.655  1.00  0.00     0.006 C 
BRANCH   5   6
ATOM      6  C   UNL     1      17.189 -38.156   1.576  1.00  0.00     0.053 C 
BRANCH   6   7
ATOM      7  C   UNL     1      18.604 -38.648   1.588  1.00  0.00     0.041 C 
ATOM      8  O   UNL     1      18.963 -39.522   2.420  1.00  0.00    -0.550 OA
ATOM      9  O   UNL     1      19.519 -38.166   0.660  1.00  0.00    -0.550 OA
ENDBRANCH   6   7
ENDBRANCH   5   6
ENDBRANCH   4   5
ENDBRANCH   3   4
ENDBRANCH   2   3
ENDBRANCH   1   2
BRANCH   1  10
ATOM     10  C   UNL     1      16.433 -36.174  -2.132  1.00  0.00     0.000 C 
BRANCH  10  11
ATOM     11  C   UNL     1      15.323 -36.701  -1.207  1.00  0.00    -0.000 C 
BRANCH  11  12
ATOM     12  C   UNL     1      13.933 -36.167  -1.592  1.00  0.00    -0.000 C 
BRANCH  12  13
ATOM     13  C   UNL     1      13.999 -34.824  -2.342  1.00  0.00    -0.000 C 
BRANCH  13  14
ATOM     14  C   UNL     1      13.354 -33.676  -1.552  1.00  0.00    -0.000 C 
BRANCH  14  15
ATOM     15  C   UNL     1      14.365 -32.589  -1.158  1.00  0.00    -0.003 C 
ATOM     16  C   UNL     1      15.496 -32.494  -2.178  1.00  0.00     0.004 C 
ENDBRANCH  14  15
ENDBRANCH  13  14
ENDBRANCH  12  13
ENDBRANCH  11  12
ENDBRANCH  10  11
ENDBRANCH   1  10
TORSDOF 12
ENDMDL
MODEL 8
REMARK VINA RESULT:    -3.516      2.645      4.378
REMARK INTER + INTRA:          -7.944
REMARK INTER:                  -5.670
REMARK INTRA:                  -2.274
REMARK UNBOUND:                -1.961
REMARK SMILES CCCCCCCCCCCCCC(=O)[O-]
REMARK SMILES IDX 8 1 9 2 10 3 11 4 12 5 13 6 14 7 15 8 16 9 7 10 6 11 5 12
REMARK SMILES IDX 4 13 3 14 2 15 1 16
REMARK H PARENT
REMARK Flexibility Score: inf
ROOT
ATOM      1  C   UNL     1      16.533 -33.382  -1.925  1.00  0.00     0.000 C 
ENDROOT
BRANCH   1   2
ATOM      2  C   UNL     1      15.055 -33.811  -1.919  1.00  0.00     0.000 C 
BRANCH   2   3
ATOM      3  C   UNL     1      14.548 -34.153  -0.509  1.00  0.00     0.000 C 
BRANCH   3   4
ATOM      4  C   UNL     1      13.921 -35.555  -0.430  1.00  0.00     0.000 C 
BRANCH   4   5
ATOM      5  C   UNL     1      14.006 -36.329  -1.758  1.00  0.00     0.006 C 
BRANCH   5   6
ATOM      6  C   UNL     1      14.157 -37.851  -1.585  1.00  0.00     0.053 C 
BRANCH   6   7
ATOM      7  C   UNL     1      14.422 -38.554  -2.881  1.00  0.00     0.041 C 
ATOM      8  O   UNL     1      13.525 -38.613  -3.764  1.00  0.00    -0.550 OA
ATOM      9  O   UNL     1      15.669 -39.113  -3.131  1.00  0.00    -0.550 OA
ENDBRANCH   6   7
ENDBRANCH   5   6
ENDBRANCH   4   5
ENDBRANCH   3   4
ENDBRANCH   2   3
ENDBRANCH   1   2
BRANCH   1  10
ATOM     10  C   UNL     1      17.466 -34.463  -1.356  1.00  0.00     0.000 C 
BRANCH  10  11
ATOM     11  C   UNL     1      17.510 -35.725  -2.235  1.00  0.00    -0.000 C 
BRANCH  11  12
ATOM     12  C   UNL     1      17.806 -36.998  -1.424  1.00  0.00    -0.000 C 
BRANCH  12  13
ATOM     13  C   UNL     1      17.913 -36.727   0.088  1.00  0.00    -0.000 C 
BRANCH  13  14
ATOM     14  C   UNL     1      16.904 -37.548   0.905  1.00  0.00    -0.000 C 
BRANCH  14  15
ATOM     15  C   UNL     1      16.290 -36.746   2.062  1.00  0.00    -0.003 C 
ATOM     16  C   UNL     1      16.941 -35.371   2.185  1.00  0.00     0.004 C 
ENDBRANCH  14  15
ENDBRANCH  13  14
ENDBRANCH  12  13
ENDBRANCH  11  12
ENDBRANCH  10  11
ENDBRANCH   1  10
TORSDOF 12
ENDMDL
MODEL 9
REMARK VINA RESULT:    -3.459      3.061      5.042
REMARK INTER + INTRA:          -7.847
REMARK INTER:                  -5.590
REMARK INTRA:                  -2.257
REMARK UNBOUND:                -1.961
REMARK SMILES CCCCCCCCCCCCCC(=O)[O-]
REMARK SMILES IDX 8 1 9 2 10 3 11 4 12 5 13 6 14 7 15 8 16 9 7 10 6 11 5 12
REMARK SMILES IDX 4 13 3 14 2 15 1 16
REMARK H PARENT
REMARK Flexibility Score: inf
ROOT
ATOM      1  C   UNL     1      16.719 -37.693  -2.458  1.00  0.00     0.000 C 
ENDROOT
BRANCH   1   2
ATOM      2  C   UNL     1      15.961 -38.316  -1.273  1.00  0.00     0.000 C 
BRANCH   2   3
ATOM      3  C   UNL     1      14.563 -37.706  -1.083  1.00  0.00     0.000 C 
BRANCH   3   4
ATOM      4  C   UNL     1      13.967 -37.175  -2.397  1.00  0.00     0.000 C 
BRANCH   4   5
ATOM      5  C   UNL     1      13.495 -35.714  -2.299  1.00  0.00     0.006 C 
BRANCH   5   6
ATOM      6  C   UNL     1      13.715 -35.079  -0.915  1.00  0.00     0.053 C 
BRANCH   6   7
ATOM      7  C   UNL     1      13.932 -33.598  -0.989  1.00  0.00     0.041 C 
ATOM      8  O   UNL     1      13.737 -32.877   0.025  1.00  0.00    -0.550 OA
ATOM      9  O   UNL     1      14.383 -33.016  -2.168  1.00  0.00    -0.550 OA
ENDBRANCH   6   7
ENDBRANCH   5   6
ENDBRANCH   4   5
ENDBRANCH   3   4
ENDBRANCH   2   3
ENDBRANCH   1   2
BRANCH   1  10
ATOM     10  C   UNL     1      17.751 -36.643  -2.016  1.00  0.00     0.000 C 
BRANCH  10  11
ATOM     11  C   UNL     1      17.190 -35.211  -2.059  1.00  0.00    -0.000 C 
BRANCH  11  12
ATOM     12  C   UNL     1      17.555 -34.398  -0.805  1.00  0.00    -0.000 C 
BRANCH  12  13
ATOM     13  C   UNL     1      17.807 -35.287   0.426  1.00  0.00    -0.000 C 
BRANCH  13  14
ATOM     14  C   UNL     1      16.564 -35.424   1.318  1.00  0.00    -0.000 C 
BRANCH  14  15
ATOM     15  C   UNL     1      16.566 -36.723   2.138  1.00  0.00    -0.003 C 
ATOM     16  C   UNL     1      17.680 -37.660   1.681  1.00  0.00     0.004 C 
ENDBRANCH  14  15
ENDBRANCH  13  14
ENDBRANCH  12  13
ENDBRANCH  11  12
ENDBRANCH  10  11
ENDBRANCH   1  10
TORSDOF 12
ENDMDL
