MODEL 1
REMARK VINA RESULT:     6.441      0.000      0.000
REMARK INTER + INTRA:          10.002
REMARK INTER:                  10.959
REMARK INTRA:                  -0.957
REMARK UNBOUND:                -0.957
REMARK SMILES CCCCCCCCCCCCCC(=O)[O-]
REMARK SMILES IDX 8 1 9 2 10 3 11 4 12 5 13 6 14 7 15 8 16 9 7 10 6 11 5 12
REMARK SMILES IDX 4 13 3 14 2 15 1 16
REMARK H PARENT
REMARK Flexibility Score: inf
ROOT
ATOM      1  C   UNL     1       4.223  -8.718  10.993  1.00  0.00     0.000 C 
ENDROOT
BRANCH   1   2
ATOM      2  C   UNL     1       2.805  -8.261  10.605  1.00  0.00     0.000 C 
BRANCH   2   3
ATOM      3  C   UNL     1       2.604  -6.744  10.757  1.00  0.00     0.000 C 
BRANCH   3   4
ATOM      4  C   UNL     1       1.575  -6.391  11.842  1.00  0.00     0.000 C 
BRANCH   4   5
ATOM      5  C   UNL     1       0.773  -7.612  12.321  1.00  0.00     0.006 C 
BRANCH   5   6
ATOM      6  C   UNL     1      -0.663  -7.565  11.791  1.00  0.00     0.053 C 
BRANCH   6   7
ATOM      7  C   UNL     1      -0.726  -8.113  10.401  1.00  0.00     0.041 C 
ATOM      8  O   UNL     1      -0.378  -9.301  10.170  1.00  0.00    -0.550 OA
ATOM      9  O   UNL     1      -1.125  -7.297   9.350  1.00  0.00    -0.550 OA
ENDBRANCH   6   7
ENDBRANCH   5   6
ENDBRANCH   4   5
ENDBRANCH   3   4
ENDBRANCH   2   3
ENDBRANCH   1   2
BRANCH   1  10
ATOM     10  C   UNL     1       4.506  -8.755  12.508  1.00  0.00     0.000 C 
BRANCH  10  11
ATOM     11  C   UNL     1       4.847  -7.394  13.147  1.00  0.00    -0.000 C 
BRANCH  11  12
ATOM     12  C   UNL     1       5.662  -6.444  12.252  1.00  0.00    -0.000 C 
BRANCH  12  13
ATOM     13  C   UNL     1       7.170  -6.735  12.289  1.00  0.00    -0.000 C 
BRANCH  13  14
ATOM     14  C   UNL     1       7.655  -6.932  13.731  1.00  0.00    -0.000 C 
BRANCH  14  15
ATOM     15  C   UNL     1       8.165  -5.614  14.324  1.00  0.00    -0.003 C 
ATOM     16  C   UNL     1       7.146  -5.014  15.289  1.00  0.00     0.004 C 
ENDBRANCH  14  15
ENDBRANCH  13  14
ENDBRANCH  12  13
ENDBRANCH  11  12
ENDBRANCH  10  11
ENDBRANCH   1  10
TORSDOF 12
ENDMDL
MODEL 2
REMARK VINA RESULT:     7.171      3.802      7.277
REMARK INTER + INTRA:          11.245
REMARK INTER:                  12.219
REMARK INTRA:                  -0.974
REMARK UNBOUND:                -0.957
REMARK SMILES CCCCCCCCCCCCCC(=O)[O-]
REMARK SMILES IDX 8 1 9 2 10 3 11 4 12 5 13 6 14 7 15 8 16 9 7 10 6 11 5 12
REMARK SMILES IDX 4 13 3 14 2 15 1 16
REMARK H PARENT
REMARK Flexibility Score: inf
ROOT
ATOM      1  C   UNL     1       4.147  -8.593  11.093  1.00  0.00     0.000 C 
ENDROOT
BRANCH   1   2
ATOM      2  C   UNL     1       4.223  -8.618  12.630  1.00  0.00     0.000 C 
BRANCH   2   3
ATOM      3  C   UNL     1       5.111  -7.501  13.202  1.00  0.00     0.000 C 
BRANCH   3   4
ATOM      4  C   UNL     1       5.870  -6.732  12.109  1.00  0.00     0.000 C 
BRANCH   4   5
ATOM      5  C   UNL     1       7.350  -6.508  12.460  1.00  0.00     0.006 C 
BRANCH   5   6
ATOM      6  C   UNL     1       7.609  -6.786  13.943  1.00  0.00     0.053 C 
BRANCH   6   7
ATOM      7  C   UNL     1       7.935  -5.518  14.666  1.00  0.00     0.041 C 
ATOM      8  O   UNL     1       9.129  -5.122  14.743  1.00  0.00    -0.550 OA
ATOM      9  O   UNL     1       6.929  -4.798  15.295  1.00  0.00    -0.550 OA
ENDBRANCH   6   7
ENDBRANCH   5   6
ENDBRANCH   4   5
ENDBRANCH   3   4
ENDBRANCH   2   3
ENDBRANCH   1   2
BRANCH   1  10
ATOM     10  C   UNL     1       2.845  -8.004  10.512  1.00  0.00     0.000 C 
BRANCH  10  11
ATOM     11  C   UNL     1       2.506  -6.573  10.977  1.00  0.00    -0.000 C 
BRANCH  11  12
ATOM     12  C   UNL     1       1.568  -6.492  12.194  1.00  0.00    -0.000 C 
BRANCH  12  13
ATOM     13  C   UNL     1       0.659  -7.723  12.330  1.00  0.00    -0.000 C 
BRANCH  13  14
ATOM     14  C   UNL     1      -0.774  -7.398  11.891  1.00  0.00    -0.000 C 
BRANCH  14  15
ATOM     15  C   UNL     1      -1.019  -7.838  10.443  1.00  0.00    -0.003 C 
ATOM     16  C   UNL     1      -0.287  -9.141  10.132  1.00  0.00     0.004 C 
ENDBRANCH  14  15
ENDBRANCH  13  14
ENDBRANCH  12  13
ENDBRANCH  11  12
ENDBRANCH  10  11
ENDBRANCH   1  10
TORSDOF 12
ENDMDL
MODEL 3
REMARK VINA RESULT:     8.806      2.077      3.401
REMARK INTER + INTRA:          14.027
REMARK INTER:                  14.028
REMARK INTRA:                  -0.001
REMARK UNBOUND:                -0.957
REMARK SMILES CCCCCCCCCCCCCC(=O)[O-]
REMARK SMILES IDX 8 1 9 2 10 3 11 4 12 5 13 6 14 7 15 8 16 9 7 10 6 11 5 12
REMARK SMILES IDX 4 13 3 14 2 15 1 16
REMARK H PARENT
REMARK Flexibility Score: inf
ROOT
ATOM      1  C   UNL     1       1.488  -7.854  12.119  1.00  0.00     0.000 C 
ENDROOT
BRANCH   1   2
ATOM      2  C   UNL     1      -0.033  -7.748  11.904  1.00  0.00     0.000 C 
BRANCH   2   3
ATOM      3  C   UNL     1      -0.485  -8.315  10.548  1.00  0.00     0.000 C 
BRANCH   3   4
ATOM      4  C   UNL     1      -0.600  -7.231   9.464  1.00  0.00     0.000 C 
BRANCH   4   5
ATOM      5  C   UNL     1      -0.052  -5.870   9.925  1.00  0.00     0.006 C 
BRANCH   5   6
ATOM      6  C   UNL     1       1.245  -5.526   9.187  1.00  0.00     0.053 C 
BRANCH   6   7
ATOM      7  C   UNL     1       2.188  -4.804  10.096  1.00  0.00     0.041 C 
ATOM      8  O   UNL     1       2.617  -5.363  11.140  1.00  0.00    -0.550 OA
ATOM      9  O   UNL     1       2.557  -3.494   9.817  1.00  0.00    -0.550 OA
ENDBRANCH   6   7
ENDBRANCH   5   6
ENDBRANCH   4   5
ENDBRANCH   3   4
ENDBRANCH   2   3
ENDBRANCH   1   2
BRANCH   1  10
ATOM     10  C   UNL     1       2.291  -8.320  10.888  1.00  0.00     0.000 C 
BRANCH  10  11
ATOM     11  C   UNL     1       3.795  -8.553  11.133  1.00  0.00    -0.000 C 
BRANCH  11  12
ATOM     12  C   UNL     1       4.214  -8.580  12.614  1.00  0.00    -0.000 C 
BRANCH  12  13
ATOM     13  C   UNL     1       4.899  -7.281  13.063  1.00  0.00    -0.000 C 
BRANCH  13  14
ATOM     14  C   UNL     1       5.760  -6.696  11.937  1.00  0.00    -0.000 C 
BRANCH  14  15
ATOM     15  C   UNL     1       7.252  -6.812  12.269  1.00  0.00    -0.003 C 
ATOM     16  C   UNL     1       7.511  -6.534  13.747  1.00  0.00     0.004 C 
ENDBRANCH  14  15
ENDBRANCH  13  14
ENDBRANCH  12  13
ENDBRANCH  11  12
ENDBRANCH  10  11
ENDBRANCH   1  10
TORSDOF 12
ENDMDL
MODEL 4
REMARK VINA RESULT:     8.909      1.601      2.097
REMARK INTER + INTRA:          14.201
REMARK INTER:                  14.583
REMARK INTRA:                  -0.381
REMARK UNBOUND:                -0.957
REMARK SMILES CCCCCCCCCCCCCC(=O)[O-]
REMARK SMILES IDX 8 1 9 2 10 3 11 4 12 5 13 6 14 7 15 8 16 9 7 10 6 11 5 12
REMARK SMILES IDX 4 13 3 14 2 15 1 16
REMARK H PARENT
REMARK Flexibility Score: inf
ROOT
ATOM      1  C   UNL     1       4.159  -8.671  10.795  1.00  0.00     0.000 C 
ENDROOT
BRANCH   1   2
ATOM      2  C   UNL     1       2.836  -8.943  10.056  1.00  0.00     0.000 C 
BRANCH   2   3
ATOM      3  C   UNL     1       1.661  -9.204  11.013  1.00  0.00     0.000 C 
BRANCH   3   4
ATOM      4  C   UNL     1       0.303  -8.839  10.394  1.00  0.00     0.000 C 
BRANCH   4   5
ATOM      5  C   UNL     1      -0.252  -7.506  10.921  1.00  0.00     0.006 C 
BRANCH   5   6
ATOM      6  C   UNL     1       0.732  -6.852  11.895  1.00  0.00     0.053 C 
BRANCH   6   7
ATOM      7  C   UNL     1       1.720  -6.007  11.154  1.00  0.00     0.041 C 
ATOM      8  O   UNL     1       2.754  -5.583  11.735  1.00  0.00    -0.550 OA
ATOM      9  O   UNL     1       1.475  -5.648   9.835  1.00  0.00    -0.550 OA
ENDBRANCH   6   7
ENDBRANCH   5   6
ENDBRANCH   4   5
ENDBRANCH   3   4
ENDBRANCH   2   3
ENDBRANCH   1   2
BRANCH   1  10
ATOM     10  C   UNL     1       4.040  -8.555  12.328  1.00  0.00     0.000 C 
BRANCH  10  11
ATOM     11  C   UNL     1       4.943  -7.488  12.978  1.00  0.00    -0.000 C 
BRANCH  11  12
ATOM     12  C   UNL     1       5.803  -6.677  11.993  1.00  0.00    -0.000 C 
BRANCH  12  13
ATOM     13  C   UNL     1       7.300  -6.716  12.335  1.00  0.00    -0.000 C 
BRANCH  13  14
ATOM     14  C   UNL     1       7.514  -6.883  13.844  1.00  0.00    -0.000 C 
BRANCH  14  15
ATOM     15  C   UNL     1       8.075  -5.599  14.465  1.00  0.00    -0.003 C 
ATOM     16  C   UNL     1       7.048  -4.931  15.375  1.00  0.00     0.004 C 
ENDBRANCH  14  15
ENDBRANCH  13  14
ENDBRANCH  12  13
ENDBRANCH  11  12
ENDBRANCH  10  11
ENDBRANCH   1  10
TORSDOF 12
ENDMDL
MODEL 5
REMARK VINA RESULT:     9.135      3.847      6.800
REMARK INTER + INTRA:          14.586
REMARK INTER:                  15.276
REMARK INTRA:                  -0.690
REMARK UNBOUND:                -0.957
REMARK SMILES CCCCCCCCCCCCCC(=O)[O-]
REMARK SMILES IDX 8 1 9 2 10 3 11 4 12 5 13 6 14 7 15 8 16 9 7 10 6 11 5 12
REMARK SMILES IDX 4 13 3 14 2 15 1 16
REMARK H PARENT
REMARK Flexibility Score: inf
ROOT
ATOM      1  C   UNL     1       4.250  -8.752  10.923  1.00  0.00     0.000 C 
ENDROOT
BRANCH   1   2
ATOM      2  C   UNL     1       4.082  -8.616  12.448  1.00  0.00     0.000 C 
BRANCH   2   3
ATOM      3  C   UNL     1       4.945  -7.491  13.044  1.00  0.00     0.000 C 
BRANCH   3   4
ATOM      4  C   UNL     1       5.767  -6.750  11.979  1.00  0.00     0.000 C 
BRANCH   4   5
ATOM      5  C   UNL     1       7.223  -6.512  12.412  1.00  0.00     0.006 C 
BRANCH   5   6
ATOM      6  C   UNL     1       7.414  -6.844  13.895  1.00  0.00     0.053 C 
BRANCH   6   7
ATOM      7  C   UNL     1       7.845  -5.629  14.652  1.00  0.00     0.041 C 
ATOM      8  O   UNL     1       6.993  -4.913  15.241  1.00  0.00    -0.550 OA
ATOM      9  O   UNL     1       9.184  -5.260  14.669  1.00  0.00    -0.550 OA
ENDBRANCH   6   7
ENDBRANCH   5   6
ENDBRANCH   4   5
ENDBRANCH   3   4
ENDBRANCH   2   3
ENDBRANCH   1   2
BRANCH   1  10
ATOM     10  C   UNL     1       2.935  -8.738  10.118  1.00  0.00     0.000 C 
BRANCH  10  11
ATOM     11  C   UNL     1       1.690  -9.233  10.881  1.00  0.00    -0.000 C 
BRANCH  11  12
ATOM     12  C   UNL     1       0.352  -8.664  10.379  1.00  0.00    -0.000 C 
BRANCH  12  13
ATOM     13  C   UNL     1       0.106  -7.220  10.841  1.00  0.00    -0.000 C 
BRANCH  13  14
ATOM     14  C   UNL     1       0.869  -6.921  12.137  1.00  0.00    -0.000 C 
BRANCH  14  15
ATOM     15  C   UNL     1       2.080  -6.020  11.867  1.00  0.00    -0.003 C 
ATOM     16  C   UNL     1       2.053  -5.473  10.443  1.00  0.00     0.004 C 
ENDBRANCH  14  15
ENDBRANCH  13  14
ENDBRANCH  12  13
ENDBRANCH  11  12
ENDBRANCH  10  11
ENDBRANCH   1  10
TORSDOF 12
ENDMDL
MODEL 6
REMARK VINA RESULT:     9.180      1.356      2.043
REMARK INTER + INTRA:          14.663
REMARK INTER:                  15.401
REMARK INTRA:                  -0.737
REMARK UNBOUND:                -0.957
REMARK SMILES CCCCCCCCCCCCCC(=O)[O-]
REMARK SMILES IDX 8 1 9 2 10 3 11 4 12 5 13 6 14 7 15 8 16 9 7 10 6 11 5 12
REMARK SMILES IDX 4 13 3 14 2 15 1 16
REMARK H PARENT
REMARK Flexibility Score: inf
ROOT
ATOM      1  C   UNL     1       2.870  -7.298  10.917  1.00  0.00     0.000 C 
ENDROOT
BRANCH   1   2
ATOM      2  C   UNL     1       2.625  -5.820  11.274  1.00  0.00     0.000 C 
BRANCH   2   3
ATOM      3  C   UNL     1       1.821  -5.073  10.198  1.00  0.00     0.000 C 
BRANCH   3   4
ATOM      4  C   UNL     1       1.063  -6.025   9.259  1.00  0.00     0.000 C 
BRANCH   4   5
ATOM      5  C   UNL     1      -0.464  -5.895   9.388  1.00  0.00     0.006 C 
BRANCH   5   6
ATOM      6  C   UNL     1      -1.125  -7.274   9.468  1.00  0.00     0.053 C 
BRANCH   6   7
ATOM      7  C   UNL     1      -0.583  -8.048  10.628  1.00  0.00     0.041 C 
ATOM      8  O   UNL     1      -0.490  -7.510  11.762  1.00  0.00    -0.550 OA
ATOM      9  O   UNL     1      -0.135  -9.351  10.446  1.00  0.00    -0.550 OA
ENDBRANCH   6   7
ENDBRANCH   5   6
ENDBRANCH   4   5
ENDBRANCH   3   4
ENDBRANCH   2   3
ENDBRANCH   1   2
BRANCH   1  10
ATOM     10  C   UNL     1       2.727  -8.286  12.093  1.00  0.00     0.000 C 
BRANCH  10  11
ATOM     11  C   UNL     1       3.800  -8.159  13.193  1.00  0.00    -0.000 C 
BRANCH  11  12
ATOM     12  C   UNL     1       5.252  -8.147  12.683  1.00  0.00    -0.000 C 
BRANCH  12  13
ATOM     13  C   UNL     1       5.802  -6.727  12.484  1.00  0.00    -0.000 C 
BRANCH  13  14
ATOM     14  C   UNL     1       7.335  -6.736  12.422  1.00  0.00    -0.000 C 
BRANCH  14  15
ATOM     15  C   UNL     1       7.941  -6.758  13.829  1.00  0.00    -0.003 C 
ATOM     16  C   UNL     1       7.534  -5.521  14.625  1.00  0.00     0.004 C 
ENDBRANCH  14  15
ENDBRANCH  13  14
ENDBRANCH  12  13
ENDBRANCH  11  12
ENDBRANCH  10  11
ENDBRANCH   1  10
TORSDOF 12
ENDMDL
