MODEL 1
REMARK VINA RESULT:    -4.525      0.000      0.000
REMARK INTER + INTRA:         -10.046
REMARK INTER:                  -8.758
REMARK INTRA:                  -1.289
REMARK UNBOUND:                -1.289
REMARK SMILES CCCCCCCCCCCCCCCCCC(=O)[O-]
REMARK SMILES IDX 10 1 11 2 12 3 13 4 14 5 15 6 16 7 17 8 18 9 19 10 20 11
REMARK SMILES IDX 9 12 8 13 7 14 6 15 5 16 4 17 3 18 2 19 1 20
REMARK H PARENT
REMARK Flexibility Score: inf
ROOT
ATOM      1  C   UNL     1      51.317  32.728   4.184  1.00  0.00     0.000 C 
ENDROOT
BRANCH   1   2
ATOM      2  C   UNL     1      50.203  33.634   3.646  1.00  0.00     0.000 C 
BRANCH   2   3
ATOM      3  C   UNL     1      50.352  33.851   2.133  1.00  0.00     0.000 C 
BRANCH   3   4
ATOM      4  C   UNL     1      51.721  33.400   1.601  1.00  0.00     0.000 C 
BRANCH   4   5
ATOM      5  C   UNL     1      51.604  32.332   0.499  1.00  0.00     0.000 C 
BRANCH   5   6
ATOM      6  C   UNL     1      50.186  32.238  -0.084  1.00  0.00     0.000 C 
BRANCH   6   7
ATOM      7  C   UNL     1      50.163  32.393  -1.612  1.00  0.00     0.006 C 
BRANCH   7   8
ATOM      8  C   UNL     1      49.698  33.795  -2.014  1.00  0.00     0.053 C 
BRANCH   8   9
ATOM      9  C   UNL     1      49.765  33.964  -3.499  1.00  0.00     0.041 C 
ATOM     10  O   UNL     1      48.773  33.672  -4.216  1.00  0.00    -0.550 OA
ATOM     11  O   UNL     1      50.908  34.491  -4.088  1.00  0.00    -0.550 OA
ENDBRANCH   8   9
ENDBRANCH   7   8
ENDBRANCH   6   7
ENDBRANCH   5   6
ENDBRANCH   4   5
ENDBRANCH   3   4
ENDBRANCH   2   3
ENDBRANCH   1   2
BRANCH   1  12
ATOM     12  C   UNL     1      50.918  32.105   5.530  1.00  0.00     0.000 C 
BRANCH  12  13
ATOM     13  C   UNL     1      49.444  32.356   5.884  1.00  0.00    -0.000 C 
BRANCH  13  14
ATOM     14  C   UNL     1      49.275  33.072   7.236  1.00  0.00    -0.000 C 
BRANCH  14  15
ATOM     15  C   UNL     1      49.750  34.534   7.194  1.00  0.00    -0.000 C 
BRANCH  15  16
ATOM     16  C   UNL     1      50.065  35.093   8.589  1.00  0.00    -0.000 C 
BRANCH  16  17
ATOM     17  C   UNL     1      49.117  34.502   9.643  1.00  0.00    -0.000 C 
BRANCH  17  18
ATOM     18  C   UNL     1      48.618  35.553  10.648  1.00  0.00    -0.000 C 
BRANCH  18  19
ATOM     19  C   UNL     1      47.086  35.593  10.751  1.00  0.00    -0.003 C 
ATOM     20  C   UNL     1      46.449  34.544   9.845  1.00  0.00     0.004 C 
ENDBRANCH  18  19
ENDBRANCH  17  18
ENDBRANCH  16  17
ENDBRANCH  15  16
ENDBRANCH  14  15
ENDBRANCH  13  14
ENDBRANCH  12  13
ENDBRANCH   1  12
TORSDOF 16
ENDMDL
MODEL 2
REMARK VINA RESULT:    -4.457      5.024     10.273
REMARK INTER + INTRA:          -9.915
REMARK INTER:                  -8.513
REMARK INTRA:                  -1.403
REMARK UNBOUND:                -1.289
REMARK SMILES CCCCCCCCCCCCCCCCCC(=O)[O-]
REMARK SMILES IDX 10 1 11 2 12 3 13 4 14 5 15 6 16 7 17 8 18 9 19 10 20 11
REMARK SMILES IDX 9 12 8 13 7 14 6 15 5 16 4 17 3 18 2 19 1 20
REMARK H PARENT
REMARK Flexibility Score: inf
ROOT
ATOM      1  C   UNL     1      50.495  33.755   2.737  1.00  0.00     0.000 C 
ENDROOT
BRANCH   1   2
ATOM      2  C   UNL     1      50.510  33.632   4.265  1.00  0.00     0.000 C 
BRANCH   2   3
ATOM      3  C   UNL     1      51.157  32.309   4.705  1.00  0.00     0.000 C 
BRANCH   3   4
ATOM      4  C   UNL     1      50.963  32.023   6.202  1.00  0.00     0.000 C 
BRANCH   4   5
ATOM      5  C   UNL     1      49.535  32.337   6.683  1.00  0.00     0.000 C 
BRANCH   5   6
ATOM      6  C   UNL     1      49.470  32.622   8.191  1.00  0.00     0.000 C 
BRANCH   6   7
ATOM      7  C   UNL     1      48.755  33.944   8.512  1.00  0.00     0.006 C 
BRANCH   7   8
ATOM      8  C   UNL     1      49.761  35.029   8.906  1.00  0.00     0.053 C 
BRANCH   8   9
ATOM      9  C   UNL     1      49.790  35.203  10.392  1.00  0.00     0.041 C 
ATOM     10  O   UNL     1      50.572  34.514  11.096  1.00  0.00    -0.550 OA
ATOM     11  O   UNL     1      48.986  36.163  10.995  1.00  0.00    -0.550 OA
ENDBRANCH   8   9
ENDBRANCH   7   8
ENDBRANCH   6   7
ENDBRANCH   5   6
ENDBRANCH   4   5
ENDBRANCH   3   4
ENDBRANCH   2   3
ENDBRANCH   1   2
BRANCH   1  12
ATOM     12  C   UNL     1      51.746  33.108   2.121  1.00  0.00     0.000 C 
BRANCH  12  13
ATOM     13  C   UNL     1      51.523  32.652   0.672  1.00  0.00    -0.000 C 
BRANCH  13  14
ATOM     14  C   UNL     1      50.137  33.051   0.133  1.00  0.00    -0.000 C 
BRANCH  14  15
ATOM     15  C   UNL     1      49.772  32.309  -1.163  1.00  0.00    -0.000 C 
BRANCH  15  16
ATOM     16  C   UNL     1      49.469  33.265  -2.326  1.00  0.00    -0.000 C 
BRANCH  16  17
ATOM     17  C   UNL     1      50.700  34.116  -2.669  1.00  0.00    -0.000 C 
BRANCH  17  18
ATOM     18  C   UNL     1      51.801  33.309  -3.376  1.00  0.00    -0.000 C 
BRANCH  18  19
ATOM     19  C   UNL     1      53.136  33.337  -2.617  1.00  0.00    -0.003 C 
ATOM     20  C   UNL     1      53.357  34.690  -1.947  1.00  0.00     0.004 C 
ENDBRANCH  18  19
ENDBRANCH  17  18
ENDBRANCH  16  17
ENDBRANCH  15  16
ENDBRANCH  14  15
ENDBRANCH  13  14
ENDBRANCH  12  13
ENDBRANCH   1  12
TORSDOF 16
ENDMDL
MODEL 3
REMARK VINA RESULT:    -4.386      1.867      2.420
REMARK INTER + INTRA:          -9.778
REMARK INTER:                  -8.354
REMARK INTRA:                  -1.424
REMARK UNBOUND:                -1.289
REMARK SMILES CCCCCCCCCCCCCCCCCC(=O)[O-]
REMARK SMILES IDX 10 1 11 2 12 3 13 4 14 5 15 6 16 7 17 8 18 9 19 10 20 11
REMARK SMILES IDX 9 12 8 13 7 14 6 15 5 16 4 17 3 18 2 19 1 20
REMARK H PARENT
REMARK Flexibility Score: inf
ROOT
ATOM      1  C   UNL     1      50.018  33.733   4.226  1.00  0.00     0.000 C 
ENDROOT
BRANCH   1   2
ATOM      2  C   UNL     1      51.301  33.116   3.658  1.00  0.00     0.000 C 
BRANCH   2   3
ATOM      3  C   UNL     1      51.363  33.283   2.131  1.00  0.00     0.000 C 
BRANCH   3   4
ATOM      4  C   UNL     1      50.018  33.716   1.528  1.00  0.00     0.000 C 
BRANCH   4   5
ATOM      5  C   UNL     1      49.888  33.338   0.042  1.00  0.00     0.000 C 
BRANCH   5   6
ATOM      6  C   UNL     1      50.660  32.057  -0.311  1.00  0.00     0.000 C 
BRANCH   6   7
ATOM      7  C   UNL     1      51.687  32.276  -1.432  1.00  0.00     0.006 C 
BRANCH   7   8
ATOM      8  C   UNL     1      51.647  33.720  -1.938  1.00  0.00     0.053 C 
BRANCH   8   9
ATOM      9  C   UNL     1      52.972  34.385  -1.732  1.00  0.00     0.041 C 
ATOM     10  O   UNL     1      53.482  34.441  -0.583  1.00  0.00    -0.550 OA
ATOM     11  O   UNL     1      53.668  34.899  -2.820  1.00  0.00    -0.550 OA
ENDBRANCH   8   9
ENDBRANCH   7   8
ENDBRANCH   6   7
ENDBRANCH   5   6
ENDBRANCH   4   5
ENDBRANCH   3   4
ENDBRANCH   2   3
ENDBRANCH   1   2
BRANCH   1  12
ATOM     12  C   UNL     1      49.405  32.828   5.306  1.00  0.00     0.000 C 
BRANCH  12  13
ATOM     13  C   UNL     1      50.466  32.048   6.097  1.00  0.00    -0.000 C 
BRANCH  13  14
ATOM     14  C   UNL     1      50.130  31.945   7.595  1.00  0.00    -0.000 C 
BRANCH  14  15
ATOM     15  C   UNL     1      48.642  32.202   7.885  1.00  0.00    -0.000 C 
BRANCH  15  16
ATOM     16  C   UNL     1      48.427  33.306   8.931  1.00  0.00    -0.000 C 
BRANCH  16  17
ATOM     17  C   UNL     1      49.337  34.511   8.651  1.00  0.00    -0.000 C 
BRANCH  17  18
ATOM     18  C   UNL     1      50.150  34.940   9.884  1.00  0.00    -0.000 C 
BRANCH  18  19
ATOM     19  C   UNL     1      49.291  35.034  11.154  1.00  0.00    -0.003 C 
ATOM     20  C   UNL     1      48.602  36.391  11.251  1.00  0.00     0.004 C 
ENDBRANCH  18  19
ENDBRANCH  17  18
ENDBRANCH  16  17
ENDBRANCH  15  16
ENDBRANCH  14  15
ENDBRANCH  13  14
ENDBRANCH  12  13
ENDBRANCH   1  12
TORSDOF 16
ENDMDL
MODEL 4
REMARK VINA RESULT:    -4.346      4.933      9.917
REMARK INTER + INTRA:          -9.699
REMARK INTER:                  -8.127
REMARK INTRA:                  -1.572
REMARK UNBOUND:                -1.289
REMARK SMILES CCCCCCCCCCCCCCCCCC(=O)[O-]
REMARK SMILES IDX 10 1 11 2 12 3 13 4 14 5 15 6 16 7 17 8 18 9 19 10 20 11
REMARK SMILES IDX 9 12 8 13 7 14 6 15 5 16 4 17 3 18 2 19 1 20
REMARK H PARENT
REMARK Flexibility Score: inf
ROOT
ATOM      1  C   UNL     1      50.323  33.745   2.165  1.00  0.00     0.000 C 
ENDROOT
BRANCH   1   2
ATOM      2  C   UNL     1      50.420  33.754   3.695  1.00  0.00     0.000 C 
BRANCH   2   3
ATOM      3  C   UNL     1      51.274  32.580   4.199  1.00  0.00     0.000 C 
BRANCH   3   4
ATOM      4  C   UNL     1      50.960  32.202   5.655  1.00  0.00     0.000 C 
BRANCH   4   5
ATOM      5  C   UNL     1      49.563  32.671   6.099  1.00  0.00     0.000 C 
BRANCH   5   6
ATOM      6  C   UNL     1      49.549  33.200   7.542  1.00  0.00     0.000 C 
BRANCH   6   7
ATOM      7  C   UNL     1      49.779  34.717   7.619  1.00  0.00     0.006 C 
BRANCH   7   8
ATOM      8  C   UNL     1      50.161  35.142   9.039  1.00  0.00     0.053 C 
BRANCH   8   9
ATOM      9  C   UNL     1      49.154  34.640  10.025  1.00  0.00     0.041 C 
ATOM     10  O   UNL     1      49.486  33.795  10.897  1.00  0.00    -0.550 OA
ATOM     11  O   UNL     1      47.858  35.143  10.012  1.00  0.00    -0.550 OA
ENDBRANCH   8   9
ENDBRANCH   7   8
ENDBRANCH   6   7
ENDBRANCH   5   6
ENDBRANCH   4   5
ENDBRANCH   3   4
ENDBRANCH   2   3
ENDBRANCH   1   2
BRANCH   1  12
ATOM     12  C   UNL     1      51.645  33.285   1.532  1.00  0.00     0.000 C 
BRANCH  12  13
ATOM     13  C   UNL     1      51.453  32.137   0.530  1.00  0.00    -0.000 C 
BRANCH  13  14
ATOM     14  C   UNL     1      50.285  32.388  -0.440  1.00  0.00    -0.000 C 
BRANCH  14  15
ATOM     15  C   UNL     1      50.494  33.643  -1.303  1.00  0.00    -0.000 C 
BRANCH  15  16
ATOM     16  C   UNL     1      51.503  33.417  -2.440  1.00  0.00    -0.000 C 
BRANCH  16  17
ATOM     17  C   UNL     1      52.749  34.295  -2.248  1.00  0.00    -0.000 C 
BRANCH  17  18
ATOM     18  C   UNL     1      53.997  33.479  -1.874  1.00  0.00    -0.000 C 
BRANCH  18  19
ATOM     19  C   UNL     1      54.614  33.921  -0.539  1.00  0.00    -0.003 C 
ATOM     20  C   UNL     1      54.208  35.350  -0.194  1.00  0.00     0.004 C 
ENDBRANCH  18  19
ENDBRANCH  17  18
ENDBRANCH  16  17
ENDBRANCH  15  16
ENDBRANCH  14  15
ENDBRANCH  13  14
ENDBRANCH  12  13
ENDBRANCH   1  12
TORSDOF 16
ENDMDL
MODEL 5
REMARK VINA RESULT:    -4.267     14.233     16.528
REMARK INTER + INTRA:          -9.547
REMARK INTER:                  -7.535
REMARK INTRA:                  -2.012
REMARK UNBOUND:                -1.289
REMARK SMILES CCCCCCCCCCCCCCCCCC(=O)[O-]
REMARK SMILES IDX 10 1 11 2 12 3 13 4 14 5 15 6 16 7 17 8 18 9 19 10 20 11
REMARK SMILES IDX 9 12 8 13 7 14 6 15 5 16 4 17 3 18 2 19 1 20
REMARK H PARENT
REMARK Flexibility Score: inf
ROOT
ATOM      1  C   UNL     1      49.520  48.009  11.065  1.00  0.00     0.000 C 
ENDROOT
BRANCH   1   2
ATOM      2  C   UNL     1      50.908  48.659  11.076  1.00  0.00     0.000 C 
BRANCH   2   3
ATOM      3  C   UNL     1      51.236  49.235  12.462  1.00  0.00     0.000 C 
BRANCH   3   4
ATOM      4  C   UNL     1      52.322  48.433  13.195  1.00  0.00     0.000 C 
BRANCH   4   5
ATOM      5  C   UNL     1      51.754  47.209  13.935  1.00  0.00     0.000 C 
BRANCH   5   6
ATOM      6  C   UNL     1      52.583  45.937  13.695  1.00  0.00     0.000 C 
BRANCH   6   7
ATOM      7  C   UNL     1      53.451  46.026  12.430  1.00  0.00     0.006 C 
BRANCH   7   8
ATOM      8  C   UNL     1      54.313  44.772  12.268  1.00  0.00     0.053 C 
BRANCH   8   9
ATOM      9  C   UNL     1      54.221  44.248  10.870  1.00  0.00     0.041 C 
ATOM     10  O   UNL     1      54.209  45.044   9.894  1.00  0.00    -0.550 OA
ATOM     11  O   UNL     1      54.197  42.878  10.641  1.00  0.00    -0.550 OA
ENDBRANCH   8   9
ENDBRANCH   7   8
ENDBRANCH   6   7
ENDBRANCH   5   6
ENDBRANCH   4   5
ENDBRANCH   3   4
ENDBRANCH   2   3
ENDBRANCH   1   2
BRANCH   1  12
ATOM     12  C   UNL     1      48.555  48.757  11.998  1.00  0.00     0.000 C 
BRANCH  12  13
ATOM     13  C   UNL     1      47.874  47.827  13.013  1.00  0.00    -0.000 C 
BRANCH  13  14
ATOM     14  C   UNL     1      48.291  46.356  12.840  1.00  0.00    -0.000 C 
BRANCH  14  15
ATOM     15  C   UNL     1      47.226  45.375  13.357  1.00  0.00    -0.000 C 
BRANCH  15  16
ATOM     16  C   UNL     1      46.560  44.577  12.227  1.00  0.00    -0.000 C 
BRANCH  16  17
ATOM     17  C   UNL     1      45.294  45.288  11.726  1.00  0.00    -0.000 C 
BRANCH  17  18
ATOM     18  C   UNL     1      45.454  45.850  10.303  1.00  0.00    -0.000 C 
BRANCH  18  19
ATOM     19  C   UNL     1      45.419  47.385  10.267  1.00  0.00    -0.003 C 
ATOM     20  C   UNL     1      44.226  47.888   9.462  1.00  0.00     0.004 C 
ENDBRANCH  18  19
ENDBRANCH  17  18
ENDBRANCH  16  17
ENDBRANCH  15  16
ENDBRANCH  14  15
ENDBRANCH  13  14
ENDBRANCH  12  13
ENDBRANCH   1  12
TORSDOF 16
ENDMDL
MODEL 6
REMARK VINA RESULT:    -4.265      3.033      3.600
REMARK INTER + INTRA:          -9.542
REMARK INTER:                  -8.245
REMARK INTRA:                  -1.297
REMARK UNBOUND:                -1.289
REMARK SMILES CCCCCCCCCCCCCCCCCC(=O)[O-]
REMARK SMILES IDX 10 1 11 2 12 3 13 4 14 5 15 6 16 7 17 8 18 9 19 10 20 11
REMARK SMILES IDX 9 12 8 13 7 14 6 15 5 16 4 17 3 18 2 19 1 20
REMARK H PARENT
REMARK Flexibility Score: inf
ROOT
ATOM      1  C   UNL     1      51.165  32.396   4.731  1.00  0.00     0.000 C 
ENDROOT
BRANCH   1   2
ATOM      2  C   UNL     1      50.489  33.678   4.234  1.00  0.00     0.000 C 
BRANCH   2   3
ATOM      3  C   UNL     1      50.512  33.754   2.699  1.00  0.00     0.000 C 
BRANCH   3   4
ATOM      4  C   UNL     1      51.696  32.990   2.086  1.00  0.00     0.000 C 
BRANCH   4   5
ATOM      5  C   UNL     1      51.553  32.801   0.566  1.00  0.00     0.000 C 
BRANCH   5   6
ATOM      6  C   UNL     1      52.760  33.346  -0.213  1.00  0.00     0.000 C 
BRANCH   6   7
ATOM      7  C   UNL     1      53.795  34.023   0.698  1.00  0.00     0.006 C 
BRANCH   7   8
ATOM      8  C   UNL     1      54.299  35.330   0.079  1.00  0.00     0.053 C 
BRANCH   8   9
ATOM      9  C   UNL     1      55.559  35.777   0.751  1.00  0.00     0.041 C 
ATOM     10  O   UNL     1      55.945  35.218   1.811  1.00  0.00    -0.550 OA
ATOM     11  O   UNL     1      56.334  36.778   0.179  1.00  0.00    -0.550 OA
ENDBRANCH   8   9
ENDBRANCH   7   8
ENDBRANCH   6   7
ENDBRANCH   5   6
ENDBRANCH   4   5
ENDBRANCH   3   4
ENDBRANCH   2   3
ENDBRANCH   1   2
BRANCH   1  12
ATOM     12  C   UNL     1      50.837  32.138   6.210  1.00  0.00     0.000 C 
BRANCH  12  13
ATOM     13  C   UNL     1      49.326  32.080   6.479  1.00  0.00    -0.000 C 
BRANCH  13  14
ATOM     14  C   UNL     1      48.905  32.950   7.676  1.00  0.00    -0.000 C 
BRANCH  14  15
ATOM     15  C   UNL     1      49.297  34.426   7.501  1.00  0.00    -0.000 C 
BRANCH  15  16
ATOM     16  C   UNL     1      50.076  34.978   8.705  1.00  0.00    -0.000 C 
BRANCH  16  17
ATOM     17  C   UNL     1      49.462  34.488  10.025  1.00  0.00    -0.000 C 
BRANCH  17  18
ATOM     18  C   UNL     1      48.916  35.638  10.887  1.00  0.00    -0.000 C 
BRANCH  18  19
ATOM     19  C   UNL     1      47.414  35.877  10.672  1.00  0.00    -0.003 C 
ATOM     20  C   UNL     1      46.710  34.594  10.244  1.00  0.00     0.004 C 
ENDBRANCH  18  19
ENDBRANCH  17  18
ENDBRANCH  16  17
ENDBRANCH  15  16
ENDBRANCH  14  15
ENDBRANCH  13  14
ENDBRANCH  12  13
ENDBRANCH   1  12
TORSDOF 16
ENDMDL
MODEL 7
REMARK VINA RESULT:    -4.256      2.871      4.338
REMARK INTER + INTRA:          -9.526
REMARK INTER:                  -7.808
REMARK INTRA:                  -1.718
REMARK UNBOUND:                -1.289
REMARK SMILES CCCCCCCCCCCCCCCCCC(=O)[O-]
REMARK SMILES IDX 10 1 11 2 12 3 13 4 14 5 15 6 16 7 17 8 18 9 19 10 20 11
REMARK SMILES IDX 9 12 8 13 7 14 6 15 5 16 4 17 3 18 2 19 1 20
REMARK H PARENT
REMARK Flexibility Score: inf
ROOT
ATOM      1  C   UNL     1      50.128  33.748   1.393  1.00  0.00     0.000 C 
ENDROOT
BRANCH   1   2
ATOM      2  C   UNL     1      49.830  32.920   0.138  1.00  0.00     0.000 C 
BRANCH   2   3
ATOM      3  C   UNL     1      50.960  31.916  -0.140  1.00  0.00     0.000 C 
BRANCH   3   4
ATOM      4  C   UNL     1      51.683  32.191  -1.468  1.00  0.00     0.000 C 
BRANCH   4   5
ATOM      5  C   UNL     1      51.379  33.592  -2.027  1.00  0.00     0.000 C 
BRANCH   5   6
ATOM      6  C   UNL     1      52.604  34.519  -1.994  1.00  0.00     0.000 C 
BRANCH   6   7
ATOM      7  C   UNL     1      53.819  33.870  -1.314  1.00  0.00     0.006 C 
BRANCH   7   8
ATOM      8  C   UNL     1      54.092  34.510   0.050  1.00  0.00     0.053 C 
BRANCH   8   9
ATOM      9  C   UNL     1      54.957  33.618   0.884  1.00  0.00     0.041 C 
ATOM     10  O   UNL     1      54.664  32.403   1.026  1.00  0.00    -0.550 OA
ATOM     11  O   UNL     1      56.116  34.119   1.463  1.00  0.00    -0.550 OA
ENDBRANCH   8   9
ENDBRANCH   7   8
ENDBRANCH   6   7
ENDBRANCH   5   6
ENDBRANCH   4   5
ENDBRANCH   3   4
ENDBRANCH   2   3
ENDBRANCH   1   2
BRANCH   1  12
ATOM     12  C   UNL     1      51.444  33.300   2.048  1.00  0.00     0.000 C 
BRANCH  12  13
ATOM     13  C   UNL     1      51.283  32.989   3.544  1.00  0.00    -0.000 C 
BRANCH  13  14
ATOM     14  C   UNL     1      50.082  33.716   4.173  1.00  0.00    -0.000 C 
BRANCH  14  15
ATOM     15  C   UNL     1      49.344  32.851   5.209  1.00  0.00    -0.000 C 
BRANCH  15  16
ATOM     16  C   UNL     1      50.288  31.910   5.972  1.00  0.00    -0.000 C 
BRANCH  16  17
ATOM     17  C   UNL     1      50.017  31.970   7.483  1.00  0.00    -0.000 C 
BRANCH  17  18
ATOM     18  C   UNL     1      49.506  33.347   7.939  1.00  0.00    -0.000 C 
BRANCH  18  19
ATOM     19  C   UNL     1      48.187  33.258   8.721  1.00  0.00    -0.003 C 
ATOM     20  C   UNL     1      48.170  32.034   9.631  1.00  0.00     0.004 C 
ENDBRANCH  18  19
ENDBRANCH  17  18
ENDBRANCH  16  17
ENDBRANCH  15  16
ENDBRANCH  14  15
ENDBRANCH  13  14
ENDBRANCH  12  13
ENDBRANCH   1  12
TORSDOF 16
ENDMDL
MODEL 8
REMARK VINA RESULT:    -4.199      1.672      3.770
REMARK INTER + INTRA:          -9.415
REMARK INTER:                  -7.813
REMARK INTRA:                  -1.602
REMARK UNBOUND:                -1.289
REMARK SMILES CCCCCCCCCCCCCCCCCC(=O)[O-]
REMARK SMILES IDX 10 1 11 2 12 3 13 4 14 5 15 6 16 7 17 8 18 9 19 10 20 11
REMARK SMILES IDX 9 12 8 13 7 14 6 15 5 16 4 17 3 18 2 19 1 20
REMARK H PARENT
REMARK Flexibility Score: inf
ROOT
ATOM      1  C   UNL     1      50.333  33.291   0.589  1.00  0.00     0.000 C 
ENDROOT
BRANCH   1   2
ATOM      2  C   UNL     1      50.066  32.232  -0.486  1.00  0.00     0.000 C 
BRANCH   2   3
ATOM      3  C   UNL     1      50.425  32.762  -1.883  1.00  0.00     0.000 C 
BRANCH   3   4
ATOM      4  C   UNL     1      51.764  32.212  -2.399  1.00  0.00     0.000 C 
BRANCH   4   5
ATOM      5  C   UNL     1      52.876  33.275  -2.406  1.00  0.00     0.000 C 
BRANCH   5   6
ATOM      6  C   UNL     1      52.323  34.708  -2.438  1.00  0.00     0.000 C 
BRANCH   6   7
ATOM      7  C   UNL     1      52.295  35.301  -3.855  1.00  0.00     0.006 C 
BRANCH   7   8
ATOM      8  C   UNL     1      50.857  35.454  -4.357  1.00  0.00     0.053 C 
BRANCH   8   9
ATOM      9  C   UNL     1      50.486  34.308  -5.244  1.00  0.00     0.041 C 
ATOM     10  O   UNL     1      51.373  33.703  -5.902  1.00  0.00    -0.550 OA
ATOM     11  O   UNL     1      49.167  33.876  -5.307  1.00  0.00    -0.550 OA
ENDBRANCH   8   9
ENDBRANCH   7   8
ENDBRANCH   6   7
ENDBRANCH   5   6
ENDBRANCH   4   5
ENDBRANCH   3   4
ENDBRANCH   2   3
ENDBRANCH   1   2
BRANCH   1  12
ATOM     12  C   UNL     1      51.688  33.051   1.272  1.00  0.00     0.000 C 
BRANCH  12  13
ATOM     13  C   UNL     1      51.571  32.963   2.801  1.00  0.00    -0.000 C 
BRANCH  13  14
ATOM     14  C   UNL     1      50.400  33.794   3.354  1.00  0.00    -0.000 C 
BRANCH  14  15
ATOM     15  C   UNL     1      49.947  33.325   4.745  1.00  0.00    -0.000 C 
BRANCH  15  16
ATOM     16  C   UNL     1      50.930  32.332   5.384  1.00  0.00    -0.000 C 
BRANCH  16  17
ATOM     17  C   UNL     1      50.515  32.000   6.824  1.00  0.00    -0.000 C 
BRANCH  17  18
ATOM     18  C   UNL     1      49.196  32.678   7.233  1.00  0.00    -0.000 C 
BRANCH  18  19
ATOM     19  C   UNL     1      49.341  33.542   8.494  1.00  0.00    -0.003 C 
ATOM     20  C   UNL     1      49.980  34.888   8.166  1.00  0.00     0.004 C 
ENDBRANCH  18  19
ENDBRANCH  17  18
ENDBRANCH  16  17
ENDBRANCH  15  16
ENDBRANCH  14  15
ENDBRANCH  13  14
ENDBRANCH  12  13
ENDBRANCH   1  12
TORSDOF 16
ENDMDL
MODEL 9
REMARK VINA RESULT:    -4.083     17.538     18.669
REMARK INTER + INTRA:          -9.190
REMARK INTER:                  -7.939
REMARK INTRA:                  -1.251
REMARK UNBOUND:                -1.289
REMARK SMILES CCCCCCCCCCCCCCCCCC(=O)[O-]
REMARK SMILES IDX 10 1 11 2 12 3 13 4 14 5 15 6 16 7 17 8 18 9 19 10 20 11
REMARK SMILES IDX 9 12 8 13 7 14 6 15 5 16 4 17 3 18 2 19 1 20
REMARK H PARENT
REMARK Flexibility Score: inf
ROOT
ATOM      1  C   UNL     1      50.739  51.535   0.746  1.00  0.00     0.000 C 
ENDROOT
BRANCH   1   2
ATOM      2  C   UNL     1      49.984  50.624   1.721  1.00  0.00     0.000 C 
BRANCH   2   3
ATOM      3  C   UNL     1      48.492  50.986   1.770  1.00  0.00     0.000 C 
BRANCH   3   4
ATOM      4  C   UNL     1      48.035  51.785   0.540  1.00  0.00     0.000 C 
BRANCH   4   5
ATOM      5  C   UNL     1      46.517  52.034   0.527  1.00  0.00     0.000 C 
BRANCH   5   6
ATOM      6  C   UNL     1      45.774  51.204   1.586  1.00  0.00     0.000 C 
BRANCH   6   7
ATOM      7  C   UNL     1      44.740  50.248   0.970  1.00  0.00     0.006 C 
BRANCH   7   8
ATOM      8  C   UNL     1      43.320  50.630   1.394  1.00  0.00     0.053 C 
BRANCH   8   9
ATOM      9  C   UNL     1      42.312  49.965   0.510  1.00  0.00     0.041 C 
ATOM     10  O   UNL     1      41.597  50.653  -0.265  1.00  0.00    -0.550 OA
ATOM     11  O   UNL     1      42.197  48.581   0.505  1.00  0.00    -0.550 OA
ENDBRANCH   8   9
ENDBRANCH   7   8
ENDBRANCH   6   7
ENDBRANCH   5   6
ENDBRANCH   4   5
ENDBRANCH   3   4
ENDBRANCH   2   3
ENDBRANCH   1   2
BRANCH   1  12
ATOM     12  C   UNL     1      52.024  52.081   1.387  1.00  0.00     0.000 C 
BRANCH  12  13
ATOM     13  C   UNL     1      52.132  51.739   2.881  1.00  0.00    -0.000 C 
BRANCH  13  14
ATOM     14  C   UNL     1      53.552  51.950   3.435  1.00  0.00    -0.000 C 
BRANCH  14  15
ATOM     15  C   UNL     1      54.230  50.631   3.839  1.00  0.00    -0.000 C 
BRANCH  15  16
ATOM     16  C   UNL     1      55.758  50.757   3.934  1.00  0.00    -0.000 C 
BRANCH  16  17
ATOM     17  C   UNL     1      56.450  49.676   3.089  1.00  0.00    -0.000 C 
BRANCH  17  18
ATOM     18  C   UNL     1      55.551  49.138   1.964  1.00  0.00    -0.000 C 
BRANCH  18  19
ATOM     19  C   UNL     1      55.510  50.069   0.743  1.00  0.00    -0.003 C 
ATOM     20  C   UNL     1      54.308  49.759  -0.143  1.00  0.00     0.004 C 
ENDBRANCH  18  19
ENDBRANCH  17  18
ENDBRANCH  16  17
ENDBRANCH  15  16
ENDBRANCH  14  15
ENDBRANCH  13  14
ENDBRANCH  12  13
ENDBRANCH   1  12
TORSDOF 16
ENDMDL
