MODEL 1
REMARK VINA RESULT:    -3.713      0.000      0.000
REMARK INTER + INTRA:         -14.651
REMARK INTER:                  -9.357
REMARK INTRA:                  -5.293
REMARK UNBOUND:                -5.293
REMARK SMILES CCCCCCCCCCCCCCCCCCCCCCCCCCCC(=O)[O-]
REMARK SMILES IDX 15 1 16 2 17 3 18 4 19 5 20 6 21 7 22 8 23 9 24 10 25 11
REMARK SMILES IDX 26 12 27 13 28 14 29 15 30 16 14 17 13 18 12 19 11 20 10 21
REMARK SMILES IDX 9 22 8 23 7 24 6 25 5 26 4 27 3 28 2 29 1 30
REMARK H PARENT
REMARK Flexibility Score: inf
ROOT
ATOM      1  C   UNL     1       3.200  -3.111 400.791  1.00  0.00     0.000 C 
ENDROOT
BRANCH   1   2
ATOM      2  C   UNL     1       3.696  -2.902 402.233  1.00  0.00     0.000 C 
BRANCH   2   3
ATOM      3  C   UNL     1       4.082  -4.225 402.921  1.00  0.00     0.000 C 
BRANCH   3   4
ATOM      4  C   UNL     1       4.167  -5.438 401.978  1.00  0.00     0.000 C 
BRANCH   4   5
ATOM      5  C   UNL     1       5.552  -6.109 401.991  1.00  0.00     0.000 C 
BRANCH   5   6
ATOM      6  C   UNL     1       6.537  -5.411 402.940  1.00  0.00     0.000 C 
BRANCH   6   7
ATOM      7  C   UNL     1       7.553  -4.530 402.194  1.00  0.00     0.000 C 
BRANCH   7   8
ATOM      8  C   UNL     1       7.529  -4.751 400.671  1.00  0.00     0.000 C 
BRANCH   8   9
ATOM      9  C   UNL     1       6.975  -3.547 399.882  1.00  0.00     0.000 C 
BRANCH   9  10
ATOM     10  C   UNL     1       7.229  -2.210 400.603  1.00  0.00     0.000 C 
BRANCH  10  11
ATOM     11  C   UNL     1       8.235  -1.318 399.861  1.00  0.00     0.000 C 
BRANCH  11  12
ATOM     12  C   UNL     1       7.942   0.182 400.039  1.00  0.00     0.006 C 
BRANCH  12  13
ATOM     13  C   UNL     1       7.037   0.732 398.927  1.00  0.00     0.053 C 
BRANCH  13  14
ATOM     14  C   UNL     1       7.821   1.100 397.702  1.00  0.00     0.041 C 
ATOM     15  O   UNL     1       7.805   0.350 396.691  1.00  0.00    -0.550 OA
ATOM     16  O   UNL     1       8.583   2.262 397.684  1.00  0.00    -0.550 OA
ENDBRANCH  13  14
ENDBRANCH  12  13
ENDBRANCH  11  12
ENDBRANCH  10  11
ENDBRANCH   9  10
ENDBRANCH   8   9
ENDBRANCH   7   8
ENDBRANCH   6   7
ENDBRANCH   5   6
ENDBRANCH   4   5
ENDBRANCH   3   4
ENDBRANCH   2   3
ENDBRANCH   1   2
BRANCH   1  17
ATOM     17  C   UNL     1       3.617  -1.974 399.843  1.00  0.00     0.000 C 
BRANCH  17  18
ATOM     18  C   UNL     1       4.048  -0.660 400.524  1.00  0.00     0.000 C 
BRANCH  18  19
ATOM     19  C   UNL     1       3.231   0.577 400.094  1.00  0.00     0.000 C 
BRANCH  19  20
ATOM     20  C   UNL     1       3.642   1.855 400.843  1.00  0.00     0.000 C 
BRANCH  20  21
ATOM     21  C   UNL     1       4.846   1.596 401.761  1.00  0.00     0.000 C 
BRANCH  21  22
ATOM     22  C   UNL     1       4.517   1.798 403.249  1.00  0.00    -0.000 C 
BRANCH  22  23
ATOM     23  C   UNL     1       4.796   0.545 404.097  1.00  0.00    -0.000 C 
BRANCH  23  24
ATOM     24  C   UNL     1       5.905  -0.332 403.495  1.00  0.00    -0.000 C 
BRANCH  24  25
ATOM     25  C   UNL     1       7.295  -0.001 404.071  1.00  0.00    -0.000 C 
BRANCH  25  26
ATOM     26  C   UNL     1       7.502  -0.596 405.480  1.00  0.00    -0.000 C 
BRANCH  26  27
ATOM     27  C   UNL     1       6.882  -1.995 405.665  1.00  0.00    -0.000 C 
BRANCH  27  28
ATOM     28  C   UNL     1       5.782  -2.081 406.736  1.00  0.00    -0.000 C 
BRANCH  28  29
ATOM     29  C   UNL     1       4.607  -2.975 406.312  1.00  0.00    -0.003 C 
ATOM     30  C   UNL     1       3.317  -2.167 406.198  1.00  0.00     0.004 C 
ENDBRANCH  28  29
ENDBRANCH  27  28
ENDBRANCH  26  27
ENDBRANCH  25  26
ENDBRANCH  24  25
ENDBRANCH  23  24
ENDBRANCH  22  23
ENDBRANCH  21  22
ENDBRANCH  20  21
ENDBRANCH  19  20
ENDBRANCH  18  19
ENDBRANCH  17  18
ENDBRANCH   1  17
TORSDOF 26
ENDMDL
MODEL 2
REMARK VINA RESULT:    -3.706      3.288      6.976
REMARK INTER + INTRA:         -14.633
REMARK INTER:                  -9.307
REMARK INTRA:                  -5.326
REMARK UNBOUND:                -5.293
REMARK SMILES CCCCCCCCCCCCCCCCCCCCCCCCCCCC(=O)[O-]
REMARK SMILES IDX 15 1 16 2 17 3 18 4 19 5 20 6 21 7 22 8 23 9 24 10 25 11
REMARK SMILES IDX 26 12 27 13 28 14 29 15 30 16 14 17 13 18 12 19 11 20 10 21
REMARK SMILES IDX 9 22 8 23 7 24 6 25 5 26 4 27 3 28 2 29 1 30
REMARK H PARENT
REMARK Flexibility Score: inf
ROOT
ATOM      1  C   UNL     1       5.279   0.044 399.985  1.00  0.00     0.000 C 
ENDROOT
BRANCH   1   2
ATOM      2  C   UNL     1       5.441   1.507 400.436  1.00  0.00     0.000 C 
BRANCH   2   3
ATOM      3  C   UNL     1       4.093   2.179 400.757  1.00  0.00     0.000 C 
BRANCH   3   4
ATOM      4  C   UNL     1       3.992   2.770 402.175  1.00  0.00     0.000 C 
BRANCH   4   5
ATOM      5  C   UNL     1       5.198   2.405 403.060  1.00  0.00     0.000 C 
BRANCH   5   6
ATOM      6  C   UNL     1       4.823   1.450 404.203  1.00  0.00     0.000 C 
BRANCH   6   7
ATOM      7  C   UNL     1       4.388   0.065 403.696  1.00  0.00     0.000 C 
BRANCH   7   8
ATOM      8  C   UNL     1       4.380  -1.001 404.806  1.00  0.00     0.000 C 
BRANCH   8   9
ATOM      9  C   UNL     1       3.393  -2.157 404.545  1.00  0.00     0.000 C 
BRANCH   9  10
ATOM     10  C   UNL     1       4.052  -3.538 404.725  1.00  0.00     0.000 C 
BRANCH  10  11
ATOM     11  C   UNL     1       3.436  -4.612 403.817  1.00  0.00     0.000 C 
BRANCH  11  12
ATOM     12  C   UNL     1       4.489  -5.571 403.234  1.00  0.00     0.006 C 
BRANCH  12  13
ATOM     13  C   UNL     1       3.992  -6.275 401.963  1.00  0.00     0.053 C 
BRANCH  13  14
ATOM     14  C   UNL     1       4.100  -7.767 402.074  1.00  0.00     0.041 C 
ATOM     15  O   UNL     1       4.447  -8.298 403.161  1.00  0.00    -0.550 OA
ATOM     16  O   UNL     1       3.834  -8.569 400.971  1.00  0.00    -0.550 OA
ENDBRANCH  13  14
ENDBRANCH  12  13
ENDBRANCH  11  12
ENDBRANCH  10  11
ENDBRANCH   9  10
ENDBRANCH   8   9
ENDBRANCH   7   8
ENDBRANCH   6   7
ENDBRANCH   5   6
ENDBRANCH   4   5
ENDBRANCH   3   4
ENDBRANCH   2   3
ENDBRANCH   1   2
BRANCH   1  17
ATOM     17  C   UNL     1       3.831  -0.462 400.103  1.00  0.00     0.000 C 
BRANCH  17  18
ATOM     18  C   UNL     1       3.636  -1.979 399.907  1.00  0.00     0.000 C 
BRANCH  18  19
ATOM     19  C   UNL     1       4.461  -2.856 400.873  1.00  0.00     0.000 C 
BRANCH  19  20
ATOM     20  C   UNL     1       5.723  -3.441 400.218  1.00  0.00     0.000 C 
BRANCH  20  21
ATOM     21  C   UNL     1       6.950  -3.266 401.124  1.00  0.00     0.000 C 
BRANCH  21  22
ATOM     22  C   UNL     1       6.615  -2.574 402.455  1.00  0.00    -0.000 C 
BRANCH  22  23
ATOM     23  C   UNL     1       7.832  -2.458 403.390  1.00  0.00    -0.000 C 
BRANCH  23  24
ATOM     24  C   UNL     1       8.148  -1.000 403.760  1.00  0.00    -0.000 C 
BRANCH  24  25
ATOM     25  C   UNL     1       7.952  -0.036 402.575  1.00  0.00    -0.000 C 
BRANCH  25  26
ATOM     26  C   UNL     1       9.222   0.092 401.707  1.00  0.00    -0.000 C 
BRANCH  26  27
ATOM     27  C   UNL     1       9.047  -0.416 400.262  1.00  0.00    -0.000 C 
BRANCH  27  28
ATOM     28  C   UNL     1       9.452   0.585 399.168  1.00  0.00    -0.000 C 
BRANCH  28  29
ATOM     29  C   UNL     1       8.307   0.898 398.193  1.00  0.00    -0.003 C 
ATOM     30  C   UNL     1       8.483   2.278 397.565  1.00  0.00     0.004 C 
ENDBRANCH  28  29
ENDBRANCH  27  28
ENDBRANCH  26  27
ENDBRANCH  25  26
ENDBRANCH  24  25
ENDBRANCH  23  24
ENDBRANCH  22  23
ENDBRANCH  21  22
ENDBRANCH  20  21
ENDBRANCH  19  20
ENDBRANCH  18  19
ENDBRANCH  17  18
ENDBRANCH   1  17
TORSDOF 26
ENDMDL
MODEL 3
REMARK VINA RESULT:    -3.696      3.364      5.837
REMARK INTER + INTRA:         -14.607
REMARK INTER:                  -9.091
REMARK INTRA:                  -5.515
REMARK UNBOUND:                -5.293
REMARK SMILES CCCCCCCCCCCCCCCCCCCCCCCCCCCC(=O)[O-]
REMARK SMILES IDX 15 1 16 2 17 3 18 4 19 5 20 6 21 7 22 8 23 9 24 10 25 11
REMARK SMILES IDX 26 12 27 13 28 14 29 15 30 16 14 17 13 18 12 19 11 20 10 21
REMARK SMILES IDX 9 22 8 23 7 24 6 25 5 26 4 27 3 28 2 29 1 30
REMARK H PARENT
REMARK Flexibility Score: inf
ROOT
ATOM      1  C   UNL     1       2.903  -2.103 405.318  1.00  0.00     0.000 C 
ENDROOT
BRANCH   1   2
ATOM      2  C   UNL     1       3.259  -2.233 406.810  1.00  0.00     0.000 C 
BRANCH   2   3
ATOM      3  C   UNL     1       4.759  -2.493 407.039  1.00  0.00     0.000 C 
BRANCH   3   4
ATOM      4  C   UNL     1       5.688  -1.853 405.991  1.00  0.00     0.000 C 
BRANCH   4   5
ATOM      5  C   UNL     1       7.143  -1.731 406.479  1.00  0.00     0.000 C 
BRANCH   5   6
ATOM      6  C   UNL     1       8.115  -2.593 405.660  1.00  0.00     0.000 C 
BRANCH   6   7
ATOM      7  C   UNL     1       7.395  -3.476 404.627  1.00  0.00     0.000 C 
BRANCH   7   8
ATOM      8  C   UNL     1       8.232  -4.694 404.196  1.00  0.00     0.000 C 
BRANCH   8   9
ATOM      9  C   UNL     1       8.502  -4.751 402.679  1.00  0.00     0.000 C 
BRANCH   9  10
ATOM     10  C   UNL     1       7.423  -4.011 401.866  1.00  0.00     0.000 C 
BRANCH  10  11
ATOM     11  C   UNL     1       6.686  -4.932 400.883  1.00  0.00     0.000 C 
BRANCH  11  12
ATOM     12  C   UNL     1       6.472  -6.349 401.444  1.00  0.00     0.006 C 
BRANCH  12  13
ATOM     13  C   UNL     1       4.987  -6.737 401.486  1.00  0.00     0.053 C 
BRANCH  13  14
ATOM     14  C   UNL     1       4.802  -8.214 401.678  1.00  0.00     0.041 C 
ATOM     15  O   UNL     1       3.648  -8.694 401.828  1.00  0.00    -0.550 OA
ATOM     16  O   UNL     1       5.906  -9.056 401.709  1.00  0.00    -0.550 OA
ENDBRANCH  13  14
ENDBRANCH  12  13
ENDBRANCH  11  12
ENDBRANCH  10  11
ENDBRANCH   9  10
ENDBRANCH   8   9
ENDBRANCH   7   8
ENDBRANCH   6   7
ENDBRANCH   5   6
ENDBRANCH   4   5
ENDBRANCH   3   4
ENDBRANCH   2   3
ENDBRANCH   1   2
BRANCH   1  17
ATOM     17  C   UNL     1       2.607  -3.458 404.652  1.00  0.00     0.000 C 
BRANCH  17  18
ATOM     18  C   UNL     1       3.655  -3.942 403.630  1.00  0.00     0.000 C 
BRANCH  18  19
ATOM     19  C   UNL     1       3.965  -2.928 402.508  1.00  0.00     0.000 C 
BRANCH  19  20
ATOM     20  C   UNL     1       3.322  -3.309 401.165  1.00  0.00     0.000 C 
BRANCH  20  21
ATOM     21  C   UNL     1       3.734  -2.330 400.056  1.00  0.00     0.000 C 
BRANCH  21  22
ATOM     22  C   UNL     1       5.012  -1.546 400.397  1.00  0.00    -0.000 C 
BRANCH  22  23
ATOM     23  C   UNL     1       4.945  -0.075 399.953  1.00  0.00    -0.000 C 
BRANCH  23  24
ATOM     24  C   UNL     1       3.629   0.601 400.367  1.00  0.00    -0.000 C 
BRANCH  24  25
ATOM     25  C   UNL     1       3.804   1.538 401.577  1.00  0.00    -0.000 C 
BRANCH  25  26
ATOM     26  C   UNL     1       3.526   0.823 402.917  1.00  0.00    -0.000 C 
BRANCH  26  27
ATOM     27  C   UNL     1       4.664   0.960 403.947  1.00  0.00    -0.000 C 
BRANCH  27  28
ATOM     28  C   UNL     1       5.877   1.776 403.470  1.00  0.00    -0.000 C 
BRANCH  28  29
ATOM     29  C   UNL     1       7.211   1.053 403.710  1.00  0.00    -0.003 C 
ATOM     30  C   UNL     1       7.300  -0.224 402.878  1.00  0.00     0.004 C 
ENDBRANCH  28  29
ENDBRANCH  27  28
ENDBRANCH  26  27
ENDBRANCH  25  26
ENDBRANCH  24  25
ENDBRANCH  23  24
ENDBRANCH  22  23
ENDBRANCH  21  22
ENDBRANCH  20  21
ENDBRANCH  19  20
ENDBRANCH  18  19
ENDBRANCH  17  18
ENDBRANCH   1  17
TORSDOF 26
ENDMDL
MODEL 4
REMARK VINA RESULT:    -3.676      2.107      6.108
REMARK INTER + INTRA:         -14.556
REMARK INTER:                  -9.196
REMARK INTRA:                  -5.360
REMARK UNBOUND:                -5.293
REMARK SMILES CCCCCCCCCCCCCCCCCCCCCCCCCCCC(=O)[O-]
REMARK SMILES IDX 15 1 16 2 17 3 18 4 19 5 20 6 21 7 22 8 23 9 24 10 25 11
REMARK SMILES IDX 26 12 27 13 28 14 29 15 30 16 14 17 13 18 12 19 11 20 10 21
REMARK SMILES IDX 9 22 8 23 7 24 6 25 5 26 4 27 3 28 2 29 1 30
REMARK H PARENT
REMARK Flexibility Score: inf
ROOT
ATOM      1  C   UNL     1       2.819  -3.341 403.742  1.00  0.00     0.000 C 
ENDROOT
BRANCH   1   2
ATOM      2  C   UNL     1       3.774  -2.876 402.628  1.00  0.00     0.000 C 
BRANCH   2   3
ATOM      3  C   UNL     1       3.280  -3.272 401.224  1.00  0.00     0.000 C 
BRANCH   3   4
ATOM      4  C   UNL     1       3.499  -2.200 400.141  1.00  0.00     0.000 C 
BRANCH   4   5
ATOM      5  C   UNL     1       4.806  -1.411 400.339  1.00  0.00     0.000 C 
BRANCH   5   6
ATOM      6  C   UNL     1       4.683   0.055 399.899  1.00  0.00     0.000 C 
BRANCH   6   7
ATOM      7  C   UNL     1       3.437   0.744 400.479  1.00  0.00     0.000 C 
BRANCH   7   8
ATOM      8  C   UNL     1       3.755   1.618 401.705  1.00  0.00     0.000 C 
BRANCH   8   9
ATOM      9  C   UNL     1       3.639   0.865 403.047  1.00  0.00     0.000 C 
BRANCH   9  10
ATOM     10  C   UNL     1       4.823   1.164 403.986  1.00  0.00     0.000 C 
BRANCH  10  11
ATOM     11  C   UNL     1       5.596  -0.102 404.386  1.00  0.00     0.000 C 
BRANCH  11  12
ATOM     12  C   UNL     1       6.610  -0.541 403.314  1.00  0.00     0.006 C 
BRANCH  12  13
ATOM     13  C   UNL     1       7.309   0.656 402.654  1.00  0.00     0.053 C 
BRANCH  13  14
ATOM     14  C   UNL     1       8.245   0.223 401.564  1.00  0.00     0.041 C 
ATOM     15  O   UNL     1       9.232  -0.513 401.831  1.00  0.00    -0.550 OA
ATOM     16  O   UNL     1       8.037   0.646 400.257  1.00  0.00    -0.550 OA
ENDBRANCH  13  14
ENDBRANCH  12  13
ENDBRANCH  11  12
ENDBRANCH  10  11
ENDBRANCH   9  10
ENDBRANCH   8   9
ENDBRANCH   7   8
ENDBRANCH   6   7
ENDBRANCH   5   6
ENDBRANCH   4   5
ENDBRANCH   3   4
ENDBRANCH   2   3
ENDBRANCH   1   2
BRANCH   1  17
ATOM     17  C   UNL     1       2.859  -2.433 404.984  1.00  0.00     0.000 C 
BRANCH  17  18
ATOM     18  C   UNL     1       3.834  -2.865 406.096  1.00  0.00     0.000 C 
BRANCH  18  19
ATOM     19  C   UNL     1       4.107  -4.383 406.149  1.00  0.00     0.000 C 
BRANCH  19  20
ATOM     20  C   UNL     1       5.593  -4.729 405.966  1.00  0.00     0.000 C 
BRANCH  20  21
ATOM     21  C   UNL     1       6.267  -3.774 404.970  1.00  0.00     0.000 C 
BRANCH  21  22
ATOM     22  C   UNL     1       6.909  -4.506 403.782  1.00  0.00    -0.000 C 
BRANCH  22  23
ATOM     23  C   UNL     1       6.408  -5.953 403.632  1.00  0.00    -0.000 C 
BRANCH  23  24
ATOM     24  C   UNL     1       5.686  -6.187 402.296  1.00  0.00    -0.000 C 
BRANCH  24  25
ATOM     25  C   UNL     1       4.189  -6.494 402.482  1.00  0.00    -0.000 C 
BRANCH  25  26
ATOM     26  C   UNL     1       3.764  -7.794 401.764  1.00  0.00    -0.000 C 
BRANCH  26  27
ATOM     27  C   UNL     1       4.825  -8.911 401.814  1.00  0.00    -0.000 C 
BRANCH  27  28
ATOM     28  C   UNL     1       4.681  -9.892 402.989  1.00  0.00    -0.000 C 
BRANCH  28  29
ATOM     29  C   UNL     1       5.601  -9.545 404.170  1.00  0.00    -0.003 C 
ATOM     30  C   UNL     1       4.818  -8.880 405.299  1.00  0.00     0.004 C 
ENDBRANCH  28  29
ENDBRANCH  27  28
ENDBRANCH  26  27
ENDBRANCH  25  26
ENDBRANCH  24  25
ENDBRANCH  23  24
ENDBRANCH  22  23
ENDBRANCH  21  22
ENDBRANCH  20  21
ENDBRANCH  19  20
ENDBRANCH  18  19
ENDBRANCH  17  18
ENDBRANCH   1  17
TORSDOF 26
ENDMDL
MODEL 5
REMARK VINA RESULT:    -3.667      5.649      8.832
REMARK INTER + INTRA:         -14.534
REMARK INTER:                 -10.595
REMARK INTRA:                  -3.940
REMARK UNBOUND:                -5.293
REMARK SMILES CCCCCCCCCCCCCCCCCCCCCCCCCCCC(=O)[O-]
REMARK SMILES IDX 15 1 16 2 17 3 18 4 19 5 20 6 21 7 22 8 23 9 24 10 25 11
REMARK SMILES IDX 26 12 27 13 28 14 29 15 30 16 14 17 13 18 12 19 11 20 10 21
REMARK SMILES IDX 9 22 8 23 7 24 6 25 5 26 4 27 3 28 2 29 1 30
REMARK H PARENT
REMARK Flexibility Score: inf
ROOT
ATOM      1  C   UNL     1       7.937   4.097 404.491  1.00  0.00     0.000 C 
ENDROOT
BRANCH   1   2
ATOM      2  C   UNL     1       6.561   3.907 403.827  1.00  0.00     0.000 C 
BRANCH   2   3
ATOM      3  C   UNL     1       6.285   2.440 403.449  1.00  0.00     0.000 C 
BRANCH   3   4
ATOM      4  C   UNL     1       4.800   2.103 403.227  1.00  0.00     0.000 C 
BRANCH   4   5
ATOM      5  C   UNL     1       4.150   2.966 402.130  1.00  0.00     0.000 C 
BRANCH   5   6
ATOM      6  C   UNL     1       3.825   2.163 400.862  1.00  0.00     0.000 C 
BRANCH   6   7
ATOM      7  C   UNL     1       3.528   0.684 401.159  1.00  0.00     0.000 C 
BRANCH   7   8
ATOM      8  C   UNL     1       4.356  -0.277 400.287  1.00  0.00     0.000 C 
BRANCH   8   9
ATOM      9  C   UNL     1       4.507  -1.687 400.896  1.00  0.00     0.000 C 
BRANCH   9  10
ATOM     10  C   UNL     1       4.474  -1.663 402.435  1.00  0.00     0.000 C 
BRANCH  10  11
ATOM     11  C   UNL     1       3.734  -2.870 403.031  1.00  0.00     0.000 C 
BRANCH  11  12
ATOM     12  C   UNL     1       2.979  -2.522 404.327  1.00  0.00     0.006 C 
BRANCH  12  13
ATOM     13  C   UNL     1       3.783  -1.575 405.229  1.00  0.00     0.053 C 
BRANCH  13  14
ATOM     14  C   UNL     1       4.067  -2.189 406.569  1.00  0.00     0.041 C 
ATOM     15  O   UNL     1       3.154  -2.278 407.431  1.00  0.00    -0.550 OA
ATOM     16  O   UNL     1       5.344  -2.645 406.870  1.00  0.00    -0.550 OA
ENDBRANCH  13  14
ENDBRANCH  12  13
ENDBRANCH  11  12
ENDBRANCH  10  11
ENDBRANCH   9  10
ENDBRANCH   8   9
ENDBRANCH   7   8
ENDBRANCH   6   7
ENDBRANCH   5   6
ENDBRANCH   4   5
ENDBRANCH   3   4
ENDBRANCH   2   3
ENDBRANCH   1   2
BRANCH   1  17
ATOM     17  C   UNL     1       7.946   5.218 405.544  1.00  0.00     0.000 C 
BRANCH  17  18
ATOM     18  C   UNL     1       6.562   5.665 406.055  1.00  0.00     0.000 C 
BRANCH  18  19
ATOM     19  C   UNL     1       6.492   7.145 406.488  1.00  0.00     0.000 C 
BRANCH  19  20
ATOM     20  C   UNL     1       5.049   7.659 406.624  1.00  0.00     0.000 C 
BRANCH  20  21
ATOM     21  C   UNL     1       4.963   9.159 406.303  1.00  0.00     0.000 C 
BRANCH  21  22
ATOM     22  C   UNL     1       3.649   9.544 405.605  1.00  0.00    -0.000 C 
BRANCH  22  23
ATOM     23  C   UNL     1       2.875   8.325 405.075  1.00  0.00    -0.000 C 
BRANCH  23  24
ATOM     24  C   UNL     1       2.816   8.291 403.540  1.00  0.00    -0.000 C 
BRANCH  24  25
ATOM     25  C   UNL     1       3.470   7.027 402.953  1.00  0.00    -0.000 C 
BRANCH  25  26
ATOM     26  C   UNL     1       5.011   7.086 403.007  1.00  0.00    -0.000 C 
BRANCH  26  27
ATOM     27  C   UNL     1       5.614   8.323 402.312  1.00  0.00    -0.000 C 
BRANCH  27  28
ATOM     28  C   UNL     1       6.698   9.058 403.118  1.00  0.00    -0.000 C 
BRANCH  28  29
ATOM     29  C   UNL     1       7.977   8.225 403.292  1.00  0.00    -0.003 C 
ATOM     30  C   UNL     1       8.877   8.822 404.371  1.00  0.00     0.004 C 
ENDBRANCH  28  29
ENDBRANCH  27  28
ENDBRANCH  26  27
ENDBRANCH  25  26
ENDBRANCH  24  25
ENDBRANCH  23  24
ENDBRANCH  22  23
ENDBRANCH  21  22
ENDBRANCH  20  21
ENDBRANCH  19  20
ENDBRANCH  18  19
ENDBRANCH  17  18
ENDBRANCH   1  17
TORSDOF 26
ENDMDL
MODEL 6
REMARK VINA RESULT:    -3.652      3.115      7.042
REMARK INTER + INTRA:         -14.495
REMARK INTER:                  -9.221
REMARK INTRA:                  -5.274
REMARK UNBOUND:                -5.293
REMARK SMILES CCCCCCCCCCCCCCCCCCCCCCCCCCCC(=O)[O-]
REMARK SMILES IDX 15 1 16 2 17 3 18 4 19 5 20 6 21 7 22 8 23 9 24 10 25 11
REMARK SMILES IDX 26 12 27 13 28 14 29 15 30 16 14 17 13 18 12 19 11 20 10 21
REMARK SMILES IDX 9 22 8 23 7 24 6 25 5 26 4 27 3 28 2 29 1 30
REMARK H PARENT
REMARK Flexibility Score: inf
ROOT
ATOM      1  C   UNL     1       3.387  -3.310 400.845  1.00  0.00     0.000 C 
ENDROOT
BRANCH   1   2
ATOM      2  C   UNL     1       3.993  -2.063 400.177  1.00  0.00     0.000 C 
BRANCH   2   3
ATOM      3  C   UNL     1       3.764  -0.782 401.000  1.00  0.00     0.000 C 
BRANCH   3   4
ATOM      4  C   UNL     1       3.580   0.496 400.161  1.00  0.00     0.000 C 
BRANCH   4   5
ATOM      5  C   UNL     1       4.513   1.638 400.602  1.00  0.00     0.000 C 
BRANCH   5   6
ATOM      6  C   UNL     1       4.051   2.308 401.905  1.00  0.00     0.000 C 
BRANCH   6   7
ATOM      7  C   UNL     1       5.081   2.171 403.038  1.00  0.00     0.000 C 
BRANCH   7   8
ATOM      8  C   UNL     1       6.499   1.871 402.521  1.00  0.00     0.000 C 
BRANCH   8   9
ATOM      9  C   UNL     1       7.192   0.707 403.259  1.00  0.00     0.000 C 
BRANCH   9  10
ATOM     10  C   UNL     1       6.598  -0.661 402.875  1.00  0.00     0.000 C 
BRANCH  10  11
ATOM     11  C   UNL     1       6.298  -1.541 404.098  1.00  0.00     0.000 C 
BRANCH  11  12
ATOM     12  C   UNL     1       5.425  -0.824 405.144  1.00  0.00     0.006 C 
BRANCH  12  13
ATOM     13  C   UNL     1       4.059  -1.502 405.321  1.00  0.00     0.053 C 
BRANCH  13  14
ATOM     14  C   UNL     1       4.096  -2.563 406.382  1.00  0.00     0.041 C 
ATOM     15  O   UNL     1       3.476  -3.646 406.217  1.00  0.00    -0.550 OA
ATOM     16  O   UNL     1       4.802  -2.347 407.559  1.00  0.00    -0.550 OA
ENDBRANCH  13  14
ENDBRANCH  12  13
ENDBRANCH  11  12
ENDBRANCH  10  11
ENDBRANCH   9  10
ENDBRANCH   8   9
ENDBRANCH   7   8
ENDBRANCH   6   7
ENDBRANCH   5   6
ENDBRANCH   4   5
ENDBRANCH   3   4
ENDBRANCH   2   3
ENDBRANCH   1   2
BRANCH   1  17
ATOM     17  C   UNL     1       3.627  -3.354 402.364  1.00  0.00     0.000 C 
BRANCH  17  18
ATOM     18  C   UNL     1       4.044  -4.723 402.935  1.00  0.00     0.000 C 
BRANCH  18  19
ATOM     19  C   UNL     1       3.949  -5.888 401.927  1.00  0.00     0.000 C 
BRANCH  19  20
ATOM     20  C   UNL     1       5.250  -6.703 401.832  1.00  0.00     0.000 C 
BRANCH  20  21
ATOM     21  C   UNL     1       6.481  -5.809 402.047  1.00  0.00     0.000 C 
BRANCH  21  22
ATOM     22  C   UNL     1       7.060  -5.264 400.731  1.00  0.00    -0.000 C 
BRANCH  22  23
ATOM     23  C   UNL     1       7.136  -3.728 400.704  1.00  0.00    -0.000 C 
BRANCH  23  24
ATOM     24  C   UNL     1       8.524  -3.204 401.105  1.00  0.00    -0.000 C 
BRANCH  24  25
ATOM     25  C   UNL     1       9.127  -2.264 400.045  1.00  0.00    -0.000 C 
BRANCH  25  26
ATOM     26  C   UNL     1       9.620  -0.934 400.654  1.00  0.00    -0.000 C 
BRANCH  26  27
ATOM     27  C   UNL     1       8.958   0.317 400.043  1.00  0.00    -0.000 C 
BRANCH  27  28
ATOM     28  C   UNL     1       7.594   0.070 399.376  1.00  0.00    -0.000 C 
BRANCH  28  29
ATOM     29  C   UNL     1       7.523   0.625 397.945  1.00  0.00    -0.003 C 
ATOM     30  C   UNL     1       8.432   1.841 397.783  1.00  0.00     0.004 C 
ENDBRANCH  28  29
ENDBRANCH  27  28
ENDBRANCH  26  27
ENDBRANCH  25  26
ENDBRANCH  24  25
ENDBRANCH  23  24
ENDBRANCH  22  23
ENDBRANCH  21  22
ENDBRANCH  20  21
ENDBRANCH  19  20
ENDBRANCH  18  19
ENDBRANCH  17  18
ENDBRANCH   1  17
TORSDOF 26
ENDMDL
MODEL 7
REMARK VINA RESULT:    -3.651      2.825      5.628
REMARK INTER + INTRA:         -14.492
REMARK INTER:                  -9.607
REMARK INTRA:                  -4.886
REMARK UNBOUND:                -5.293
REMARK SMILES CCCCCCCCCCCCCCCCCCCCCCCCCCCC(=O)[O-]
REMARK SMILES IDX 15 1 16 2 17 3 18 4 19 5 20 6 21 7 22 8 23 9 24 10 25 11
REMARK SMILES IDX 26 12 27 13 28 14 29 15 30 16 14 17 13 18 12 19 11 20 10 21
REMARK SMILES IDX 9 22 8 23 7 24 6 25 5 26 4 27 3 28 2 29 1 30
REMARK H PARENT
REMARK Flexibility Score: inf
ROOT
ATOM      1  C   UNL     1       4.012  -1.438 401.110  1.00  0.00     0.000 C 
ENDROOT
BRANCH   1   2
ATOM      2  C   UNL     1       3.593  -2.702 400.339  1.00  0.00     0.000 C 
BRANCH   2   3
ATOM      3  C   UNL     1       3.331  -3.902 401.269  1.00  0.00     0.000 C 
BRANCH   3   4
ATOM      4  C   UNL     1       4.465  -4.198 402.269  1.00  0.00     0.000 C 
BRANCH   4   5
ATOM      5  C   UNL     1       5.552  -5.115 401.682  1.00  0.00     0.000 C 
BRANCH   5   6
ATOM      6  C   UNL     1       6.687  -4.329 401.008  1.00  0.00     0.000 C 
BRANCH   6   7
ATOM      7  C   UNL     1       7.161  -3.135 401.853  1.00  0.00     0.000 C 
BRANCH   7   8
ATOM      8  C   UNL     1       8.171  -3.537 402.942  1.00  0.00     0.000 C 
BRANCH   8   9
ATOM      9  C   UNL     1       7.996  -2.759 404.263  1.00  0.00     0.000 C 
BRANCH   9  10
ATOM     10  C   UNL     1       6.583  -2.164 404.406  1.00  0.00     0.000 C 
BRANCH  10  11
ATOM     11  C   UNL     1       5.987  -2.381 405.804  1.00  0.00     0.000 C 
BRANCH  11  12
ATOM     12  C   UNL     1       4.966  -3.533 405.840  1.00  0.00     0.006 C 
BRANCH  12  13
ATOM     13  C   UNL     1       3.563  -3.052 406.235  1.00  0.00     0.053 C 
BRANCH  13  14
ATOM     14  C   UNL     1       2.778  -2.586 405.045  1.00  0.00     0.041 C 
ATOM     15  O   UNL     1       3.057  -1.490 404.491  1.00  0.00    -0.550 OA
ATOM     16  O   UNL     1       1.727  -3.354 404.559  1.00  0.00    -0.550 OA
ENDBRANCH  13  14
ENDBRANCH  12  13
ENDBRANCH  11  12
ENDBRANCH  10  11
ENDBRANCH   9  10
ENDBRANCH   8   9
ENDBRANCH   7   8
ENDBRANCH   6   7
ENDBRANCH   5   6
ENDBRANCH   4   5
ENDBRANCH   3   4
ENDBRANCH   2   3
ENDBRANCH   1   2
BRANCH   1  17
ATOM     17  C   UNL     1       4.100  -0.190 400.215  1.00  0.00     0.000 C 
BRANCH  17  18
ATOM     18  C   UNL     1       3.290   1.032 400.690  1.00  0.00     0.000 C 
BRANCH  18  19
ATOM     19  C   UNL     1       4.118   2.327 400.833  1.00  0.00     0.000 C 
BRANCH  19  20
ATOM     20  C   UNL     1       4.257   2.787 402.294  1.00  0.00     0.000 C 
BRANCH  20  21
ATOM     21  C   UNL     1       4.207   1.594 403.259  1.00  0.00     0.000 C 
BRANCH  21  22
ATOM     22  C   UNL     1       5.487   1.450 404.097  1.00  0.00    -0.000 C 
BRANCH  22  23
ATOM     23  C   UNL     1       6.718   2.074 403.418  1.00  0.00    -0.000 C 
BRANCH  23  24
ATOM     24  C   UNL     1       7.992   1.244 403.641  1.00  0.00    -0.000 C 
BRANCH  24  25
ATOM     25  C   UNL     1       8.340   0.361 402.428  1.00  0.00    -0.000 C 
BRANCH  25  26
ATOM     26  C   UNL     1       7.408   0.624 401.226  1.00  0.00    -0.000 C 
BRANCH  26  27
ATOM     27  C   UNL     1       8.064   0.356 399.856  1.00  0.00    -0.000 C 
BRANCH  27  28
ATOM     28  C   UNL     1       7.235   0.801 398.640  1.00  0.00    -0.000 C 
BRANCH  28  29
ATOM     29  C   UNL     1       8.107   1.238 397.454  1.00  0.00    -0.003 C 
ATOM     30  C   UNL     1       9.145   2.269 397.887  1.00  0.00     0.004 C 
ENDBRANCH  28  29
ENDBRANCH  27  28
ENDBRANCH  26  27
ENDBRANCH  25  26
ENDBRANCH  24  25
ENDBRANCH  23  24
ENDBRANCH  22  23
ENDBRANCH  21  22
ENDBRANCH  20  21
ENDBRANCH  19  20
ENDBRANCH  18  19
ENDBRANCH  17  18
ENDBRANCH   1  17
TORSDOF 26
ENDMDL
MODEL 8
REMARK VINA RESULT:    -3.606      1.303      4.658
REMARK INTER + INTRA:         -14.380
REMARK INTER:                  -8.994
REMARK INTRA:                  -5.386
REMARK UNBOUND:                -5.293
REMARK SMILES CCCCCCCCCCCCCCCCCCCCCCCCCCCC(=O)[O-]
REMARK SMILES IDX 15 1 16 2 17 3 18 4 19 5 20 6 21 7 22 8 23 9 24 10 25 11
REMARK SMILES IDX 26 12 27 13 28 14 29 15 30 16 14 17 13 18 12 19 11 20 10 21
REMARK SMILES IDX 9 22 8 23 7 24 6 25 5 26 4 27 3 28 2 29 1 30
REMARK H PARENT
REMARK Flexibility Score: inf
ROOT
ATOM      1  C   UNL     1       4.016  -0.712 399.785  1.00  0.00     0.000 C 
ENDROOT
BRANCH   1   2
ATOM      2  C   UNL     1       3.277   0.337 400.635  1.00  0.00     0.000 C 
BRANCH   2   3
ATOM      3  C   UNL     1       3.910   1.737 400.527  1.00  0.00     0.000 C 
BRANCH   3   4
ATOM      4  C   UNL     1       4.197   2.417 401.878  1.00  0.00     0.000 C 
BRANCH   4   5
ATOM      5  C   UNL     1       3.952   1.487 403.078  1.00  0.00     0.000 C 
BRANCH   5   6
ATOM      6  C   UNL     1       5.214   1.271 403.926  1.00  0.00     0.000 C 
BRANCH   6   7
ATOM      7  C   UNL     1       6.433   2.029 403.375  1.00  0.00     0.000 C 
BRANCH   7   8
ATOM      8  C   UNL     1       7.601   1.097 403.009  1.00  0.00     0.000 C 
BRANCH   8   9
ATOM      9  C   UNL     1       7.154  -0.324 402.608  1.00  0.00     0.000 C 
BRANCH   9  10
ATOM     10  C   UNL     1       7.228  -0.551 401.087  1.00  0.00     0.000 C 
BRANCH  10  11
ATOM     11  C   UNL     1       7.666   0.707 400.321  1.00  0.00     0.000 C 
BRANCH  11  12
ATOM     12  C   UNL     1       7.066   0.778 398.905  1.00  0.00     0.006 C 
BRANCH  12  13
ATOM     13  C   UNL     1       8.126   1.103 397.843  1.00  0.00     0.053 C 
BRANCH  13  14
ATOM     14  C   UNL     1       8.600  -0.131 397.134  1.00  0.00     0.041 C 
ATOM     15  O   UNL     1       9.359  -0.947 397.720  1.00  0.00    -0.550 OA
ATOM     16  O   UNL     1       8.218  -0.370 395.819  1.00  0.00    -0.550 OA
ENDBRANCH  13  14
ENDBRANCH  12  13
ENDBRANCH  11  12
ENDBRANCH  10  11
ENDBRANCH   9  10
ENDBRANCH   8   9
ENDBRANCH   7   8
ENDBRANCH   6   7
ENDBRANCH   5   6
ENDBRANCH   4   5
ENDBRANCH   3   4
ENDBRANCH   2   3
ENDBRANCH   1   2
BRANCH   1  17
ATOM     17  C   UNL     1       3.901  -2.136 400.356  1.00  0.00     0.000 C 
BRANCH  17  18
ATOM     18  C   UNL     1       4.056  -2.257 401.885  1.00  0.00     0.000 C 
BRANCH  18  19
ATOM     19  C   UNL     1       3.299  -3.449 402.509  1.00  0.00     0.000 C 
BRANCH  19  20
ATOM     20  C   UNL     1       2.766  -3.146 403.918  1.00  0.00     0.000 C 
BRANCH  20  21
ATOM     21  C   UNL     1       3.408  -1.874 404.493  1.00  0.00     0.000 C 
BRANCH  21  22
ATOM     22  C   UNL     1       3.611  -1.943 406.015  1.00  0.00    -0.000 C 
BRANCH  22  23
ATOM     23  C   UNL     1       4.948  -2.594 406.409  1.00  0.00    -0.000 C 
BRANCH  23  24
ATOM     24  C   UNL     1       5.965  -2.583 405.257  1.00  0.00    -0.000 C 
BRANCH  24  25
ATOM     25  C   UNL     1       6.205  -3.987 404.671  1.00  0.00    -0.000 C 
BRANCH  25  26
ATOM     26  C   UNL     1       7.703  -4.270 404.425  1.00  0.00    -0.000 C 
BRANCH  26  27
ATOM     27  C   UNL     1       8.037  -4.642 402.966  1.00  0.00    -0.000 C 
BRANCH  27  28
ATOM     28  C   UNL     1       7.157  -3.961 401.904  1.00  0.00    -0.000 C 
BRANCH  28  29
ATOM     29  C   UNL     1       6.497  -4.965 400.946  1.00  0.00    -0.003 C 
ATOM     30  C   UNL     1       5.871  -6.125 401.714  1.00  0.00     0.004 C 
ENDBRANCH  28  29
ENDBRANCH  27  28
ENDBRANCH  26  27
ENDBRANCH  25  26
ENDBRANCH  24  25
ENDBRANCH  23  24
ENDBRANCH  22  23
ENDBRANCH  21  22
ENDBRANCH  20  21
ENDBRANCH  19  20
ENDBRANCH  18  19
ENDBRANCH  17  18
ENDBRANCH   1  17
TORSDOF 26
ENDMDL
MODEL 9
REMARK VINA RESULT:    -3.595      3.734      6.730
REMARK INTER + INTRA:         -14.352
REMARK INTER:                  -8.575
REMARK INTRA:                  -5.777
REMARK UNBOUND:                -5.293
REMARK SMILES CCCCCCCCCCCCCCCCCCCCCCCCCCCC(=O)[O-]
REMARK SMILES IDX 15 1 16 2 17 3 18 4 19 5 20 6 21 7 22 8 23 9 24 10 25 11
REMARK SMILES IDX 26 12 27 13 28 14 29 15 30 16 14 17 13 18 12 19 11 20 10 21
REMARK SMILES IDX 9 22 8 23 7 24 6 25 5 26 4 27 3 28 2 29 1 30
REMARK H PARENT
REMARK Flexibility Score: inf
ROOT
ATOM      1  C   UNL     1       6.914  -3.967 404.152  1.00  0.00     0.000 C 
ENDROOT
BRANCH   1   2
ATOM      2  C   UNL     1       6.160  -4.446 405.406  1.00  0.00     0.000 C 
BRANCH   2   3
ATOM      3  C   UNL     1       5.196  -5.609 405.107  1.00  0.00     0.000 C 
BRANCH   3   4
ATOM      4  C   UNL     1       5.411  -6.286 403.741  1.00  0.00     0.000 C 
BRANCH   4   5
ATOM      5  C   UNL     1       4.242  -6.051 402.768  1.00  0.00     0.000 C 
BRANCH   5   6
ATOM      6  C   UNL     1       4.628  -5.149 401.586  1.00  0.00     0.000 C 
BRANCH   6   7
ATOM      7  C   UNL     1       3.745  -3.895 401.486  1.00  0.00     0.000 C 
BRANCH   7   8
ATOM      8  C   UNL     1       3.293  -3.373 402.861  1.00  0.00     0.000 C 
BRANCH   8   9
ATOM      9  C   UNL     1       3.850  -1.975 403.205  1.00  0.00     0.000 C 
BRANCH   9  10
ATOM     10  C   UNL     1       3.300  -1.442 404.541  1.00  0.00     0.000 C 
BRANCH  10  11
ATOM     11  C   UNL     1       3.003  -2.563 405.549  1.00  0.00     0.000 C 
BRANCH  11  12
ATOM     12  C   UNL     1       3.499  -2.231 406.968  1.00  0.00     0.006 C 
BRANCH  12  13
ATOM     13  C   UNL     1       3.567  -3.477 407.863  1.00  0.00     0.053 C 
BRANCH  13  14
ATOM     14  C   UNL     1       4.633  -3.352 408.911  1.00  0.00     0.041 C 
ATOM     15  O   UNL     1       5.746  -2.837 408.626  1.00  0.00    -0.550 OA
ATOM     16  O   UNL     1       4.404  -3.823 410.198  1.00  0.00    -0.550 OA
ENDBRANCH  13  14
ENDBRANCH  12  13
ENDBRANCH  11  12
ENDBRANCH  10  11
ENDBRANCH   9  10
ENDBRANCH   8   9
ENDBRANCH   7   8
ENDBRANCH   6   7
ENDBRANCH   5   6
ENDBRANCH   4   5
ENDBRANCH   3   4
ENDBRANCH   2   3
ENDBRANCH   1   2
BRANCH   1  17
ATOM     17  C   UNL     1       7.056  -2.437 404.085  1.00  0.00     0.000 C 
BRANCH  17  18
ATOM     18  C   UNL     1       6.971  -1.698 405.436  1.00  0.00     0.000 C 
BRANCH  18  19
ATOM     19  C   UNL     1       6.778  -0.172 405.314  1.00  0.00     0.000 C 
BRANCH  19  20
ATOM     20  C   UNL     1       6.531   0.286 403.868  1.00  0.00     0.000 C 
BRANCH  20  21
ATOM     21  C   UNL     1       5.901   1.686 403.829  1.00  0.00     0.000 C 
BRANCH  21  22
ATOM     22  C   UNL     1       4.503   1.694 403.190  1.00  0.00    -0.000 C 
BRANCH  22  23
ATOM     23  C   UNL     1       4.350   2.776 402.107  1.00  0.00    -0.000 C 
BRANCH  23  24
ATOM     24  C   UNL     1       3.705   2.229 400.823  1.00  0.00    -0.000 C 
BRANCH  24  25
ATOM     25  C   UNL     1       3.354   0.734 400.930  1.00  0.00    -0.000 C 
BRANCH  25  26
ATOM     26  C   UNL     1       4.119  -0.123 399.899  1.00  0.00    -0.000 C 
BRANCH  26  27
ATOM     27  C   UNL     1       5.589  -0.391 400.276  1.00  0.00    -0.000 C 
BRANCH  27  28
ATOM     28  C   UNL     1       6.603   0.606 399.690  1.00  0.00    -0.000 C 
BRANCH  28  29
ATOM     29  C   UNL     1       8.012   0.435 400.277  1.00  0.00    -0.003 C 
ATOM     30  C   UNL     1       8.201  -0.966 400.852  1.00  0.00     0.004 C 
ENDBRANCH  28  29
ENDBRANCH  27  28
ENDBRANCH  26  27
ENDBRANCH  25  26
ENDBRANCH  24  25
ENDBRANCH  23  24
ENDBRANCH  22  23
ENDBRANCH  21  22
ENDBRANCH  20  21
ENDBRANCH  19  20
ENDBRANCH  18  19
ENDBRANCH  17  18
ENDBRANCH   1  17
TORSDOF 26
ENDMDL
