MODEL 1
REMARK VINA RESULT:    -2.583      0.000      0.000
REMARK INTER + INTRA:         -13.202
REMARK INTER:                  -6.810
REMARK INTRA:                  -6.392
REMARK UNBOUND:                -6.392
REMARK SMILES CCCCCCCCCCCCCCCCCCCCCCCCCCCCCC(=O)[O-]
REMARK SMILES IDX 16 1 17 2 18 3 19 4 20 5 21 6 22 7 23 8 24 9 25 10 26 11
REMARK SMILES IDX 27 12 28 13 29 14 30 15 31 16 32 17 15 18 14 19 13 20 12 21
REMARK SMILES IDX 11 22 10 23 9 24 8 25 7 26 6 27 5 28 4 29 3 30 2 31 1 32
REMARK H PARENT
REMARK Flexibility Score: inf
ROOT
ATOM      1  C   UNL     1    -110.039 -51.871 -58.461  1.00  0.00     0.000 C 
ENDROOT
BRANCH   1   2
ATOM      2  C   UNL     1    -109.146 -51.751 -59.704  1.00  0.00     0.000 C 
BRANCH   2   3
ATOM      3  C   UNL     1    -109.372 -50.446 -60.483  1.00  0.00     0.000 C 
BRANCH   3   4
ATOM      4  C   UNL     1    -108.423 -50.278 -61.692  1.00  0.00     0.000 C 
BRANCH   4   5
ATOM      5  C   UNL     1    -107.926 -48.833 -61.839  1.00  0.00     0.000 C 
BRANCH   5   6
ATOM      6  C   UNL     1    -108.548 -47.916 -60.773  1.00  0.00     0.000 C 
BRANCH   6   7
ATOM      7  C   UNL     1    -109.013 -46.561 -61.338  1.00  0.00     0.000 C 
BRANCH   7   8
ATOM      8  C   UNL     1    -110.271 -46.618 -62.233  1.00  0.00     0.000 C 
BRANCH   8   9
ATOM      9  C   UNL     1    -111.391 -47.533 -61.701  1.00  0.00     0.000 C 
BRANCH   9  10
ATOM     10  C   UNL     1    -111.669 -48.723 -62.632  1.00  0.00     0.000 C 
BRANCH  10  11
ATOM     11  C   UNL     1    -111.086 -48.513 -64.042  1.00  0.00     0.000 C 
BRANCH  11  12
ATOM     12  C   UNL     1    -110.481 -49.784 -64.676  1.00  0.00     0.000 C 
BRANCH  12  13
ATOM     13  C   UNL     1    -109.495 -49.536 -65.840  1.00  0.00     0.006 C 
BRANCH  13  14
ATOM     14  C   UNL     1    -108.160 -48.891 -65.428  1.00  0.00     0.053 C 
BRANCH  14  15
ATOM     15  C   UNL     1    -107.000 -49.812 -65.652  1.00  0.00     0.041 C 
ATOM     16  O   UNL     1    -106.617 -50.585 -64.734  1.00  0.00    -0.550 OA
ATOM     17  O   UNL     1    -106.368 -49.843 -66.889  1.00  0.00    -0.550 OA
ENDBRANCH  14  15
ENDBRANCH  13  14
ENDBRANCH  12  13
ENDBRANCH  11  12
ENDBRANCH  10  11
ENDBRANCH   9  10
ENDBRANCH   8   9
ENDBRANCH   7   8
ENDBRANCH   6   7
ENDBRANCH   5   6
ENDBRANCH   4   5
ENDBRANCH   3   4
ENDBRANCH   2   3
ENDBRANCH   1   2
BRANCH   1  18
ATOM     18  C   UNL     1    -109.304 -52.470 -57.246  1.00  0.00     0.000 C 
BRANCH  18  19
ATOM     19  C   UNL     1    -107.886 -51.899 -57.037  1.00  0.00     0.000 C 
BRANCH  19  20
ATOM     20  C   UNL     1    -107.724 -51.226 -55.663  1.00  0.00     0.000 C 
BRANCH  20  21
ATOM     21  C   UNL     1    -107.724 -49.690 -55.748  1.00  0.00     0.000 C 
BRANCH  21  22
ATOM     22  C   UNL     1    -107.573 -49.125 -57.170  1.00  0.00     0.000 C 
BRANCH  22  23
ATOM     23  C   UNL     1    -107.322 -47.608 -57.187  1.00  0.00     0.000 C 
BRANCH  23  24
ATOM     24  C   UNL     1    -107.841 -46.908 -55.921  1.00  0.00    -0.000 C 
BRANCH  24  25
ATOM     25  C   UNL     1    -109.150 -46.138 -56.160  1.00  0.00    -0.000 C 
BRANCH  25  26
ATOM     26  C   UNL     1    -109.517 -46.070 -57.659  1.00  0.00    -0.000 C 
BRANCH  26  27
ATOM     27  C   UNL     1    -110.899 -46.672 -57.981  1.00  0.00    -0.000 C 
BRANCH  27  28
ATOM     28  C   UNL     1    -110.930 -48.210 -58.055  1.00  0.00    -0.000 C 
BRANCH  28  29
ATOM     29  C   UNL     1    -112.094 -48.820 -57.248  1.00  0.00    -0.000 C 
BRANCH  29  30
ATOM     30  C   UNL     1    -112.171 -48.277 -55.805  1.00  0.00    -0.000 C 
BRANCH  30  31
ATOM     31  C   UNL     1    -111.210 -48.969 -54.822  1.00  0.00    -0.003 C 
ATOM     32  C   UNL     1    -111.305 -50.493 -54.853  1.00  0.00     0.004 C 
ENDBRANCH  30  31
ENDBRANCH  29  30
ENDBRANCH  28  29
ENDBRANCH  27  28
ENDBRANCH  26  27
ENDBRANCH  25  26
ENDBRANCH  24  25
ENDBRANCH  23  24
ENDBRANCH  22  23
ENDBRANCH  21  22
ENDBRANCH  20  21
ENDBRANCH  19  20
ENDBRANCH  18  19
ENDBRANCH   1  18
TORSDOF 28
ENDMDL
MODEL 2
REMARK VINA RESULT:    -2.512      2.298      7.405
REMARK INTER + INTRA:         -13.016
REMARK INTER:                  -6.497
REMARK INTRA:                  -6.518
REMARK UNBOUND:                -6.392
REMARK SMILES CCCCCCCCCCCCCCCCCCCCCCCCCCCCCC(=O)[O-]
REMARK SMILES IDX 16 1 17 2 18 3 19 4 20 5 21 6 22 7 23 8 24 9 25 10 26 11
REMARK SMILES IDX 27 12 28 13 29 14 30 15 31 16 32 17 15 18 14 19 13 20 12 21
REMARK SMILES IDX 11 22 10 23 9 24 8 25 7 26 6 27 5 28 4 29 3 30 2 31 1 32
REMARK H PARENT
REMARK Flexibility Score: inf
ROOT
ATOM      1  C   UNL     1    -108.247 -47.822 -58.854  1.00  0.00     0.000 C 
ENDROOT
BRANCH   1   2
ATOM      2  C   UNL     1    -107.322 -47.612 -57.646  1.00  0.00     0.000 C 
BRANCH   2   3
ATOM      3  C   UNL     1    -107.462 -48.712 -56.583  1.00  0.00     0.000 C 
BRANCH   3   4
ATOM      4  C   UNL     1    -107.521 -48.170 -55.137  1.00  0.00     0.000 C 
BRANCH   4   5
ATOM      5  C   UNL     1    -107.589 -46.637 -55.098  1.00  0.00     0.000 C 
BRANCH   5   6
ATOM      6  C   UNL     1    -108.983 -46.149 -54.672  1.00  0.00     0.000 C 
BRANCH   6   7
ATOM      7  C   UNL     1    -109.718 -45.375 -55.783  1.00  0.00     0.000 C 
BRANCH   7   8
ATOM      8  C   UNL     1    -111.042 -46.010 -56.262  1.00  0.00     0.000 C 
BRANCH   8   9
ATOM      9  C   UNL     1    -111.144 -47.530 -56.024  1.00  0.00     0.000 C 
BRANCH   9  10
ATOM     10  C   UNL     1    -111.619 -48.290 -57.272  1.00  0.00     0.000 C 
BRANCH  10  11
ATOM     11  C   UNL     1    -111.036 -49.713 -57.348  1.00  0.00     0.000 C 
BRANCH  11  12
ATOM     12  C   UNL     1    -110.672 -50.325 -55.977  1.00  0.00     0.000 C 
BRANCH  12  13
ATOM     13  C   UNL     1    -110.224 -51.803 -56.012  1.00  0.00     0.006 C 
BRANCH  13  14
ATOM     14  C   UNL     1    -109.899 -52.346 -57.416  1.00  0.00     0.053 C 
BRANCH  14  15
ATOM     15  C   UNL     1    -108.424 -52.475 -57.638  1.00  0.00     0.041 C 
ATOM     16  O   UNL     1    -107.979 -52.831 -58.761  1.00  0.00    -0.550 OA
ATOM     17  O   UNL     1    -107.538 -52.164 -56.613  1.00  0.00    -0.550 OA
ENDBRANCH  14  15
ENDBRANCH  13  14
ENDBRANCH  12  13
ENDBRANCH  11  12
ENDBRANCH  10  11
ENDBRANCH   9  10
ENDBRANCH   8   9
ENDBRANCH   7   8
ENDBRANCH   6   7
ENDBRANCH   5   6
ENDBRANCH   4   5
ENDBRANCH   3   4
ENDBRANCH   2   3
ENDBRANCH   1   2
BRANCH   1  18
ATOM     18  C   UNL     1    -109.004 -46.544 -59.263  1.00  0.00     0.000 C 
BRANCH  18  19
ATOM     19  C   UNL     1    -110.088 -46.783 -60.335  1.00  0.00     0.000 C 
BRANCH  19  20
ATOM     20  C   UNL     1    -109.571 -46.518 -61.759  1.00  0.00     0.000 C 
BRANCH  20  21
ATOM     21  C   UNL     1    -110.565 -46.963 -62.847  1.00  0.00     0.000 C 
BRANCH  21  22
ATOM     22  C   UNL     1    -111.838 -47.640 -62.314  1.00  0.00     0.000 C 
BRANCH  22  23
ATOM     23  C   UNL     1    -112.394 -48.707 -63.274  1.00  0.00     0.000 C 
BRANCH  23  24
ATOM     24  C   UNL     1    -112.491 -50.095 -62.623  1.00  0.00    -0.000 C 
BRANCH  24  25
ATOM     25  C   UNL     1    -112.000 -50.106 -61.165  1.00  0.00    -0.000 C 
BRANCH  25  26
ATOM     26  C   UNL     1    -110.849 -51.113 -60.949  1.00  0.00    -0.000 C 
BRANCH  26  27
ATOM     27  C   UNL     1    -109.485 -50.442 -60.699  1.00  0.00    -0.000 C 
BRANCH  27  28
ATOM     28  C   UNL     1    -108.399 -50.781 -61.738  1.00  0.00    -0.000 C 
BRANCH  28  29
ATOM     29  C   UNL     1    -107.838 -49.528 -62.440  1.00  0.00    -0.000 C 
BRANCH  29  30
ATOM     30  C   UNL     1    -107.560 -49.756 -63.942  1.00  0.00    -0.000 C 
BRANCH  30  31
ATOM     31  C   UNL     1    -108.519 -50.756 -64.612  1.00  0.00    -0.003 C 
ATOM     32  C   UNL     1    -109.737 -50.091 -65.252  1.00  0.00     0.004 C 
ENDBRANCH  30  31
ENDBRANCH  29  30
ENDBRANCH  28  29
ENDBRANCH  27  28
ENDBRANCH  26  27
ENDBRANCH  25  26
ENDBRANCH  24  25
ENDBRANCH  23  24
ENDBRANCH  22  23
ENDBRANCH  21  22
ENDBRANCH  20  21
ENDBRANCH  19  20
ENDBRANCH  18  19
ENDBRANCH   1  18
TORSDOF 28
ENDMDL
MODEL 3
REMARK VINA RESULT:    -2.445      2.590      7.671
REMARK INTER + INTRA:         -12.840
REMARK INTER:                  -6.759
REMARK INTRA:                  -6.081
REMARK UNBOUND:                -6.392
REMARK SMILES CCCCCCCCCCCCCCCCCCCCCCCCCCCCCC(=O)[O-]
REMARK SMILES IDX 16 1 17 2 18 3 19 4 20 5 21 6 22 7 23 8 24 9 25 10 26 11
REMARK SMILES IDX 27 12 28 13 29 14 30 15 31 16 32 17 15 18 14 19 13 20 12 21
REMARK SMILES IDX 11 22 10 23 9 24 8 25 7 26 6 27 5 28 4 29 3 30 2 31 1 32
REMARK H PARENT
REMARK Flexibility Score: inf
ROOT
ATOM      1  C   UNL     1    -108.240 -47.906 -59.137  1.00  0.00     0.000 C 
ENDROOT
BRANCH   1   2
ATOM      2  C   UNL     1    -107.434 -47.512 -57.890  1.00  0.00     0.000 C 
BRANCH   2   3
ATOM      3  C   UNL     1    -107.445 -48.596 -56.801  1.00  0.00     0.000 C 
BRANCH   3   4
ATOM      4  C   UNL     1    -107.690 -48.040 -55.380  1.00  0.00     0.000 C 
BRANCH   4   5
ATOM      5  C   UNL     1    -107.830 -46.511 -55.374  1.00  0.00     0.000 C 
BRANCH   5   6
ATOM      6  C   UNL     1    -109.238 -46.080 -54.933  1.00  0.00     0.000 C 
BRANCH   6   7
ATOM      7  C   UNL     1    -110.139 -45.663 -56.111  1.00  0.00     0.000 C 
BRANCH   7   8
ATOM      8  C   UNL     1    -111.128 -46.745 -56.599  1.00  0.00     0.000 C 
BRANCH   8   9
ATOM      9  C   UNL     1    -111.414 -47.858 -55.572  1.00  0.00     0.000 C 
BRANCH   9  10
ATOM     10  C   UNL     1    -111.234 -49.265 -56.165  1.00  0.00     0.000 C 
BRANCH  10  11
ATOM     11  C   UNL     1    -111.039 -49.236 -57.692  1.00  0.00     0.000 C 
BRANCH  11  12
ATOM     12  C   UNL     1    -111.659 -50.439 -58.435  1.00  0.00     0.000 C 
BRANCH  12  13
ATOM     13  C   UNL     1    -110.793 -51.719 -58.458  1.00  0.00     0.006 C 
BRANCH  13  14
ATOM     14  C   UNL     1    -109.281 -51.478 -58.300  1.00  0.00     0.053 C 
BRANCH  14  15
ATOM     15  C   UNL     1    -108.742 -52.104 -57.050  1.00  0.00     0.041 C 
ATOM     16  O   UNL     1    -107.501 -52.130 -56.837  1.00  0.00    -0.550 OA
ATOM     17  O   UNL     1    -109.617 -52.623 -56.102  1.00  0.00    -0.550 OA
ENDBRANCH  14  15
ENDBRANCH  13  14
ENDBRANCH  12  13
ENDBRANCH  11  12
ENDBRANCH  10  11
ENDBRANCH   9  10
ENDBRANCH   8   9
ENDBRANCH   7   8
ENDBRANCH   6   7
ENDBRANCH   5   6
ENDBRANCH   4   5
ENDBRANCH   3   4
ENDBRANCH   2   3
ENDBRANCH   1   2
BRANCH   1  18
ATOM     18  C   UNL     1    -109.126 -46.762 -59.667  1.00  0.00     0.000 C 
BRANCH  18  19
ATOM     19  C   UNL     1    -109.334 -46.797 -61.196  1.00  0.00     0.000 C 
BRANCH  19  20
ATOM     20  C   UNL     1    -110.806 -47.025 -61.581  1.00  0.00     0.000 C 
BRANCH  20  21
ATOM     21  C   UNL     1    -111.203 -48.512 -61.567  1.00  0.00     0.000 C 
BRANCH  21  22
ATOM     22  C   UNL     1    -110.624 -49.342 -62.725  1.00  0.00     0.000 C 
BRANCH  22  23
ATOM     23  C   UNL     1    -110.016 -50.676 -62.258  1.00  0.00     0.000 C 
BRANCH  23  24
ATOM     24  C   UNL     1    -108.609 -50.509 -61.665  1.00  0.00    -0.000 C 
BRANCH  24  25
ATOM     25  C   UNL     1    -107.644 -49.781 -62.616  1.00  0.00    -0.000 C 
BRANCH  25  26
ATOM     26  C   UNL     1    -107.110 -50.714 -63.726  1.00  0.00    -0.000 C 
BRANCH  26  27
ATOM     27  C   UNL     1    -106.951 -50.016 -65.090  1.00  0.00    -0.000 C 
BRANCH  27  28
ATOM     28  C   UNL     1    -108.038 -48.973 -65.411  1.00  0.00    -0.000 C 
BRANCH  28  29
ATOM     29  C   UNL     1    -108.922 -49.386 -66.606  1.00  0.00    -0.000 C 
BRANCH  29  30
ATOM     30  C   UNL     1    -110.114 -50.274 -66.191  1.00  0.00    -0.000 C 
BRANCH  30  31
ATOM     31  C   UNL     1    -109.949 -51.759 -66.560  1.00  0.00    -0.003 C 
ATOM     32  C   UNL     1    -109.809 -52.674 -65.345  1.00  0.00     0.004 C 
ENDBRANCH  30  31
ENDBRANCH  29  30
ENDBRANCH  28  29
ENDBRANCH  27  28
ENDBRANCH  26  27
ENDBRANCH  25  26
ENDBRANCH  24  25
ENDBRANCH  23  24
ENDBRANCH  22  23
ENDBRANCH  21  22
ENDBRANCH  20  21
ENDBRANCH  19  20
ENDBRANCH  18  19
ENDBRANCH   1  18
TORSDOF 28
ENDMDL
MODEL 4
REMARK VINA RESULT:    -2.437      1.452      4.159
REMARK INTER + INTRA:         -12.819
REMARK INTER:                  -6.477
REMARK INTRA:                  -6.342
REMARK UNBOUND:                -6.392
REMARK SMILES CCCCCCCCCCCCCCCCCCCCCCCCCCCCCC(=O)[O-]
REMARK SMILES IDX 16 1 17 2 18 3 19 4 20 5 21 6 22 7 23 8 24 9 25 10 26 11
REMARK SMILES IDX 27 12 28 13 29 14 30 15 31 16 32 17 15 18 14 19 13 20 12 21
REMARK SMILES IDX 11 22 10 23 9 24 8 25 7 26 6 27 5 28 4 29 3 30 2 31 1 32
REMARK H PARENT
REMARK Flexibility Score: inf
ROOT
ATOM      1  C   UNL     1    -109.004 -46.498 -58.359  1.00  0.00     0.000 C 
ENDROOT
BRANCH   1   2
ATOM      2  C   UNL     1    -109.315 -46.087 -56.913  1.00  0.00     0.000 C 
BRANCH   2   3
ATOM      3  C   UNL     1    -110.701 -45.441 -56.756  1.00  0.00     0.000 C 
BRANCH   3   4
ATOM      4  C   UNL     1    -111.154 -44.646 -58.001  1.00  0.00     0.000 C 
BRANCH   4   5
ATOM      5  C   UNL     1    -112.497 -45.147 -58.550  1.00  0.00     0.000 C 
BRANCH   5   6
ATOM      6  C   UNL     1    -112.394 -45.499 -60.043  1.00  0.00     0.000 C 
BRANCH   6   7
ATOM      7  C   UNL     1    -111.226 -44.787 -60.752  1.00  0.00     0.000 C 
BRANCH   7   8
ATOM      8  C   UNL     1    -110.379 -45.681 -61.683  1.00  0.00     0.000 C 
BRANCH   8   9
ATOM      9  C   UNL     1    -111.083 -46.973 -62.143  1.00  0.00     0.000 C 
BRANCH   9  10
ATOM     10  C   UNL     1    -110.091 -48.052 -62.605  1.00  0.00     0.000 C 
BRANCH  10  11
ATOM     11  C   UNL     1    -108.681 -47.838 -62.023  1.00  0.00     0.000 C 
BRANCH  11  12
ATOM     12  C   UNL     1    -107.778 -49.090 -62.068  1.00  0.00     0.000 C 
BRANCH  12  13
ATOM     13  C   UNL     1    -108.223 -50.190 -63.058  1.00  0.00     0.006 C 
BRANCH  13  14
ATOM     14  C   UNL     1    -107.106 -50.724 -63.972  1.00  0.00     0.053 C 
BRANCH  14  15
ATOM     15  C   UNL     1    -107.316 -50.328 -65.401  1.00  0.00     0.041 C 
ATOM     16  O   UNL     1    -106.426 -49.686 -66.020  1.00  0.00    -0.550 OA
ATOM     17  O   UNL     1    -108.481 -50.702 -66.061  1.00  0.00    -0.550 OA
ENDBRANCH  14  15
ENDBRANCH  13  14
ENDBRANCH  12  13
ENDBRANCH  11  12
ENDBRANCH  10  11
ENDBRANCH   9  10
ENDBRANCH   8   9
ENDBRANCH   7   8
ENDBRANCH   6   7
ENDBRANCH   5   6
ENDBRANCH   4   5
ENDBRANCH   3   4
ENDBRANCH   2   3
ENDBRANCH   1   2
BRANCH   1  18
ATOM     18  C   UNL     1    -107.914 -47.582 -58.456  1.00  0.00     0.000 C 
BRANCH  18  19
ATOM     19  C   UNL     1    -107.184 -47.848 -57.123  1.00  0.00     0.000 C 
BRANCH  19  20
ATOM     20  C   UNL     1    -107.459 -49.260 -56.577  1.00  0.00     0.000 C 
BRANCH  20  21
ATOM     21  C   UNL     1    -108.174 -49.243 -55.215  1.00  0.00     0.000 C 
BRANCH  21  22
ATOM     22  C   UNL     1    -109.520 -49.985 -55.187  1.00  0.00     0.000 C 
BRANCH  22  23
ATOM     23  C   UNL     1    -110.695 -49.109 -55.654  1.00  0.00     0.000 C 
BRANCH  23  24
ATOM     24  C   UNL     1    -111.518 -49.769 -56.770  1.00  0.00    -0.000 C 
BRANCH  24  25
ATOM     25  C   UNL     1    -112.015 -48.761 -57.820  1.00  0.00    -0.000 C 
BRANCH  25  26
ATOM     26  C   UNL     1    -111.576 -49.149 -59.250  1.00  0.00    -0.000 C 
BRANCH  26  27
ATOM     27  C   UNL     1    -110.201 -49.844 -59.302  1.00  0.00    -0.000 C 
BRANCH  27  28
ATOM     28  C   UNL     1    -110.195 -51.207 -60.020  1.00  0.00    -0.000 C 
BRANCH  28  29
ATOM     29  C   UNL     1    -109.109 -52.158 -59.478  1.00  0.00    -0.000 C 
BRANCH  29  30
ATOM     30  C   UNL     1    -109.454 -52.731 -58.087  1.00  0.00    -0.000 C 
BRANCH  30  31
ATOM     31  C   UNL     1    -108.258 -52.796 -57.120  1.00  0.00    -0.003 C 
ATOM     32  C   UNL     1    -108.559 -53.567 -55.836  1.00  0.00     0.004 C 
ENDBRANCH  30  31
ENDBRANCH  29  30
ENDBRANCH  28  29
ENDBRANCH  27  28
ENDBRANCH  26  27
ENDBRANCH  25  26
ENDBRANCH  24  25
ENDBRANCH  23  24
ENDBRANCH  22  23
ENDBRANCH  21  22
ENDBRANCH  20  21
ENDBRANCH  19  20
ENDBRANCH  18  19
ENDBRANCH   1  18
TORSDOF 28
ENDMDL
MODEL 5
REMARK VINA RESULT:    -2.423      1.513      3.772
REMARK INTER + INTRA:         -12.782
REMARK INTER:                  -6.557
REMARK INTRA:                  -6.225
REMARK UNBOUND:                -6.392
REMARK SMILES CCCCCCCCCCCCCCCCCCCCCCCCCCCCCC(=O)[O-]
REMARK SMILES IDX 16 1 17 2 18 3 19 4 20 5 21 6 22 7 23 8 24 9 25 10 26 11
REMARK SMILES IDX 27 12 28 13 29 14 30 15 31 16 32 17 15 18 14 19 13 20 12 21
REMARK SMILES IDX 11 22 10 23 9 24 8 25 7 26 6 27 5 28 4 29 3 30 2 31 1 32
REMARK H PARENT
REMARK Flexibility Score: inf
ROOT
ATOM      1  C   UNL     1    -108.922 -48.661 -59.016  1.00  0.00     0.000 C 
ENDROOT
BRANCH   1   2
ATOM      2  C   UNL     1    -108.235 -47.516 -59.776  1.00  0.00     0.000 C 
BRANCH   2   3
ATOM      3  C   UNL     1    -109.232 -46.533 -60.410  1.00  0.00     0.000 C 
BRANCH   3   4
ATOM      4  C   UNL     1    -109.531 -46.831 -61.897  1.00  0.00     0.000 C 
BRANCH   4   5
ATOM      5  C   UNL     1    -111.031 -47.028 -62.156  1.00  0.00     0.000 C 
BRANCH   5   6
ATOM      6  C   UNL     1    -111.328 -48.448 -62.665  1.00  0.00     0.000 C 
BRANCH   6   7
ATOM      7  C   UNL     1    -110.821 -49.549 -61.715  1.00  0.00     0.000 C 
BRANCH   7   8
ATOM      8  C   UNL     1    -110.252 -50.806 -62.409  1.00  0.00     0.000 C 
BRANCH   8   9
ATOM      9  C   UNL     1    -108.763 -51.079 -62.116  1.00  0.00     0.000 C 
BRANCH   9  10
ATOM     10  C   UNL     1    -107.872 -49.865 -62.423  1.00  0.00     0.000 C 
BRANCH  10  11
ATOM     11  C   UNL     1    -107.271 -49.923 -63.840  1.00  0.00     0.000 C 
BRANCH  11  12
ATOM     12  C   UNL     1    -107.942 -48.970 -64.854  1.00  0.00     0.000 C 
BRANCH  12  13
ATOM     13  C   UNL     1    -109.056 -49.603 -65.717  1.00  0.00     0.006 C 
BRANCH  13  14
ATOM     14  C   UNL     1    -108.570 -50.252 -67.025  1.00  0.00     0.053 C 
BRANCH  14  15
ATOM     15  C   UNL     1    -107.438 -49.487 -67.641  1.00  0.00     0.041 C 
ATOM     16  O   UNL     1    -106.274 -49.969 -67.646  1.00  0.00    -0.550 OA
ATOM     17  O   UNL     1    -107.679 -48.259 -68.245  1.00  0.00    -0.550 OA
ENDBRANCH  14  15
ENDBRANCH  13  14
ENDBRANCH  12  13
ENDBRANCH  11  12
ENDBRANCH  10  11
ENDBRANCH   9  10
ENDBRANCH   8   9
ENDBRANCH   7   8
ENDBRANCH   6   7
ENDBRANCH   5   6
ENDBRANCH   4   5
ENDBRANCH   3   4
ENDBRANCH   2   3
ENDBRANCH   1   2
BRANCH   1  18
ATOM     18  C   UNL     1    -108.469 -48.766 -57.547  1.00  0.00     0.000 C 
BRANCH  18  19
ATOM     19  C   UNL     1    -107.288 -47.838 -57.195  1.00  0.00     0.000 C 
BRANCH  19  20
ATOM     20  C   UNL     1    -107.591 -46.939 -55.984  1.00  0.00     0.000 C 
BRANCH  20  21
ATOM     21  C   UNL     1    -109.097 -46.828 -55.686  1.00  0.00     0.000 C 
BRANCH  21  22
ATOM     22  C   UNL     1    -109.724 -45.470 -56.045  1.00  0.00     0.000 C 
BRANCH  22  23
ATOM     23  C   UNL     1    -110.640 -45.543 -57.278  1.00  0.00     0.000 C 
BRANCH  23  24
ATOM     24  C   UNL     1    -111.563 -46.771 -57.258  1.00  0.00    -0.000 C 
BRANCH  24  25
ATOM     25  C   UNL     1    -112.280 -47.000 -58.599  1.00  0.00    -0.000 C 
BRANCH  25  26
ATOM     26  C   UNL     1    -112.895 -48.414 -58.695  1.00  0.00    -0.000 C 
BRANCH  26  27
ATOM     27  C   UNL     1    -112.150 -49.465 -57.849  1.00  0.00    -0.000 C 
BRANCH  27  28
ATOM     28  C   UNL     1    -112.035 -50.855 -58.503  1.00  0.00    -0.000 C 
BRANCH  28  29
ATOM     29  C   UNL     1    -110.877 -51.691 -57.920  1.00  0.00    -0.000 C 
BRANCH  29  30
ATOM     30  C   UNL     1    -110.076 -52.442 -59.005  1.00  0.00    -0.000 C 
BRANCH  30  31
ATOM     31  C   UNL     1    -108.566 -52.526 -58.725  1.00  0.00    -0.003 C 
ATOM     32  C   UNL     1    -108.218 -52.411 -57.241  1.00  0.00     0.004 C 
ENDBRANCH  30  31
ENDBRANCH  29  30
ENDBRANCH  28  29
ENDBRANCH  27  28
ENDBRANCH  26  27
ENDBRANCH  25  26
ENDBRANCH  24  25
ENDBRANCH  23  24
ENDBRANCH  22  23
ENDBRANCH  21  22
ENDBRANCH  20  21
ENDBRANCH  19  20
ENDBRANCH  18  19
ENDBRANCH   1  18
TORSDOF 28
ENDMDL
MODEL 6
REMARK VINA RESULT:    -2.405      9.135     15.262
REMARK INTER + INTRA:         -12.735
REMARK INTER:                  -8.927
REMARK INTRA:                  -3.809
REMARK UNBOUND:                -6.392
REMARK SMILES CCCCCCCCCCCCCCCCCCCCCCCCCCCCCC(=O)[O-]
REMARK SMILES IDX 16 1 17 2 18 3 19 4 20 5 21 6 22 7 23 8 24 9 25 10 26 11
REMARK SMILES IDX 27 12 28 13 29 14 30 15 31 16 32 17 15 18 14 19 13 20 12 21
REMARK SMILES IDX 11 22 10 23 9 24 8 25 7 26 6 27 5 28 4 29 3 30 2 31 1 32
REMARK H PARENT
REMARK Flexibility Score: inf
ROOT
ATOM      1  C   UNL     1    -103.370 -47.457 -71.152  1.00  0.00     0.000 C 
ENDROOT
BRANCH   1   2
ATOM      2  C   UNL     1    -103.897 -47.666 -72.579  1.00  0.00     0.000 C 
BRANCH   2   3
ATOM      3  C   UNL     1    -103.674 -49.094 -73.100  1.00  0.00     0.000 C 
BRANCH   3   4
ATOM      4  C   UNL     1    -104.450 -50.168 -72.306  1.00  0.00     0.000 C 
BRANCH   4   5
ATOM      5  C   UNL     1    -104.385 -51.546 -72.981  1.00  0.00     0.000 C 
BRANCH   5   6
ATOM      6  C   UNL     1    -104.831 -52.660 -72.021  1.00  0.00     0.000 C 
BRANCH   6   7
ATOM      7  C   UNL     1    -105.668 -52.139 -70.837  1.00  0.00     0.000 C 
BRANCH   7   8
ATOM      8  C   UNL     1    -107.167 -52.509 -70.878  1.00  0.00     0.000 C 
BRANCH   8   9
ATOM      9  C   UNL     1    -108.034 -51.568 -71.737  1.00  0.00     0.000 C 
BRANCH   9  10
ATOM     10  C   UNL     1    -108.467 -50.307 -70.972  1.00  0.00     0.000 C 
BRANCH  10  11
ATOM     11  C   UNL     1    -107.824 -49.028 -71.540  1.00  0.00     0.000 C 
BRANCH  11  12
ATOM     12  C   UNL     1    -107.011 -48.213 -70.511  1.00  0.00     0.000 C 
BRANCH  12  13
ATOM     13  C   UNL     1    -106.648 -48.966 -69.211  1.00  0.00     0.006 C 
BRANCH  13  14
ATOM     14  C   UNL     1    -107.508 -48.596 -67.989  1.00  0.00     0.053 C 
BRANCH  14  15
ATOM     15  C   UNL     1    -107.573 -49.711 -66.991  1.00  0.00     0.041 C 
ATOM     16  O   UNL     1    -108.596 -50.442 -66.921  1.00  0.00    -0.550 OA
ATOM     17  O   UNL     1    -106.485 -49.967 -66.165  1.00  0.00    -0.550 OA
ENDBRANCH  14  15
ENDBRANCH  13  14
ENDBRANCH  12  13
ENDBRANCH  11  12
ENDBRANCH  10  11
ENDBRANCH   9  10
ENDBRANCH   8   9
ENDBRANCH   7   8
ENDBRANCH   6   7
ENDBRANCH   5   6
ENDBRANCH   4   5
ENDBRANCH   3   4
ENDBRANCH   2   3
ENDBRANCH   1   2
BRANCH   1  18
ATOM     18  C   UNL     1    -101.946 -46.871 -71.115  1.00  0.00     0.000 C 
BRANCH  18  19
ATOM     19  C   UNL     1    -101.574 -46.067 -72.379  1.00  0.00     0.000 C 
BRANCH  19  20
ATOM     20  C   UNL     1    -100.326 -46.628 -73.083  1.00  0.00     0.000 C 
BRANCH  20  21
ATOM     21  C   UNL     1     -99.834 -47.947 -72.462  1.00  0.00     0.000 C 
BRANCH  21  22
ATOM     22  C   UNL     1     -98.413 -47.891 -71.878  1.00  0.00     0.000 C 
BRANCH  22  23
ATOM     23  C   UNL     1     -98.180 -46.658 -70.989  1.00  0.00     0.000 C 
BRANCH  23  24
ATOM     24  C   UNL     1     -98.581 -46.899 -69.526  1.00  0.00    -0.000 C 
BRANCH  24  25
ATOM     25  C   UNL     1     -97.784 -46.030 -68.538  1.00  0.00    -0.000 C 
BRANCH  25  26
ATOM     26  C   UNL     1     -96.499 -45.456 -69.177  1.00  0.00    -0.000 C 
BRANCH  26  27
ATOM     27  C   UNL     1     -95.205 -45.969 -68.519  1.00  0.00    -0.000 C 
BRANCH  27  28
ATOM     28  C   UNL     1     -94.037 -46.209 -69.494  1.00  0.00    -0.000 C 
BRANCH  28  29
ATOM     29  C   UNL     1     -94.092 -47.600 -70.156  1.00  0.00    -0.000 C 
BRANCH  29  30
ATOM     30  C   UNL     1     -94.739 -47.572 -71.557  1.00  0.00    -0.000 C 
BRANCH  30  31
ATOM     31  C   UNL     1     -94.064 -48.503 -72.579  1.00  0.00    -0.003 C 
ATOM     32  C   UNL     1     -94.956 -49.661 -73.026  1.00  0.00     0.004 C 
ENDBRANCH  30  31
ENDBRANCH  29  30
ENDBRANCH  28  29
ENDBRANCH  27  28
ENDBRANCH  26  27
ENDBRANCH  25  26
ENDBRANCH  24  25
ENDBRANCH  23  24
ENDBRANCH  22  23
ENDBRANCH  21  22
ENDBRANCH  20  21
ENDBRANCH  19  20
ENDBRANCH  18  19
ENDBRANCH   1  18
TORSDOF 28
ENDMDL
MODEL 7
REMARK VINA RESULT:    -2.372      1.518      4.200
REMARK INTER + INTRA:         -12.646
REMARK INTER:                  -6.572
REMARK INTRA:                  -6.073
REMARK UNBOUND:                -6.392
REMARK SMILES CCCCCCCCCCCCCCCCCCCCCCCCCCCCCC(=O)[O-]
REMARK SMILES IDX 16 1 17 2 18 3 19 4 20 5 21 6 22 7 23 8 24 9 25 10 26 11
REMARK SMILES IDX 27 12 28 13 29 14 30 15 31 16 32 17 15 18 14 19 13 20 12 21
REMARK SMILES IDX 11 22 10 23 9 24 8 25 7 26 6 27 5 28 4 29 3 30 2 31 1 32
REMARK H PARENT
REMARK Flexibility Score: inf
ROOT
ATOM      1  C   UNL     1    -109.387 -49.055 -58.746  1.00  0.00     0.000 C 
ENDROOT
BRANCH   1   2
ATOM      2  C   UNL     1    -108.392 -47.909 -58.979  1.00  0.00     0.000 C 
BRANCH   2   3
ATOM      3  C   UNL     1    -109.019 -46.706 -59.700  1.00  0.00     0.000 C 
BRANCH   3   4
ATOM      4  C   UNL     1    -108.981 -46.821 -61.240  1.00  0.00     0.000 C 
BRANCH   4   5
ATOM      5  C   UNL     1    -110.332 -46.471 -61.880  1.00  0.00     0.000 C 
BRANCH   5   6
ATOM      6  C   UNL     1    -111.504 -46.985 -61.029  1.00  0.00     0.000 C 
BRANCH   6   7
ATOM      7  C   UNL     1    -112.306 -48.105 -61.717  1.00  0.00     0.000 C 
BRANCH   7   8
ATOM      8  C   UNL     1    -111.648 -49.502 -61.683  1.00  0.00     0.000 C 
BRANCH   8   9
ATOM      9  C   UNL     1    -111.008 -49.940 -63.016  1.00  0.00     0.000 C 
BRANCH   9  10
ATOM     10  C   UNL     1    -109.896 -50.982 -62.820  1.00  0.00     0.000 C 
BRANCH  10  11
ATOM     11  C   UNL     1    -108.762 -50.465 -61.915  1.00  0.00     0.000 C 
BRANCH  11  12
ATOM     12  C   UNL     1    -107.519 -49.960 -62.679  1.00  0.00     0.000 C 
BRANCH  12  13
ATOM     13  C   UNL     1    -107.289 -50.605 -64.065  1.00  0.00     0.006 C 
BRANCH  13  14
ATOM     14  C   UNL     1    -107.114 -49.603 -65.221  1.00  0.00     0.053 C 
BRANCH  14  15
ATOM     15  C   UNL     1    -108.112 -49.833 -66.315  1.00  0.00     0.041 C 
ATOM     16  O   UNL     1    -108.119 -49.092 -67.333  1.00  0.00    -0.550 OA
ATOM     17  O   UNL     1    -109.008 -50.891 -66.225  1.00  0.00    -0.550 OA
ENDBRANCH  14  15
ENDBRANCH  13  14
ENDBRANCH  12  13
ENDBRANCH  11  12
ENDBRANCH  10  11
ENDBRANCH   9  10
ENDBRANCH   8   9
ENDBRANCH   7   8
ENDBRANCH   6   7
ENDBRANCH   5   6
ENDBRANCH   4   5
ENDBRANCH   3   4
ENDBRANCH   2   3
ENDBRANCH   1   2
BRANCH   1  18
ATOM     18  C   UNL     1    -110.560 -48.658 -57.828  1.00  0.00     0.000 C 
BRANCH  18  19
ATOM     19  C   UNL     1    -111.307 -49.863 -57.221  1.00  0.00     0.000 C 
BRANCH  19  20
ATOM     20  C   UNL     1    -111.691 -50.909 -58.282  1.00  0.00     0.000 C 
BRANCH  20  21
ATOM     21  C   UNL     1    -111.926 -52.307 -57.683  1.00  0.00     0.000 C 
BRANCH  21  22
ATOM     22  C   UNL     1    -110.697 -53.230 -57.702  1.00  0.00     0.000 C 
BRANCH  22  23
ATOM     23  C   UNL     1    -109.773 -52.969 -58.905  1.00  0.00     0.000 C 
BRANCH  23  24
ATOM     24  C   UNL     1    -108.342 -52.600 -58.483  1.00  0.00    -0.000 C 
BRANCH  24  25
ATOM     25  C   UNL     1    -108.193 -52.438 -56.961  1.00  0.00    -0.000 C 
BRANCH  25  26
ATOM     26  C   UNL     1    -107.346 -51.201 -56.590  1.00  0.00    -0.000 C 
BRANCH  26  27
ATOM     27  C   UNL     1    -108.017 -50.289 -55.544  1.00  0.00    -0.000 C 
BRANCH  27  28
ATOM     28  C   UNL     1    -107.468 -48.851 -55.495  1.00  0.00    -0.000 C 
BRANCH  28  29
ATOM     29  C   UNL     1    -108.484 -47.847 -54.915  1.00  0.00    -0.000 C 
BRANCH  29  30
ATOM     30  C   UNL     1    -108.217 -46.395 -55.367  1.00  0.00    -0.000 C 
BRANCH  30  31
ATOM     31  C   UNL     1    -109.442 -45.470 -55.261  1.00  0.00    -0.003 C 
ATOM     32  C   UNL     1    -110.133 -45.225 -56.601  1.00  0.00     0.004 C 
ENDBRANCH  30  31
ENDBRANCH  29  30
ENDBRANCH  28  29
ENDBRANCH  27  28
ENDBRANCH  26  27
ENDBRANCH  25  26
ENDBRANCH  24  25
ENDBRANCH  23  24
ENDBRANCH  22  23
ENDBRANCH  21  22
ENDBRANCH  20  21
ENDBRANCH  19  20
ENDBRANCH  18  19
ENDBRANCH   1  18
TORSDOF 28
ENDMDL
MODEL 8
REMARK VINA RESULT:    -2.351      2.192      5.134
REMARK INTER + INTRA:         -12.592
REMARK INTER:                  -7.309
REMARK INTRA:                  -5.283
REMARK UNBOUND:                -6.392
REMARK SMILES CCCCCCCCCCCCCCCCCCCCCCCCCCCCCC(=O)[O-]
REMARK SMILES IDX 16 1 17 2 18 3 19 4 20 5 21 6 22 7 23 8 24 9 25 10 26 11
REMARK SMILES IDX 27 12 28 13 29 14 30 15 31 16 32 17 15 18 14 19 13 20 12 21
REMARK SMILES IDX 11 22 10 23 9 24 8 25 7 26 6 27 5 28 4 29 3 30 2 31 1 32
REMARK H PARENT
REMARK Flexibility Score: inf
ROOT
ATOM      1  C   UNL     1    -109.108 -48.691 -54.641  1.00  0.00     0.000 C 
ENDROOT
BRANCH   1   2
ATOM      2  C   UNL     1    -107.739 -47.995 -54.664  1.00  0.00     0.000 C 
BRANCH   2   3
ATOM      3  C   UNL     1    -107.510 -47.161 -55.934  1.00  0.00     0.000 C 
BRANCH   3   4
ATOM      4  C   UNL     1    -107.125 -48.008 -57.168  1.00  0.00     0.000 C 
BRANCH   4   5
ATOM      5  C   UNL     1    -107.883 -47.570 -58.429  1.00  0.00     0.000 C 
BRANCH   5   6
ATOM      6  C   UNL     1    -109.374 -47.931 -58.338  1.00  0.00     0.000 C 
BRANCH   6   7
ATOM      7  C   UNL     1    -109.641 -49.441 -58.489  1.00  0.00     0.000 C 
BRANCH   7   8
ATOM      8  C   UNL     1    -110.072 -49.895 -59.902  1.00  0.00     0.000 C 
BRANCH   8   9
ATOM      9  C   UNL     1    -109.205 -51.018 -60.504  1.00  0.00     0.000 C 
BRANCH   9  10
ATOM     10  C   UNL     1    -108.388 -50.544 -61.717  1.00  0.00     0.000 C 
BRANCH  10  11
ATOM     11  C   UNL     1    -108.266 -49.010 -61.778  1.00  0.00     0.000 C 
BRANCH  11  12
ATOM     12  C   UNL     1    -108.748 -48.386 -63.106  1.00  0.00     0.000 C 
BRANCH  12  13
ATOM     13  C   UNL     1    -108.855 -49.366 -64.296  1.00  0.00     0.006 C 
BRANCH  13  14
ATOM     14  C   UNL     1    -108.069 -48.946 -65.550  1.00  0.00     0.053 C 
BRANCH  14  15
ATOM     15  C   UNL     1    -106.891 -49.838 -65.798  1.00  0.00     0.041 C 
ATOM     16  O   UNL     1    -106.471 -50.602 -64.889  1.00  0.00    -0.550 OA
ATOM     17  O   UNL     1    -106.283 -49.853 -67.048  1.00  0.00    -0.550 OA
ENDBRANCH  14  15
ENDBRANCH  13  14
ENDBRANCH  12  13
ENDBRANCH  11  12
ENDBRANCH  10  11
ENDBRANCH   9  10
ENDBRANCH   8   9
ENDBRANCH   7   8
ENDBRANCH   6   7
ENDBRANCH   5   6
ENDBRANCH   4   5
ENDBRANCH   3   4
ENDBRANCH   2   3
ENDBRANCH   1   2
BRANCH   1  18
ATOM     18  C   UNL     1    -109.003 -50.225 -54.547  1.00  0.00     0.000 C 
BRANCH  18  19
ATOM     19  C   UNL     1    -107.604 -50.726 -54.134  1.00  0.00     0.000 C 
BRANCH  19  20
ATOM     20  C   UNL     1    -107.102 -51.868 -55.035  1.00  0.00     0.000 C 
BRANCH  20  21
ATOM     21  C   UNL     1    -107.382 -51.617 -56.527  1.00  0.00     0.000 C 
BRANCH  21  22
ATOM     22  C   UNL     1    -108.258 -52.684 -57.204  1.00  0.00     0.000 C 
BRANCH  22  23
ATOM     23  C   UNL     1    -108.902 -53.654 -56.198  1.00  0.00     0.000 C 
BRANCH  23  24
ATOM     24  C   UNL     1    -110.426 -53.482 -56.103  1.00  0.00    -0.000 C 
BRANCH  24  25
ATOM     25  C   UNL     1    -110.968 -52.420 -57.074  1.00  0.00    -0.000 C 
BRANCH  25  26
ATOM     26  C   UNL     1    -111.916 -53.029 -58.131  1.00  0.00    -0.000 C 
BRANCH  26  27
ATOM     27  C   UNL     1    -111.215 -54.005 -59.094  1.00  0.00    -0.000 C 
BRANCH  27  28
ATOM     28  C   UNL     1    -111.865 -55.399 -59.187  1.00  0.00    -0.000 C 
BRANCH  28  29
ATOM     29  C   UNL     1    -111.311 -56.383 -58.138  1.00  0.00    -0.000 C 
BRANCH  29  30
ATOM     30  C   UNL     1    -109.792 -56.619 -58.280  1.00  0.00    -0.000 C 
BRANCH  30  31
ATOM     31  C   UNL     1    -109.141 -57.279 -57.052  1.00  0.00    -0.003 C 
ATOM     32  C   UNL     1    -110.021 -57.237 -55.804  1.00  0.00     0.004 C 
ENDBRANCH  30  31
ENDBRANCH  29  30
ENDBRANCH  28  29
ENDBRANCH  27  28
ENDBRANCH  26  27
ENDBRANCH  25  26
ENDBRANCH  24  25
ENDBRANCH  23  24
ENDBRANCH  22  23
ENDBRANCH  21  22
ENDBRANCH  20  21
ENDBRANCH  19  20
ENDBRANCH  18  19
ENDBRANCH   1  18
TORSDOF 28
ENDMDL
MODEL 9
REMARK VINA RESULT:    -2.342      1.532      4.072
REMARK INTER + INTRA:         -12.567
REMARK INTER:                  -6.266
REMARK INTRA:                  -6.302
REMARK UNBOUND:                -6.392
REMARK SMILES CCCCCCCCCCCCCCCCCCCCCCCCCCCCCC(=O)[O-]
REMARK SMILES IDX 16 1 17 2 18 3 19 4 20 5 21 6 22 7 23 8 24 9 25 10 26 11
REMARK SMILES IDX 27 12 28 13 29 14 30 15 31 16 32 17 15 18 14 19 13 20 12 21
REMARK SMILES IDX 11 22 10 23 9 24 8 25 7 26 6 27 5 28 4 29 3 30 2 31 1 32
REMARK H PARENT
REMARK Flexibility Score: inf
ROOT
ATOM      1  C   UNL     1    -108.978 -49.239 -58.297  1.00  0.00     0.000 C 
ENDROOT
BRANCH   1   2
ATOM      2  C   UNL     1    -108.728 -50.233 -57.154  1.00  0.00     0.000 C 
BRANCH   2   3
ATOM      3  C   UNL     1    -108.756 -51.699 -57.616  1.00  0.00     0.000 C 
BRANCH   3   4
ATOM      4  C   UNL     1    -109.173 -51.872 -59.094  1.00  0.00     0.000 C 
BRANCH   4   5
ATOM      5  C   UNL     1    -110.395 -52.789 -59.246  1.00  0.00     0.000 C 
BRANCH   5   6
ATOM      6  C   UNL     1    -111.691 -52.064 -58.849  1.00  0.00     0.000 C 
BRANCH   6   7
ATOM      7  C   UNL     1    -112.318 -51.267 -60.010  1.00  0.00     0.000 C 
BRANCH   7   8
ATOM      8  C   UNL     1    -112.373 -49.738 -59.804  1.00  0.00     0.000 C 
BRANCH   8   9
ATOM      9  C   UNL     1    -111.568 -48.924 -60.837  1.00  0.00     0.000 C 
BRANCH   9  10
ATOM     10  C   UNL     1    -110.788 -49.821 -61.812  1.00  0.00     0.000 C 
BRANCH  10  11
ATOM     11  C   UNL     1    -109.459 -49.184 -62.256  1.00  0.00     0.000 C 
BRANCH  11  12
ATOM     12  C   UNL     1    -108.231 -50.111 -62.116  1.00  0.00     0.000 C 
BRANCH  12  13
ATOM     13  C   UNL     1    -107.970 -51.047 -63.318  1.00  0.00     0.006 C 
BRANCH  13  14
ATOM     14  C   UNL     1    -106.770 -50.649 -64.196  1.00  0.00     0.053 C 
BRANCH  14  15
ATOM     15  C   UNL     1    -107.205 -50.041 -65.495  1.00  0.00     0.041 C 
ATOM     16  O   UNL     1    -106.408 -49.987 -66.469  1.00  0.00    -0.550 OA
ATOM     17  O   UNL     1    -108.505 -49.570 -65.639  1.00  0.00    -0.550 OA
ENDBRANCH  14  15
ENDBRANCH  13  14
ENDBRANCH  12  13
ENDBRANCH  11  12
ENDBRANCH  10  11
ENDBRANCH   9  10
ENDBRANCH   8   9
ENDBRANCH   7   8
ENDBRANCH   6   7
ENDBRANCH   5   6
ENDBRANCH   4   5
ENDBRANCH   3   4
ENDBRANCH   2   3
ENDBRANCH   1   2
BRANCH   1  18
ATOM     18  C   UNL     1    -108.231 -47.904 -58.109  1.00  0.00     0.000 C 
BRANCH  18  19
ATOM     19  C   UNL     1    -107.144 -47.952 -57.016  1.00  0.00     0.000 C 
BRANCH  19  20
ATOM     20  C   UNL     1    -107.486 -47.059 -55.811  1.00  0.00     0.000 C 
BRANCH  20  21
ATOM     21  C   UNL     1    -108.693 -46.142 -56.073  1.00  0.00     0.000 C 
BRANCH  21  22
ATOM     22  C   UNL     1    -109.863 -46.324 -55.092  1.00  0.00     0.000 C 
BRANCH  22  23
ATOM     23  C   UNL     1    -110.070 -47.790 -54.674  1.00  0.00     0.000 C 
BRANCH  23  24
ATOM     24  C   UNL     1    -111.485 -48.300 -54.989  1.00  0.00    -0.000 C 
BRANCH  24  25
ATOM     25  C   UNL     1    -111.826 -48.223 -56.487  1.00  0.00    -0.000 C 
BRANCH  25  26
ATOM     26  C   UNL     1    -113.074 -47.353 -56.753  1.00  0.00    -0.000 C 
BRANCH  26  27
ATOM     27  C   UNL     1    -112.898 -46.371 -57.928  1.00  0.00    -0.000 C 
BRANCH  27  28
ATOM     28  C   UNL     1    -111.466 -46.287 -58.488  1.00  0.00    -0.000 C 
BRANCH  28  29
ATOM     29  C   UNL     1    -110.994 -44.834 -58.696  1.00  0.00    -0.000 C 
BRANCH  29  30
ATOM     30  C   UNL     1    -109.753 -44.731 -59.608  1.00  0.00    -0.000 C 
BRANCH  30  31
ATOM     31  C   UNL     1    -109.686 -45.812 -60.700  1.00  0.00    -0.003 C 
ATOM     32  C   UNL     1    -110.410 -45.419 -61.987  1.00  0.00     0.004 C 
ENDBRANCH  30  31
ENDBRANCH  29  30
ENDBRANCH  28  29
ENDBRANCH  27  28
ENDBRANCH  26  27
ENDBRANCH  25  26
ENDBRANCH  24  25
ENDBRANCH  23  24
ENDBRANCH  22  23
ENDBRANCH  21  22
ENDBRANCH  20  21
ENDBRANCH  19  20
ENDBRANCH  18  19
ENDBRANCH   1  18
TORSDOF 28
ENDMDL
