MODEL 1
REMARK VINA RESULT:    -3.316      0.000      0.000
REMARK INTER + INTRA:          -8.155
REMARK INTER:                  -6.417
REMARK INTRA:                  -1.738
REMARK UNBOUND:                -1.738
REMARK SMILES CCCCCCCCCCCCCCCCCC(=O)[O-]
REMARK SMILES IDX 10 1 11 2 12 3 13 4 14 5 15 6 16 7 17 8 18 9 19 10 20 11
REMARK SMILES IDX 9 12 8 13 7 14 6 15 5 16 4 17 3 18 2 19 1 20
REMARK H PARENT
REMARK Flexibility Score: inf
ROOT
ATOM      1  C   UNL     1      10.012   0.088  -4.860  1.00  0.00     0.000 C 
ENDROOT
BRANCH   1   2
ATOM      2  C   UNL     1       9.270   0.136  -6.212  1.00  0.00     0.000 C 
BRANCH   2   3
ATOM      3  C   UNL     1       8.545   1.463  -6.515  1.00  0.00     0.000 C 
BRANCH   3   4
ATOM      4  C   UNL     1       7.065   1.318  -6.916  1.00  0.00     0.000 C 
BRANCH   4   5
ATOM      5  C   UNL     1       6.488  -0.062  -6.568  1.00  0.00     0.000 C 
BRANCH   5   6
ATOM      6  C   UNL     1       4.969  -0.089  -6.781  1.00  0.00     0.000 C 
BRANCH   6   7
ATOM      7  C   UNL     1       4.235   0.530  -5.585  1.00  0.00     0.006 C 
BRANCH   7   8
ATOM      8  C   UNL     1       3.666   1.907  -5.940  1.00  0.00     0.053 C 
BRANCH   8   9
ATOM      9  C   UNL     1       2.903   2.472  -4.785  1.00  0.00     0.041 C 
ATOM     10  O   UNL     1       2.279   3.561  -4.908  1.00  0.00    -0.550 OA
ATOM     11  O   UNL     1       2.925   1.827  -3.554  1.00  0.00    -0.550 OA
ENDBRANCH   8   9
ENDBRANCH   7   8
ENDBRANCH   6   7
ENDBRANCH   5   6
ENDBRANCH   4   5
ENDBRANCH   3   4
ENDBRANCH   2   3
ENDBRANCH   1   2
BRANCH   1  12
ATOM     12  C   UNL     1      10.114  -1.309  -4.224  1.00  0.00     0.000 C 
BRANCH  12  13
ATOM     13  C   UNL     1       9.637  -2.428  -5.161  1.00  0.00    -0.000 C 
BRANCH  13  14
ATOM     14  C   UNL     1       8.637  -3.347  -4.450  1.00  0.00    -0.000 C 
BRANCH  14  15
ATOM     15  C   UNL     1       7.264  -2.677  -4.321  1.00  0.00    -0.000 C 
BRANCH  15  16
ATOM     16  C   UNL     1       6.194  -3.466  -5.092  1.00  0.00    -0.000 C 
BRANCH  16  17
ATOM     17  C   UNL     1       4.787  -3.266  -4.502  1.00  0.00    -0.000 C 
BRANCH  17  18
ATOM     18  C   UNL     1       3.666  -3.849  -5.391  1.00  0.00    -0.000 C 
BRANCH  18  19
ATOM     19  C   UNL     1       2.920  -5.026  -4.740  1.00  0.00    -0.003 C 
ATOM     20  C   UNL     1       3.175  -5.134  -3.238  1.00  0.00     0.004 C 
ENDBRANCH  18  19
ENDBRANCH  17  18
ENDBRANCH  16  17
ENDBRANCH  15  16
ENDBRANCH  14  15
ENDBRANCH  13  14
ENDBRANCH  12  13
ENDBRANCH   1  12
TORSDOF 16
ENDMDL
MODEL 2
REMARK VINA RESULT:    -3.274      9.252     12.587
REMARK INTER + INTRA:          -8.075
REMARK INTER:                  -7.162
REMARK INTRA:                  -0.913
REMARK UNBOUND:                -1.738
REMARK SMILES CCCCCCCCCCCCCCCCCC(=O)[O-]
REMARK SMILES IDX 10 1 11 2 12 3 13 4 14 5 15 6 16 7 17 8 18 9 19 10 20 11
REMARK SMILES IDX 9 12 8 13 7 14 6 15 5 16 4 17 3 18 2 19 1 20
REMARK H PARENT
REMARK Flexibility Score: inf
ROOT
ATOM      1  C   UNL     1       2.312   2.408   6.220  1.00  0.00     0.000 C 
ENDROOT
BRANCH   1   2
ATOM      2  C   UNL     1       2.088   0.886   6.120  1.00  0.00     0.000 C 
BRANCH   2   3
ATOM      3  C   UNL     1       0.616   0.447   5.978  1.00  0.00     0.000 C 
BRANCH   3   4
ATOM      4  C   UNL     1       0.411  -0.953   5.372  1.00  0.00     0.000 C 
BRANCH   4   5
ATOM      5  C   UNL     1       0.936  -2.076   6.278  1.00  0.00     0.000 C 
BRANCH   5   6
ATOM      6  C   UNL     1       0.779  -3.444   5.602  1.00  0.00     0.000 C 
BRANCH   6   7
ATOM      7  C   UNL     1       0.149  -3.300   4.211  1.00  0.00     0.006 C 
BRANCH   7   8
ATOM      8  C   UNL     1      -1.062  -4.225   4.056  1.00  0.00     0.053 C 
BRANCH   8   9
ATOM      9  C   UNL     1      -2.332  -3.466   4.275  1.00  0.00     0.041 C 
ATOM     10  O   UNL     1      -2.568  -2.932   5.393  1.00  0.00    -0.550 OA
ATOM     11  O   UNL     1      -3.282  -3.394   3.264  1.00  0.00    -0.550 OA
ENDBRANCH   8   9
ENDBRANCH   7   8
ENDBRANCH   6   7
ENDBRANCH   5   6
ENDBRANCH   4   5
ENDBRANCH   3   4
ENDBRANCH   2   3
ENDBRANCH   1   2
BRANCH   1  12
ATOM     12  C   UNL     1       1.669   3.235   5.093  1.00  0.00     0.000 C 
BRANCH  12  13
ATOM     13  C   UNL     1       2.412   3.102   3.756  1.00  0.00    -0.000 C 
BRANCH  13  14
ATOM     14  C   UNL     1       3.886   3.494   3.910  1.00  0.00    -0.000 C 
BRANCH  14  15
ATOM     15  C   UNL     1       4.150   4.891   3.337  1.00  0.00    -0.000 C 
BRANCH  15  16
ATOM     16  C   UNL     1       4.460   4.820   1.834  1.00  0.00    -0.000 C 
BRANCH  16  17
ATOM     17  C   UNL     1       5.554   5.819   1.418  1.00  0.00    -0.000 C 
BRANCH  17  18
ATOM     18  C   UNL     1       6.447   5.300   0.269  1.00  0.00    -0.000 C 
BRANCH  18  19
ATOM     19  C   UNL     1       7.918   5.112   0.676  1.00  0.00    -0.003 C 
ATOM     20  C   UNL     1       8.794   4.618  -0.474  1.00  0.00     0.004 C 
ENDBRANCH  18  19
ENDBRANCH  17  18
ENDBRANCH  16  17
ENDBRANCH  15  16
ENDBRANCH  14  15
ENDBRANCH  13  14
ENDBRANCH  12  13
ENDBRANCH   1  12
TORSDOF 16
ENDMDL
MODEL 3
REMARK VINA RESULT:    -3.238     12.113     14.435
REMARK INTER + INTRA:          -8.005
REMARK INTER:                  -5.228
REMARK INTRA:                  -2.777
REMARK UNBOUND:                -1.738
REMARK SMILES CCCCCCCCCCCCCCCCCC(=O)[O-]
REMARK SMILES IDX 10 1 11 2 12 3 13 4 14 5 15 6 16 7 17 8 18 9 19 10 20 11
REMARK SMILES IDX 9 12 8 13 7 14 6 15 5 16 4 17 3 18 2 19 1 20
REMARK H PARENT
REMARK Flexibility Score: inf
ROOT
ATOM      1  C   UNL     1      -5.007  -2.563   4.897  1.00  0.00     0.000 C 
ENDROOT
BRANCH   1   2
ATOM      2  C   UNL     1      -4.463  -2.761   3.468  1.00  0.00     0.000 C 
BRANCH   2   3
ATOM      3  C   UNL     1      -3.049  -3.372   3.383  1.00  0.00     0.000 C 
BRANCH   3   4
ATOM      4  C   UNL     1      -2.798  -4.561   4.327  1.00  0.00     0.000 C 
BRANCH   4   5
ATOM      5  C   UNL     1      -1.324  -4.990   4.363  1.00  0.00     0.000 C 
BRANCH   5   6
ATOM      6  C   UNL     1      -0.427  -3.923   3.721  1.00  0.00     0.000 C 
BRANCH   6   7
ATOM      7  C   UNL     1       0.504  -3.291   4.761  1.00  0.00     0.006 C 
BRANCH   7   8
ATOM      8  C   UNL     1       0.035  -1.882   5.137  1.00  0.00     0.053 C 
BRANCH   8   9
ATOM      9  C   UNL     1      -0.685  -1.902   6.448  1.00  0.00     0.041 C 
ATOM     10  O   UNL     1      -1.937  -1.758   6.487  1.00  0.00    -0.550 OA
ATOM     11  O   UNL     1       0.030  -2.024   7.633  1.00  0.00    -0.550 OA
ENDBRANCH   8   9
ENDBRANCH   7   8
ENDBRANCH   6   7
ENDBRANCH   5   6
ENDBRANCH   4   5
ENDBRANCH   3   4
ENDBRANCH   2   3
ENDBRANCH   1   2
BRANCH   1  12
ATOM     12  C   UNL     1      -6.434  -3.089   5.128  1.00  0.00     0.000 C 
BRANCH  12  13
ATOM     13  C   UNL     1      -6.884  -4.086   4.051  1.00  0.00    -0.000 C 
BRANCH  13  14
ATOM     14  C   UNL     1      -6.780  -5.527   4.563  1.00  0.00    -0.000 C 
BRANCH  14  15
ATOM     15  C   UNL     1      -6.017  -6.414   3.572  1.00  0.00    -0.000 C 
BRANCH  15  16
ATOM     16  C   UNL     1      -5.994  -5.780   2.173  1.00  0.00    -0.000 C 
BRANCH  16  17
ATOM     17  C   UNL     1      -5.203  -6.630   1.163  1.00  0.00    -0.000 C 
BRANCH  17  18
ATOM     18  C   UNL     1      -3.751  -6.140   0.962  1.00  0.00    -0.000 C 
BRANCH  18  19
ATOM     19  C   UNL     1      -2.699  -7.078   1.577  1.00  0.00    -0.003 C 
ATOM     20  C   UNL     1      -3.282  -8.420   2.017  1.00  0.00     0.004 C 
ENDBRANCH  18  19
ENDBRANCH  17  18
ENDBRANCH  16  17
ENDBRANCH  15  16
ENDBRANCH  14  15
ENDBRANCH  13  14
ENDBRANCH  12  13
ENDBRANCH   1  12
TORSDOF 16
ENDMDL
MODEL 4
REMARK VINA RESULT:    -3.211     10.060     12.099
REMARK INTER + INTRA:          -7.953
REMARK INTER:                  -5.708
REMARK INTRA:                  -2.245
REMARK UNBOUND:                -1.738
REMARK SMILES CCCCCCCCCCCCCCCCCC(=O)[O-]
REMARK SMILES IDX 10 1 11 2 12 3 13 4 14 5 15 6 16 7 17 8 18 9 19 10 20 11
REMARK SMILES IDX 9 12 8 13 7 14 6 15 5 16 4 17 3 18 2 19 1 20
REMARK H PARENT
REMARK Flexibility Score: inf
ROOT
ATOM      1  C   UNL     1       2.437   7.709   3.912  1.00  0.00     0.000 C 
ENDROOT
BRANCH   1   2
ATOM      2  C   UNL     1       1.235   7.446   2.983  1.00  0.00     0.000 C 
BRANCH   2   3
ATOM      3  C   UNL     1      -0.084   7.094   3.702  1.00  0.00     0.000 C 
BRANCH   3   4
ATOM      4  C   UNL     1      -0.728   5.766   3.263  1.00  0.00     0.000 C 
BRANCH   4   5
ATOM      5  C   UNL     1      -2.252   5.869   3.101  1.00  0.00     0.000 C 
BRANCH   5   6
ATOM      6  C   UNL     1      -2.747   4.945   1.980  1.00  0.00     0.000 C 
BRANCH   6   7
ATOM      7  C   UNL     1      -2.523   5.583   0.604  1.00  0.00     0.006 C 
BRANCH   7   8
ATOM      8  C   UNL     1      -2.772   4.572  -0.520  1.00  0.00     0.053 C 
BRANCH   8   9
ATOM      9  C   UNL     1      -3.088   5.277  -1.800  1.00  0.00     0.041 C 
ATOM     10  O   UNL     1      -4.004   4.847  -2.552  1.00  0.00    -0.550 OA
ATOM     11  O   UNL     1      -2.336   6.378  -2.191  1.00  0.00    -0.550 OA
ENDBRANCH   8   9
ENDBRANCH   7   8
ENDBRANCH   6   7
ENDBRANCH   5   6
ENDBRANCH   4   5
ENDBRANCH   3   4
ENDBRANCH   2   3
ENDBRANCH   1   2
BRANCH   1  12
ATOM     12  C   UNL     1       3.778   7.140   3.417  1.00  0.00     0.000 C 
BRANCH  12  13
ATOM     13  C   UNL     1       3.673   6.486   2.031  1.00  0.00    -0.000 C 
BRANCH  13  14
ATOM     14  C   UNL     1       4.391   5.132   2.011  1.00  0.00    -0.000 C 
BRANCH  14  15
ATOM     15  C   UNL     1       4.257   4.414   3.359  1.00  0.00    -0.000 C 
BRANCH  15  16
ATOM     16  C   UNL     1       3.195   3.305   3.289  1.00  0.00    -0.000 C 
BRANCH  16  17
ATOM     17  C   UNL     1       2.020   3.565   4.247  1.00  0.00    -0.000 C 
BRANCH  17  18
ATOM     18  C   UNL     1       2.431   4.343   5.517  1.00  0.00    -0.000 C 
BRANCH  18  19
ATOM     19  C   UNL     1       1.234   4.803   6.366  1.00  0.00    -0.003 C 
ATOM     20  C   UNL     1       0.057   3.831   6.312  1.00  0.00     0.004 C 
ENDBRANCH  18  19
ENDBRANCH  17  18
ENDBRANCH  16  17
ENDBRANCH  15  16
ENDBRANCH  14  15
ENDBRANCH  13  14
ENDBRANCH  12  13
ENDBRANCH   1  12
TORSDOF 16
ENDMDL
MODEL 5
REMARK VINA RESULT:    -3.201      9.270     12.213
REMARK INTER + INTRA:          -7.933
REMARK INTER:                  -6.714
REMARK INTRA:                  -1.220
REMARK UNBOUND:                -1.738
REMARK SMILES CCCCCCCCCCCCCCCCCC(=O)[O-]
REMARK SMILES IDX 10 1 11 2 12 3 13 4 14 5 15 6 16 7 17 8 18 9 19 10 20 11
REMARK SMILES IDX 9 12 8 13 7 14 6 15 5 16 4 17 3 18 2 19 1 20
REMARK H PARENT
REMARK Flexibility Score: inf
ROOT
ATOM      1  C   UNL     1       0.638   4.408   5.415  1.00  0.00     0.000 C 
ENDROOT
BRANCH   1   2
ATOM      2  C   UNL     1       1.854   3.460   5.372  1.00  0.00     0.000 C 
BRANCH   2   3
ATOM      3  C   UNL     1       2.125   2.802   4.004  1.00  0.00     0.000 C 
BRANCH   3   4
ATOM      4  C   UNL     1       3.375   3.320   3.270  1.00  0.00     0.000 C 
BRANCH   4   5
ATOM      5  C   UNL     1       4.237   4.243   4.143  1.00  0.00     0.000 C 
BRANCH   5   6
ATOM      6  C   UNL     1       4.762   5.434   3.330  1.00  0.00     0.000 C 
BRANCH   6   7
ATOM      7  C   UNL     1       4.382   5.299   1.851  1.00  0.00     0.006 C 
BRANCH   7   8
ATOM      8  C   UNL     1       4.938   6.466   1.030  1.00  0.00     0.053 C 
BRANCH   8   9
ATOM      9  C   UNL     1       5.961   5.979   0.053  1.00  0.00     0.041 C 
ATOM     10  O   UNL     1       6.423   4.810   0.148  1.00  0.00    -0.550 OA
ATOM     11  O   UNL     1       6.446   6.833  -0.930  1.00  0.00    -0.550 OA
ENDBRANCH   8   9
ENDBRANCH   7   8
ENDBRANCH   6   7
ENDBRANCH   5   6
ENDBRANCH   4   5
ENDBRANCH   3   4
ENDBRANCH   2   3
ENDBRANCH   1   2
BRANCH   1  12
ATOM     12  C   UNL     1       0.647   5.524   4.356  1.00  0.00     0.000 C 
BRANCH  12  13
ATOM     13  C   UNL     1      -0.714   6.220   4.211  1.00  0.00    -0.000 C 
BRANCH  13  14
ATOM     14  C   UNL     1      -1.465   5.699   2.980  1.00  0.00    -0.000 C 
BRANCH  14  15
ATOM     15  C   UNL     1      -2.087   6.852   2.183  1.00  0.00    -0.000 C 
BRANCH  15  16
ATOM     16  C   UNL     1      -2.761   6.333   0.902  1.00  0.00    -0.000 C 
BRANCH  16  17
ATOM     17  C   UNL     1      -2.548   4.823   0.705  1.00  0.00    -0.000 C 
BRANCH  17  18
ATOM     18  C   UNL     1      -2.737   4.368  -0.760  1.00  0.00    -0.000 C 
BRANCH  18  19
ATOM     19  C   UNL     1      -3.367   5.445  -1.658  1.00  0.00    -0.003 C 
ATOM     20  C   UNL     1      -4.273   4.861  -2.741  1.00  0.00     0.004 C 
ENDBRANCH  18  19
ENDBRANCH  17  18
ENDBRANCH  16  17
ENDBRANCH  15  16
ENDBRANCH  14  15
ENDBRANCH  13  14
ENDBRANCH  12  13
ENDBRANCH   1  12
TORSDOF 16
ENDMDL
MODEL 6
REMARK VINA RESULT:    -3.195     10.117     11.866
REMARK INTER + INTRA:          -7.922
REMARK INTER:                  -5.938
REMARK INTRA:                  -1.984
REMARK UNBOUND:                -1.738
REMARK SMILES CCCCCCCCCCCCCCCCCC(=O)[O-]
REMARK SMILES IDX 10 1 11 2 12 3 13 4 14 5 15 6 16 7 17 8 18 9 19 10 20 11
REMARK SMILES IDX 9 12 8 13 7 14 6 15 5 16 4 17 3 18 2 19 1 20
REMARK H PARENT
REMARK Flexibility Score: inf
ROOT
ATOM      1  C   UNL     1       1.601   3.783   6.934  1.00  0.00     0.000 C 
ENDROOT
BRANCH   1   2
ATOM      2  C   UNL     1       1.386   3.414   5.452  1.00  0.00     0.000 C 
BRANCH   2   3
ATOM      3  C   UNL     1       2.231   4.222   4.446  1.00  0.00     0.000 C 
BRANCH   3   4
ATOM      4  C   UNL     1       3.183   3.382   3.574  1.00  0.00     0.000 C 
BRANCH   4   5
ATOM      5  C   UNL     1       3.985   4.233   2.580  1.00  0.00     0.000 C 
BRANCH   5   6
ATOM      6  C   UNL     1       4.795   5.311   3.311  1.00  0.00     0.000 C 
BRANCH   6   7
ATOM      7  C   UNL     1       5.490   6.246   2.314  1.00  0.00     0.006 C 
BRANCH   7   8
ATOM      8  C   UNL     1       6.891   5.734   1.963  1.00  0.00     0.053 C 
BRANCH   8   9
ATOM      9  C   UNL     1       6.920   5.204   0.565  1.00  0.00     0.041 C 
ATOM     10  O   UNL     1       5.947   5.404  -0.210  1.00  0.00    -0.550 OA
ATOM     11  O   UNL     1       7.998   4.440   0.134  1.00  0.00    -0.550 OA
ENDBRANCH   8   9
ENDBRANCH   7   8
ENDBRANCH   6   7
ENDBRANCH   5   6
ENDBRANCH   4   5
ENDBRANCH   3   4
ENDBRANCH   2   3
ENDBRANCH   1   2
BRANCH   1  12
ATOM     12  C   UNL     1       3.009   4.299   7.278  1.00  0.00     0.000 C 
BRANCH  12  13
ATOM     13  C   UNL     1       3.791   3.340   8.188  1.00  0.00    -0.000 C 
BRANCH  13  14
ATOM     14  C   UNL     1       5.039   2.808   7.475  1.00  0.00    -0.000 C 
BRANCH  14  15
ATOM     15  C   UNL     1       4.678   1.706   6.473  1.00  0.00    -0.000 C 
BRANCH  15  16
ATOM     16  C   UNL     1       5.045   0.319   7.025  1.00  0.00    -0.000 C 
BRANCH  16  17
ATOM     17  C   UNL     1       3.801  -0.539   7.314  1.00  0.00    -0.000 C 
BRANCH  17  18
ATOM     18  C   UNL     1       2.478   0.158   6.926  1.00  0.00    -0.000 C 
BRANCH  18  19
ATOM     19  C   UNL     1       1.371  -0.823   6.505  1.00  0.00    -0.003 C 
ATOM     20  C   UNL     1       0.524  -0.302   5.345  1.00  0.00     0.004 C 
ENDBRANCH  18  19
ENDBRANCH  17  18
ENDBRANCH  16  17
ENDBRANCH  15  16
ENDBRANCH  14  15
ENDBRANCH  13  14
ENDBRANCH  12  13
ENDBRANCH   1  12
TORSDOF 16
ENDMDL
MODEL 7
REMARK VINA RESULT:    -3.164      9.723     11.903
REMARK INTER + INTRA:          -7.863
REMARK INTER:                  -5.626
REMARK INTRA:                  -2.236
REMARK UNBOUND:                -1.738
REMARK SMILES CCCCCCCCCCCCCCCCCC(=O)[O-]
REMARK SMILES IDX 10 1 11 2 12 3 13 4 14 5 15 6 16 7 17 8 18 9 19 10 20 11
REMARK SMILES IDX 9 12 8 13 7 14 6 15 5 16 4 17 3 18 2 19 1 20
REMARK H PARENT
REMARK Flexibility Score: inf
ROOT
ATOM      1  C   UNL     1       1.752   3.875   4.160  1.00  0.00     0.000 C 
ENDROOT
BRANCH   1   2
ATOM      2  C   UNL     1       3.069   3.570   3.418  1.00  0.00     0.000 C 
BRANCH   2   3
ATOM      3  C   UNL     1       4.335   4.186   4.050  1.00  0.00     0.000 C 
BRANCH   3   4
ATOM      4  C   UNL     1       4.925   5.385   3.285  1.00  0.00     0.000 C 
BRANCH   4   5
ATOM      5  C   UNL     1       4.509   5.411   1.807  1.00  0.00     0.000 C 
BRANCH   5   6
ATOM      6  C   UNL     1       5.209   6.554   1.061  1.00  0.00     0.000 C 
BRANCH   6   7
ATOM      7  C   UNL     1       5.910   6.037  -0.201  1.00  0.00     0.006 C 
BRANCH   7   8
ATOM      8  C   UNL     1       6.792   4.825   0.114  1.00  0.00     0.053 C 
BRANCH   8   9
ATOM      9  C   UNL     1       8.226   5.234   0.219  1.00  0.00     0.041 C 
ATOM     10  O   UNL     1       8.977   4.700   1.080  1.00  0.00    -0.550 OA
ATOM     11  O   UNL     1       8.723   6.245  -0.595  1.00  0.00    -0.550 OA
ENDBRANCH   8   9
ENDBRANCH   7   8
ENDBRANCH   6   7
ENDBRANCH   5   6
ENDBRANCH   4   5
ENDBRANCH   3   4
ENDBRANCH   2   3
ENDBRANCH   1   2
BRANCH   1  12
ATOM     12  C   UNL     1       1.877   4.874   5.324  1.00  0.00     0.000 C 
BRANCH  12  13
ATOM     13  C   UNL     1       1.170   4.395   6.600  1.00  0.00    -0.000 C 
BRANCH  13  14
ATOM     14  C   UNL     1       0.006   3.457   6.260  1.00  0.00    -0.000 C 
BRANCH  14  15
ATOM     15  C   UNL     1       0.066   2.174   7.097  1.00  0.00    -0.000 C 
BRANCH  15  16
ATOM     16  C   UNL     1       0.196   0.936   6.197  1.00  0.00    -0.000 C 
BRANCH  16  17
ATOM     17  C   UNL     1       1.664   0.597   5.885  1.00  0.00    -0.000 C 
BRANCH  17  18
ATOM     18  C   UNL     1       2.640   1.029   7.002  1.00  0.00    -0.000 C 
BRANCH  18  19
ATOM     19  C   UNL     1       3.990   1.540   6.472  1.00  0.00    -0.003 C 
ATOM     20  C   UNL     1       4.658   2.541   7.412  1.00  0.00     0.004 C 
ENDBRANCH  18  19
ENDBRANCH  17  18
ENDBRANCH  16  17
ENDBRANCH  15  16
ENDBRANCH  14  15
ENDBRANCH  13  14
ENDBRANCH  12  13
ENDBRANCH   1  12
TORSDOF 16
ENDMDL
MODEL 8
REMARK VINA RESULT:    -3.154      9.892     12.237
REMARK INTER + INTRA:          -7.843
REMARK INTER:                  -5.504
REMARK INTRA:                  -2.339
REMARK UNBOUND:                -1.738
REMARK SMILES CCCCCCCCCCCCCCCCCC(=O)[O-]
REMARK SMILES IDX 10 1 11 2 12 3 13 4 14 5 15 6 16 7 17 8 18 9 19 10 20 11
REMARK SMILES IDX 9 12 8 13 7 14 6 15 5 16 4 17 3 18 2 19 1 20
REMARK H PARENT
REMARK Flexibility Score: inf
ROOT
ATOM      1  C   UNL     1       1.814   4.949   4.895  1.00  0.00     0.000 C 
ENDROOT
BRANCH   1   2
ATOM      2  C   UNL     1       0.479   5.710   5.029  1.00  0.00     0.000 C 
BRANCH   2   3
ATOM      3  C   UNL     1      -0.457   5.612   3.807  1.00  0.00     0.000 C 
BRANCH   3   4
ATOM      4  C   UNL     1      -1.739   6.460   3.902  1.00  0.00     0.000 C 
BRANCH   4   5
ATOM      5  C   UNL     1      -2.850   5.965   2.965  1.00  0.00     0.000 C 
BRANCH   5   6
ATOM      6  C   UNL     1      -2.258   5.227   1.757  1.00  0.00     0.000 C 
BRANCH   6   7
ATOM      7  C   UNL     1      -2.905   5.703   0.451  1.00  0.00     0.006 C 
BRANCH   7   8
ATOM      8  C   UNL     1      -2.485   4.820  -0.728  1.00  0.00     0.053 C 
BRANCH   8   9
ATOM      9  C   UNL     1      -1.940   5.656  -1.841  1.00  0.00     0.041 C 
ATOM     10  O   UNL     1      -0.729   6.007  -1.838  1.00  0.00    -0.550 OA
ATOM     11  O   UNL     1      -2.781   6.097  -2.856  1.00  0.00    -0.550 OA
ENDBRANCH   8   9
ENDBRANCH   7   8
ENDBRANCH   6   7
ENDBRANCH   5   6
ENDBRANCH   4   5
ENDBRANCH   3   4
ENDBRANCH   2   3
ENDBRANCH   1   2
BRANCH   1  12
ATOM     12  C   UNL     1       1.857   3.907   3.763  1.00  0.00     0.000 C 
BRANCH  12  13
ATOM     13  C   UNL     1       3.281   3.425   3.450  1.00  0.00    -0.000 C 
BRANCH  13  14
ATOM     14  C   UNL     1       4.243   4.612   3.326  1.00  0.00    -0.000 C 
BRANCH  14  15
ATOM     15  C   UNL     1       4.386   5.060   1.867  1.00  0.00    -0.000 C 
BRANCH  15  16
ATOM     16  C   UNL     1       4.443   6.593   1.766  1.00  0.00    -0.000 C 
BRANCH  16  17
ATOM     17  C   UNL     1       3.193   7.261   2.364  1.00  0.00    -0.000 C 
BRANCH  17  18
ATOM     18  C   UNL     1       1.993   7.289   1.391  1.00  0.00    -0.000 C 
BRANCH  18  19
ATOM     19  C   UNL     1       0.890   8.276   1.808  1.00  0.00    -0.003 C 
ATOM     20  C   UNL     1      -0.287   8.300   0.834  1.00  0.00     0.004 C 
ENDBRANCH  18  19
ENDBRANCH  17  18
ENDBRANCH  16  17
ENDBRANCH  15  16
ENDBRANCH  14  15
ENDBRANCH  13  14
ENDBRANCH  12  13
ENDBRANCH   1  12
TORSDOF 16
ENDMDL
MODEL 9
REMARK VINA RESULT:    -3.142     10.343     12.756
REMARK INTER + INTRA:          -7.819
REMARK INTER:                  -6.013
REMARK INTRA:                  -1.805
REMARK UNBOUND:                -1.738
REMARK SMILES CCCCCCCCCCCCCCCCCC(=O)[O-]
REMARK SMILES IDX 10 1 11 2 12 3 13 4 14 5 15 6 16 7 17 8 18 9 19 10 20 11
REMARK SMILES IDX 9 12 8 13 7 14 6 15 5 16 4 17 3 18 2 19 1 20
REMARK H PARENT
REMARK Flexibility Score: inf
ROOT
ATOM      1  C   UNL     1       1.699   7.085   2.471  1.00  0.00     0.000 C 
ENDROOT
BRANCH   1   2
ATOM      2  C   UNL     1       3.155   7.100   1.962  1.00  0.00     0.000 C 
BRANCH   2   3
ATOM      3  C   UNL     1       4.134   6.203   2.747  1.00  0.00     0.000 C 
BRANCH   3   4
ATOM      4  C   UNL     1       4.301   4.779   2.188  1.00  0.00     0.000 C 
BRANCH   4   5
ATOM      5  C   UNL     1       3.518   3.729   2.989  1.00  0.00     0.000 C 
BRANCH   5   6
ATOM      6  C   UNL     1       3.366   4.161   4.454  1.00  0.00     0.000 C 
BRANCH   6   7
ATOM      7  C   UNL     1       2.077   3.594   5.062  1.00  0.00     0.006 C 
BRANCH   7   8
ATOM      8  C   UNL     1       2.339   2.257   5.762  1.00  0.00     0.053 C 
BRANCH   8   9
ATOM      9  C   UNL     1       1.068   1.481   5.904  1.00  0.00     0.041 C 
ATOM     10  O   UNL     1       0.988   0.306   5.454  1.00  0.00    -0.550 OA
ATOM     11  O   UNL     1      -0.047   2.074   6.483  1.00  0.00    -0.550 OA
ENDBRANCH   8   9
ENDBRANCH   7   8
ENDBRANCH   6   7
ENDBRANCH   5   6
ENDBRANCH   4   5
ENDBRANCH   3   4
ENDBRANCH   2   3
ENDBRANCH   1   2
BRANCH   1  12
ATOM     12  C   UNL     1       1.529   7.424   3.963  1.00  0.00     0.000 C 
BRANCH  12  13
ATOM     13  C   UNL     1       0.141   7.055   4.504  1.00  0.00    -0.000 C 
BRANCH  13  14
ATOM     14  C   UNL     1      -0.471   5.903   3.698  1.00  0.00    -0.000 C 
BRANCH  14  15
ATOM     15  C   UNL     1      -1.818   5.469   4.286  1.00  0.00    -0.000 C 
BRANCH  15  16
ATOM     16  C   UNL     1      -2.925   5.522   3.222  1.00  0.00    -0.000 C 
BRANCH  16  17
ATOM     17  C   UNL     1      -2.387   5.236   1.809  1.00  0.00    -0.000 C 
BRANCH  17  18
ATOM     18  C   UNL     1      -2.832   6.284   0.765  1.00  0.00    -0.000 C 
BRANCH  18  19
ATOM     19  C   UNL     1      -3.077   5.689  -0.632  1.00  0.00    -0.003 C 
ATOM     20  C   UNL     1      -2.737   4.202  -0.713  1.00  0.00     0.004 C 
ENDBRANCH  18  19
ENDBRANCH  17  18
ENDBRANCH  16  17
ENDBRANCH  15  16
ENDBRANCH  14  15
ENDBRANCH  13  14
ENDBRANCH  12  13
ENDBRANCH   1  12
TORSDOF 16
ENDMDL
