MODEL 1
REMARK VINA RESULT:    -4.341      0.000      0.000
REMARK INTER + INTRA:          -9.894
REMARK INTER:                  -8.402
REMARK INTRA:                  -1.492
REMARK UNBOUND:                -1.492
REMARK SMILES CCCCCCCCCCCCCCCCCC(=O)[O-]
REMARK SMILES IDX 10 1 11 2 12 3 13 4 14 5 15 6 16 7 17 8 18 9 19 10 20 11
REMARK SMILES IDX 9 12 8 13 7 14 6 15 5 16 4 17 3 18 2 19 1 20
REMARK H PARENT
REMARK Flexibility Score: inf
ROOT
ATOM      1  C   UNL     1      12.241  22.563 -22.298  1.00  0.00     0.000 C 
ENDROOT
BRANCH   1   2
ATOM      2  C   UNL     1      12.677  23.137 -20.942  1.00  0.00     0.000 C 
BRANCH   2   3
ATOM      3  C   UNL     1      11.882  22.501 -19.794  1.00  0.00     0.000 C 
BRANCH   3   4
ATOM      4  C   UNL     1      12.822  21.902 -18.738  1.00  0.00     0.000 C 
BRANCH   4   5
ATOM      5  C   UNL     1      14.268  21.770 -19.241  1.00  0.00     0.000 C 
BRANCH   5   6
ATOM      6  C   UNL     1      14.594  20.349 -19.735  1.00  0.00     0.000 C 
BRANCH   6   7
ATOM      7  C   UNL     1      15.646  19.637 -18.864  1.00  0.00     0.006 C 
BRANCH   7   8
ATOM      8  C   UNL     1      15.977  20.377 -17.557  1.00  0.00     0.053 C 
BRANCH   8   9
ATOM      9  C   UNL     1      17.450  20.457 -17.298  1.00  0.00     0.041 C 
ATOM     10  O   UNL     1      17.987  19.691 -16.455  1.00  0.00    -0.550 OA
ATOM     11  O   UNL     1      18.227  21.398 -17.962  1.00  0.00    -0.550 OA
ENDBRANCH   8   9
ENDBRANCH   7   8
ENDBRANCH   6   7
ENDBRANCH   5   6
ENDBRANCH   4   5
ENDBRANCH   3   4
ENDBRANCH   2   3
ENDBRANCH   1   2
BRANCH   1  12
ATOM     12  C   UNL     1      13.419  22.371 -23.264  1.00  0.00     0.000 C 
BRANCH  12  13
ATOM     13  C   UNL     1      13.344  23.309 -24.483  1.00  0.00    -0.000 C 
BRANCH  13  14
ATOM     14  C   UNL     1      13.583  22.571 -25.809  1.00  0.00    -0.000 C 
BRANCH  14  15
ATOM     15  C   UNL     1      12.273  22.111 -26.473  1.00  0.00    -0.000 C 
BRANCH  15  16
ATOM     16  C   UNL     1      12.528  21.174 -27.673  1.00  0.00    -0.000 C 
BRANCH  16  17
ATOM     17  C   UNL     1      12.352  19.683 -27.339  1.00  0.00    -0.000 C 
BRANCH  17  18
ATOM     18  C   UNL     1      11.875  19.444 -25.900  1.00  0.00    -0.000 C 
BRANCH  18  19
ATOM     19  C   UNL     1      12.952  18.731 -25.076  1.00  0.00    -0.003 C 
ATOM     20  C   UNL     1      12.703  18.903 -23.580  1.00  0.00     0.004 C 
ENDBRANCH  18  19
ENDBRANCH  17  18
ENDBRANCH  16  17
ENDBRANCH  15  16
ENDBRANCH  14  15
ENDBRANCH  13  14
ENDBRANCH  12  13
ENDBRANCH   1  12
TORSDOF 16
ENDMDL
MODEL 2
REMARK VINA RESULT:    -4.296      2.037      3.305
REMARK INTER + INTRA:          -9.806
REMARK INTER:                  -7.752
REMARK INTRA:                  -2.054
REMARK UNBOUND:                -1.492
REMARK SMILES CCCCCCCCCCCCCCCCCC(=O)[O-]
REMARK SMILES IDX 10 1 11 2 12 3 13 4 14 5 15 6 16 7 17 8 18 9 19 10 20 11
REMARK SMILES IDX 9 12 8 13 7 14 6 15 5 16 4 17 3 18 2 19 1 20
REMARK H PARENT
REMARK Flexibility Score: inf
ROOT
ATOM      1  C   UNL     1      13.199  22.690 -20.069  1.00  0.00     0.000 C 
ENDROOT
BRANCH   1   2
ATOM      2  C   UNL     1      12.769  21.828 -18.873  1.00  0.00     0.000 C 
BRANCH   2   3
ATOM      3  C   UNL     1      13.983  21.163 -18.211  1.00  0.00     0.000 C 
BRANCH   3   4
ATOM      4  C   UNL     1      15.290  21.606 -18.884  1.00  0.00     0.000 C 
BRANCH   4   5
ATOM      5  C   UNL     1      16.537  21.079 -18.157  1.00  0.00     0.000 C 
BRANCH   5   6
ATOM      6  C   UNL     1      16.363  19.634 -17.658  1.00  0.00     0.000 C 
BRANCH   6   7
ATOM      7  C   UNL     1      17.342  19.266 -16.527  1.00  0.00     0.006 C 
BRANCH   7   8
ATOM      8  C   UNL     1      18.761  19.825 -16.726  1.00  0.00     0.053 C 
BRANCH   8   9
ATOM      9  C   UNL     1      19.819  18.923 -16.167  1.00  0.00     0.041 C 
ATOM     10  O   UNL     1      20.328  19.166 -15.042  1.00  0.00    -0.550 OA
ATOM     11  O   UNL     1      20.265  17.831 -16.902  1.00  0.00    -0.550 OA
ENDBRANCH   8   9
ENDBRANCH   7   8
ENDBRANCH   6   7
ENDBRANCH   5   6
ENDBRANCH   4   5
ENDBRANCH   3   4
ENDBRANCH   2   3
ENDBRANCH   1   2
BRANCH   1  12
ATOM     12  C   UNL     1      12.181  22.653 -21.220  1.00  0.00     0.000 C 
BRANCH  12  13
ATOM     13  C   UNL     1      12.830  22.904 -22.593  1.00  0.00    -0.000 C 
BRANCH  13  14
ATOM     14  C   UNL     1      12.126  22.140 -23.724  1.00  0.00    -0.000 C 
BRANCH  14  15
ATOM     15  C   UNL     1      13.042  21.101 -24.395  1.00  0.00    -0.000 C 
BRANCH  15  16
ATOM     16  C   UNL     1      12.847  19.688 -23.805  1.00  0.00    -0.000 C 
BRANCH  16  17
ATOM     17  C   UNL     1      13.843  19.345 -22.684  1.00  0.00    -0.000 C 
BRANCH  17  18
ATOM     18  C   UNL     1      13.162  19.117 -21.328  1.00  0.00    -0.000 C 
BRANCH  18  19
ATOM     19  C   UNL     1      13.947  18.112 -20.480  1.00  0.00    -0.003 C 
ATOM     20  C   UNL     1      15.441  18.181 -20.787  1.00  0.00     0.004 C 
ENDBRANCH  18  19
ENDBRANCH  17  18
ENDBRANCH  16  17
ENDBRANCH  15  16
ENDBRANCH  14  15
ENDBRANCH  13  14
ENDBRANCH  12  13
ENDBRANCH   1  12
TORSDOF 16
ENDMDL
MODEL 3
REMARK VINA RESULT:    -4.265      3.939      7.517
REMARK INTER + INTRA:          -9.747
REMARK INTER:                  -8.059
REMARK INTRA:                  -1.688
REMARK UNBOUND:                -1.492
REMARK SMILES CCCCCCCCCCCCCCCCCC(=O)[O-]
REMARK SMILES IDX 10 1 11 2 12 3 13 4 14 5 15 6 16 7 17 8 18 9 19 10 20 11
REMARK SMILES IDX 9 12 8 13 7 14 6 15 5 16 4 17 3 18 2 19 1 20
REMARK H PARENT
REMARK Flexibility Score: inf
ROOT
ATOM      1  C   UNL     1      11.922  22.976 -19.871  1.00  0.00     0.000 C 
ENDROOT
BRANCH   1   2
ATOM      2  C   UNL     1      13.061  23.216 -20.872  1.00  0.00     0.000 C 
BRANCH   2   3
ATOM      3  C   UNL     1      12.572  23.039 -22.315  1.00  0.00     0.000 C 
BRANCH   3   4
ATOM      4  C   UNL     1      12.461  21.552 -22.681  1.00  0.00     0.000 C 
BRANCH   4   5
ATOM      5  C   UNL     1      13.317  21.177 -23.901  1.00  0.00     0.000 C 
BRANCH   5   6
ATOM      6  C   UNL     1      13.689  22.400 -24.759  1.00  0.00     0.000 C 
BRANCH   6   7
ATOM      7  C   UNL     1      13.136  22.317 -26.194  1.00  0.00     0.006 C 
BRANCH   7   8
ATOM      8  C   UNL     1      11.953  21.348 -26.351  1.00  0.00     0.053 C 
BRANCH   8   9
ATOM      9  C   UNL     1      12.223  20.267 -27.352  1.00  0.00     0.041 C 
ATOM     10  O   UNL     1      12.676  19.154 -26.975  1.00  0.00    -0.550 OA
ATOM     11  O   UNL     1      12.006  20.497 -28.705  1.00  0.00    -0.550 OA
ENDBRANCH   8   9
ENDBRANCH   7   8
ENDBRANCH   6   7
ENDBRANCH   5   6
ENDBRANCH   4   5
ENDBRANCH   3   4
ENDBRANCH   2   3
ENDBRANCH   1   2
BRANCH   1  12
ATOM     12  C   UNL     1      12.323  22.020 -18.738  1.00  0.00     0.000 C 
BRANCH  12  13
ATOM     13  C   UNL     1      13.525  21.133 -19.109  1.00  0.00    -0.000 C 
BRANCH  13  14
ATOM     14  C   UNL     1      14.586  21.086 -17.999  1.00  0.00    -0.000 C 
BRANCH  14  15
ATOM     15  C   UNL     1      15.978  20.696 -18.528  1.00  0.00    -0.000 C 
BRANCH  15  16
ATOM     16  C   UNL     1      16.236  19.178 -18.421  1.00  0.00    -0.000 C 
BRANCH  16  17
ATOM     17  C   UNL     1      15.888  18.402 -19.702  1.00  0.00    -0.000 C 
BRANCH  17  18
ATOM     18  C   UNL     1      15.020  17.166 -19.436  1.00  0.00    -0.000 C 
BRANCH  18  19
ATOM     19  C   UNL     1      13.783  17.157 -20.341  1.00  0.00    -0.003 C 
ATOM     20  C   UNL     1      13.836  18.296 -21.357  1.00  0.00     0.004 C 
ENDBRANCH  18  19
ENDBRANCH  17  18
ENDBRANCH  16  17
ENDBRANCH  15  16
ENDBRANCH  14  15
ENDBRANCH  13  14
ENDBRANCH  12  13
ENDBRANCH   1  12
TORSDOF 16
ENDMDL
MODEL 4
REMARK VINA RESULT:    -4.211      3.370      6.820
REMARK INTER + INTRA:          -9.643
REMARK INTER:                  -7.229
REMARK INTRA:                  -2.414
REMARK UNBOUND:                -1.492
REMARK SMILES CCCCCCCCCCCCCCCCCC(=O)[O-]
REMARK SMILES IDX 10 1 11 2 12 3 13 4 14 5 15 6 16 7 17 8 18 9 19 10 20 11
REMARK SMILES IDX 9 12 8 13 7 14 6 15 5 16 4 17 3 18 2 19 1 20
REMARK H PARENT
REMARK Flexibility Score: inf
ROOT
ATOM      1  C   UNL     1      17.079  20.764 -18.227  1.00  0.00     0.000 C 
ENDROOT
BRANCH   1   2
ATOM      2  C   UNL     1      15.886  21.668 -18.570  1.00  0.00     0.000 C 
BRANCH   2   3
ATOM      3  C   UNL     1      14.559  20.981 -18.227  1.00  0.00     0.000 C 
BRANCH   3   4
ATOM      4  C   UNL     1      13.375  21.714 -18.874  1.00  0.00     0.000 C 
BRANCH   4   5
ATOM      5  C   UNL     1      13.810  22.658 -20.006  1.00  0.00     0.000 C 
BRANCH   5   6
ATOM      6  C   UNL     1      12.628  23.125 -20.872  1.00  0.00     0.000 C 
BRANCH   6   7
ATOM      7  C   UNL     1      12.343  22.185 -22.058  1.00  0.00     0.006 C 
BRANCH   7   8
ATOM      8  C   UNL     1      13.590  21.835 -22.888  1.00  0.00     0.053 C 
BRANCH   8   9
ATOM      9  C   UNL     1      13.249  21.159 -24.181  1.00  0.00     0.041 C 
ATOM     10  O   UNL     1      13.079  19.912 -24.218  1.00  0.00    -0.550 OA
ATOM     11  O   UNL     1      13.151  21.900 -25.353  1.00  0.00    -0.550 OA
ENDBRANCH   8   9
ENDBRANCH   7   8
ENDBRANCH   6   7
ENDBRANCH   5   6
ENDBRANCH   4   5
ENDBRANCH   3   4
ENDBRANCH   2   3
ENDBRANCH   1   2
BRANCH   1  12
ATOM     12  C   UNL     1      16.787  19.824 -17.048  1.00  0.00     0.000 C 
BRANCH  12  13
ATOM     13  C   UNL     1      17.295  18.391 -17.293  1.00  0.00    -0.000 C 
BRANCH  13  14
ATOM     14  C   UNL     1      16.244  17.504 -17.978  1.00  0.00    -0.000 C 
BRANCH  14  15
ATOM     15  C   UNL     1      16.848  16.618 -19.082  1.00  0.00    -0.000 C 
BRANCH  15  16
ATOM     16  C   UNL     1      16.098  16.770 -20.422  1.00  0.00    -0.000 C 
BRANCH  16  17
ATOM     17  C   UNL     1      16.076  18.212 -20.957  1.00  0.00    -0.000 C 
BRANCH  17  18
ATOM     18  C   UNL     1      14.657  18.779 -21.089  1.00  0.00    -0.000 C 
BRANCH  18  19
ATOM     19  C   UNL     1      13.614  17.774 -20.587  1.00  0.00    -0.003 C 
ATOM     20  C   UNL     1      12.634  17.398 -21.695  1.00  0.00     0.004 C 
ENDBRANCH  18  19
ENDBRANCH  17  18
ENDBRANCH  16  17
ENDBRANCH  15  16
ENDBRANCH  14  15
ENDBRANCH  13  14
ENDBRANCH  12  13
ENDBRANCH   1  12
TORSDOF 16
ENDMDL
MODEL 5
REMARK VINA RESULT:    -4.194      3.902      8.673
REMARK INTER + INTRA:          -9.609
REMARK INTER:                  -8.569
REMARK INTRA:                  -1.040
REMARK UNBOUND:                -1.492
REMARK SMILES CCCCCCCCCCCCCCCCCC(=O)[O-]
REMARK SMILES IDX 10 1 11 2 12 3 13 4 14 5 15 6 16 7 17 8 18 9 19 10 20 11
REMARK SMILES IDX 9 12 8 13 7 14 6 15 5 16 4 17 3 18 2 19 1 20
REMARK H PARENT
REMARK Flexibility Score: inf
ROOT
ATOM      1  C   UNL     1      12.321  22.443 -19.297  1.00  0.00     0.000 C 
ENDROOT
BRANCH   1   2
ATOM      2  C   UNL     1      13.076  23.031 -20.498  1.00  0.00     0.000 C 
BRANCH   2   3
ATOM      3  C   UNL     1      12.344  22.727 -21.811  1.00  0.00     0.000 C 
BRANCH   3   4
ATOM      4  C   UNL     1      12.508  21.252 -22.204  1.00  0.00     0.000 C 
BRANCH   4   5
ATOM      5  C   UNL     1      13.431  21.063 -23.418  1.00  0.00     0.000 C 
BRANCH   5   6
ATOM      6  C   UNL     1      13.793  22.395 -24.098  1.00  0.00     0.000 C 
BRANCH   6   7
ATOM      7  C   UNL     1      13.415  22.432 -25.590  1.00  0.00     0.006 C 
BRANCH   7   8
ATOM      8  C   UNL     1      12.198  21.560 -25.945  1.00  0.00     0.053 C 
BRANCH   8   9
ATOM      9  C   UNL     1      12.517  20.517 -26.972  1.00  0.00     0.041 C 
ATOM     10  O   UNL     1      12.669  19.316 -26.628  1.00  0.00    -0.550 OA
ATOM     11  O   UNL     1      12.678  20.875 -28.305  1.00  0.00    -0.550 OA
ENDBRANCH   8   9
ENDBRANCH   7   8
ENDBRANCH   6   7
ENDBRANCH   5   6
ENDBRANCH   4   5
ENDBRANCH   3   4
ENDBRANCH   2   3
ENDBRANCH   1   2
BRANCH   1  12
ATOM     12  C   UNL     1      13.199  21.514 -18.445  1.00  0.00     0.000 C 
BRANCH  12  13
ATOM     13  C   UNL     1      14.644  21.421 -18.966  1.00  0.00    -0.000 C 
BRANCH  13  14
ATOM     14  C   UNL     1      15.636  20.984 -17.878  1.00  0.00    -0.000 C 
BRANCH  14  15
ATOM     15  C   UNL     1      17.095  21.307 -18.243  1.00  0.00    -0.000 C 
BRANCH  15  16
ATOM     16  C   UNL     1      18.081  20.870 -17.139  1.00  0.00    -0.000 C 
BRANCH  16  17
ATOM     17  C   UNL     1      17.968  19.381 -16.766  1.00  0.00    -0.000 C 
BRANCH  17  18
ATOM     18  C   UNL     1      19.102  18.906 -15.849  1.00  0.00    -0.000 C 
BRANCH  18  19
ATOM     19  C   UNL     1      20.240  18.278 -16.661  1.00  0.00    -0.003 C 
ATOM     20  C   UNL     1      20.517  16.848 -16.207  1.00  0.00     0.004 C 
ENDBRANCH  18  19
ENDBRANCH  17  18
ENDBRANCH  16  17
ENDBRANCH  15  16
ENDBRANCH  14  15
ENDBRANCH  13  14
ENDBRANCH  12  13
ENDBRANCH   1  12
TORSDOF 16
ENDMDL
MODEL 6
REMARK VINA RESULT:    -4.176      3.667      7.482
REMARK INTER + INTRA:          -9.574
REMARK INTER:                  -7.488
REMARK INTRA:                  -2.086
REMARK UNBOUND:                -1.492
REMARK SMILES CCCCCCCCCCCCCCCCCC(=O)[O-]
REMARK SMILES IDX 10 1 11 2 12 3 13 4 14 5 15 6 16 7 17 8 18 9 19 10 20 11
REMARK SMILES IDX 9 12 8 13 7 14 6 15 5 16 4 17 3 18 2 19 1 20
REMARK H PARENT
REMARK Flexibility Score: inf
ROOT
ATOM      1  C   UNL     1      17.763  21.071 -17.514  1.00  0.00     0.000 C 
ENDROOT
BRANCH   1   2
ATOM      2  C   UNL     1      16.283  20.666 -17.568  1.00  0.00     0.000 C 
BRANCH   2   3
ATOM      3  C   UNL     1      15.858  20.326 -19.002  1.00  0.00     0.000 C 
BRANCH   3   4
ATOM      4  C   UNL     1      14.329  20.317 -19.137  1.00  0.00     0.000 C 
BRANCH   4   5
ATOM      5  C   UNL     1      13.668  21.526 -18.457  1.00  0.00     0.000 C 
BRANCH   5   6
ATOM      6  C   UNL     1      12.195  21.702 -18.866  1.00  0.00     0.000 C 
BRANCH   6   7
ATOM      7  C   UNL     1      11.972  22.899 -19.809  1.00  0.00     0.006 C 
BRANCH   7   8
ATOM      8  C   UNL     1      13.153  23.174 -20.756  1.00  0.00     0.053 C 
BRANCH   8   9
ATOM      9  C   UNL     1      12.946  22.587 -22.119  1.00  0.00     0.041 C 
ATOM     10  O   UNL     1      12.409  23.274 -23.028  1.00  0.00    -0.550 OA
ATOM     11  O   UNL     1      13.316  21.273 -22.379  1.00  0.00    -0.550 OA
ENDBRANCH   8   9
ENDBRANCH   7   8
ENDBRANCH   6   7
ENDBRANCH   5   6
ENDBRANCH   4   5
ENDBRANCH   3   4
ENDBRANCH   2   3
ENDBRANCH   1   2
BRANCH   1  12
ATOM     12  C   UNL     1      18.616  20.085 -16.700  1.00  0.00     0.000 C 
BRANCH  12  13
ATOM     13  C   UNL     1      17.833  18.826 -16.288  1.00  0.00    -0.000 C 
BRANCH  13  14
ATOM     14  C   UNL     1      18.537  17.529 -16.717  1.00  0.00    -0.000 C 
BRANCH  14  15
ATOM     15  C   UNL     1      17.791  16.798 -17.847  1.00  0.00    -0.000 C 
BRANCH  15  16
ATOM     16  C   UNL     1      16.260  16.872 -17.674  1.00  0.00    -0.000 C 
BRANCH  16  17
ATOM     17  C   UNL     1      15.485  16.800 -19.002  1.00  0.00    -0.000 C 
BRANCH  17  18
ATOM     18  C   UNL     1      16.368  16.389 -20.187  1.00  0.00    -0.000 C 
BRANCH  18  19
ATOM     19  C   UNL     1      16.370  17.471 -21.272  1.00  0.00    -0.003 C 
ATOM     20  C   UNL     1      14.949  17.815 -21.709  1.00  0.00     0.004 C 
ENDBRANCH  18  19
ENDBRANCH  17  18
ENDBRANCH  16  17
ENDBRANCH  15  16
ENDBRANCH  14  15
ENDBRANCH  13  14
ENDBRANCH  12  13
ENDBRANCH   1  12
TORSDOF 16
ENDMDL
MODEL 7
REMARK VINA RESULT:    -4.133      2.280      6.358
REMARK INTER + INTRA:          -9.492
REMARK INTER:                  -7.411
REMARK INTRA:                  -2.081
REMARK UNBOUND:                -1.492
REMARK SMILES CCCCCCCCCCCCCCCCCC(=O)[O-]
REMARK SMILES IDX 10 1 11 2 12 3 13 4 14 5 15 6 16 7 17 8 18 9 19 10 20 11
REMARK SMILES IDX 9 12 8 13 7 14 6 15 5 16 4 17 3 18 2 19 1 20
REMARK H PARENT
REMARK Flexibility Score: inf
ROOT
ATOM      1  C   UNL     1      12.582  23.026 -22.447  1.00  0.00     0.000 C 
ENDROOT
BRANCH   1   2
ATOM      2  C   UNL     1      13.703  22.302 -23.206  1.00  0.00     0.000 C 
BRANCH   2   3
ATOM      3  C   UNL     1      13.149  21.558 -24.427  1.00  0.00     0.000 C 
BRANCH   3   4
ATOM      4  C   UNL     1      12.651  20.158 -24.041  1.00  0.00     0.000 C 
BRANCH   4   5
ATOM      5  C   UNL     1      13.560  19.470 -23.010  1.00  0.00     0.000 C 
BRANCH   5   6
ATOM      6  C   UNL     1      12.781  18.958 -21.785  1.00  0.00     0.000 C 
BRANCH   6   7
ATOM      7  C   UNL     1      13.095  17.489 -21.445  1.00  0.00     0.006 C 
BRANCH   7   8
ATOM      8  C   UNL     1      14.369  16.952 -22.120  1.00  0.00     0.053 C 
BRANCH   8   9
ATOM      9  C   UNL     1      15.562  16.995 -21.215  1.00  0.00     0.041 C 
ATOM     10  O   UNL     1      15.624  16.233 -20.215  1.00  0.00    -0.550 OA
ATOM     11  O   UNL     1      16.591  17.896 -21.457  1.00  0.00    -0.550 OA
ENDBRANCH   8   9
ENDBRANCH   7   8
ENDBRANCH   6   7
ENDBRANCH   5   6
ENDBRANCH   4   5
ENDBRANCH   3   4
ENDBRANCH   2   3
ENDBRANCH   1   2
BRANCH   1  12
ATOM     12  C   UNL     1      12.852  23.116 -20.937  1.00  0.00     0.000 C 
BRANCH  12  13
ATOM     13  C   UNL     1      12.003  22.124 -20.123  1.00  0.00    -0.000 C 
BRANCH  13  14
ATOM     14  C   UNL     1      12.756  21.564 -18.907  1.00  0.00    -0.000 C 
BRANCH  14  15
ATOM     15  C   UNL     1      14.275  21.479 -19.141  1.00  0.00    -0.000 C 
BRANCH  15  16
ATOM     16  C   UNL     1      14.789  20.025 -19.102  1.00  0.00    -0.000 C 
BRANCH  16  17
ATOM     17  C   UNL     1      16.129  19.863 -18.364  1.00  0.00    -0.000 C 
BRANCH  17  18
ATOM     18  C   UNL     1      16.641  21.177 -17.759  1.00  0.00    -0.000 C 
BRANCH  18  19
ATOM     19  C   UNL     1      18.167  21.163 -17.624  1.00  0.00    -0.003 C 
ATOM     20  C   UNL     1      18.633  19.987 -16.770  1.00  0.00     0.004 C 
ENDBRANCH  18  19
ENDBRANCH  17  18
ENDBRANCH  16  17
ENDBRANCH  15  16
ENDBRANCH  14  15
ENDBRANCH  13  14
ENDBRANCH  12  13
ENDBRANCH   1  12
TORSDOF 16
ENDMDL
MODEL 8
REMARK VINA RESULT:    -4.089      1.201      2.709
REMARK INTER + INTRA:          -9.406
REMARK INTER:                  -7.385
REMARK INTRA:                  -2.021
REMARK UNBOUND:                -1.492
REMARK SMILES CCCCCCCCCCCCCCCCCC(=O)[O-]
REMARK SMILES IDX 10 1 11 2 12 3 13 4 14 5 15 6 16 7 17 8 18 9 19 10 20 11
REMARK SMILES IDX 9 12 8 13 7 14 6 15 5 16 4 17 3 18 2 19 1 20
REMARK H PARENT
REMARK Flexibility Score: inf
ROOT
ATOM      1  C   UNL     1      13.576  22.086 -23.336  1.00  0.00     0.000 C 
ENDROOT
BRANCH   1   2
ATOM      2  C   UNL     1      12.355  22.592 -22.554  1.00  0.00     0.000 C 
BRANCH   2   3
ATOM      3  C   UNL     1      12.726  22.910 -21.100  1.00  0.00     0.000 C 
BRANCH   3   4
ATOM      4  C   UNL     1      11.980  21.987 -20.126  1.00  0.00     0.000 C 
BRANCH   4   5
ATOM      5  C   UNL     1      12.789  21.693 -18.853  1.00  0.00     0.000 C 
BRANCH   5   6
ATOM      6  C   UNL     1      14.265  21.377 -19.151  1.00  0.00     0.000 C 
BRANCH   6   7
ATOM      7  C   UNL     1      15.091  21.103 -17.880  1.00  0.00     0.006 C 
BRANCH   7   8
ATOM      8  C   UNL     1      16.152  20.003 -18.053  1.00  0.00     0.053 C 
BRANCH   8   9
ATOM      9  C   UNL     1      17.475  20.382 -17.460  1.00  0.00     0.041 C 
ATOM     10  O   UNL     1      17.962  19.705 -16.517  1.00  0.00    -0.550 OA
ATOM     11  O   UNL     1      18.155  21.500 -17.926  1.00  0.00    -0.550 OA
ENDBRANCH   8   9
ENDBRANCH   7   8
ENDBRANCH   6   7
ENDBRANCH   5   6
ENDBRANCH   4   5
ENDBRANCH   3   4
ENDBRANCH   2   3
ENDBRANCH   1   2
BRANCH   1  12
ATOM     12  C   UNL     1      13.416  22.254 -24.854  1.00  0.00     0.000 C 
BRANCH  12  13
ATOM     13  C   UNL     1      12.169  21.536 -25.401  1.00  0.00    -0.000 C 
BRANCH  13  14
ATOM     14  C   UNL     1      12.490  20.138 -25.954  1.00  0.00    -0.000 C 
BRANCH  14  15
ATOM     15  C   UNL     1      11.875  19.012 -25.105  1.00  0.00    -0.000 C 
BRANCH  15  16
ATOM     16  C   UNL     1      12.842  18.517 -24.008  1.00  0.00    -0.000 C 
BRANCH  16  17
ATOM     17  C   UNL     1      12.161  18.271 -22.651  1.00  0.00    -0.000 C 
BRANCH  17  18
ATOM     18  C   UNL     1      12.999  18.761 -21.463  1.00  0.00    -0.000 C 
BRANCH  18  19
ATOM     19  C   UNL     1      14.307  17.970 -21.349  1.00  0.00    -0.003 C 
ATOM     20  C   UNL     1      14.530  17.478 -19.922  1.00  0.00     0.004 C 
ENDBRANCH  18  19
ENDBRANCH  17  18
ENDBRANCH  16  17
ENDBRANCH  15  16
ENDBRANCH  14  15
ENDBRANCH  13  14
ENDBRANCH  12  13
ENDBRANCH   1  12
TORSDOF 16
ENDMDL
