MODEL 1
REMARK VINA RESULT:    -5.521      0.000      0.000
REMARK INTER + INTRA:          -6.615
REMARK INTER:                  -6.490
REMARK INTRA:                  -0.126
REMARK UNBOUND:                -0.126
REMARK SMILES O=C([O-])C=Cc1ccc(O)c(O)c1
REMARK SMILES IDX 6 1 13 2 7 3 11 4 8 5 9 6 5 7 4 8 2 9 1 10 3 11 12 12 10 14
REMARK H PARENT 12 13 10 15
REMARK Flexibility Score: inf
ROOT
ATOM      1  C   UNL     1      19.912 -13.363  13.859  1.00  0.00    -0.022 A 
ATOM      2  C   UNL     1      20.313 -14.656  14.242  1.00  0.00     0.058 A 
ATOM      3  C   UNL     1      19.439 -12.477  14.848  1.00  0.00     0.012 A 
ATOM      4  C   UNL     1      20.220 -15.067  15.579  1.00  0.00     0.157 A 
ATOM      5  C   UNL     1      19.349 -12.889  16.181  1.00  0.00     0.051 A 
ATOM      6  C   UNL     1      19.735 -14.183  16.549  1.00  0.00     0.157 A 
ENDROOT
BRANCH   1   7
ATOM      7  C   UNL     1      20.040 -12.974  12.433  1.00  0.00     0.010 C 
ATOM      8  C   UNL     1      19.207 -13.391  11.470  1.00  0.00     0.025 C 
BRANCH   8   9
ATOM      9  C   UNL     1      19.378 -12.989  10.065  1.00  0.00     0.064 C 
ATOM     10  O   UNL     1      18.366 -12.710   9.370  1.00  0.00    -0.545 OA
ATOM     11  O   UNL     1      20.641 -12.907   9.490  1.00  0.00    -0.545 OA
ENDBRANCH   8   9
ENDBRANCH   1   7
BRANCH   4  12
ATOM     12  O   UNL     1      20.610 -16.353  15.949  1.00  0.00    -0.504 OA
ATOM     13  H   UNL     1      20.716 -16.615  16.923  1.00  0.00     0.293 HD
ENDBRANCH   4  12
BRANCH   6  14
ATOM     14  O   UNL     1      19.644 -14.595  17.878  1.00  0.00    -0.504 OA
ATOM     15  H   UNL     1      19.838 -15.551  18.150  1.00  0.00     0.293 HD
ENDBRANCH   6  14
TORSDOF 4
ENDMDL
MODEL 2
REMARK VINA RESULT:    -5.487      9.906     13.391
REMARK INTER + INTRA:          -6.575
REMARK INTER:                  -6.448
REMARK INTRA:                  -0.127
REMARK UNBOUND:                -0.126
REMARK SMILES O=C([O-])C=Cc1ccc(O)c(O)c1
REMARK SMILES IDX 6 1 13 2 7 3 11 4 8 5 9 6 5 7 4 8 2 9 1 10 3 11 12 12 10 14
REMARK H PARENT 12 13 10 15
REMARK Flexibility Score: inf
ROOT
ATOM      1  C   UNL     1      20.138  -7.649  24.225  1.00  0.00    -0.022 A 
ATOM      2  C   UNL     1      19.685  -8.759  23.490  1.00  0.00     0.058 A 
ATOM      3  C   UNL     1      20.321  -6.421  23.559  1.00  0.00     0.012 A 
ATOM      4  C   UNL     1      19.444  -8.655  22.113  1.00  0.00     0.157 A 
ATOM      5  C   UNL     1      20.079  -6.319  22.186  1.00  0.00     0.051 A 
ATOM      6  C   UNL     1      19.643  -7.434  21.460  1.00  0.00     0.157 A 
ENDROOT
BRANCH   1   7
ATOM      7  C   UNL     1      20.369  -7.809  25.682  1.00  0.00     0.010 C 
ATOM      8  C   UNL     1      19.385  -7.955  26.581  1.00  0.00     0.025 C 
BRANCH   8   9
ATOM      9  C   UNL     1      19.660  -8.099  28.019  1.00  0.00     0.064 C 
ATOM     10  O   UNL     1      18.707  -8.068  28.840  1.00  0.00    -0.545 OA
ATOM     11  O   UNL     1      20.958  -8.274  28.487  1.00  0.00    -0.545 OA
ENDBRANCH   8   9
ENDBRANCH   1   7
BRANCH   4  12
ATOM     12  O   UNL     1      19.004  -9.762  21.389  1.00  0.00    -0.504 OA
ATOM     13  H   UNL     1      19.106 -10.704  21.747  1.00  0.00     0.293 HD
ENDBRANCH   4  12
BRANCH   6  14
ATOM     14  O   UNL     1      19.402  -7.334  20.090  1.00  0.00    -0.504 OA
ATOM     15  H   UNL     1      20.124  -7.537  19.409  1.00  0.00     0.293 HD
ENDBRANCH   6  14
TORSDOF 4
ENDMDL
MODEL 3
REMARK VINA RESULT:    -5.444      9.630     13.074
REMARK INTER + INTRA:          -6.524
REMARK INTER:                  -6.397
REMARK INTRA:                  -0.127
REMARK UNBOUND:                -0.126
REMARK SMILES O=C([O-])C=Cc1ccc(O)c(O)c1
REMARK SMILES IDX 6 1 13 2 7 3 11 4 8 5 9 6 5 7 4 8 2 9 1 10 3 11 12 12 10 14
REMARK H PARENT 12 13 10 15
REMARK Flexibility Score: inf
ROOT
ATOM      1  C   UNL     1      19.845  -7.720  23.173  1.00  0.00    -0.022 A 
ATOM      2  C   UNL     1      20.211  -6.393  22.887  1.00  0.00     0.058 A 
ATOM      3  C   UNL     1      19.500  -8.576  22.109  1.00  0.00     0.012 A 
ATOM      4  C   UNL     1      20.208  -5.919  21.567  1.00  0.00     0.157 A 
ATOM      5  C   UNL     1      19.498  -8.102  20.793  1.00  0.00     0.051 A 
ATOM      6  C   UNL     1      19.849  -6.774  20.520  1.00  0.00     0.157 A 
ENDROOT
BRANCH   1   7
ATOM      7  C   UNL     1      19.874  -8.174  24.586  1.00  0.00     0.010 C 
ATOM      8  C   UNL     1      19.314  -7.498  25.598  1.00  0.00     0.025 C 
BRANCH   8   9
ATOM      9  C   UNL     1      19.378  -7.981  26.986  1.00  0.00     0.064 C 
ATOM     10  O   UNL     1      18.314  -8.285  27.588  1.00  0.00    -0.545 OA
ATOM     11  O   UNL     1      20.594  -8.112  27.646  1.00  0.00    -0.545 OA
ENDBRANCH   8   9
ENDBRANCH   1   7
BRANCH   4  12
ATOM     12  O   UNL     1      20.562  -4.599  21.291  1.00  0.00    -0.504 OA
ATOM     13  H   UNL     1      19.884  -3.848  21.336  1.00  0.00     0.293 HD
ENDBRANCH   4  12
BRANCH   6  14
ATOM     14  O   UNL     1      19.846  -6.300  19.208  1.00  0.00    -0.504 OA
ATOM     15  H   UNL     1      19.195  -6.652  18.518  1.00  0.00     0.293 HD
ENDBRANCH   6  14
TORSDOF 4
ENDMDL
MODEL 4
REMARK VINA RESULT:    -5.350      1.294      2.216
REMARK INTER + INTRA:          -6.414
REMARK INTER:                  -6.282
REMARK INTRA:                  -0.132
REMARK UNBOUND:                -0.126
REMARK SMILES O=C([O-])C=Cc1ccc(O)c(O)c1
REMARK SMILES IDX 6 1 13 2 7 3 11 4 8 5 9 6 5 7 4 8 2 9 1 10 3 11 12 12 10 14
REMARK H PARENT 12 13 10 15
REMARK Flexibility Score: inf
ROOT
ATOM      1  C   UNL     1      19.893 -13.258  13.666  1.00  0.00    -0.022 A 
ATOM      2  C   UNL     1      20.242 -12.200  14.524  1.00  0.00     0.058 A 
ATOM      3  C   UNL     1      19.912 -14.575  14.167  1.00  0.00     0.012 A 
ATOM      4  C   UNL     1      20.627 -12.451  15.849  1.00  0.00     0.157 A 
ATOM      5  C   UNL     1      20.295 -14.823  15.489  1.00  0.00     0.051 A 
ATOM      6  C   UNL     1      20.655 -13.764  16.331  1.00  0.00     0.157 A 
ENDROOT
BRANCH   1   7
ATOM      7  C   UNL     1      19.484 -12.939  12.276  1.00  0.00     0.010 C 
ATOM      8  C   UNL     1      20.150 -13.352  11.190  1.00  0.00     0.025 C 
BRANCH   8   9
ATOM      9  C   UNL     1      19.714 -13.002   9.829  1.00  0.00     0.064 C 
ATOM     10  O   UNL     1      20.556 -12.977   8.893  1.00  0.00    -0.545 OA
ATOM     11  O   UNL     1      18.384 -12.701   9.557  1.00  0.00    -0.545 OA
ENDBRANCH   8   9
ENDBRANCH   1   7
BRANCH   4  12
ATOM     12  O   UNL     1      20.980 -11.398  16.691  1.00  0.00    -0.504 OA
ATOM     13  H   UNL     1      21.945 -11.109  16.803  1.00  0.00     0.293 HD
ENDBRANCH   4  12
BRANCH   6  14
ATOM     14  O   UNL     1      21.039 -14.009  17.649  1.00  0.00    -0.504 OA
ATOM     15  H   UNL     1      21.705 -14.737  17.880  1.00  0.00     0.293 HD
ENDBRANCH   6  14
TORSDOF 4
ENDMDL
MODEL 5
REMARK VINA RESULT:    -5.226      8.399     11.515
REMARK INTER + INTRA:          -6.268
REMARK INTER:                  -6.130
REMARK INTRA:                  -0.138
REMARK UNBOUND:                -0.126
REMARK SMILES O=C([O-])C=Cc1ccc(O)c(O)c1
REMARK SMILES IDX 6 1 13 2 7 3 11 4 8 5 9 6 5 7 4 8 2 9 1 10 3 11 12 12 10 14
REMARK H PARENT 12 13 10 15
REMARK Flexibility Score: inf
ROOT
ATOM      1  C   UNL     1      19.156  -6.877  21.016  1.00  0.00    -0.022 A 
ATOM      2  C   UNL     1      20.020  -6.855  19.907  1.00  0.00     0.058 A 
ATOM      3  C   UNL     1      17.793  -7.170  20.811  1.00  0.00     0.012 A 
ATOM      4  C   UNL     1      19.532  -7.094  18.615  1.00  0.00     0.157 A 
ATOM      5  C   UNL     1      17.308  -7.409  19.521  1.00  0.00     0.051 A 
ATOM      6  C   UNL     1      18.173  -7.369  18.422  1.00  0.00     0.157 A 
ENDROOT
BRANCH   1   7
ATOM      7  C   UNL     1      19.724  -6.628  22.364  1.00  0.00     0.010 C 
ATOM      8  C   UNL     1      19.423  -7.358  23.446  1.00  0.00     0.025 C 
BRANCH   8   9
ATOM      9  C   UNL     1      20.002  -7.067  24.767  1.00  0.00     0.064 C 
ATOM     10  O   UNL     1      20.942  -6.235  24.864  1.00  0.00    -0.545 OA
ATOM     11  O   UNL     1      19.526  -7.693  25.913  1.00  0.00    -0.545 OA
ENDBRANCH   8   9
ENDBRANCH   1   7
BRANCH   4  12
ATOM     12  O   UNL     1      20.392  -7.061  17.519  1.00  0.00    -0.504 OA
ATOM     13  H   UNL     1      20.134  -6.598  16.656  1.00  0.00     0.293 HD
ENDBRANCH   4  12
BRANCH   6  14
ATOM     14  O   UNL     1      17.691  -7.606  17.135  1.00  0.00    -0.504 OA
ATOM     15  H   UNL     1      17.026  -8.346  16.946  1.00  0.00     0.293 HD
ENDBRANCH   6  14
TORSDOF 4
ENDMDL
MODEL 6
REMARK VINA RESULT:    -5.186      2.030      3.033
REMARK INTER + INTRA:          -6.221
REMARK INTER:                  -6.083
REMARK INTRA:                  -0.137
REMARK UNBOUND:                -0.126
REMARK SMILES O=C([O-])C=Cc1ccc(O)c(O)c1
REMARK SMILES IDX 6 1 13 2 7 3 11 4 8 5 9 6 5 7 4 8 2 9 1 10 3 11 12 12 10 14
REMARK H PARENT 12 13 10 15
REMARK Flexibility Score: inf
ROOT
ATOM      1  C   UNL     1      19.204 -14.156  16.174  1.00  0.00    -0.022 A 
ATOM      2  C   UNL     1      20.051 -14.337  17.281  1.00  0.00     0.058 A 
ATOM      3  C   UNL     1      17.899 -13.668  16.388  1.00  0.00     0.012 A 
ATOM      4  C   UNL     1      19.600 -14.061  18.580  1.00  0.00     0.157 A 
ATOM      5  C   UNL     1      17.452 -13.392  17.683  1.00  0.00     0.051 A 
ATOM      6  C   UNL     1      18.298 -13.590  18.781  1.00  0.00     0.157 A 
ENDROOT
BRANCH   1   7
ATOM      7  C   UNL     1      19.733 -14.454  14.820  1.00  0.00     0.010 C 
ATOM      8  C   UNL     1      19.580 -13.641  13.765  1.00  0.00     0.025 C 
BRANCH   8   9
ATOM      9  C   UNL     1      20.111 -13.982  12.436  1.00  0.00     0.064 C 
ATOM     10  O   UNL     1      21.045 -14.821  12.337  1.00  0.00    -0.545 OA
ATOM     11  O   UNL     1      19.597 -13.396  11.286  1.00  0.00    -0.545 OA
ENDBRANCH   8   9
ENDBRANCH   1   7
BRANCH   4  12
ATOM     12  O   UNL     1      20.443 -14.251  19.674  1.00  0.00    -0.504 OA
ATOM     13  H   UNL     1      20.588 -13.523  20.364  1.00  0.00     0.293 HD
ENDBRANCH   4  12
BRANCH   6  14
ATOM     14  O   UNL     1      17.853 -13.316  20.074  1.00  0.00    -0.504 OA
ATOM     15  H   UNL     1      17.995 -12.410  20.502  1.00  0.00     0.293 HD
ENDBRANCH   6  14
TORSDOF 4
ENDMDL
MODEL 7
REMARK VINA RESULT:    -5.076      8.107     11.397
REMARK INTER + INTRA:          -6.092
REMARK INTER:                  -5.962
REMARK INTRA:                  -0.130
REMARK UNBOUND:                -0.126
REMARK SMILES O=C([O-])C=Cc1ccc(O)c(O)c1
REMARK SMILES IDX 6 1 13 2 7 3 11 4 8 5 9 6 5 7 4 8 2 9 1 10 3 11 12 12 10 14
REMARK H PARENT 12 13 10 15
REMARK Flexibility Score: inf
ROOT
ATOM      1  C   UNL     1      18.647  -7.503  21.552  1.00  0.00    -0.022 A 
ATOM      2  C   UNL     1      19.015  -8.791  21.127  1.00  0.00     0.058 A 
ATOM      3  C   UNL     1      17.655  -6.806  20.832  1.00  0.00     0.012 A 
ATOM      4  C   UNL     1      18.426  -9.366  19.992  1.00  0.00     0.157 A 
ATOM      5  C   UNL     1      17.068  -7.382  19.702  1.00  0.00     0.051 A 
ATOM      6  C   UNL     1      17.452  -8.659  19.278  1.00  0.00     0.157 A 
ENDROOT
BRANCH   1   7
ATOM      7  C   UNL     1      19.294  -6.943  22.765  1.00  0.00     0.010 C 
ATOM      8  C   UNL     1      19.365  -7.590  23.936  1.00  0.00     0.025 C 
BRANCH   8   9
ATOM      9  C   UNL     1      20.006  -6.992  25.118  1.00  0.00     0.064 C 
ATOM     10  O   UNL     1      21.004  -6.239  24.969  1.00  0.00    -0.545 OA
ATOM     11  O   UNL     1      19.526  -7.241  26.398  1.00  0.00    -0.545 OA
ENDBRANCH   8   9
ENDBRANCH   1   7
BRANCH   4  12
ATOM     12  O   UNL     1      18.802 -10.641  19.571  1.00  0.00    -0.504 OA
ATOM     13  H   UNL     1      18.288 -11.466  19.855  1.00  0.00     0.293 HD
ENDBRANCH   4  12
BRANCH   6  14
ATOM     14  O   UNL     1      16.868  -9.234  18.149  1.00  0.00    -0.504 OA
ATOM     15  H   UNL     1      16.768 -10.238  18.058  1.00  0.00     0.293 HD
ENDBRANCH   6  14
TORSDOF 4
ENDMDL
MODEL 8
REMARK VINA RESULT:    -5.047      2.482      3.541
REMARK INTER + INTRA:          -6.058
REMARK INTER:                  -5.926
REMARK INTRA:                  -0.132
REMARK UNBOUND:                -0.126
REMARK SMILES O=C([O-])C=Cc1ccc(O)c(O)c1
REMARK SMILES IDX 6 1 13 2 7 3 11 4 8 5 9 6 5 7 4 8 2 9 1 10 3 11 12 12 10 14
REMARK H PARENT 12 13 10 15
REMARK Flexibility Score: inf
ROOT
ATOM      1  C   UNL     1      18.768 -13.266  15.623  1.00  0.00    -0.022 A 
ATOM      2  C   UNL     1      18.996 -11.928  15.988  1.00  0.00     0.058 A 
ATOM      3  C   UNL     1      17.834 -14.022  16.358  1.00  0.00     0.012 A 
ATOM      4  C   UNL     1      18.325 -11.360  17.080  1.00  0.00     0.157 A 
ATOM      5  C   UNL     1      17.165 -13.454  17.447  1.00  0.00     0.051 A 
ATOM      6  C   UNL     1      17.410 -12.125  17.811  1.00  0.00     0.157 A 
ENDROOT
BRANCH   1   7
ATOM      7  C   UNL     1      19.496 -13.817  14.453  1.00  0.00     0.010 C 
ATOM      8  C   UNL     1      19.647 -13.161  13.294  1.00  0.00     0.025 C 
BRANCH   8   9
ATOM      9  C   UNL     1      20.367 -13.751  12.154  1.00  0.00     0.064 C 
ATOM     10  O   UNL     1      20.949 -14.859  12.293  1.00  0.00    -0.545 OA
ATOM     11  O   UNL     1      20.414 -13.107  10.923  1.00  0.00    -0.545 OA
ENDBRANCH   8   9
ENDBRANCH   1   7
BRANCH   4  12
ATOM     12  O   UNL     1      18.563 -10.035  17.442  1.00  0.00    -0.504 OA
ATOM     13  H   UNL     1      18.545  -9.738  18.411  1.00  0.00     0.293 HD
ENDBRANCH   4  12
BRANCH   6  14
ATOM     14  O   UNL     1      16.745 -11.557  18.898  1.00  0.00    -0.504 OA
ATOM     15  H   UNL     1      17.157 -11.544  19.823  1.00  0.00     0.293 HD
ENDBRANCH   6  14
TORSDOF 4
ENDMDL
MODEL 9
REMARK VINA RESULT:    -5.018      3.256      5.684
REMARK INTER + INTRA:          -6.024
REMARK INTER:                  -5.892
REMARK INTRA:                  -0.131
REMARK UNBOUND:                -0.126
REMARK SMILES O=C([O-])C=Cc1ccc(O)c(O)c1
REMARK SMILES IDX 6 1 13 2 7 3 11 4 8 5 9 6 5 7 4 8 2 9 1 10 3 11 12 12 10 14
REMARK H PARENT 12 13 10 15
REMARK Flexibility Score: inf
ROOT
ATOM      1  C   UNL     1      19.822 -13.425  16.127  1.00  0.00    -0.022 A 
ATOM      2  C   UNL     1      19.038 -12.554  16.903  1.00  0.00     0.058 A 
ATOM      3  C   UNL     1      20.253 -13.001  14.854  1.00  0.00     0.012 A 
ATOM      4  C   UNL     1      18.667 -11.295  16.411  1.00  0.00     0.157 A 
ATOM      5  C   UNL     1      19.884 -11.744  14.366  1.00  0.00     0.051 A 
ATOM      6  C   UNL     1      19.089 -10.890  15.140  1.00  0.00     0.157 A 
ENDROOT
BRANCH   1   7
ATOM      7  C   UNL     1      20.195 -14.743  16.697  1.00  0.00     0.010 C 
ATOM      8  C   UNL     1      20.036 -15.906  16.051  1.00  0.00     0.025 C 
BRANCH   8   9
ATOM      9  C   UNL     1      20.410 -17.193  16.660  1.00  0.00     0.064 C 
ATOM     10  O   UNL     1      21.537 -17.318  17.206  1.00  0.00    -0.545 OA
ATOM     11  O   UNL     1      19.536 -18.274  16.647  1.00  0.00    -0.545 OA
ENDBRANCH   8   9
ENDBRANCH   1   7
BRANCH   4  12
ATOM     12  O   UNL     1      17.881 -10.440  17.182  1.00  0.00    -0.504 OA
ATOM     13  H   UNL     1      17.874  -9.439  17.024  1.00  0.00     0.293 HD
ENDBRANCH   4  12
BRANCH   6  14
ATOM     14  O   UNL     1      18.719  -9.637  14.654  1.00  0.00    -0.504 OA
ATOM     15  H   UNL     1      19.231  -8.800  14.902  1.00  0.00     0.293 HD
ENDBRANCH   6  14
TORSDOF 4
ENDMDL
