MODEL 1
REMARK VINA RESULT:    -0.030      0.000      0.000
REMARK INTER + INTRA:          -0.184
REMARK INTER:                  -0.066
REMARK INTRA:                  -0.118
REMARK UNBOUND:                -0.118
REMARK SMILES CCCCCCCCCCCCCCCCCCCCCC(=O)[O-]
REMARK SMILES IDX 12 1 11 2 10 3 9 4 8 5 7 6 6 7 5 8 4 9 3 10 2 11 1 12 13 13
REMARK SMILES IDX 14 14 15 15 16 16 17 17 18 18 19 19 20 20 21 21 22 22 23 23
REMARK SMILES IDX 24 24
REMARK H PARENT
REMARK Flexibility Score: inf
ROOT
ATOM      1  C   UNL     1      -9.917  -5.539  -7.854  1.00  0.00     0.000 C 
ENDROOT
BRANCH   1   2
ATOM      2  C   UNL     1      -8.813  -6.049  -6.911  1.00  0.00     0.000 C 
BRANCH   2   3
ATOM      3  C   UNL     1      -8.588  -5.118  -5.710  1.00  0.00     0.000 C 
BRANCH   3   4
ATOM      4  C   UNL     1      -7.184  -4.484  -5.701  1.00  0.00    -0.000 C 
BRANCH   4   5
ATOM      5  C   UNL     1      -6.629  -4.289  -7.128  1.00  0.00    -0.000 C 
BRANCH   5   6
ATOM      6  C   UNL     1      -5.991  -5.555  -7.727  1.00  0.00    -0.000 C 
BRANCH   6   7
ATOM      7  C   UNL     1      -6.080  -5.605  -9.260  1.00  0.00    -0.000 C 
BRANCH   7   8
ATOM      8  C   UNL     1      -4.709  -5.469  -9.942  1.00  0.00    -0.000 C 
BRANCH   8   9
ATOM      9  C   UNL     1      -3.731  -6.588  -9.537  1.00  0.00    -0.000 C 
BRANCH   9  10
ATOM     10  C   UNL     1      -4.448  -7.899  -9.175  1.00  0.00    -0.000 C 
BRANCH  10  11
ATOM     11  C   UNL     1      -4.072  -9.058 -10.110  1.00  0.00    -0.003 C 
ATOM     12  C   UNL     1      -3.201 -10.084  -9.389  1.00  0.00     0.004 C 
ENDBRANCH  10  11
ENDBRANCH   9  10
ENDBRANCH   8   9
ENDBRANCH   7   8
ENDBRANCH   6   7
ENDBRANCH   5   6
ENDBRANCH   4   5
ENDBRANCH   3   4
ENDBRANCH   2   3
ENDBRANCH   1   2
BRANCH   1  13
ATOM     13  C   UNL     1     -10.105  -6.433  -9.092  1.00  0.00     0.000 C 
BRANCH  13  14
ATOM     14  C   UNL     1      -9.997  -7.949  -8.835  1.00  0.00     0.000 C 
BRANCH  14  15
ATOM     15  C   UNL     1      -9.963  -8.806 -10.119  1.00  0.00     0.000 C 
BRANCH  15  16
ATOM     16  C   UNL     1      -9.140 -10.095  -9.948  1.00  0.00     0.000 C 
BRANCH  16  17
ATOM     17  C   UNL     1      -7.628  -9.821  -9.832  1.00  0.00     0.000 C 
BRANCH  17  18
ATOM     18  C   UNL     1      -7.190  -9.220  -8.481  1.00  0.00     0.000 C 
BRANCH  18  19
ATOM     19  C   UNL     1      -6.155 -10.097  -7.750  1.00  0.00     0.000 C 
BRANCH  19  20
ATOM     20  C   UNL     1      -5.791  -9.546  -6.363  1.00  0.00     0.006 C 
BRANCH  20  21
ATOM     21  C   UNL     1      -4.475 -10.123  -5.824  1.00  0.00     0.053 C 
BRANCH  21  22
ATOM     22  C   UNL     1      -3.329  -9.219  -6.161  1.00  0.00     0.041 C 
ATOM     23  O   UNL     1      -3.503  -7.974  -6.237  1.00  0.00    -0.550 OA
ATOM     24  O   UNL     1      -2.065  -9.750  -6.386  1.00  0.00    -0.550 OA
ENDBRANCH  21  22
ENDBRANCH  20  21
ENDBRANCH  19  20
ENDBRANCH  18  19
ENDBRANCH  17  18
ENDBRANCH  16  17
ENDBRANCH  15  16
ENDBRANCH  14  15
ENDBRANCH  13  14
ENDBRANCH   1  13
TORSDOF 20
ENDMDL
MODEL 2
REMARK VINA RESULT:     0.894     16.923     19.242
REMARK INTER + INTRA:           1.820
REMARK INTER:                   3.507
REMARK INTRA:                  -1.686
REMARK UNBOUND:                -0.118
REMARK SMILES CCCCCCCCCCCCCCCCCCCCCC(=O)[O-]
REMARK SMILES IDX 12 1 11 2 10 3 9 4 8 5 7 6 6 7 5 8 4 9 3 10 2 11 1 12 13 13
REMARK SMILES IDX 14 14 15 15 16 16 17 17 18 18 19 19 20 20 21 21 22 22 23 23
REMARK SMILES IDX 24 24
REMARK H PARENT
REMARK Flexibility Score: inf
ROOT
ATOM      1  C   UNL     1       4.714   4.473   1.148  1.00  0.00     0.000 C 
ENDROOT
BRANCH   1   2
ATOM      2  C   UNL     1       5.312   5.221   2.354  1.00  0.00     0.000 C 
BRANCH   2   3
ATOM      3  C   UNL     1       6.423   6.202   1.946  1.00  0.00     0.000 C 
BRANCH   3   4
ATOM      4  C   UNL     1       7.570   5.518   1.178  1.00  0.00    -0.000 C 
BRANCH   4   5
ATOM      5  C   UNL     1       8.837   6.399   1.125  1.00  0.00    -0.000 C 
BRANCH   5   6
ATOM      6  C   UNL     1      10.017   5.842   1.941  1.00  0.00    -0.000 C 
BRANCH   6   7
ATOM      7  C   UNL     1       9.643   4.604   2.769  1.00  0.00    -0.000 C 
BRANCH   7   8
ATOM      8  C   UNL     1       9.827   4.819   4.280  1.00  0.00    -0.000 C 
BRANCH   8   9
ATOM      9  C   UNL     1       9.796   6.307   4.676  1.00  0.00    -0.000 C 
BRANCH   9  10
ATOM     10  C   UNL     1       8.510   6.695   5.423  1.00  0.00    -0.000 C 
BRANCH  10  11
ATOM     11  C   UNL     1       7.832   7.940   4.831  1.00  0.00    -0.003 C 
ATOM     12  C   UNL     1       8.868   8.988   4.426  1.00  0.00     0.004 C 
ENDBRANCH  10  11
ENDBRANCH   9  10
ENDBRANCH   8   9
ENDBRANCH   7   8
ENDBRANCH   6   7
ENDBRANCH   5   6
ENDBRANCH   4   5
ENDBRANCH   3   4
ENDBRANCH   2   3
ENDBRANCH   1   2
BRANCH   1  13
ATOM     13  C   UNL     1       3.555   3.542   1.540  1.00  0.00     0.000 C 
BRANCH  13  14
ATOM     14  C   UNL     1       2.795   2.901   0.362  1.00  0.00     0.000 C 
BRANCH  14  15
ATOM     15  C   UNL     1       2.810   1.357   0.366  1.00  0.00     0.000 C 
BRANCH  15  16
ATOM     16  C   UNL     1       2.290   0.758  -0.953  1.00  0.00     0.000 C 
BRANCH  16  17
ATOM     17  C   UNL     1       1.522  -0.561  -0.743  1.00  0.00     0.000 C 
BRANCH  17  18
ATOM     18  C   UNL     1       1.549  -1.091   0.705  1.00  0.00     0.000 C 
BRANCH  18  19
ATOM     19  C   UNL     1       0.850  -2.457   0.849  1.00  0.00     0.000 C 
BRANCH  19  20
ATOM     20  C   UNL     1       0.346  -2.713   2.277  1.00  0.00     0.006 C 
BRANCH  20  21
ATOM     21  C   UNL     1      -1.175  -2.913   2.341  1.00  0.00     0.053 C 
BRANCH  21  22
ATOM     22  C   UNL     1      -1.699  -2.515   3.687  1.00  0.00     0.041 C 
ATOM     23  O   UNL     1      -1.390  -3.179   4.710  1.00  0.00    -0.550 OA
ATOM     24  O   UNL     1      -2.526  -1.405   3.812  1.00  0.00    -0.550 OA
ENDBRANCH  21  22
ENDBRANCH  20  21
ENDBRANCH  19  20
ENDBRANCH  18  19
ENDBRANCH  17  18
ENDBRANCH  16  17
ENDBRANCH  15  16
ENDBRANCH  14  15
ENDBRANCH  13  14
ENDBRANCH   1  13
TORSDOF 20
ENDMDL
MODEL 3
REMARK VINA RESULT:     0.972     17.245     20.080
REMARK INTER + INTRA:           1.990
REMARK INTER:                   3.274
REMARK INTRA:                  -1.285
REMARK UNBOUND:                -0.118
REMARK SMILES CCCCCCCCCCCCCCCCCCCCCC(=O)[O-]
REMARK SMILES IDX 12 1 11 2 10 3 9 4 8 5 7 6 6 7 5 8 4 9 3 10 2 11 1 12 13 13
REMARK SMILES IDX 14 14 15 15 16 16 17 17 18 18 19 19 20 20 21 21 22 22 23 23
REMARK SMILES IDX 24 24
REMARK H PARENT
REMARK Flexibility Score: inf
ROOT
ATOM      1  C   UNL     1       4.558   4.255   1.035  1.00  0.00     0.000 C 
ENDROOT
BRANCH   1   2
ATOM      2  C   UNL     1       3.368   3.404   1.513  1.00  0.00     0.000 C 
BRANCH   2   3
ATOM      3  C   UNL     1       2.553   2.823   0.347  1.00  0.00     0.000 C 
BRANCH   3   4
ATOM      4  C   UNL     1       2.724   1.299   0.201  1.00  0.00    -0.000 C 
BRANCH   4   5
ATOM      5  C   UNL     1       1.854   0.726  -0.937  1.00  0.00    -0.000 C 
BRANCH   5   6
ATOM      6  C   UNL     1       1.531  -0.771  -0.781  1.00  0.00    -0.000 C 
BRANCH   6   7
ATOM      7  C   UNL     1       1.453  -1.218   0.686  1.00  0.00    -0.000 C 
BRANCH   7   8
ATOM      8  C   UNL     1       0.810  -2.605   0.854  1.00  0.00    -0.000 C 
BRANCH   8   9
ATOM      9  C   UNL     1       0.383  -2.889   2.307  1.00  0.00    -0.000 C 
BRANCH   9  10
ATOM     10  C   UNL     1      -1.119  -2.660   2.538  1.00  0.00    -0.000 C 
BRANCH  10  11
ATOM     11  C   UNL     1      -1.470  -2.475   4.021  1.00  0.00    -0.003 C 
ATOM     12  C   UNL     1      -2.632  -1.498   4.193  1.00  0.00     0.004 C 
ENDBRANCH  10  11
ENDBRANCH   9  10
ENDBRANCH   8   9
ENDBRANCH   7   8
ENDBRANCH   6   7
ENDBRANCH   5   6
ENDBRANCH   4   5
ENDBRANCH   3   4
ENDBRANCH   2   3
ENDBRANCH   1   2
BRANCH   1  13
ATOM     13  C   UNL     1       5.235   5.030   2.178  1.00  0.00     0.000 C 
BRANCH  13  14
ATOM     14  C   UNL     1       6.199   6.150   1.738  1.00  0.00     0.000 C 
BRANCH  14  15
ATOM     15  C   UNL     1       7.334   5.674   0.806  1.00  0.00     0.000 C 
BRANCH  15  16
ATOM     16  C   UNL     1       8.732   5.969   1.380  1.00  0.00     0.000 C 
BRANCH  16  17
ATOM     17  C   UNL     1       9.420   4.710   1.942  1.00  0.00     0.000 C 
BRANCH  17  18
ATOM     18  C   UNL     1       9.841   4.819   3.421  1.00  0.00     0.000 C 
BRANCH  18  19
ATOM     19  C   UNL     1      10.035   6.279   3.877  1.00  0.00     0.000 C 
BRANCH  19  20
ATOM     20  C   UNL     1       9.261   6.603   5.163  1.00  0.00     0.006 C 
BRANCH  20  21
ATOM     21  C   UNL     1       7.766   6.841   4.910  1.00  0.00     0.053 C 
BRANCH  21  22
ATOM     22  C   UNL     1       7.478   8.308   4.817  1.00  0.00     0.041 C 
ATOM     23  O   UNL     1       6.290   8.725   4.840  1.00  0.00    -0.550 OA
ATOM     24  O   UNL     1       8.523   9.218   4.712  1.00  0.00    -0.550 OA
ENDBRANCH  21  22
ENDBRANCH  20  21
ENDBRANCH  19  20
ENDBRANCH  18  19
ENDBRANCH  17  18
ENDBRANCH  16  17
ENDBRANCH  15  16
ENDBRANCH  14  15
ENDBRANCH  13  14
ENDBRANCH   1  13
TORSDOF 20
ENDMDL
MODEL 4
REMARK VINA RESULT:     0.982     16.242     18.494
REMARK INTER + INTRA:           2.012
REMARK INTER:                   3.382
REMARK INTRA:                  -1.370
REMARK UNBOUND:                -0.118
REMARK SMILES CCCCCCCCCCCCCCCCCCCCCC(=O)[O-]
REMARK SMILES IDX 12 1 11 2 10 3 9 4 8 5 7 6 6 7 5 8 4 9 3 10 2 11 1 12 13 13
REMARK SMILES IDX 14 14 15 15 16 16 17 17 18 18 19 19 20 20 21 21 22 22 23 23
REMARK SMILES IDX 24 24
REMARK H PARENT
REMARK Flexibility Score: inf
ROOT
ATOM      1  C   UNL     1       3.039   3.296   0.733  1.00  0.00     0.000 C 
ENDROOT
BRANCH   1   2
ATOM      2  C   UNL     1       4.211   3.746   1.623  1.00  0.00     0.000 C 
BRANCH   2   3
ATOM      3  C   UNL     1       4.816   5.084   1.168  1.00  0.00     0.000 C 
BRANCH   3   4
ATOM      4  C   UNL     1       6.056   5.487   1.989  1.00  0.00    -0.000 C 
BRANCH   4   5
ATOM      5  C   UNL     1       7.187   6.039   1.095  1.00  0.00    -0.000 C 
BRANCH   5   6
ATOM      6  C   UNL     1       8.329   5.038   0.847  1.00  0.00    -0.000 C 
BRANCH   6   7
ATOM      7  C   UNL     1       9.604   5.377   1.633  1.00  0.00    -0.000 C 
BRANCH   7   8
ATOM      8  C   UNL     1       9.730   4.576   2.940  1.00  0.00    -0.000 C 
BRANCH   8   9
ATOM      9  C   UNL     1       9.675   5.471   4.192  1.00  0.00    -0.000 C 
BRANCH   9  10
ATOM     10  C   UNL     1       9.724   6.969   3.852  1.00  0.00    -0.000 C 
BRANCH  10  11
ATOM     11  C   UNL     1       8.843   7.818   4.781  1.00  0.00    -0.003 C 
ATOM     12  C   UNL     1       7.449   7.209   4.922  1.00  0.00     0.004 C 
ENDBRANCH  10  11
ENDBRANCH   9  10
ENDBRANCH   8   9
ENDBRANCH   7   8
ENDBRANCH   6   7
ENDBRANCH   5   6
ENDBRANCH   4   5
ENDBRANCH   3   4
ENDBRANCH   2   3
ENDBRANCH   1   2
BRANCH   1  13
ATOM     13  C   UNL     1       2.916   1.765   0.637  1.00  0.00     0.000 C 
BRANCH  13  14
ATOM     14  C   UNL     1       2.647   1.211  -0.776  1.00  0.00     0.000 C 
BRANCH  14  15
ATOM     15  C   UNL     1       1.645   0.037  -0.812  1.00  0.00     0.000 C 
BRANCH  15  16
ATOM     16  C   UNL     1       1.758  -0.874   0.423  1.00  0.00     0.000 C 
BRANCH  16  17
ATOM     17  C   UNL     1       0.746  -2.036   0.398  1.00  0.00     0.000 C 
BRANCH  17  18
ATOM     18  C   UNL     1       0.803  -2.958   1.632  1.00  0.00     0.000 C 
BRANCH  18  19
ATOM     19  C   UNL     1      -0.576  -3.148   2.295  1.00  0.00     0.000 C 
BRANCH  19  20
ATOM     20  C   UNL     1      -0.789  -2.206   3.489  1.00  0.00     0.006 C 
BRANCH  20  21
ATOM     21  C   UNL     1      -2.272  -2.033   3.848  1.00  0.00     0.053 C 
BRANCH  21  22
ATOM     22  C   UNL     1      -2.523  -2.462   5.261  1.00  0.00     0.041 C 
ATOM     23  O   UNL     1      -1.609  -3.013   5.929  1.00  0.00    -0.550 OA
ATOM     24  O   UNL     1      -3.766  -2.249   5.843  1.00  0.00    -0.550 OA
ENDBRANCH  21  22
ENDBRANCH  20  21
ENDBRANCH  19  20
ENDBRANCH  18  19
ENDBRANCH  17  18
ENDBRANCH  16  17
ENDBRANCH  15  16
ENDBRANCH  14  15
ENDBRANCH  13  14
ENDBRANCH   1  13
TORSDOF 20
ENDMDL
MODEL 5
REMARK VINA RESULT:     1.096     16.705     19.609
REMARK INTER + INTRA:           2.258
REMARK INTER:                   3.421
REMARK INTRA:                  -1.163
REMARK UNBOUND:                -0.118
REMARK SMILES CCCCCCCCCCCCCCCCCCCCCC(=O)[O-]
REMARK SMILES IDX 12 1 11 2 10 3 9 4 8 5 7 6 6 7 5 8 4 9 3 10 2 11 1 12 13 13
REMARK SMILES IDX 14 14 15 15 16 16 17 17 18 18 19 19 20 20 21 21 22 22 23 23
REMARK SMILES IDX 24 24
REMARK H PARENT
REMARK Flexibility Score: inf
ROOT
ATOM      1  C   UNL     1       2.831   2.885   1.129  1.00  0.00     0.000 C 
ENDROOT
BRANCH   1   2
ATOM      2  C   UNL     1       3.073   1.449   0.632  1.00  0.00     0.000 C 
BRANCH   2   3
ATOM      3  C   UNL     1       2.465   1.195  -0.757  1.00  0.00     0.000 C 
BRANCH   3   4
ATOM      4  C   UNL     1       1.635  -0.101  -0.817  1.00  0.00    -0.000 C 
BRANCH   4   5
ATOM      5  C   UNL     1       1.602  -0.830   0.543  1.00  0.00    -0.000 C 
BRANCH   5   6
ATOM      6  C   UNL     1       0.837  -2.165   0.516  1.00  0.00    -0.000 C 
BRANCH   6   7
ATOM      7  C   UNL     1       0.944  -2.945   1.835  1.00  0.00    -0.000 C 
BRANCH   7   8
ATOM      8  C   UNL     1      -0.378  -3.617   2.240  1.00  0.00    -0.000 C 
BRANCH   8   9
ATOM      9  C   UNL     1      -1.425  -2.609   2.748  1.00  0.00    -0.000 C 
BRANCH   9  10
ATOM     10  C   UNL     1      -1.018  -1.950   4.076  1.00  0.00    -0.000 C 
BRANCH  10  11
ATOM     11  C   UNL     1      -1.710  -2.587   5.290  1.00  0.00    -0.003 C 
ATOM     12  C   UNL     1      -3.218  -2.348   5.250  1.00  0.00     0.004 C 
ENDBRANCH  10  11
ENDBRANCH   9  10
ENDBRANCH   8   9
ENDBRANCH   7   8
ENDBRANCH   6   7
ENDBRANCH   5   6
ENDBRANCH   4   5
ENDBRANCH   3   4
ENDBRANCH   2   3
ENDBRANCH   1   2
BRANCH   1  13
ATOM     13  C   UNL     1       3.937   3.861   0.691  1.00  0.00     0.000 C 
BRANCH  13  14
ATOM     14  C   UNL     1       4.663   4.594   1.837  1.00  0.00     0.000 C 
BRANCH  14  15
ATOM     15  C   UNL     1       5.592   5.734   1.367  1.00  0.00     0.000 C 
BRANCH  15  16
ATOM     16  C   UNL     1       6.867   5.848   2.222  1.00  0.00     0.000 C 
BRANCH  16  17
ATOM     17  C   UNL     1       8.154   5.774   1.380  1.00  0.00     0.000 C 
BRANCH  17  18
ATOM     18  C   UNL     1       9.442   5.560   2.200  1.00  0.00     0.000 C 
BRANCH  18  19
ATOM     19  C   UNL     1       9.156   5.222   3.676  1.00  0.00     0.000 C 
BRANCH  19  20
ATOM     20  C   UNL     1       9.626   6.326   4.635  1.00  0.00     0.006 C 
BRANCH  20  21
ATOM     21  C   UNL     1       8.488   6.880   5.503  1.00  0.00     0.053 C 
BRANCH  21  22
ATOM     22  C   UNL     1       7.934   8.135   4.903  1.00  0.00     0.041 C 
ATOM     23  O   UNL     1       6.694   8.356   4.923  1.00  0.00    -0.550 OA
ATOM     24  O   UNL     1       8.787   9.067   4.325  1.00  0.00    -0.550 OA
ENDBRANCH  21  22
ENDBRANCH  20  21
ENDBRANCH  19  20
ENDBRANCH  18  19
ENDBRANCH  17  18
ENDBRANCH  16  17
ENDBRANCH  15  16
ENDBRANCH  14  15
ENDBRANCH  13  14
ENDBRANCH   1  13
TORSDOF 20
ENDMDL
MODEL 6
REMARK VINA RESULT:     1.119     16.081     18.223
REMARK INTER + INTRA:           2.308
REMARK INTER:                   3.551
REMARK INTRA:                  -1.243
REMARK UNBOUND:                -0.118
REMARK SMILES CCCCCCCCCCCCCCCCCCCCCC(=O)[O-]
REMARK SMILES IDX 12 1 11 2 10 3 9 4 8 5 7 6 6 7 5 8 4 9 3 10 2 11 1 12 13 13
REMARK SMILES IDX 14 14 15 15 16 16 17 17 18 18 19 19 20 20 21 21 22 22 23 23
REMARK SMILES IDX 24 24
REMARK H PARENT
REMARK Flexibility Score: inf
ROOT
ATOM      1  C   UNL     1       3.020   3.363   0.704  1.00  0.00     0.000 C 
ENDROOT
BRANCH   1   2
ATOM      2  C   UNL     1       4.144   3.861   1.629  1.00  0.00     0.000 C 
BRANCH   2   3
ATOM      3  C   UNL     1       4.728   5.208   1.175  1.00  0.00     0.000 C 
BRANCH   3   4
ATOM      4  C   UNL     1       5.996   5.602   1.955  1.00  0.00    -0.000 C 
BRANCH   4   5
ATOM      5  C   UNL     1       5.689   5.928   3.432  1.00  0.00    -0.000 C 
BRANCH   5   6
ATOM      6  C   UNL     1       6.600   7.013   4.033  1.00  0.00    -0.000 C 
BRANCH   6   7
ATOM      7  C   UNL     1       7.944   6.458   4.530  1.00  0.00    -0.000 C 
BRANCH   7   8
ATOM      8  C   UNL     1       9.144   7.301   4.069  1.00  0.00    -0.000 C 
BRANCH   8   9
ATOM      9  C   UNL     1       9.864   6.693   2.850  1.00  0.00    -0.000 C 
BRANCH   9  10
ATOM     10  C   UNL     1       9.589   5.189   2.690  1.00  0.00    -0.000 C 
BRANCH  10  11
ATOM     11  C   UNL     1      10.125   4.626   1.366  1.00  0.00    -0.003 C 
ATOM     12  C   UNL     1       8.987   4.103   0.491  1.00  0.00     0.004 C 
ENDBRANCH  10  11
ENDBRANCH   9  10
ENDBRANCH   8   9
ENDBRANCH   7   8
ENDBRANCH   6   7
ENDBRANCH   5   6
ENDBRANCH   4   5
ENDBRANCH   3   4
ENDBRANCH   2   3
ENDBRANCH   1   2
BRANCH   1  13
ATOM     13  C   UNL     1       3.043   1.838   0.503  1.00  0.00     0.000 C 
BRANCH  13  14
ATOM     14  C   UNL     1       2.651   1.350  -0.906  1.00  0.00     0.000 C 
BRANCH  14  15
ATOM     15  C   UNL     1       1.731   0.110  -0.910  1.00  0.00     0.000 C 
BRANCH  15  16
ATOM     16  C   UNL     1       1.816  -0.692   0.401  1.00  0.00     0.000 C 
BRANCH  16  17
ATOM     17  C   UNL     1       0.840  -1.884   0.431  1.00  0.00     0.000 C 
BRANCH  17  18
ATOM     18  C   UNL     1       1.148  -2.934   1.516  1.00  0.00     0.000 C 
BRANCH  18  19
ATOM     19  C   UNL     1      -0.127  -3.520   2.155  1.00  0.00     0.000 C 
BRANCH  19  20
ATOM     20  C   UNL     1      -0.869  -2.501   3.032  1.00  0.00     0.006 C 
BRANCH  20  21
ATOM     21  C   UNL     1      -2.129  -3.087   3.684  1.00  0.00     0.053 C 
BRANCH  21  22
ATOM     22  C   UNL     1      -2.218  -2.669   5.120  1.00  0.00     0.041 C 
ATOM     23  O   UNL     1      -1.274  -2.920   5.914  1.00  0.00    -0.550 OA
ATOM     24  O   UNL     1      -3.343  -1.997   5.581  1.00  0.00    -0.550 OA
ENDBRANCH  21  22
ENDBRANCH  20  21
ENDBRANCH  19  20
ENDBRANCH  18  19
ENDBRANCH  17  18
ENDBRANCH  16  17
ENDBRANCH  15  16
ENDBRANCH  14  15
ENDBRANCH  13  14
ENDBRANCH   1  13
TORSDOF 20
ENDMDL
MODEL 7
REMARK VINA RESULT:     1.692     16.724     19.645
REMARK INTER + INTRA:           3.552
REMARK INTER:                   4.706
REMARK INTRA:                  -1.154
REMARK UNBOUND:                -0.118
REMARK SMILES CCCCCCCCCCCCCCCCCCCCCC(=O)[O-]
REMARK SMILES IDX 12 1 11 2 10 3 9 4 8 5 7 6 6 7 5 8 4 9 3 10 2 11 1 12 13 13
REMARK SMILES IDX 14 14 15 15 16 16 17 17 18 18 19 19 20 20 21 21 22 22 23 23
REMARK SMILES IDX 24 24
REMARK H PARENT
REMARK Flexibility Score: inf
ROOT
ATOM      1  C   UNL     1       3.786   3.708   1.781  1.00  0.00     0.000 C 
ENDROOT
BRANCH   1   2
ATOM      2  C   UNL     1       2.861   3.214   0.654  1.00  0.00     0.000 C 
BRANCH   2   3
ATOM      3  C   UNL     1       2.953   1.695   0.439  1.00  0.00     0.000 C 
BRANCH   3   4
ATOM      4  C   UNL     1       2.542   1.268  -0.983  1.00  0.00    -0.000 C 
BRANCH   4   5
ATOM      5  C   UNL     1       1.829  -0.100  -0.992  1.00  0.00    -0.000 C 
BRANCH   5   6
ATOM      6  C   UNL     1       1.563  -0.674   0.411  1.00  0.00    -0.000 C 
BRANCH   6   7
ATOM      7  C   UNL     1       1.129  -2.147   0.385  1.00  0.00    -0.000 C 
BRANCH   7   8
ATOM      8  C   UNL     1       0.772  -2.689   1.779  1.00  0.00    -0.000 C 
BRANCH   8   9
ATOM      9  C   UNL     1      -0.745  -2.694   2.043  1.00  0.00    -0.000 C 
BRANCH   9  10
ATOM     10  C   UNL     1      -1.096  -3.130   3.474  1.00  0.00    -0.000 C 
BRANCH  10  11
ATOM     11  C   UNL     1      -2.206  -2.273   4.100  1.00  0.00    -0.003 C 
ATOM     12  C   UNL     1      -2.507  -2.723   5.529  1.00  0.00     0.004 C 
ENDBRANCH  10  11
ENDBRANCH   9  10
ENDBRANCH   8   9
ENDBRANCH   7   8
ENDBRANCH   6   7
ENDBRANCH   5   6
ENDBRANCH   4   5
ENDBRANCH   3   4
ENDBRANCH   2   3
ENDBRANCH   1   2
BRANCH   1  13
ATOM     13  C   UNL     1       5.000   4.493   1.256  1.00  0.00     0.000 C 
BRANCH  13  14
ATOM     14  C   UNL     1       5.266   5.842   1.954  1.00  0.00     0.000 C 
BRANCH  14  15
ATOM     15  C   UNL     1       6.274   5.760   3.121  1.00  0.00     0.000 C 
BRANCH  15  16
ATOM     16  C   UNL     1       6.240   7.010   4.019  1.00  0.00     0.000 C 
BRANCH  16  17
ATOM     17  C   UNL     1       7.649   7.527   4.367  1.00  0.00     0.000 C 
BRANCH  17  18
ATOM     18  C   UNL     1       8.353   6.750   5.497  1.00  0.00     0.000 C 
BRANCH  18  19
ATOM     19  C   UNL     1       9.636   6.041   5.020  1.00  0.00     0.000 C 
BRANCH  19  20
ATOM     20  C   UNL     1       9.875   6.208   3.512  1.00  0.00     0.006 C 
BRANCH  20  21
ATOM     21  C   UNL     1       9.756   4.884   2.744  1.00  0.00     0.053 C 
BRANCH  21  22
ATOM     22  C   UNL     1       9.315   5.134   1.334  1.00  0.00     0.041 C 
ATOM     23  O   UNL     1       8.997   6.295   0.965  1.00  0.00    -0.550 OA
ATOM     24  O   UNL     1       9.262   4.085   0.424  1.00  0.00    -0.550 OA
ENDBRANCH  21  22
ENDBRANCH  20  21
ENDBRANCH  19  20
ENDBRANCH  18  19
ENDBRANCH  17  18
ENDBRANCH  16  17
ENDBRANCH  15  16
ENDBRANCH  14  15
ENDBRANCH  13  14
ENDBRANCH   1  13
TORSDOF 20
ENDMDL
