MODEL 1
REMARK VINA RESULT:    -6.531      0.000      0.000
REMARK INTER + INTRA:          -6.925
REMARK INTER:                  -7.103
REMARK INTRA:                   0.179
REMARK UNBOUND:                 0.179
REMARK SMILES C[C@@H]1[C@H](C)CC[C@]2(C(=O)[O-])CC[C@@]3(C)C(=CC[C@H]4[C@]5(C)CC[C@@H](O)C(C)(C)[C@@H]5CC[C@]43C)[C@H]12
REMARK SMILES IDX 7 1 6 2 11 3 33 4 5 5 12 6 15 7 2 8 3 9 13 10 16 11 1 12
REMARK SMILES IDX 4 13 14 14 31 15 17 16 18 17 30 18 32 19 19 20 29 21 28 22
REMARK SMILES IDX 21 23 20 24 25 25 22 26 23 27 26 28 27 29 8 30 9 31 10 32
REMARK SMILES IDX 24 33
REMARK H PARENT 24 34
REMARK Flexibility Score: inf
ROOT
ATOM      1  C   UNL     1      17.672  16.000  -0.798  1.00  0.00     0.017 C 
ATOM      2  C   UNL     1      16.380  15.575  -1.589  1.00  0.00     0.014 C 
ATOM      3  C   UNL     1      18.871  15.895  -1.773  1.00  0.00     0.014 C 
ATOM      4  C   UNL     1      17.909  15.150   0.519  1.00  0.00     0.030 C 
ATOM      5  C   UNL     1      15.115  15.369  -0.744  1.00  0.00     0.004 C 
ATOM      6  C   UNL     1      19.304  14.452  -2.052  1.00  0.00     0.013 C 
ATOM      7  C   UNL     1      18.710  13.824   0.317  1.00  0.00    -0.063 C 
ATOM      8  C   UNL     1      16.537  15.061   1.304  1.00  0.00    -0.003 C 
ATOM      9  C   UNL     1      15.368  14.471   0.472  1.00  0.00    -0.011 C 
ATOM     10  C   UNL     1      19.788  13.691  -0.778  1.00  0.00    -0.006 C 
ATOM     11  C   UNL     1      18.930  13.046   1.390  1.00  0.00    -0.027 C 
ATOM     12  C   UNL     1      16.550  14.512   2.743  1.00  0.00     0.008 C 
ATOM     13  C   UNL     1      15.557  13.006   0.052  1.00  0.00     0.008 C 
ATOM     14  C   UNL     1      21.057  14.437  -0.233  1.00  0.00     0.017 C 
ATOM     15  C   UNL     1      20.159  12.138  -1.100  1.00  0.00    -0.020 C 
ATOM     16  C   UNL     1      19.435  11.644   1.307  1.00  0.00     0.032 C 
ATOM     17  C   UNL     1      20.524  11.345   0.226  1.00  0.00     0.006 C 
ATOM     18  C   UNL     1      18.935  11.397  -1.710  1.00  0.00     0.008 C 
ATOM     19  C   UNL     1      21.347  12.109  -2.125  1.00  0.00     0.012 C 
ATOM     20  C   UNL     1      20.769   9.749   0.106  1.00  0.00    -0.025 C 
ATOM     21  C   UNL     1      19.147   9.902  -1.959  1.00  0.00     0.005 C 
ATOM     22  C   UNL     1      19.629   9.047  -0.747  1.00  0.00     0.003 C 
ATOM     23  C   UNL     1      22.199   9.374  -0.444  1.00  0.00     0.010 C 
ATOM     24  C   UNL     1      20.763   9.188   1.580  1.00  0.00     0.012 C 
ATOM     25  C   UNL     1      20.011   7.579  -1.241  1.00  0.00    -0.006 C 
ATOM     26  C   UNL     1      22.251   8.809  -1.870  1.00  0.00     0.033 C 
ATOM     27  C   UNL     1      21.316   7.600  -2.124  1.00  0.00     0.120 C 
ATOM     28  C   UNL     1      20.176   6.600  -0.041  1.00  0.00     0.014 C 
ATOM     29  C   UNL     1      18.850   6.976  -2.088  1.00  0.00     0.014 C 
ENDROOT
BRANCH   1  30
ATOM     30  C   UNL     1      17.568  17.476  -0.404  1.00  0.00     0.048 C 
ATOM     31  O   UNL     1      17.329  17.828   0.786  1.00  0.00    -0.550 OA
ATOM     32  O   UNL     1      17.829  18.464  -1.358  1.00  0.00    -0.550 OA
ENDBRANCH   1  30
BRANCH  27  33
ATOM     33  O   UNL     1      22.037   6.398  -1.976  1.00  0.00    -0.393 OA
ATOM     34  H   UNL     1      21.380   5.677  -1.779  1.00  0.00     0.210 HD
ENDBRANCH  27  33
TORSDOF 2
ENDMDL
