MODEL 1
REMARK VINA RESULT:     2.590      0.000      0.000
REMARK INTER + INTRA:           3.823
REMARK INTER:                   3.574
REMARK INTRA:                   0.249
REMARK UNBOUND:                 0.249
REMARK SMILES CC[C@@H](CC[C@H](C)[C@@H]1CC[C@@H]2[C@@H]3CC=C4C[C@@H](O)CC[C@]4(C)[C@@H]3CC[C@@]21C)C(C)C
REMARK SMILES IDX 5 1 4 2 3 3 2 4 1 5 28 6 29 7 30 8 6 9 7 10 8 11 9 12 26 13
REMARK SMILES IDX 10 14 11 15 25 16 27 17 12 18 24 19 23 20 13 21 21 22 14 23
REMARK SMILES IDX 15 24 20 25 22 26 16 27 19 28 17 29 18 30
REMARK H PARENT 18 31
REMARK Flexibility Score: inf
ROOT
ATOM      1  C   UNL     1     132.008 129.947 137.217  1.00  0.00     0.004 C 
ENDROOT
BRANCH   1   2
ATOM      2  C   UNL     1     132.939 130.800 138.129  1.00  0.00     0.004 C 
BRANCH   2   3
ATOM      3  C   UNL     1     132.673 132.338 138.243  1.00  0.00    -0.009 C 
BRANCH   3   4
ATOM      4  C   UNL     1     132.063 132.855 136.903  1.00  0.00     0.000 C 
ATOM      5  C   UNL     1     131.805 134.368 136.883  1.00  0.00     0.004 C 
ENDBRANCH   3   4
BRANCH   3   6
ATOM      6  C   UNL     1     133.959 133.176 138.601  1.00  0.00    -0.014 C 
ATOM      7  C   UNL     1     135.188 132.302 138.903  1.00  0.00     0.007 C 
ATOM      8  C   UNL     1     133.715 134.103 139.813  1.00  0.00     0.007 C 
ENDBRANCH   3   6
ENDBRANCH   2   3
ENDBRANCH   1   2
BRANCH   1   9
ATOM      9  C   UNL     1     130.597 129.605 137.762  1.00  0.00    -0.011 C 
ATOM     10  C   UNL     1     129.993 130.800 138.551  1.00  0.00     0.008 C 
BRANCH   9  11
ATOM     11  C   UNL     1     130.504 128.204 138.466  1.00  0.00    -0.002 C 
ATOM     12  C   UNL     1     130.503 128.339 140.005  1.00  0.00     0.005 C 
ATOM     13  C   UNL     1     131.476 126.995 138.116  1.00  0.00    -0.026 C 
ATOM     14  C   UNL     1     131.576 127.405 140.513  1.00  0.00     0.005 C 
ATOM     15  C   UNL     1     131.622 126.265 139.487  1.00  0.00    -0.001 C 
ATOM     16  C   UNL     1     132.881 127.412 137.527  1.00  0.00     0.007 C 
ATOM     17  C   UNL     1     130.772 126.033 137.116  1.00  0.00     0.012 C 
ATOM     18  C   UNL     1     132.799 125.221 139.638  1.00  0.00     0.000 C 
ATOM     19  C   UNL     1     134.121 126.771 138.179  1.00  0.00     0.005 C 
ATOM     20  C   UNL     1     133.863 125.295 138.513  1.00  0.00     0.003 C 
ATOM     21  C   UNL     1     133.466 125.289 141.018  1.00  0.00     0.031 C 
ATOM     22  C   UNL     1     135.136 124.343 138.747  1.00  0.00    -0.008 C 
ATOM     23  C   UNL     1     134.487 124.226 141.194  1.00  0.00    -0.027 C 
ATOM     24  C   UNL     1     135.288 123.838 140.194  1.00  0.00    -0.065 C 
ATOM     25  C   UNL     1     136.483 125.041 138.374  1.00  0.00     0.014 C 
ATOM     26  C   UNL     1     134.946 123.103 137.826  1.00  0.00     0.016 C 
ATOM     27  C   UNL     1     136.500 122.990 140.531  1.00  0.00     0.063 C 
ATOM     28  C   UNL     1     137.745 124.211 138.698  1.00  0.00     0.033 C 
ATOM     29  C   UNL     1     137.776 123.758 140.163  1.00  0.00     0.118 C 
BRANCH  29  30
ATOM     30  O   UNL     1     138.898 122.937 140.363  1.00  0.00    -0.393 OA
ATOM     31  H   UNL     1     139.518 123.106 139.604  1.00  0.00     0.210 HD
ENDBRANCH  29  30
ENDBRANCH   9  11
ENDBRANCH   1   9
TORSDOF 7
ENDMDL
MODEL 2
REMARK VINA RESULT:     3.255      1.708      3.566
REMARK INTER + INTRA:           4.741
REMARK INTER:                   5.653
REMARK INTRA:                  -0.912
REMARK UNBOUND:                 0.249
REMARK SMILES CC[C@@H](CC[C@H](C)[C@@H]1CC[C@@H]2[C@@H]3CC=C4C[C@@H](O)CC[C@]4(C)[C@@H]3CC[C@@]21C)C(C)C
REMARK SMILES IDX 5 1 4 2 3 3 2 4 1 5 28 6 29 7 30 8 6 9 7 10 8 11 9 12 26 13
REMARK SMILES IDX 10 14 11 15 25 16 27 17 12 18 24 19 23 20 13 21 21 22 14 23
REMARK SMILES IDX 15 24 20 25 22 26 16 27 19 28 17 29 18 30
REMARK H PARENT 18 31
REMARK Flexibility Score: inf
ROOT
ATOM      1  C   UNL     1     132.926 127.834 137.373  1.00  0.00     0.004 C 
ENDROOT
BRANCH   1   2
ATOM      2  C   UNL     1     131.940 128.990 137.027  1.00  0.00     0.004 C 
BRANCH   2   3
ATOM      3  C   UNL     1     131.682 130.102 138.099  1.00  0.00    -0.009 C 
BRANCH   3   4
ATOM      4  C   UNL     1     130.439 129.709 138.957  1.00  0.00     0.000 C 
ATOM      5  C   UNL     1     129.810 128.366 138.557  1.00  0.00     0.004 C 
ENDBRANCH   3   4
BRANCH   3   6
ATOM      6  C   UNL     1     131.470 131.536 137.482  1.00  0.00    -0.014 C 
ATOM      7  C   UNL     1     131.191 131.510 135.969  1.00  0.00     0.007 C 
ATOM      8  C   UNL     1     132.691 132.449 137.732  1.00  0.00     0.007 C 
ENDBRANCH   3   6
ENDBRANCH   2   3
ENDBRANCH   1   2
BRANCH   1   9
ATOM      9  C   UNL     1     132.480 126.391 137.023  1.00  0.00    -0.011 C 
ATOM     10  C   UNL     1     131.120 126.388 136.272  1.00  0.00     0.008 C 
BRANCH   9  11
ATOM     11  C   UNL     1     132.606 125.374 138.214  1.00  0.00    -0.002 C 
ATOM     12  C   UNL     1     132.155 126.004 139.550  1.00  0.00     0.005 C 
ATOM     13  C   UNL     1     133.941 124.564 138.520  1.00  0.00    -0.026 C 
ATOM     14  C   UNL     1     133.273 125.756 140.534  1.00  0.00     0.005 C 
ATOM     15  C   UNL     1     133.916 124.441 140.074  1.00  0.00    -0.001 C 
ATOM     16  C   UNL     1     135.271 125.246 138.010  1.00  0.00     0.007 C 
ATOM     17  C   UNL     1     133.836 123.137 137.909  1.00  0.00     0.012 C 
ATOM     18  C   UNL     1     135.258 124.016 140.795  1.00  0.00     0.000 C 
ATOM     19  C   UNL     1     136.421 125.360 139.030  1.00  0.00     0.005 C 
ATOM     20  C   UNL     1     136.517 124.095 139.894  1.00  0.00     0.003 C 
ATOM     21  C   UNL     1     135.483 124.780 142.107  1.00  0.00     0.031 C 
ATOM     22  C   UNL     1     137.897 123.814 140.666  1.00  0.00    -0.008 C 
ATOM     23  C   UNL     1     136.679 124.290 142.836  1.00  0.00    -0.027 C 
ATOM     24  C   UNL     1     137.795 123.914 142.199  1.00  0.00    -0.065 C 
ATOM     25  C   UNL     1     139.037 124.790 140.230  1.00  0.00     0.014 C 
ATOM     26  C   UNL     1     138.323 122.360 140.309  1.00  0.00     0.016 C 
ATOM     27  C   UNL     1     139.062 123.733 143.012  1.00  0.00     0.063 C 
ATOM     28  C   UNL     1     140.349 124.640 141.032  1.00  0.00     0.033 C 
ATOM     29  C   UNL     1     140.115 124.746 142.545  1.00  0.00     0.118 C 
BRANCH  29  30
ATOM     30  O   UNL     1     141.329 124.512 143.211  1.00  0.00    -0.393 OA
ATOM     31  H   UNL     1     141.733 125.401 143.396  1.00  0.00     0.210 HD
ENDBRANCH  29  30
ENDBRANCH   9  11
ENDBRANCH   1   9
TORSDOF 7
ENDMDL
MODEL 3
REMARK VINA RESULT:     3.326      0.556      1.625
REMARK INTER + INTRA:           4.839
REMARK INTER:                   5.101
REMARK INTRA:                  -0.262
REMARK UNBOUND:                 0.249
REMARK SMILES CC[C@@H](CC[C@H](C)[C@@H]1CC[C@@H]2[C@@H]3CC=C4C[C@@H](O)CC[C@]4(C)[C@@H]3CC[C@@]21C)C(C)C
REMARK SMILES IDX 5 1 4 2 3 3 2 4 1 5 28 6 29 7 30 8 6 9 7 10 8 11 9 12 26 13
REMARK SMILES IDX 10 14 11 15 25 16 27 17 12 18 24 19 23 20 13 21 21 22 14 23
REMARK SMILES IDX 15 24 20 25 22 26 16 27 19 28 17 29 18 30
REMARK H PARENT 18 31
REMARK Flexibility Score: inf
ROOT
ATOM      1  C   UNL     1     132.058 129.874 137.758  1.00  0.00     0.004 C 
ENDROOT
BRANCH   1   2
ATOM      2  C   UNL     1     132.182 131.231 138.511  1.00  0.00     0.004 C 
BRANCH   2   3
ATOM      3  C   UNL     1     133.105 132.343 137.907  1.00  0.00    -0.009 C 
BRANCH   3   4
ATOM      4  C   UNL     1     133.624 133.261 139.058  1.00  0.00     0.000 C 
ATOM      5  C   UNL     1     135.112 133.063 139.383  1.00  0.00     0.004 C 
ENDBRANCH   3   4
BRANCH   3   6
ATOM      6  C   UNL     1     132.398 133.220 136.806  1.00  0.00    -0.014 C 
ATOM      7  C   UNL     1     131.808 134.529 137.359  1.00  0.00     0.007 C 
ATOM      8  C   UNL     1     131.266 132.442 136.099  1.00  0.00     0.007 C 
ENDBRANCH   3   6
ENDBRANCH   2   3
ENDBRANCH   1   2
BRANCH   1   9
ATOM      9  C   UNL     1     130.675 129.174 137.779  1.00  0.00    -0.011 C 
ATOM     10  C   UNL     1     129.548 130.163 138.187  1.00  0.00     0.008 C 
BRANCH   9  11
ATOM     11  C   UNL     1     130.669 127.788 138.520  1.00  0.00    -0.002 C 
ATOM     12  C   UNL     1     130.674 127.963 140.055  1.00  0.00     0.005 C 
ATOM     13  C   UNL     1     131.707 126.628 138.191  1.00  0.00    -0.026 C 
ATOM     14  C   UNL     1     131.804 127.107 140.575  1.00  0.00     0.005 C 
ATOM     15  C   UNL     1     131.907 125.945 139.578  1.00  0.00    -0.001 C 
ATOM     16  C   UNL     1     133.079 127.111 137.576  1.00  0.00     0.007 C 
ATOM     17  C   UNL     1     131.051 125.601 137.223  1.00  0.00     0.012 C 
ATOM     18  C   UNL     1     133.144 124.975 139.743  1.00  0.00     0.000 C 
ATOM     19  C   UNL     1     134.360 126.559 138.231  1.00  0.00     0.005 C 
ATOM     20  C   UNL     1     134.192 125.080 138.606  1.00  0.00     0.003 C 
ATOM     21  C   UNL     1     133.818 125.117 141.115  1.00  0.00     0.031 C 
ATOM     22  C   UNL     1     135.520 124.210 138.851  1.00  0.00    -0.008 C 
ATOM     23  C   UNL     1     134.901 124.120 141.307  1.00  0.00    -0.027 C 
ATOM     24  C   UNL     1     135.714 123.753 140.309  1.00  0.00    -0.065 C 
ATOM     25  C   UNL     1     136.821 124.975 138.446  1.00  0.00     0.014 C 
ATOM     26  C   UNL     1     135.393 122.937 137.964  1.00  0.00     0.016 C 
ATOM     27  C   UNL     1     136.976 122.985 140.654  1.00  0.00     0.063 C 
ATOM     28  C   UNL     1     138.131 124.227 138.778  1.00  0.00     0.033 C 
ATOM     29  C   UNL     1     138.202 123.815 140.254  1.00  0.00     0.118 C 
BRANCH  29  30
ATOM     30  O   UNL     1     139.372 123.067 140.463  1.00  0.00    -0.393 OA
ATOM     31  H   UNL     1     139.941 123.589 141.089  1.00  0.00     0.210 HD
ENDBRANCH  29  30
ENDBRANCH   9  11
ENDBRANCH   1   9
TORSDOF 7
ENDMDL
MODEL 4
REMARK VINA RESULT:     3.770      3.281      8.126
REMARK INTER + INTRA:           5.451
REMARK INTER:                   5.655
REMARK INTRA:                  -0.203
REMARK UNBOUND:                 0.249
REMARK SMILES CC[C@@H](CC[C@H](C)[C@@H]1CC[C@@H]2[C@@H]3CC=C4C[C@@H](O)CC[C@]4(C)[C@@H]3CC[C@@]21C)C(C)C
REMARK SMILES IDX 5 1 4 2 3 3 2 4 1 5 28 6 29 7 30 8 6 9 7 10 8 11 9 12 26 13
REMARK SMILES IDX 10 14 11 15 25 16 27 17 12 18 24 19 23 20 13 21 21 22 14 23
REMARK SMILES IDX 15 24 20 25 22 26 16 27 19 28 17 29 18 30
REMARK H PARENT 18 31
REMARK Flexibility Score: inf
ROOT
ATOM      1  C   UNL     1     137.247 124.283 142.095  1.00  0.00     0.004 C 
ENDROOT
BRANCH   1   2
ATOM      2  C   UNL     1     137.459 124.042 143.619  1.00  0.00     0.004 C 
BRANCH   2   3
ATOM      3  C   UNL     1     136.245 124.247 144.587  1.00  0.00    -0.009 C 
BRANCH   3   4
ATOM      4  C   UNL     1     135.008 124.725 143.764  1.00  0.00     0.000 C 
ATOM      5  C   UNL     1     133.932 123.645 143.581  1.00  0.00     0.004 C 
ENDBRANCH   3   4
BRANCH   3   6
ATOM      6  C   UNL     1     136.533 125.267 145.753  1.00  0.00    -0.014 C 
ATOM      7  C   UNL     1     135.950 124.822 147.105  1.00  0.00     0.007 C 
ATOM      8  C   UNL     1     135.982 126.673 145.428  1.00  0.00     0.007 C 
ENDBRANCH   3   6
ENDBRANCH   2   3
ENDBRANCH   1   2
BRANCH   1   9
ATOM      9  C   UNL     1     137.507 123.086 141.144  1.00  0.00    -0.011 C 
ATOM     10  C   UNL     1     139.004 122.670 141.156  1.00  0.00     0.008 C 
BRANCH   9  11
ATOM     11  C   UNL     1     136.851 123.241 139.724  1.00  0.00    -0.002 C 
ATOM     12  C   UNL     1     137.652 124.214 138.832  1.00  0.00     0.005 C 
ATOM     13  C   UNL     1     135.314 123.593 139.517  1.00  0.00    -0.026 C 
ATOM     14  C   UNL     1     136.656 125.217 138.298  1.00  0.00     0.005 C 
ATOM     15  C   UNL     1     135.332 124.446 138.211  1.00  0.00    -0.001 C 
ATOM     16  C   UNL     1     134.636 124.371 140.712  1.00  0.00     0.007 C 
ATOM     17  C   UNL     1     134.513 122.287 139.244  1.00  0.00     0.012 C 
ATOM     18  C   UNL     1     134.039 125.290 137.872  1.00  0.00     0.000 C 
ATOM     19  C   UNL     1     133.834 125.635 140.345  1.00  0.00     0.005 C 
ATOM     20  C   UNL     1     133.039 125.423 139.049  1.00  0.00     0.003 C 
ATOM     21  C   UNL     1     134.379 126.670 137.293  1.00  0.00     0.031 C 
ATOM     22  C   UNL     1     131.803 126.407 138.755  1.00  0.00    -0.008 C 
ATOM     23  C   UNL     1     133.163 127.407 136.865  1.00  0.00    -0.027 C 
ATOM     24  C   UNL     1     132.017 127.346 137.554  1.00  0.00    -0.065 C 
ATOM     25  C   UNL     1     131.458 127.318 139.978  1.00  0.00     0.014 C 
ATOM     26  C   UNL     1     130.574 125.504 138.444  1.00  0.00     0.016 C 
ATOM     27  C   UNL     1     130.934 128.361 137.240  1.00  0.00     0.063 C 
ATOM     28  C   UNL     1     130.358 128.366 139.703  1.00  0.00     0.033 C 
ATOM     29  C   UNL     1     130.679 129.231 138.477  1.00  0.00     0.118 C 
BRANCH  29  30
ATOM     30  O   UNL     1     129.600 130.097 138.235  1.00  0.00    -0.393 OA
ATOM     31  H   UNL     1     128.808 129.526 138.048  1.00  0.00     0.210 HD
ENDBRANCH  29  30
ENDBRANCH   9  11
ENDBRANCH   1   9
TORSDOF 7
ENDMDL
MODEL 5
REMARK VINA RESULT:     4.184      0.947      1.366
REMARK INTER + INTRA:           6.023
REMARK INTER:                   5.520
REMARK INTRA:                   0.503
REMARK UNBOUND:                 0.249
REMARK SMILES CC[C@@H](CC[C@H](C)[C@@H]1CC[C@@H]2[C@@H]3CC=C4C[C@@H](O)CC[C@]4(C)[C@@H]3CC[C@@]21C)C(C)C
REMARK SMILES IDX 5 1 4 2 3 3 2 4 1 5 28 6 29 7 30 8 6 9 7 10 8 11 9 12 26 13
REMARK SMILES IDX 10 14 11 15 25 16 27 17 12 18 24 19 23 20 13 21 21 22 14 23
REMARK SMILES IDX 15 24 20 25 22 26 16 27 19 28 17 29 18 30
REMARK H PARENT 18 31
REMARK Flexibility Score: inf
ROOT
ATOM      1  C   UNL     1     132.068 129.252 137.337  1.00  0.00     0.004 C 
ENDROOT
BRANCH   1   2
ATOM      2  C   UNL     1     132.615 130.653 137.740  1.00  0.00     0.004 C 
BRANCH   2   3
ATOM      3  C   UNL     1     131.741 131.916 137.434  1.00  0.00    -0.009 C 
BRANCH   3   4
ATOM      4  C   UNL     1     131.711 132.159 135.893  1.00  0.00     0.000 C 
ATOM      5  C   UNL     1     130.721 131.255 135.144  1.00  0.00     0.004 C 
ENDBRANCH   3   4
BRANCH   3   6
ATOM      6  C   UNL     1     132.238 133.219 138.168  1.00  0.00    -0.014 C 
ATOM      7  C   UNL     1     131.969 134.505 137.368  1.00  0.00     0.007 C 
ATOM      8  C   UNL     1     133.749 133.153 138.483  1.00  0.00     0.007 C 
ENDBRANCH   3   6
ENDBRANCH   2   3
ENDBRANCH   1   2
BRANCH   1   9
ATOM      9  C   UNL     1     130.723 128.806 137.967  1.00  0.00    -0.011 C 
ATOM     10  C   UNL     1     130.055 129.969 138.752  1.00  0.00     0.008 C 
BRANCH   9  11
ATOM     11  C   UNL     1     130.792 127.426 138.716  1.00  0.00    -0.002 C 
ATOM     12  C   UNL     1     130.796 127.611 140.249  1.00  0.00     0.005 C 
ATOM     13  C   UNL     1     131.886 126.319 138.388  1.00  0.00    -0.026 C 
ATOM     14  C   UNL     1     131.970 126.816 140.769  1.00  0.00     0.005 C 
ATOM     15  C   UNL     1     132.127 125.655 139.778  1.00  0.00    -0.001 C 
ATOM     16  C   UNL     1     133.228 126.867 137.763  1.00  0.00     0.007 C 
ATOM     17  C   UNL     1     131.278 125.254 137.430  1.00  0.00     0.012 C 
ATOM     18  C   UNL     1     133.413 124.750 139.942  1.00  0.00     0.000 C 
ATOM     19  C   UNL     1     134.539 126.385 138.414  1.00  0.00     0.005 C 
ATOM     20  C   UNL     1     134.448 124.901 138.799  1.00  0.00     0.003 C 
ATOM     21  C   UNL     1     134.086 124.935 141.309  1.00  0.00     0.031 C 
ATOM     22  C   UNL     1     135.820 124.101 139.042  1.00  0.00    -0.008 C 
ATOM     23  C   UNL     1     135.219 123.996 141.502  1.00  0.00    -0.027 C 
ATOM     24  C   UNL     1     136.045 123.664 140.501  1.00  0.00    -0.065 C 
ATOM     25  C   UNL     1     137.078 124.929 138.625  1.00  0.00     0.014 C 
ATOM     26  C   UNL     1     135.754 122.819 138.163  1.00  0.00     0.016 C 
ATOM     27  C   UNL     1     137.346 122.964 140.844  1.00  0.00     0.063 C 
ATOM     28  C   UNL     1     138.427 124.252 138.954  1.00  0.00     0.033 C 
ATOM     29  C   UNL     1     138.526 123.853 140.432  1.00  0.00     0.118 C 
BRANCH  29  30
ATOM     30  O   UNL     1     139.734 123.166 140.639  1.00  0.00    -0.393 OA
ATOM     31  H   UNL     1     140.381 123.825 141.005  1.00  0.00     0.210 HD
ENDBRANCH  29  30
ENDBRANCH   9  11
ENDBRANCH   1   9
TORSDOF 7
ENDMDL
