MODEL 1
REMARK VINA RESULT:    -5.200      0.000      0.000
REMARK INTER + INTRA:         -13.419
REMARK INTER:                 -11.281
REMARK INTRA:                  -2.138
REMARK UNBOUND:                -2.138
REMARK SMILES CCCCCCCCCCCCCCCCCCCCCC(=O)[O-]
REMARK SMILES IDX 12 1 11 2 10 3 9 4 8 5 7 6 6 7 5 8 4 9 3 10 2 11 1 12 13 13
REMARK SMILES IDX 14 14 15 15 16 16 17 17 18 18 19 19 20 20 21 21 22 22 23 23
REMARK SMILES IDX 24 24
REMARK H PARENT
REMARK Flexibility Score: inf
ROOT
ATOM      1  C   UNL     1      46.870  22.482  20.251  1.00  0.00     0.000 C 
ENDROOT
BRANCH   1   2
ATOM      2  C   UNL     1      46.072  22.414  21.569  1.00  0.00     0.000 C 
BRANCH   2   3
ATOM      3  C   UNL     1      45.255  21.125  21.769  1.00  0.00     0.000 C 
BRANCH   3   4
ATOM      4  C   UNL     1      43.818  21.240  21.237  1.00  0.00    -0.000 C 
BRANCH   4   5
ATOM      5  C   UNL     1      43.142  22.516  21.753  1.00  0.00    -0.000 C 
BRANCH   5   6
ATOM      6  C   UNL     1      42.293  23.171  20.654  1.00  0.00    -0.000 C 
BRANCH   6   7
ATOM      7  C   UNL     1      42.570  22.585  19.257  1.00  0.00    -0.000 C 
BRANCH   7   8
ATOM      8  C   UNL     1      41.509  22.915  18.187  1.00  0.00    -0.000 C 
BRANCH   8   9
ATOM      9  C   UNL     1      40.159  23.406  18.739  1.00  0.00    -0.000 C 
BRANCH   9  10
ATOM     10  C   UNL     1      39.260  24.021  17.651  1.00  0.00    -0.000 C 
BRANCH  10  11
ATOM     11  C   UNL     1      38.474  22.959  16.869  1.00  0.00    -0.003 C 
ATOM     12  C   UNL     1      37.137  22.613  17.524  1.00  0.00     0.004 C 
ENDBRANCH  10  11
ENDBRANCH   9  10
ENDBRANCH   8   9
ENDBRANCH   7   8
ENDBRANCH   6   7
ENDBRANCH   5   6
ENDBRANCH   4   5
ENDBRANCH   3   4
ENDBRANCH   2   3
ENDBRANCH   1   2
BRANCH   1  13
ATOM     13  C   UNL     1      46.909  23.869  19.582  1.00  0.00     0.000 C 
BRANCH  13  14
ATOM     14  C   UNL     1      45.529  24.490  19.285  1.00  0.00     0.000 C 
BRANCH  14  15
ATOM     15  C   UNL     1      45.194  25.749  20.105  1.00  0.00     0.000 C 
BRANCH  15  16
ATOM     16  C   UNL     1      43.954  26.489  19.581  1.00  0.00     0.000 C 
BRANCH  16  17
ATOM     17  C   UNL     1      44.306  27.925  19.169  1.00  0.00     0.000 C 
BRANCH  17  18
ATOM     18  C   UNL     1      45.790  28.095  18.795  1.00  0.00     0.000 C 
BRANCH  18  19
ATOM     19  C   UNL     1      46.078  29.202  17.765  1.00  0.00     0.000 C 
BRANCH  19  20
ATOM     20  C   UNL     1      44.824  29.996  17.372  1.00  0.00     0.006 C 
BRANCH  20  21
ATOM     21  C   UNL     1      44.574  29.916  15.863  1.00  0.00     0.053 C 
BRANCH  21  22
ATOM     22  C   UNL     1      43.699  31.043  15.416  1.00  0.00     0.041 C 
ATOM     23  O   UNL     1      43.551  32.059  16.144  1.00  0.00    -0.550 OA
ATOM     24  O   UNL     1      43.004  30.951  14.216  1.00  0.00    -0.550 OA
ENDBRANCH  21  22
ENDBRANCH  20  21
ENDBRANCH  19  20
ENDBRANCH  18  19
ENDBRANCH  17  18
ENDBRANCH  16  17
ENDBRANCH  15  16
ENDBRANCH  14  15
ENDBRANCH  13  14
ENDBRANCH   1  13
TORSDOF 20
ENDMDL
MODEL 2
REMARK VINA RESULT:    -5.120      2.849      8.006
REMARK INTER + INTRA:         -13.245
REMARK INTER:                 -11.132
REMARK INTRA:                  -2.113
REMARK UNBOUND:                -2.138
REMARK SMILES CCCCCCCCCCCCCCCCCCCCCC(=O)[O-]
REMARK SMILES IDX 12 1 11 2 10 3 9 4 8 5 7 6 6 7 5 8 4 9 3 10 2 11 1 12 13 13
REMARK SMILES IDX 14 14 15 15 16 16 17 17 18 18 19 19 20 20 21 21 22 22 23 23
REMARK SMILES IDX 24 24
REMARK H PARENT
REMARK Flexibility Score: inf
ROOT
ATOM      1  C   UNL     1      44.460  26.647  19.527  1.00  0.00     0.000 C 
ENDROOT
BRANCH   1   2
ATOM      2  C   UNL     1      44.820  28.147  19.514  1.00  0.00     0.000 C 
BRANCH   2   3
ATOM      3  C   UNL     1      45.812  28.568  18.415  1.00  0.00     0.000 C 
BRANCH   3   4
ATOM      4  C   UNL     1      45.196  29.533  17.392  1.00  0.00    -0.000 C 
BRANCH   4   5
ATOM      5  C   UNL     1      45.216  30.975  17.916  1.00  0.00    -0.000 C 
BRANCH   5   6
ATOM      6  C   UNL     1      43.859  31.659  17.694  1.00  0.00    -0.000 C 
BRANCH   6   7
ATOM      7  C   UNL     1      43.995  33.096  17.159  1.00  0.00    -0.000 C 
BRANCH   7   8
ATOM      8  C   UNL     1      43.310  33.357  15.802  1.00  0.00    -0.000 C 
BRANCH   8   9
ATOM      9  C   UNL     1      42.693  32.114  15.134  1.00  0.00    -0.000 C 
BRANCH   9  10
ATOM     10  C   UNL     1      43.584  31.532  14.023  1.00  0.00    -0.000 C 
BRANCH  10  11
ATOM     11  C   UNL     1      43.795  30.018  14.171  1.00  0.00    -0.003 C 
ATOM     12  C   UNL     1      42.507  29.220  13.967  1.00  0.00     0.004 C 
ENDBRANCH  10  11
ENDBRANCH   9  10
ENDBRANCH   8   9
ENDBRANCH   7   8
ENDBRANCH   6   7
ENDBRANCH   5   6
ENDBRANCH   4   5
ENDBRANCH   3   4
ENDBRANCH   2   3
ENDBRANCH   1   2
BRANCH   1  13
ATOM     13  C   UNL     1      45.412  25.756  20.347  1.00  0.00     0.000 C 
BRANCH  13  14
ATOM     14  C   UNL     1      46.520  25.060  19.532  1.00  0.00     0.000 C 
BRANCH  14  15
ATOM     15  C   UNL     1      46.346  23.540  19.365  1.00  0.00     0.000 C 
BRANCH  15  16
ATOM     16  C   UNL     1      47.115  22.732  20.422  1.00  0.00     0.000 C 
BRANCH  16  17
ATOM     17  C   UNL     1      46.241  21.607  20.993  1.00  0.00     0.000 C 
BRANCH  17  18
ATOM     18  C   UNL     1      45.080  22.128  21.861  1.00  0.00     0.000 C 
BRANCH  18  19
ATOM     19  C   UNL     1      43.674  21.862  21.294  1.00  0.00     0.000 C 
BRANCH  19  20
ATOM     20  C   UNL     1      42.941  23.146  20.882  1.00  0.00     0.006 C 
BRANCH  20  21
ATOM     21  C   UNL     1      42.273  22.983  19.514  1.00  0.00     0.053 C 
BRANCH  21  22
ATOM     22  C   UNL     1      41.172  23.980  19.345  1.00  0.00     0.041 C 
ATOM     23  O   UNL     1      40.173  23.707  18.629  1.00  0.00    -0.550 OA
ATOM     24  O   UNL     1      41.270  25.233  19.939  1.00  0.00    -0.550 OA
ENDBRANCH  21  22
ENDBRANCH  20  21
ENDBRANCH  19  20
ENDBRANCH  18  19
ENDBRANCH  17  18
ENDBRANCH  16  17
ENDBRANCH  15  16
ENDBRANCH  14  15
ENDBRANCH  13  14
ENDBRANCH   1  13
TORSDOF 20
ENDMDL
MODEL 3
REMARK VINA RESULT:    -5.115      7.036     10.081
REMARK INTER + INTRA:         -13.234
REMARK INTER:                  -9.658
REMARK INTRA:                  -3.576
REMARK UNBOUND:                -2.138
REMARK SMILES CCCCCCCCCCCCCCCCCCCCCC(=O)[O-]
REMARK SMILES IDX 12 1 11 2 10 3 9 4 8 5 7 6 6 7 5 8 4 9 3 10 2 11 1 12 13 13
REMARK SMILES IDX 14 14 15 15 16 16 17 17 18 18 19 19 20 20 21 21 22 22 23 23
REMARK SMILES IDX 24 24
REMARK H PARENT
REMARK Flexibility Score: inf
ROOT
ATOM      1  C   UNL     1      46.526  33.810  17.358  1.00  0.00     0.000 C 
ENDROOT
BRANCH   1   2
ATOM      2  C   UNL     1      45.029  33.504  17.566  1.00  0.00     0.000 C 
BRANCH   2   3
ATOM      3  C   UNL     1      44.206  33.368  16.272  1.00  0.00     0.000 C 
BRANCH   3   4
ATOM      4  C   UNL     1      42.761  32.916  16.528  1.00  0.00    -0.000 C 
BRANCH   4   5
ATOM      5  C   UNL     1      42.063  32.538  15.216  1.00  0.00    -0.000 C 
BRANCH   5   6
ATOM      6  C   UNL     1      43.040  31.845  14.254  1.00  0.00    -0.000 C 
BRANCH   6   7
ATOM      7  C   UNL     1      42.838  30.320  14.195  1.00  0.00    -0.000 C 
BRANCH   7   8
ATOM      8  C   UNL     1      44.134  29.490  14.093  1.00  0.00    -0.000 C 
BRANCH   8   9
ATOM      9  C   UNL     1      45.297  29.990  14.969  1.00  0.00    -0.000 C 
BRANCH   9  10
ATOM     10  C   UNL     1      45.069  29.724  16.468  1.00  0.00    -0.000 C 
BRANCH  10  11
ATOM     11  C   UNL     1      46.320  30.009  17.312  1.00  0.00    -0.003 C 
ATOM     12  C   UNL     1      47.569  30.232  16.459  1.00  0.00     0.004 C 
ENDBRANCH  10  11
ENDBRANCH   9  10
ENDBRANCH   8   9
ENDBRANCH   7   8
ENDBRANCH   6   7
ENDBRANCH   5   6
ENDBRANCH   4   5
ENDBRANCH   3   4
ENDBRANCH   2   3
ENDBRANCH   1   2
BRANCH   1  13
ATOM     13  C   UNL     1      46.829  35.184  16.730  1.00  0.00     0.000 C 
BRANCH  13  14
ATOM     14  C   UNL     1      47.404  35.136  15.300  1.00  0.00     0.000 C 
BRANCH  14  15
ATOM     15  C   UNL     1      47.785  33.731  14.800  1.00  0.00     0.000 C 
BRANCH  15  16
ATOM     16  C   UNL     1      46.713  33.109  13.893  1.00  0.00     0.000 C 
BRANCH  16  17
ATOM     17  C   UNL     1      45.893  34.199  13.188  1.00  0.00     0.000 C 
BRANCH  17  18
ATOM     18  C   UNL     1      46.129  34.240  11.668  1.00  0.00     0.000 C 
BRANCH  18  19
ATOM     19  C   UNL     1      47.450  34.899  11.232  1.00  0.00     0.000 C 
BRANCH  19  20
ATOM     20  C   UNL     1      48.542  33.878  10.881  1.00  0.00     0.006 C 
BRANCH  20  21
ATOM     21  C   UNL     1      47.927  32.548  10.435  1.00  0.00     0.053 C 
BRANCH  21  22
ATOM     22  C   UNL     1      48.814  31.407  10.816  1.00  0.00     0.041 C 
ATOM     23  O   UNL     1      48.653  30.275  10.288  1.00  0.00    -0.550 OA
ATOM     24  O   UNL     1      49.789  31.577  11.792  1.00  0.00    -0.550 OA
ENDBRANCH  21  22
ENDBRANCH  20  21
ENDBRANCH  19  20
ENDBRANCH  18  19
ENDBRANCH  17  18
ENDBRANCH  16  17
ENDBRANCH  15  16
ENDBRANCH  14  15
ENDBRANCH  13  14
ENDBRANCH   1  13
TORSDOF 20
ENDMDL
MODEL 4
REMARK VINA RESULT:    -5.113      6.035      9.440
REMARK INTER + INTRA:         -13.230
REMARK INTER:                  -9.630
REMARK INTRA:                  -3.599
REMARK UNBOUND:                -2.138
REMARK SMILES CCCCCCCCCCCCCCCCCCCCCC(=O)[O-]
REMARK SMILES IDX 12 1 11 2 10 3 9 4 8 5 7 6 6 7 5 8 4 9 3 10 2 11 1 12 13 13
REMARK SMILES IDX 14 14 15 15 16 16 17 17 18 18 19 19 20 20 21 21 22 22 23 23
REMARK SMILES IDX 24 24
REMARK H PARENT
REMARK Flexibility Score: inf
ROOT
ATOM      1  C   UNL     1      43.407  32.739  17.258  1.00  0.00     0.000 C 
ENDROOT
BRANCH   1   2
ATOM      2  C   UNL     1      42.772  33.311  15.975  1.00  0.00     0.000 C 
BRANCH   2   3
ATOM      3  C   UNL     1      42.210  32.258  15.002  1.00  0.00     0.000 C 
BRANCH   3   4
ATOM      4  C   UNL     1      43.284  31.666  14.078  1.00  0.00    -0.000 C 
BRANCH   4   5
ATOM      5  C   UNL     1      43.029  30.175  13.823  1.00  0.00    -0.000 C 
BRANCH   5   6
ATOM      6  C   UNL     1      44.334  29.372  13.907  1.00  0.00    -0.000 C 
BRANCH   6   7
ATOM      7  C   UNL     1      45.337  29.965  14.913  1.00  0.00    -0.000 C 
BRANCH   7   8
ATOM      8  C   UNL     1      45.068  29.614  16.391  1.00  0.00    -0.000 C 
BRANCH   8   9
ATOM      9  C   UNL     1      46.310  29.626  17.299  1.00  0.00    -0.000 C 
BRANCH   9  10
ATOM     10  C   UNL     1      45.955  29.749  18.792  1.00  0.00    -0.000 C 
BRANCH  10  11
ATOM     11  C   UNL     1      44.811  28.809  19.201  1.00  0.00    -0.003 C 
ATOM     12  C   UNL     1      43.901  29.417  20.268  1.00  0.00     0.004 C 
ENDBRANCH  10  11
ENDBRANCH   9  10
ENDBRANCH   8   9
ENDBRANCH   7   8
ENDBRANCH   6   7
ENDBRANCH   5   6
ENDBRANCH   4   5
ENDBRANCH   3   4
ENDBRANCH   2   3
ENDBRANCH   1   2
BRANCH   1  13
ATOM     13  C   UNL     1      44.877  33.134  17.491  1.00  0.00     0.000 C 
BRANCH  13  14
ATOM     14  C   UNL     1      45.557  33.848  16.305  1.00  0.00     0.000 C 
BRANCH  14  15
ATOM     15  C   UNL     1      46.868  33.200  15.823  1.00  0.00     0.000 C 
BRANCH  15  16
ATOM     16  C   UNL     1      47.001  33.192  14.293  1.00  0.00     0.000 C 
BRANCH  16  17
ATOM     17  C   UNL     1      46.138  34.293  13.662  1.00  0.00     0.000 C 
BRANCH  17  18
ATOM     18  C   UNL     1      45.885  34.073  12.160  1.00  0.00     0.000 C 
BRANCH  18  19
ATOM     19  C   UNL     1      45.806  32.599  11.723  1.00  0.00     0.000 C 
BRANCH  19  20
ATOM     20  C   UNL     1      46.695  32.284  10.512  1.00  0.00     0.006 C 
BRANCH  20  21
ATOM     21  C   UNL     1      47.753  31.234  10.865  1.00  0.00     0.053 C 
BRANCH  21  22
ATOM     22  C   UNL     1      49.120  31.838  10.840  1.00  0.00     0.041 C 
ATOM     23  O   UNL     1      50.131  31.112  10.644  1.00  0.00    -0.550 OA
ATOM     24  O   UNL     1      49.287  33.196  11.082  1.00  0.00    -0.550 OA
ENDBRANCH  21  22
ENDBRANCH  20  21
ENDBRANCH  19  20
ENDBRANCH  18  19
ENDBRANCH  17  18
ENDBRANCH  16  17
ENDBRANCH  15  16
ENDBRANCH  14  15
ENDBRANCH  13  14
ENDBRANCH   1  13
TORSDOF 20
ENDMDL
MODEL 5
REMARK VINA RESULT:    -5.099      7.703     11.215
REMARK INTER + INTRA:         -13.199
REMARK INTER:                  -9.497
REMARK INTRA:                  -3.703
REMARK UNBOUND:                -2.138
REMARK SMILES CCCCCCCCCCCCCCCCCCCCCC(=O)[O-]
REMARK SMILES IDX 12 1 11 2 10 3 9 4 8 5 7 6 6 7 5 8 4 9 3 10 2 11 1 12 13 13
REMARK SMILES IDX 14 14 15 15 16 16 17 17 18 18 19 19 20 20 21 21 22 22 23 23
REMARK SMILES IDX 24 24
REMARK H PARENT
REMARK Flexibility Score: inf
ROOT
ATOM      1  C   UNL     1      46.064  34.270  14.457  1.00  0.00     0.000 C 
ENDROOT
BRANCH   1   2
ATOM      2  C   UNL     1      46.175  34.702  12.981  1.00  0.00     0.000 C 
BRANCH   2   3
ATOM      3  C   UNL     1      47.563  35.217  12.557  1.00  0.00     0.000 C 
BRANCH   3   4
ATOM      4  C   UNL     1      48.076  34.557  11.268  1.00  0.00    -0.000 C 
BRANCH   4   5
ATOM      5  C   UNL     1      46.987  33.689  10.625  1.00  0.00    -0.000 C 
BRANCH   5   6
ATOM      6  C   UNL     1      47.343  32.198  10.723  1.00  0.00    -0.000 C 
BRANCH   6   7
ATOM      7  C   UNL     1      48.857  31.955  10.867  1.00  0.00    -0.000 C 
BRANCH   7   8
ATOM      8  C   UNL     1      49.278  31.181  12.133  1.00  0.00    -0.000 C 
BRANCH   8   9
ATOM      9  C   UNL     1      49.872  32.047  13.258  1.00  0.00    -0.000 C 
BRANCH   9  10
ATOM     10  C   UNL     1      48.989  32.073  14.518  1.00  0.00    -0.000 C 
BRANCH  10  11
ATOM     11  C   UNL     1      47.680  31.293  14.333  1.00  0.00    -0.003 C 
ATOM     12  C   UNL     1      47.394  30.336  15.490  1.00  0.00     0.004 C 
ENDBRANCH  10  11
ENDBRANCH   9  10
ENDBRANCH   8   9
ENDBRANCH   7   8
ENDBRANCH   6   7
ENDBRANCH   5   6
ENDBRANCH   4   5
ENDBRANCH   3   4
ENDBRANCH   2   3
ENDBRANCH   1   2
BRANCH   1  13
ATOM     13  C   UNL     1      46.821  35.165  15.457  1.00  0.00     0.000 C 
BRANCH  13  14
ATOM     14  C   UNL     1      46.533  34.873  16.944  1.00  0.00     0.000 C 
BRANCH  14  15
ATOM     15  C   UNL     1      46.948  33.469  17.422  1.00  0.00     0.000 C 
BRANCH  15  16
ATOM     16  C   UNL     1      45.760  32.633  17.920  1.00  0.00     0.000 C 
BRANCH  16  17
ATOM     17  C   UNL     1      44.432  33.353  17.648  1.00  0.00     0.000 C 
BRANCH  17  18
ATOM     18  C   UNL     1      43.379  32.442  16.990  1.00  0.00     0.000 C 
BRANCH  18  19
ATOM     19  C   UNL     1      42.665  33.051  15.770  1.00  0.00     0.000 C 
BRANCH  19  20
ATOM     20  C   UNL     1      42.361  32.017  14.676  1.00  0.00     0.006 C 
BRANCH  20  21
ATOM     21  C   UNL     1      43.653  31.418  14.113  1.00  0.00     0.053 C 
BRANCH  21  22
ATOM     22  C   UNL     1      43.522  29.936  13.962  1.00  0.00     0.041 C 
ATOM     23  O   UNL     1      44.550  29.216  13.859  1.00  0.00    -0.550 OA
ATOM     24  O   UNL     1      42.264  29.353  13.884  1.00  0.00    -0.550 OA
ENDBRANCH  21  22
ENDBRANCH  20  21
ENDBRANCH  19  20
ENDBRANCH  18  19
ENDBRANCH  17  18
ENDBRANCH  16  17
ENDBRANCH  15  16
ENDBRANCH  14  15
ENDBRANCH  13  14
ENDBRANCH   1  13
TORSDOF 20
ENDMDL
MODEL 6
REMARK VINA RESULT:    -5.062      2.963      7.158
REMARK INTER + INTRA:         -13.119
REMARK INTER:                 -11.146
REMARK INTRA:                  -1.973
REMARK UNBOUND:                -2.138
REMARK SMILES CCCCCCCCCCCCCCCCCCCCCC(=O)[O-]
REMARK SMILES IDX 12 1 11 2 10 3 9 4 8 5 7 6 6 7 5 8 4 9 3 10 2 11 1 12 13 13
REMARK SMILES IDX 14 14 15 15 16 16 17 17 18 18 19 19 20 20 21 21 22 22 23 23
REMARK SMILES IDX 24 24
REMARK H PARENT
REMARK Flexibility Score: inf
ROOT
ATOM      1  C   UNL     1      46.445  23.440  19.532  1.00  0.00     0.000 C 
ENDROOT
BRANCH   1   2
ATOM      2  C   UNL     1      46.369  24.738  20.362  1.00  0.00     0.000 C 
BRANCH   2   3
ATOM      3  C   UNL     1      45.756  25.944  19.628  1.00  0.00     0.000 C 
BRANCH   3   4
ATOM      4  C   UNL     1      44.440  26.421  20.260  1.00  0.00    -0.000 C 
BRANCH   4   5
ATOM      5  C   UNL     1      43.901  27.661  19.536  1.00  0.00    -0.000 C 
BRANCH   5   6
ATOM      6  C   UNL     1      45.047  28.492  18.942  1.00  0.00    -0.000 C 
BRANCH   6   7
ATOM      7  C   UNL     1      44.819  30.008  19.079  1.00  0.00    -0.000 C 
BRANCH   7   8
ATOM      8  C   UNL     1      44.274  30.705  17.815  1.00  0.00    -0.000 C 
BRANCH   8   9
ATOM      9  C   UNL     1      45.220  30.685  16.601  1.00  0.00    -0.000 C 
BRANCH   9  10
ATOM     10  C   UNL     1      44.484  30.917  15.269  1.00  0.00    -0.000 C 
BRANCH  10  11
ATOM     11  C   UNL     1      44.122  29.603  14.562  1.00  0.00    -0.003 C 
ATOM     12  C   UNL     1      42.755  29.658  13.880  1.00  0.00     0.004 C 
ENDBRANCH  10  11
ENDBRANCH   9  10
ENDBRANCH   8   9
ENDBRANCH   7   8
ENDBRANCH   6   7
ENDBRANCH   5   6
ENDBRANCH   4   5
ENDBRANCH   3   4
ENDBRANCH   2   3
ENDBRANCH   1   2
BRANCH   1  13
ATOM     13  C   UNL     1      46.868  22.186  20.321  1.00  0.00     0.000 C 
BRANCH  13  14
ATOM     14  C   UNL     1      46.021  21.884  21.573  1.00  0.00     0.000 C 
BRANCH  14  15
ATOM     15  C   UNL     1      45.104  20.653  21.454  1.00  0.00     0.000 C 
BRANCH  15  16
ATOM     16  C   UNL     1      43.620  21.025  21.321  1.00  0.00     0.000 C 
BRANCH  16  17
ATOM     17  C   UNL     1      43.385  22.490  21.716  1.00  0.00     0.000 C 
BRANCH  17  18
ATOM     18  C   UNL     1      42.270  23.162  20.895  1.00  0.00     0.000 C 
BRANCH  18  19
ATOM     19  C   UNL     1      42.595  23.373  19.405  1.00  0.00     0.000 C 
BRANCH  19  20
ATOM     20  C   UNL     1      41.464  22.917  18.474  1.00  0.00     0.006 C 
BRANCH  20  21
ATOM     21  C   UNL     1      40.155  23.641  18.804  1.00  0.00     0.053 C 
BRANCH  21  22
ATOM     22  C   UNL     1      39.065  23.201  17.880  1.00  0.00     0.041 C 
ATOM     23  O   UNL     1      38.034  23.909  17.733  1.00  0.00    -0.550 OA
ATOM     24  O   UNL     1      39.162  21.984  17.218  1.00  0.00    -0.550 OA
ENDBRANCH  21  22
ENDBRANCH  20  21
ENDBRANCH  19  20
ENDBRANCH  18  19
ENDBRANCH  17  18
ENDBRANCH  16  17
ENDBRANCH  15  16
ENDBRANCH  14  15
ENDBRANCH  13  14
ENDBRANCH   1  13
TORSDOF 20
ENDMDL
MODEL 7
REMARK VINA RESULT:    -5.040      6.867     10.143
REMARK INTER + INTRA:         -13.071
REMARK INTER:                  -9.788
REMARK INTRA:                  -3.283
REMARK UNBOUND:                -2.138
REMARK SMILES CCCCCCCCCCCCCCCCCCCCCC(=O)[O-]
REMARK SMILES IDX 12 1 11 2 10 3 9 4 8 5 7 6 6 7 5 8 4 9 3 10 2 11 1 12 13 13
REMARK SMILES IDX 14 14 15 15 16 16 17 17 18 18 19 19 20 20 21 21 22 22 23 23
REMARK SMILES IDX 24 24
REMARK H PARENT
REMARK Flexibility Score: inf
ROOT
ATOM      1  C   UNL     1      43.592  32.952  16.991  1.00  0.00     0.000 C 
ENDROOT
BRANCH   1   2
ATOM      2  C   UNL     1      42.699  33.378  15.808  1.00  0.00     0.000 C 
BRANCH   2   3
ATOM      3  C   UNL     1      42.147  32.218  14.959  1.00  0.00     0.000 C 
BRANCH   3   4
ATOM      4  C   UNL     1      43.207  31.596  14.038  1.00  0.00    -0.000 C 
BRANCH   4   5
ATOM      5  C   UNL     1      43.022  30.077  13.937  1.00  0.00    -0.000 C 
BRANCH   5   6
ATOM      6  C   UNL     1      44.372  29.351  14.029  1.00  0.00    -0.000 C 
BRANCH   6   7
ATOM      7  C   UNL     1      45.319  29.982  15.066  1.00  0.00    -0.000 C 
BRANCH   7   8
ATOM      8  C   UNL     1      44.996  29.648  16.537  1.00  0.00    -0.000 C 
BRANCH   8   9
ATOM      9  C   UNL     1      46.221  29.533  17.462  1.00  0.00    -0.000 C 
BRANCH   9  10
ATOM     10  C   UNL     1      47.361  30.485  17.059  1.00  0.00    -0.000 C 
BRANCH  10  11
ATOM     11  C   UNL     1      48.716  29.768  16.957  1.00  0.00    -0.003 C 
ATOM     12  C   UNL     1      49.180  29.587  15.512  1.00  0.00     0.004 C 
ENDBRANCH  10  11
ENDBRANCH   9  10
ENDBRANCH   8   9
ENDBRANCH   7   8
ENDBRANCH   6   7
ENDBRANCH   5   6
ENDBRANCH   4   5
ENDBRANCH   3   4
ENDBRANCH   2   3
ENDBRANCH   1   2
BRANCH   1  13
ATOM     13  C   UNL     1      45.065  33.392  16.887  1.00  0.00     0.000 C 
BRANCH  13  14
ATOM     14  C   UNL     1      45.453  34.066  15.556  1.00  0.00     0.000 C 
BRANCH  14  15
ATOM     15  C   UNL     1      46.644  33.419  14.824  1.00  0.00     0.000 C 
BRANCH  15  16
ATOM     16  C   UNL     1      46.364  33.170  13.334  1.00  0.00     0.000 C 
BRANCH  16  17
ATOM     17  C   UNL     1      46.086  34.490  12.601  1.00  0.00     0.000 C 
BRANCH  17  18
ATOM     18  C   UNL     1      46.887  34.632  11.294  1.00  0.00     0.000 C 
BRANCH  18  19
ATOM     19  C   UNL     1      47.231  33.305  10.595  1.00  0.00     0.000 C 
BRANCH  19  20
ATOM     20  C   UNL     1      48.714  33.197  10.211  1.00  0.00     0.006 C 
BRANCH  20  21
ATOM     21  C   UNL     1      49.542  32.639  11.373  1.00  0.00     0.053 C 
BRANCH  21  22
ATOM     22  C   UNL     1      49.751  31.167  11.209  1.00  0.00     0.041 C 
ATOM     23  O   UNL     1      49.388  30.589  10.150  1.00  0.00    -0.550 OA
ATOM     24  O   UNL     1      50.300  30.422  12.245  1.00  0.00    -0.550 OA
ENDBRANCH  21  22
ENDBRANCH  20  21
ENDBRANCH  19  20
ENDBRANCH  18  19
ENDBRANCH  17  18
ENDBRANCH  16  17
ENDBRANCH  15  16
ENDBRANCH  14  15
ENDBRANCH  13  14
ENDBRANCH   1  13
TORSDOF 20
ENDMDL
MODEL 8
REMARK VINA RESULT:    -5.021      6.990     11.376
REMARK INTER + INTRA:         -13.030
REMARK INTER:                  -9.349
REMARK INTRA:                  -3.681
REMARK UNBOUND:                -2.138
REMARK SMILES CCCCCCCCCCCCCCCCCCCCCC(=O)[O-]
REMARK SMILES IDX 12 1 11 2 10 3 9 4 8 5 7 6 6 7 5 8 4 9 3 10 2 11 1 12 13 13
REMARK SMILES IDX 14 14 15 15 16 16 17 17 18 18 19 19 20 20 21 21 22 22 23 23
REMARK SMILES IDX 24 24
REMARK H PARENT
REMARK Flexibility Score: inf
ROOT
ATOM      1  C   UNL     1      46.881  33.773  10.504  1.00  0.00     0.000 C 
ENDROOT
BRANCH   1   2
ATOM      2  C   UNL     1      46.508  35.196  10.966  1.00  0.00     0.000 C 
BRANCH   2   3
ATOM      3  C   UNL     1      47.477  35.825  11.984  1.00  0.00     0.000 C 
BRANCH   3   4
ATOM      4  C   UNL     1      47.044  35.595  13.439  1.00  0.00    -0.000 C 
BRANCH   4   5
ATOM      5  C   UNL     1      48.187  35.920  14.409  1.00  0.00    -0.000 C 
BRANCH   5   6
ATOM      6  C   UNL     1      47.684  35.949  15.860  1.00  0.00    -0.000 C 
BRANCH   6   7
ATOM      7  C   UNL     1      46.584  34.907  16.131  1.00  0.00    -0.000 C 
BRANCH   7   8
ATOM      8  C   UNL     1      46.163  34.768  17.608  1.00  0.00    -0.000 C 
BRANCH   8   9
ATOM      9  C   UNL     1      45.004  33.788  17.866  1.00  0.00    -0.000 C 
BRANCH   9  10
ATOM     10  C   UNL     1      45.487  32.414  18.364  1.00  0.00    -0.000 C 
BRANCH  10  11
ATOM     11  C   UNL     1      44.979  31.260  17.487  1.00  0.00    -0.003 C 
ATOM     12  C   UNL     1      46.069  30.236  17.169  1.00  0.00     0.004 C 
ENDBRANCH  10  11
ENDBRANCH   9  10
ENDBRANCH   8   9
ENDBRANCH   7   8
ENDBRANCH   6   7
ENDBRANCH   5   6
ENDBRANCH   4   5
ENDBRANCH   3   4
ENDBRANCH   2   3
ENDBRANCH   1   2
BRANCH   1  13
ATOM     13  C   UNL     1      48.390  33.467  10.489  1.00  0.00     0.000 C 
BRANCH  13  14
ATOM     14  C   UNL     1      48.754  31.969  10.522  1.00  0.00     0.000 C 
BRANCH  14  15
ATOM     15  C   UNL     1      48.870  31.360  11.931  1.00  0.00     0.000 C 
BRANCH  15  16
ATOM     16  C   UNL     1      49.154  32.412  13.014  1.00  0.00     0.000 C 
BRANCH  16  17
ATOM     17  C   UNL     1      48.277  32.175  14.251  1.00  0.00     0.000 C 
BRANCH  17  18
ATOM     18  C   UNL     1      46.937  31.494  13.917  1.00  0.00     0.000 C 
BRANCH  18  19
ATOM     19  C   UNL     1      45.749  32.454  13.726  1.00  0.00     0.000 C 
BRANCH  19  20
ATOM     20  C   UNL     1      44.548  31.792  13.036  1.00  0.00     0.006 C 
BRANCH  20  21
ATOM     21  C   UNL     1      43.521  31.311  14.065  1.00  0.00     0.053 C 
BRANCH  21  22
ATOM     22  C   UNL     1      43.434  29.818  14.061  1.00  0.00     0.041 C 
ATOM     23  O   UNL     1      44.470  29.122  14.228  1.00  0.00    -0.550 OA
ATOM     24  O   UNL     1      42.216  29.193  13.823  1.00  0.00    -0.550 OA
ENDBRANCH  21  22
ENDBRANCH  20  21
ENDBRANCH  19  20
ENDBRANCH  18  19
ENDBRANCH  17  18
ENDBRANCH  16  17
ENDBRANCH  15  16
ENDBRANCH  14  15
ENDBRANCH  13  14
ENDBRANCH   1  13
TORSDOF 20
ENDMDL
MODEL 9
REMARK VINA RESULT:    -4.993      5.657     10.556
REMARK INTER + INTRA:         -12.969
REMARK INTER:                  -9.913
REMARK INTRA:                  -3.056
REMARK UNBOUND:                -2.138
REMARK SMILES CCCCCCCCCCCCCCCCCCCCCC(=O)[O-]
REMARK SMILES IDX 12 1 11 2 10 3 9 4 8 5 7 6 6 7 5 8 4 9 3 10 2 11 1 12 13 13
REMARK SMILES IDX 14 14 15 15 16 16 17 17 18 18 19 19 20 20 21 21 22 22 23 23
REMARK SMILES IDX 24 24
REMARK H PARENT
REMARK Flexibility Score: inf
ROOT
ATOM      1  C   UNL     1      44.991  33.747  14.628  1.00  0.00     0.000 C 
ENDROOT
BRANCH   1   2
ATOM      2  C   UNL     1      43.983  33.357  15.728  1.00  0.00     0.000 C 
BRANCH   2   3
ATOM      3  C   UNL     1      43.469  31.907  15.655  1.00  0.00     0.000 C 
BRANCH   3   4
ATOM      4  C   UNL     1      42.991  31.514  14.249  1.00  0.00    -0.000 C 
BRANCH   4   5
ATOM      5  C   UNL     1      43.550  30.144  13.843  1.00  0.00    -0.000 C 
BRANCH   5   6
ATOM      6  C   UNL     1      44.913  30.291  13.150  1.00  0.00    -0.000 C 
BRANCH   6   7
ATOM      7  C   UNL     1      44.932  31.421  12.105  1.00  0.00    -0.000 C 
BRANCH   7   8
ATOM      8  C   UNL     1      46.224  31.515  11.267  1.00  0.00    -0.000 C 
BRANCH   8   9
ATOM      9  C   UNL     1      46.542  32.918  10.717  1.00  0.00    -0.000 C 
BRANCH   9  10
ATOM     10  C   UNL     1      47.718  33.590  11.447  1.00  0.00    -0.000 C 
BRANCH  10  11
ATOM     11  C   UNL     1      47.488  35.092  11.672  1.00  0.00    -0.003 C 
ATOM     12  C   UNL     1      46.111  35.556  11.197  1.00  0.00     0.004 C 
ENDBRANCH  10  11
ENDBRANCH   9  10
ENDBRANCH   8   9
ENDBRANCH   7   8
ENDBRANCH   6   7
ENDBRANCH   5   6
ENDBRANCH   4   5
ENDBRANCH   3   4
ENDBRANCH   2   3
ENDBRANCH   1   2
BRANCH   1  13
ATOM     13  C   UNL     1      46.462  33.806  15.083  1.00  0.00     0.000 C 
BRANCH  13  14
ATOM     14  C   UNL     1      46.882  35.122  15.767  1.00  0.00     0.000 C 
BRANCH  14  15
ATOM     15  C   UNL     1      47.287  34.984  17.246  1.00  0.00     0.000 C 
BRANCH  15  16
ATOM     16  C   UNL     1      46.090  35.076  18.204  1.00  0.00     0.000 C 
BRANCH  16  17
ATOM     17  C   UNL     1      46.044  33.860  19.141  1.00  0.00     0.000 C 
BRANCH  17  18
ATOM     18  C   UNL     1      46.670  32.598  18.519  1.00  0.00     0.000 C 
BRANCH  18  19
ATOM     19  C   UNL     1      46.265  31.274  19.190  1.00  0.00     0.000 C 
BRANCH  19  20
ATOM     20  C   UNL     1      44.901  30.753  18.714  1.00  0.00     0.006 C 
BRANCH  20  21
ATOM     21  C   UNL     1      45.066  29.531  17.806  1.00  0.00     0.053 C 
BRANCH  21  22
ATOM     22  C   UNL     1      45.138  28.279  18.620  1.00  0.00     0.041 C 
ATOM     23  O   UNL     1      44.089  27.777  19.106  1.00  0.00    -0.550 OA
ATOM     24  O   UNL     1      46.368  27.690  18.886  1.00  0.00    -0.550 OA
ENDBRANCH  21  22
ENDBRANCH  20  21
ENDBRANCH  19  20
ENDBRANCH  18  19
ENDBRANCH  17  18
ENDBRANCH  16  17
ENDBRANCH  15  16
ENDBRANCH  14  15
ENDBRANCH  13  14
ENDBRANCH   1  13
TORSDOF 20
ENDMDL
