MODEL 1
REMARK VINA RESULT:    -4.942      0.000      0.000
REMARK INTER + INTRA:         -13.821
REMARK INTER:                 -10.720
REMARK INTRA:                  -3.100
REMARK UNBOUND:                -3.100
REMARK SMILES CCCCCCCCCCCCCCCCCCCCCC(=O)[O-]
REMARK SMILES IDX 12 1 11 2 10 3 9 4 8 5 7 6 6 7 5 8 4 9 3 10 2 11 1 12 13 13
REMARK SMILES IDX 14 14 15 15 16 16 17 17 18 18 19 19 20 20 21 21 22 22 23 23
REMARK SMILES IDX 24 24
REMARK H PARENT
REMARK Flexibility Score: inf
ROOT
ATOM      1  C   UNL     1       0.397  44.120   7.676  1.00  0.00     0.000 C 
ENDROOT
BRANCH   1   2
ATOM      2  C   UNL     1       0.356  45.588   7.216  1.00  0.00     0.000 C 
BRANCH   2   3
ATOM      3  C   UNL     1      -0.991  46.274   7.529  1.00  0.00     0.000 C 
BRANCH   3   4
ATOM      4  C   UNL     1      -0.859  47.558   8.371  1.00  0.00    -0.000 C 
BRANCH   4   5
ATOM      5  C   UNL     1       0.074  47.455   9.592  1.00  0.00    -0.000 C 
BRANCH   5   6
ATOM      6  C   UNL     1       1.324  48.355   9.540  1.00  0.00    -0.000 C 
BRANCH   6   7
ATOM      7  C   UNL     1       1.351  49.273   8.310  1.00  0.00    -0.000 C 
BRANCH   7   8
ATOM      8  C   UNL     1       2.510  48.903   7.373  1.00  0.00    -0.000 C 
BRANCH   8   9
ATOM      9  C   UNL     1       3.401  47.787   7.955  1.00  0.00    -0.000 C 
BRANCH   9  10
ATOM     10  C   UNL     1       4.883  48.184   8.095  1.00  0.00    -0.000 C 
BRANCH  10  11
ATOM     11  C   UNL     1       5.654  47.429   9.190  1.00  0.00    -0.003 C 
ATOM     12  C   UNL     1       7.048  48.003   9.438  1.00  0.00     0.004 C 
ENDBRANCH  10  11
ENDBRANCH   9  10
ENDBRANCH   8   9
ENDBRANCH   7   8
ENDBRANCH   6   7
ENDBRANCH   5   6
ENDBRANCH   4   5
ENDBRANCH   3   4
ENDBRANCH   2   3
ENDBRANCH   1   2
BRANCH   1  13
ATOM     13  C   UNL     1       1.173  43.935   8.994  1.00  0.00     0.000 C 
BRANCH  13  14
ATOM     14  C   UNL     1       2.549  43.264   8.828  1.00  0.00     0.000 C 
BRANCH  14  15
ATOM     15  C   UNL     1       3.705  44.161   9.307  1.00  0.00     0.000 C 
BRANCH  15  16
ATOM     16  C   UNL     1       3.239  45.245  10.292  1.00  0.00     0.000 C 
BRANCH  16  17
ATOM     17  C   UNL     1       3.952  45.154  11.650  1.00  0.00     0.000 C 
BRANCH  17  18
ATOM     18  C   UNL     1       3.784  43.760  12.266  1.00  0.00     0.000 C 
BRANCH  18  19
ATOM     19  C   UNL     1       2.298  43.420  12.462  1.00  0.00     0.000 C 
BRANCH  19  20
ATOM     20  C   UNL     1       2.033  41.904  12.518  1.00  0.00     0.006 C 
BRANCH  20  21
ATOM     21  C   UNL     1       3.199  41.035  12.020  1.00  0.00     0.053 C 
BRANCH  21  22
ATOM     22  C   UNL     1       3.341  39.773  12.816  1.00  0.00     0.041 C 
ATOM     23  O   UNL     1       2.423  38.914  12.808  1.00  0.00    -0.550 OA
ATOM     24  O   UNL     1       4.504  39.530  13.536  1.00  0.00    -0.550 OA
ENDBRANCH  21  22
ENDBRANCH  20  21
ENDBRANCH  19  20
ENDBRANCH  18  19
ENDBRANCH  17  18
ENDBRANCH  16  17
ENDBRANCH  15  16
ENDBRANCH  14  15
ENDBRANCH  13  14
ENDBRANCH   1  13
TORSDOF 20
ENDMDL
MODEL 2
REMARK VINA RESULT:    -4.748      3.133      6.914
REMARK INTER + INTRA:         -13.400
REMARK INTER:                 -10.625
REMARK INTRA:                  -2.775
REMARK UNBOUND:                -3.100
REMARK SMILES CCCCCCCCCCCCCCCCCCCCCC(=O)[O-]
REMARK SMILES IDX 12 1 11 2 10 3 9 4 8 5 7 6 6 7 5 8 4 9 3 10 2 11 1 12 13 13
REMARK SMILES IDX 14 14 15 15 16 16 17 17 18 18 19 19 20 20 21 21 22 22 23 23
REMARK SMILES IDX 24 24
REMARK H PARENT
REMARK Flexibility Score: inf
ROOT
ATOM      1  C   UNL     1       0.527  44.780   9.827  1.00  0.00     0.000 C 
ENDROOT
BRANCH   1   2
ATOM      2  C   UNL     1       1.082  44.076   8.576  1.00  0.00     0.000 C 
BRANCH   2   3
ATOM      3  C   UNL     1       2.294  43.172   8.889  1.00  0.00     0.000 C 
BRANCH   3   4
ATOM      4  C   UNL     1       3.640  43.922   8.932  1.00  0.00    -0.000 C 
BRANCH   4   5
ATOM      5  C   UNL     1       4.452  43.747  10.229  1.00  0.00    -0.000 C 
BRANCH   5   6
ATOM      6  C   UNL     1       4.080  44.712  11.371  1.00  0.00    -0.000 C 
BRANCH   6   7
ATOM      7  C   UNL     1       3.560  43.988  12.622  1.00  0.00    -0.000 C 
BRANCH   7   8
ATOM      8  C   UNL     1       2.079  43.613  12.463  1.00  0.00    -0.000 C 
BRANCH   8   9
ATOM      9  C   UNL     1       1.849  42.089  12.550  1.00  0.00    -0.000 C 
BRANCH   9  10
ATOM     10  C   UNL     1       3.023  41.252  12.007  1.00  0.00    -0.000 C 
BRANCH  10  11
ATOM     11  C   UNL     1       3.332  39.977  12.808  1.00  0.00    -0.003 C 
ATOM     12  C   UNL     1       4.802  39.871  13.211  1.00  0.00     0.004 C 
ENDBRANCH  10  11
ENDBRANCH   9  10
ENDBRANCH   8   9
ENDBRANCH   7   8
ENDBRANCH   6   7
ENDBRANCH   5   6
ENDBRANCH   4   5
ENDBRANCH   3   4
ENDBRANCH   2   3
ENDBRANCH   1   2
BRANCH   1  13
ATOM     13  C   UNL     1      -0.766  45.567   9.538  1.00  0.00     0.000 C 
BRANCH  13  14
ATOM     14  C   UNL     1      -0.861  46.917  10.273  1.00  0.00     0.000 C 
BRANCH  14  15
ATOM     15  C   UNL     1      -0.594  48.114   9.343  1.00  0.00     0.000 C 
BRANCH  15  16
ATOM     16  C   UNL     1      -0.546  47.710   7.861  1.00  0.00     0.000 C 
BRANCH  16  17
ATOM     17  C   UNL     1       0.877  47.750   7.284  1.00  0.00     0.000 C 
BRANCH  17  18
ATOM     18  C   UNL     1       1.878  48.264   8.326  1.00  0.00     0.000 C 
BRANCH  18  19
ATOM     19  C   UNL     1       2.935  47.196   8.648  1.00  0.00     0.000 C 
BRANCH  19  20
ATOM     20  C   UNL     1       4.370  47.663   8.341  1.00  0.00     0.006 C 
BRANCH  20  21
ATOM     21  C   UNL     1       5.377  47.418   9.477  1.00  0.00     0.053 C 
BRANCH  21  22
ATOM     22  C   UNL     1       6.708  48.046   9.195  1.00  0.00     0.041 C 
ATOM     23  O   UNL     1       7.767  47.461   9.537  1.00  0.00    -0.550 OA
ATOM     24  O   UNL     1       6.779  49.259   8.522  1.00  0.00    -0.550 OA
ENDBRANCH  21  22
ENDBRANCH  20  21
ENDBRANCH  19  20
ENDBRANCH  18  19
ENDBRANCH  17  18
ENDBRANCH  16  17
ENDBRANCH  15  16
ENDBRANCH  14  15
ENDBRANCH  13  14
ENDBRANCH   1  13
TORSDOF 20
ENDMDL
MODEL 3
REMARK VINA RESULT:    -4.685      3.087      7.229
REMARK INTER + INTRA:         -13.263
REMARK INTER:                 -11.191
REMARK INTRA:                  -2.071
REMARK UNBOUND:                -3.100
REMARK SMILES CCCCCCCCCCCCCCCCCCCCCC(=O)[O-]
REMARK SMILES IDX 12 1 11 2 10 3 9 4 8 5 7 6 6 7 5 8 4 9 3 10 2 11 1 12 13 13
REMARK SMILES IDX 14 14 15 15 16 16 17 17 18 18 19 19 20 20 21 21 22 22 23 23
REMARK SMILES IDX 24 24
REMARK H PARENT
REMARK Flexibility Score: inf
ROOT
ATOM      1  C   UNL     1       0.442  45.393   7.847  1.00  0.00     0.000 C 
ENDROOT
BRANCH   1   2
ATOM      2  C   UNL     1       0.297  45.332   9.378  1.00  0.00     0.000 C 
BRANCH   2   3
ATOM      3  C   UNL     1       1.402  44.486  10.048  1.00  0.00     0.000 C 
BRANCH   3   4
ATOM      4  C   UNL     1       2.113  43.511   9.088  1.00  0.00    -0.000 C 
BRANCH   4   5
ATOM      5  C   UNL     1       3.488  43.004   9.562  1.00  0.00    -0.000 C 
BRANCH   5   6
ATOM      6  C   UNL     1       4.066  43.729  10.793  1.00  0.00    -0.000 C 
BRANCH   6   7
ATOM      7  C   UNL     1       3.558  43.153  12.121  1.00  0.00    -0.000 C 
BRANCH   7   8
ATOM      8  C   UNL     1       3.405  41.627  12.036  1.00  0.00    -0.000 C 
BRANCH   8   9
ATOM      9  C   UNL     1       4.596  40.882  12.673  1.00  0.00    -0.000 C 
BRANCH   9  10
ATOM     10  C   UNL     1       4.239  39.480  13.206  1.00  0.00    -0.000 C 
BRANCH  10  11
ATOM     11  C   UNL     1       2.950  38.878  12.625  1.00  0.00    -0.003 C 
ATOM     12  C   UNL     1       1.689  39.391  13.320  1.00  0.00     0.004 C 
ENDBRANCH  10  11
ENDBRANCH   9  10
ENDBRANCH   8   9
ENDBRANCH   7   8
ENDBRANCH   6   7
ENDBRANCH   5   6
ENDBRANCH   4   5
ENDBRANCH   3   4
ENDBRANCH   2   3
ENDBRANCH   1   2
BRANCH   1  13
ATOM     13  C   UNL     1      -0.230  46.639   7.239  1.00  0.00     0.000 C 
BRANCH  13  14
ATOM     14  C   UNL     1      -0.527  47.757   8.256  1.00  0.00     0.000 C 
BRANCH  14  15
ATOM     15  C   UNL     1      -0.127  49.149   7.735  1.00  0.00     0.000 C 
BRANCH  15  16
ATOM     16  C   UNL     1       1.194  49.648   8.342  1.00  0.00     0.000 C 
BRANCH  16  17
ATOM     17  C   UNL     1       2.341  49.669   7.320  1.00  0.00     0.000 C 
BRANCH  17  18
ATOM     18  C   UNL     1       3.073  48.322   7.288  1.00  0.00     0.000 C 
BRANCH  18  19
ATOM     19  C   UNL     1       3.184  47.722   8.699  1.00  0.00     0.000 C 
BRANCH  19  20
ATOM     20  C   UNL     1       4.346  46.720   8.833  1.00  0.00     0.006 C 
BRANCH  20  21
ATOM     21  C   UNL     1       5.395  47.098   9.890  1.00  0.00     0.053 C 
BRANCH  21  22
ATOM     22  C   UNL     1       6.577  47.795   9.288  1.00  0.00     0.041 C 
ATOM     23  O   UNL     1       6.408  48.775   8.518  1.00  0.00    -0.550 OA
ATOM     24  O   UNL     1       7.866  47.385   9.606  1.00  0.00    -0.550 OA
ENDBRANCH  21  22
ENDBRANCH  20  21
ENDBRANCH  19  20
ENDBRANCH  18  19
ENDBRANCH  17  18
ENDBRANCH  16  17
ENDBRANCH  15  16
ENDBRANCH  14  15
ENDBRANCH  13  14
ENDBRANCH   1  13
TORSDOF 20
ENDMDL
MODEL 4
REMARK VINA RESULT:    -4.639      1.222      2.064
REMARK INTER + INTRA:         -13.164
REMARK INTER:                 -10.403
REMARK INTRA:                  -2.761
REMARK UNBOUND:                -3.100
REMARK SMILES CCCCCCCCCCCCCCCCCCCCCC(=O)[O-]
REMARK SMILES IDX 12 1 11 2 10 3 9 4 8 5 7 6 6 7 5 8 4 9 3 10 2 11 1 12 13 13
REMARK SMILES IDX 14 14 15 15 16 16 17 17 18 18 19 19 20 20 21 21 22 22 23 23
REMARK SMILES IDX 24 24
REMARK H PARENT
REMARK Flexibility Score: inf
ROOT
ATOM      1  C   UNL     1      -0.417  44.956   7.327  1.00  0.00     0.000 C 
ENDROOT
BRANCH   1   2
ATOM      2  C   UNL     1       0.131  46.379   7.120  1.00  0.00     0.000 C 
BRANCH   2   3
ATOM      3  C   UNL     1      -0.785  47.464   7.724  1.00  0.00     0.000 C 
BRANCH   3   4
ATOM      4  C   UNL     1      -0.386  47.900   9.148  1.00  0.00    -0.000 C 
BRANCH   4   5
ATOM      5  C   UNL     1       1.079  48.342   9.317  1.00  0.00    -0.000 C 
BRANCH   5   6
ATOM      6  C   UNL     1       1.490  49.579   8.494  1.00  0.00    -0.000 C 
BRANCH   6   7
ATOM      7  C   UNL     1       2.556  49.266   7.434  1.00  0.00    -0.000 C 
BRANCH   7   8
ATOM      8  C   UNL     1       3.234  47.918   7.719  1.00  0.00    -0.000 C 
BRANCH   8   9
ATOM      9  C   UNL     1       4.721  48.079   8.099  1.00  0.00    -0.000 C 
BRANCH   9  10
ATOM     10  C   UNL     1       5.104  47.381   9.418  1.00  0.00    -0.000 C 
BRANCH  10  11
ATOM     11  C   UNL     1       4.610  45.930   9.547  1.00  0.00    -0.003 C 
ATOM     12  C   UNL     1       4.601  45.434  10.992  1.00  0.00     0.004 C 
ENDBRANCH  10  11
ENDBRANCH   9  10
ENDBRANCH   8   9
ENDBRANCH   7   8
ENDBRANCH   6   7
ENDBRANCH   5   6
ENDBRANCH   4   5
ENDBRANCH   3   4
ENDBRANCH   2   3
ENDBRANCH   1   2
BRANCH   1  13
ATOM     13  C   UNL     1       0.604  44.021   8.004  1.00  0.00     0.000 C 
BRANCH  13  14
ATOM     14  C   UNL     1       1.365  44.662   9.179  1.00  0.00     0.000 C 
BRANCH  14  15
ATOM     15  C   UNL     1       0.555  44.641  10.488  1.00  0.00     0.000 C 
BRANCH  15  16
ATOM     16  C   UNL     1       1.419  44.295  11.710  1.00  0.00     0.000 C 
BRANCH  16  17
ATOM     17  C   UNL     1       1.548  42.780  11.933  1.00  0.00     0.000 C 
BRANCH  17  18
ATOM     18  C   UNL     1       2.871  42.253  11.368  1.00  0.00     0.000 C 
BRANCH  18  19
ATOM     19  C   UNL     1       3.904  42.045  12.487  1.00  0.00     0.000 C 
BRANCH  19  20
ATOM     20  C   UNL     1       4.628  40.690  12.389  1.00  0.00     0.006 C 
BRANCH  20  21
ATOM     21  C   UNL     1       4.113  39.621  13.367  1.00  0.00     0.053 C 
BRANCH  21  22
ATOM     22  C   UNL     1       2.905  38.909  12.839  1.00  0.00     0.041 C 
ATOM     23  O   UNL     1       3.039  37.895  12.106  1.00  0.00    -0.550 OA
ATOM     24  O   UNL     1       1.632  39.343  13.185  1.00  0.00    -0.550 OA
ENDBRANCH  21  22
ENDBRANCH  20  21
ENDBRANCH  19  20
ENDBRANCH  18  19
ENDBRANCH  17  18
ENDBRANCH  16  17
ENDBRANCH  15  16
ENDBRANCH  14  15
ENDBRANCH  13  14
ENDBRANCH   1  13
TORSDOF 20
ENDMDL
MODEL 5
REMARK VINA RESULT:    -4.617      1.166      3.902
REMARK INTER + INTRA:         -13.116
REMARK INTER:                 -10.323
REMARK INTRA:                  -2.793
REMARK UNBOUND:                -3.100
REMARK SMILES CCCCCCCCCCCCCCCCCCCCCC(=O)[O-]
REMARK SMILES IDX 12 1 11 2 10 3 9 4 8 5 7 6 6 7 5 8 4 9 3 10 2 11 1 12 13 13
REMARK SMILES IDX 14 14 15 15 16 16 17 17 18 18 19 19 20 20 21 21 22 22 23 23
REMARK SMILES IDX 24 24
REMARK H PARENT
REMARK Flexibility Score: inf
ROOT
ATOM      1  C   UNL     1       5.028  47.669   8.422  1.00  0.00     0.000 C 
ENDROOT
BRANCH   1   2
ATOM      2  C   UNL     1       4.447  48.838   7.606  1.00  0.00     0.000 C 
BRANCH   2   3
ATOM      3  C   UNL     1       2.947  48.658   7.291  1.00  0.00     0.000 C 
BRANCH   3   4
ATOM      4  C   UNL     1       2.164  49.982   7.196  1.00  0.00    -0.000 C 
BRANCH   4   5
ATOM      5  C   UNL     1       0.997  50.132   8.190  1.00  0.00    -0.000 C 
BRANCH   5   6
ATOM      6  C   UNL     1      -0.391  49.763   7.632  1.00  0.00    -0.000 C 
BRANCH   6   7
ATOM      7  C   UNL     1      -0.760  48.292   7.867  1.00  0.00    -0.000 C 
BRANCH   7   8
ATOM      8  C   UNL     1      -0.431  47.865   9.305  1.00  0.00    -0.000 C 
BRANCH   8   9
ATOM      9  C   UNL     1       0.329  46.523   9.359  1.00  0.00    -0.000 C 
BRANCH   9  10
ATOM     10  C   UNL     1       0.703  45.966   7.972  1.00  0.00    -0.000 C 
BRANCH  10  11
ATOM     11  C   UNL     1       0.003  44.650   7.594  1.00  0.00    -0.003 C 
ATOM     12  C   UNL     1      -0.746  44.736   6.265  1.00  0.00     0.004 C 
ENDBRANCH  10  11
ENDBRANCH   9  10
ENDBRANCH   8   9
ENDBRANCH   7   8
ENDBRANCH   6   7
ENDBRANCH   5   6
ENDBRANCH   4   5
ENDBRANCH   3   4
ENDBRANCH   2   3
ENDBRANCH   1   2
BRANCH   1  13
ATOM     13  C   UNL     1       3.954  46.931   9.244  1.00  0.00     0.000 C 
BRANCH  13  14
ATOM     14  C   UNL     1       4.431  46.463  10.631  1.00  0.00     0.000 C 
BRANCH  14  15
ATOM     15  C   UNL     1       4.302  44.940  10.815  1.00  0.00     0.000 C 
BRANCH  15  16
ATOM     16  C   UNL     1       3.948  44.216   9.507  1.00  0.00     0.000 C 
BRANCH  16  17
ATOM     17  C   UNL     1       2.782  43.230   9.675  1.00  0.00     0.000 C 
BRANCH  17  18
ATOM     18  C   UNL     1       1.838  43.682  10.796  1.00  0.00     0.000 C 
BRANCH  18  19
ATOM     19  C   UNL     1       2.027  42.821  12.055  1.00  0.00     0.000 C 
BRANCH  19  20
ATOM     20  C   UNL     1       2.693  41.465  11.759  1.00  0.00     0.006 C 
BRANCH  20  21
ATOM     21  C   UNL     1       4.023  41.234  12.494  1.00  0.00     0.053 C 
BRANCH  21  22
ATOM     22  C   UNL     1       4.145  39.834  13.014  1.00  0.00     0.041 C 
ATOM     23  O   UNL     1       5.152  39.494  13.686  1.00  0.00    -0.550 OA
ATOM     24  O   UNL     1       3.127  38.915  12.788  1.00  0.00    -0.550 OA
ENDBRANCH  21  22
ENDBRANCH  20  21
ENDBRANCH  19  20
ENDBRANCH  18  19
ENDBRANCH  17  18
ENDBRANCH  16  17
ENDBRANCH  15  16
ENDBRANCH  14  15
ENDBRANCH  13  14
ENDBRANCH   1  13
TORSDOF 20
ENDMDL
MODEL 6
REMARK VINA RESULT:    -4.513      1.091      2.862
REMARK INTER + INTRA:         -12.891
REMARK INTER:                 -10.010
REMARK INTRA:                  -2.881
REMARK UNBOUND:                -3.100
REMARK SMILES CCCCCCCCCCCCCCCCCCCCCC(=O)[O-]
REMARK SMILES IDX 12 1 11 2 10 3 9 4 8 5 7 6 6 7 5 8 4 9 3 10 2 11 1 12 13 13
REMARK SMILES IDX 14 14 15 15 16 16 17 17 18 18 19 19 20 20 21 21 22 22 23 23
REMARK SMILES IDX 24 24
REMARK H PARENT
REMARK Flexibility Score: inf
ROOT
ATOM      1  C   UNL     1       3.727  43.859   8.913  1.00  0.00     0.000 C 
ENDROOT
BRANCH   1   2
ATOM      2  C   UNL     1       2.345  43.186   8.832  1.00  0.00     0.000 C 
BRANCH   2   3
ATOM      3  C   UNL     1       1.184  44.204   8.855  1.00  0.00     0.000 C 
BRANCH   3   4
ATOM      4  C   UNL     1       0.438  44.334   7.512  1.00  0.00    -0.000 C 
BRANCH   4   5
ATOM      5  C   UNL     1      -0.712  45.357   7.492  1.00  0.00    -0.000 C 
BRANCH   5   6
ATOM      6  C   UNL     1      -0.303  46.797   7.128  1.00  0.00    -0.000 C 
BRANCH   6   7
ATOM      7  C   UNL     1      -0.736  47.828   8.180  1.00  0.00    -0.000 C 
BRANCH   7   8
ATOM      8  C   UNL     1       0.205  47.802   9.394  1.00  0.00    -0.000 C 
BRANCH   8   9
ATOM      9  C   UNL     1       1.531  48.543   9.123  1.00  0.00    -0.000 C 
BRANCH   9  10
ATOM     10  C   UNL     1       1.417  49.650   8.057  1.00  0.00    -0.000 C 
BRANCH  10  11
ATOM     11  C   UNL     1       2.668  49.837   7.183  1.00  0.00    -0.003 C 
ATOM     12  C   UNL     1       3.550  48.591   7.137  1.00  0.00     0.004 C 
ENDBRANCH  10  11
ENDBRANCH   9  10
ENDBRANCH   8   9
ENDBRANCH   7   8
ENDBRANCH   6   7
ENDBRANCH   5   6
ENDBRANCH   4   5
ENDBRANCH   3   4
ENDBRANCH   2   3
ENDBRANCH   1   2
BRANCH   1  13
ATOM     13  C   UNL     1       3.645  45.393   8.801  1.00  0.00     0.000 C 
BRANCH  13  14
ATOM     14  C   UNL     1       4.431  46.150   9.888  1.00  0.00     0.000 C 
BRANCH  14  15
ATOM     15  C   UNL     1       3.884  45.885  11.303  1.00  0.00     0.000 C 
BRANCH  15  16
ATOM     16  C   UNL     1       4.749  44.889  12.092  1.00  0.00     0.000 C 
BRANCH  16  17
ATOM     17  C   UNL     1       3.958  43.653  12.546  1.00  0.00     0.000 C 
BRANCH  17  18
ATOM     18  C   UNL     1       2.448  43.908  12.470  1.00  0.00     0.000 C 
BRANCH  18  19
ATOM     19  C   UNL     1       1.688  42.617  12.128  1.00  0.00     0.000 C 
BRANCH  19  20
ATOM     20  C   UNL     1       2.617  41.400  11.968  1.00  0.00     0.006 C 
BRANCH  20  21
ATOM     21  C   UNL     1       2.531  40.378  13.114  1.00  0.00     0.053 C 
BRANCH  21  22
ATOM     22  C   UNL     1       3.484  39.237  12.924  1.00  0.00     0.041 C 
ATOM     23  O   UNL     1       4.652  39.306  13.384  1.00  0.00    -0.550 OA
ATOM     24  O   UNL     1       3.069  38.083  12.271  1.00  0.00    -0.550 OA
ENDBRANCH  21  22
ENDBRANCH  20  21
ENDBRANCH  19  20
ENDBRANCH  18  19
ENDBRANCH  17  18
ENDBRANCH  16  17
ENDBRANCH  15  16
ENDBRANCH  14  15
ENDBRANCH  13  14
ENDBRANCH   1  13
TORSDOF 20
ENDMDL
MODEL 7
REMARK VINA RESULT:    -4.494      1.014      3.852
REMARK INTER + INTRA:         -12.849
REMARK INTER:                  -9.951
REMARK INTRA:                  -2.898
REMARK UNBOUND:                -3.100
REMARK SMILES CCCCCCCCCCCCCCCCCCCCCC(=O)[O-]
REMARK SMILES IDX 12 1 11 2 10 3 9 4 8 5 7 6 6 7 5 8 4 9 3 10 2 11 1 12 13 13
REMARK SMILES IDX 14 14 15 15 16 16 17 17 18 18 19 19 20 20 21 21 22 22 23 23
REMARK SMILES IDX 24 24
REMARK H PARENT
REMARK Flexibility Score: inf
ROOT
ATOM      1  C   UNL     1       4.494  44.043  10.531  1.00  0.00     0.000 C 
ENDROOT
BRANCH   1   2
ATOM      2  C   UNL     1       4.523  45.358  11.329  1.00  0.00     0.000 C 
BRANCH   2   3
ATOM      3  C   UNL     1       4.186  46.590  10.462  1.00  0.00     0.000 C 
BRANCH   3   4
ATOM      4  C   UNL     1       5.404  47.202   9.742  1.00  0.00    -0.000 C 
BRANCH   4   5
ATOM      5  C   UNL     1       5.098  47.906   8.407  1.00  0.00    -0.000 C 
BRANCH   5   6
ATOM      6  C   UNL     1       3.654  47.739   7.894  1.00  0.00    -0.000 C 
BRANCH   6   7
ATOM      7  C   UNL     1       3.113  49.000   7.207  1.00  0.00    -0.000 C 
BRANCH   7   8
ATOM      8  C   UNL     1       1.858  49.521   7.923  1.00  0.00    -0.000 C 
BRANCH   8   9
ATOM      9  C   UNL     1       1.197  48.442   8.806  1.00  0.00    -0.000 C 
BRANCH   9  10
ATOM     10  C   UNL     1      -0.343  48.459   8.759  1.00  0.00    -0.000 C 
BRANCH  10  11
ATOM     11  C   UNL     1      -0.962  47.681   7.586  1.00  0.00    -0.003 C 
ATOM     12  C   UNL     1      -0.006  46.651   6.987  1.00  0.00     0.004 C 
ENDBRANCH  10  11
ENDBRANCH   9  10
ENDBRANCH   8   9
ENDBRANCH   7   8
ENDBRANCH   6   7
ENDBRANCH   5   6
ENDBRANCH   4   5
ENDBRANCH   3   4
ENDBRANCH   2   3
ENDBRANCH   1   2
BRANCH   1  13
ATOM     13  C   UNL     1       3.757  44.184   9.186  1.00  0.00     0.000 C 
BRANCH  13  14
ATOM     14  C   UNL     1       2.606  43.179   8.987  1.00  0.00     0.000 C 
BRANCH  14  15
ATOM     15  C   UNL     1       1.220  43.840   9.098  1.00  0.00     0.000 C 
BRANCH  15  16
ATOM     16  C   UNL     1       1.261  45.167   9.872  1.00  0.00     0.000 C 
BRANCH  16  17
ATOM     17  C   UNL     1       0.552  45.078  11.232  1.00  0.00     0.000 C 
BRANCH  17  18
ATOM     18  C   UNL     1       0.453  43.623  11.705  1.00  0.00     0.000 C 
BRANCH  18  19
ATOM     19  C   UNL     1       1.702  43.217  12.504  1.00  0.00     0.000 C 
BRANCH  19  20
ATOM     20  C   UNL     1       1.873  41.691  12.612  1.00  0.00     0.006 C 
BRANCH  20  21
ATOM     21  C   UNL     1       3.244  41.169  12.151  1.00  0.00     0.053 C 
BRANCH  21  22
ATOM     22  C   UNL     1       3.604  39.872  12.811  1.00  0.00     0.041 C 
ATOM     23  O   UNL     1       2.804  38.903  12.778  1.00  0.00    -0.550 OA
ATOM     24  O   UNL     1       4.838  39.725  13.431  1.00  0.00    -0.550 OA
ENDBRANCH  21  22
ENDBRANCH  20  21
ENDBRANCH  19  20
ENDBRANCH  18  19
ENDBRANCH  17  18
ENDBRANCH  16  17
ENDBRANCH  15  16
ENDBRANCH  14  15
ENDBRANCH  13  14
ENDBRANCH   1  13
TORSDOF 20
ENDMDL
MODEL 8
REMARK VINA RESULT:    -4.485      2.039      6.041
REMARK INTER + INTRA:         -12.829
REMARK INTER:                 -10.421
REMARK INTRA:                  -2.409
REMARK UNBOUND:                -3.100
REMARK SMILES CCCCCCCCCCCCCCCCCCCCCC(=O)[O-]
REMARK SMILES IDX 12 1 11 2 10 3 9 4 8 5 7 6 6 7 5 8 4 9 3 10 2 11 1 12 13 13
REMARK SMILES IDX 14 14 15 15 16 16 17 17 18 18 19 19 20 20 21 21 22 22 23 23
REMARK SMILES IDX 24 24
REMARK H PARENT
REMARK Flexibility Score: inf
ROOT
ATOM      1  C   UNL     1       0.143  46.159   7.011  1.00  0.00     0.000 C 
ENDROOT
BRANCH   1   2
ATOM      2  C   UNL     1      -0.225  44.692   7.299  1.00  0.00     0.000 C 
BRANCH   2   3
ATOM      3  C   UNL     1       0.713  44.034   8.333  1.00  0.00     0.000 C 
BRANCH   3   4
ATOM      4  C   UNL     1       1.200  44.993   9.437  1.00  0.00    -0.000 C 
BRANCH   4   5
ATOM      5  C   UNL     1       0.194  45.258  10.572  1.00  0.00    -0.000 C 
BRANCH   5   6
ATOM      6  C   UNL     1       0.206  44.225  11.715  1.00  0.00    -0.000 C 
BRANCH   6   7
ATOM      7  C   UNL     1       1.623  43.790  12.114  1.00  0.00    -0.000 C 
BRANCH   7   8
ATOM      8  C   UNL     1       1.742  42.259  12.140  1.00  0.00    -0.000 C 
BRANCH   8   9
ATOM      9  C   UNL     1       3.042  41.761  11.474  1.00  0.00    -0.000 C 
BRANCH   9  10
ATOM     10  C   UNL     1       4.189  41.502  12.470  1.00  0.00    -0.000 C 
BRANCH  10  11
ATOM     11  C   UNL     1       4.416  40.022  12.822  1.00  0.00    -0.003 C 
ATOM     12  C   UNL     1       3.130  39.199  12.781  1.00  0.00     0.004 C 
ENDBRANCH  10  11
ENDBRANCH   9  10
ENDBRANCH   8   9
ENDBRANCH   7   8
ENDBRANCH   6   7
ENDBRANCH   5   6
ENDBRANCH   4   5
ENDBRANCH   3   4
ENDBRANCH   2   3
ENDBRANCH   1   2
BRANCH   1  13
ATOM     13  C   UNL     1      -1.057  47.112   7.175  1.00  0.00     0.000 C 
BRANCH  13  14
ATOM     14  C   UNL     1      -0.723  48.430   7.899  1.00  0.00     0.000 C 
BRANCH  14  15
ATOM     15  C   UNL     1       0.558  48.328   8.747  1.00  0.00     0.000 C 
BRANCH  15  16
ATOM     16  C   UNL     1       1.592  49.405   8.384  1.00  0.00     0.000 C 
BRANCH  16  17
ATOM     17  C   UNL     1       2.666  48.889   7.413  1.00  0.00     0.000 C 
BRANCH  17  18
ATOM     18  C   UNL     1       3.387  47.666   7.993  1.00  0.00     0.000 C 
BRANCH  18  19
ATOM     19  C   UNL     1       4.863  47.983   8.281  1.00  0.00     0.000 C 
BRANCH  19  20
ATOM     20  C   UNL     1       5.357  47.377   9.608  1.00  0.00     0.006 C 
BRANCH  20  21
ATOM     21  C   UNL     1       4.256  46.721  10.458  1.00  0.00     0.053 C 
BRANCH  21  22
ATOM     22  C   UNL     1       4.484  45.251  10.637  1.00  0.00     0.041 C 
ATOM     23  O   UNL     1       4.766  44.789  11.772  1.00  0.00    -0.550 OA
ATOM     24  O   UNL     1       4.347  44.387   9.558  1.00  0.00    -0.550 OA
ENDBRANCH  21  22
ENDBRANCH  20  21
ENDBRANCH  19  20
ENDBRANCH  18  19
ENDBRANCH  17  18
ENDBRANCH  16  17
ENDBRANCH  15  16
ENDBRANCH  14  15
ENDBRANCH  13  14
ENDBRANCH   1  13
TORSDOF 20
ENDMDL
MODEL 9
REMARK VINA RESULT:    -4.436      2.371      6.917
REMARK INTER + INTRA:         -12.724
REMARK INTER:                 -10.177
REMARK INTRA:                  -2.547
REMARK UNBOUND:                -3.100
REMARK SMILES CCCCCCCCCCCCCCCCCCCCCC(=O)[O-]
REMARK SMILES IDX 12 1 11 2 10 3 9 4 8 5 7 6 6 7 5 8 4 9 3 10 2 11 1 12 13 13
REMARK SMILES IDX 14 14 15 15 16 16 17 17 18 18 19 19 20 20 21 21 22 22 23 23
REMARK SMILES IDX 24 24
REMARK H PARENT
REMARK Flexibility Score: inf
ROOT
ATOM      1  C   UNL     1       5.170  47.294   8.833  1.00  0.00     0.000 C 
ENDROOT
BRANCH   1   2
ATOM      2  C   UNL     1       3.896  46.551   9.271  1.00  0.00     0.000 C 
BRANCH   2   3
ATOM      3  C   UNL     1       3.911  46.170  10.767  1.00  0.00     0.000 C 
BRANCH   3   4
ATOM      4  C   UNL     1       4.494  44.772  11.051  1.00  0.00    -0.000 C 
BRANCH   4   5
ATOM      5  C   UNL     1       4.090  44.151  12.401  1.00  0.00    -0.000 C 
BRANCH   5   6
ATOM      6  C   UNL     1       2.584  43.872  12.570  1.00  0.00    -0.000 C 
BRANCH   6   7
ATOM      7  C   UNL     1       2.160  42.506  12.011  1.00  0.00    -0.000 C 
BRANCH   7   8
ATOM      8  C   UNL     1       1.094  41.854  12.904  1.00  0.00    -0.000 C 
BRANCH   8   9
ATOM      9  C   UNL     1       1.527  40.463  13.413  1.00  0.00    -0.000 C 
BRANCH   9  10
ATOM     10  C   UNL     1       2.660  39.825  12.586  1.00  0.00    -0.000 C 
BRANCH  10  11
ATOM     11  C   UNL     1       3.949  39.536  13.372  1.00  0.00    -0.003 C 
ATOM     12  C   UNL     1       5.087  40.493  13.018  1.00  0.00     0.004 C 
ENDBRANCH  10  11
ENDBRANCH   9  10
ENDBRANCH   8   9
ENDBRANCH   7   8
ENDBRANCH   6   7
ENDBRANCH   5   6
ENDBRANCH   4   5
ENDBRANCH   3   4
ENDBRANCH   2   3
ENDBRANCH   1   2
BRANCH   1  13
ATOM     13  C   UNL     1       4.863  48.554   8.002  1.00  0.00     0.000 C 
BRANCH  13  14
ATOM     14  C   UNL     1       3.534  48.492   7.226  1.00  0.00     0.000 C 
BRANCH  14  15
ATOM     15  C   UNL     1       2.810  49.850   7.186  1.00  0.00     0.000 C 
BRANCH  15  16
ATOM     16  C   UNL     1       1.340  49.746   7.618  1.00  0.00     0.000 C 
BRANCH  16  17
ATOM     17  C   UNL     1       0.895  48.294   7.855  1.00  0.00     0.000 C 
BRANCH  17  18
ATOM     18  C   UNL     1       0.524  48.067   9.325  1.00  0.00     0.000 C 
BRANCH  18  19
ATOM     19  C   UNL     1      -0.899  47.502   9.453  1.00  0.00     0.000 C 
BRANCH  19  20
ATOM     20  C   UNL     1      -0.925  46.060   9.994  1.00  0.00     0.006 C 
BRANCH  20  21
ATOM     21  C   UNL     1       0.453  45.381  10.063  1.00  0.00     0.053 C 
BRANCH  21  22
ATOM     22  C   UNL     1       0.746  44.575   8.835  1.00  0.00     0.041 C 
ATOM     23  O   UNL     1       1.697  43.752   8.832  1.00  0.00    -0.550 OA
ATOM     24  O   UNL     1      -0.054  44.705   7.707  1.00  0.00    -0.550 OA
ENDBRANCH  21  22
ENDBRANCH  20  21
ENDBRANCH  19  20
ENDBRANCH  18  19
ENDBRANCH  17  18
ENDBRANCH  16  17
ENDBRANCH  15  16
ENDBRANCH  14  15
ENDBRANCH  13  14
ENDBRANCH   1  13
TORSDOF 20
ENDMDL
