MODEL 1
REMARK VINA RESULT:    -6.996      0.000      0.000
REMARK INTER + INTRA:          -8.702
REMARK INTER:                  -8.428
REMARK INTRA:                  -0.274
REMARK UNBOUND:                -0.274
REMARK SMILES O=c1c(O)c(-c2ccc(O)c(O)c2)oc2cc(O)cc(O)c12
REMARK SMILES IDX 5 1 3 2 2 3 1 4 22 5 20 6 19 7 17 8 16 9 15 10 14 11 6 12
REMARK SMILES IDX 7 13 8 14 9 15 13 16 11 17 10 18 12 20 4 22 21 24 18 26
REMARK H PARENT 10 19 12 21 4 23 21 25 18 27
REMARK Flexibility Score: inf
ROOT
ATOM      1  C   UNL     1      15.046  14.825  62.097  1.00  0.00     0.180 A 
ATOM      2  C   UNL     1      14.895  13.902  61.047  1.00  0.00     0.208 A 
ATOM      3  C   UNL     1      15.862  13.864  60.031  1.00  0.00     0.238 A 
ATOM      4  O   UNL     1      15.694  13.074  59.065  1.00  0.00    -0.285 OA
ATOM      5  C   UNL     1      16.977  14.736  60.084  1.00  0.00     0.111 A 
ATOM      6  C   UNL     1      18.038  14.756  59.129  1.00  0.00     0.134 A 
ATOM      7  C   UNL     1      19.021  15.749  59.211  1.00  0.00     0.093 A 
ATOM      8  C   UNL     1      19.017  16.683  60.250  1.00  0.00     0.123 A 
ATOM      9  C   UNL     1      18.019  16.635  61.220  1.00  0.00     0.094 A 
ATOM     10  C   UNL     1      17.005  15.679  61.145  1.00  0.00     0.146 A 
ATOM     11  O   UNL     1      16.066  15.675  62.084  1.00  0.00    -0.452 OA
ENDROOT
BRANCH   1  12
ATOM     12  C   UNL     1      14.080  14.908  63.217  1.00  0.00     0.025 A 
ATOM     13  C   UNL     1      14.385  14.385  64.486  1.00  0.00     0.016 A 
ATOM     14  C   UNL     1      13.468  14.497  65.534  1.00  0.00     0.051 A 
ATOM     15  C   UNL     1      12.240  15.144  65.335  1.00  0.00     0.157 A 
ATOM     16  C   UNL     1      12.858  15.574  63.028  1.00  0.00     0.062 A 
ATOM     17  C   UNL     1      11.937  15.687  64.076  1.00  0.00     0.158 A 
BRANCH  15  18
ATOM     18  O   UNL     1      11.327  15.253  66.382  1.00  0.00    -0.504 OA
ATOM     19  H   UNL     1      10.327  15.267  66.215  1.00  0.00     0.293 HD
ENDBRANCH  15  18
BRANCH  17  20
ATOM     20  O   UNL     1      10.728  16.343  63.847  1.00  0.00    -0.504 OA
ATOM     21  H   UNL     1      10.559  16.882  63.006  1.00  0.00     0.293 HD
ENDBRANCH  17  20
ENDBRANCH   1  12
BRANCH   2  22
ATOM     22  O   UNL     1      13.777  13.065  61.002  1.00  0.00    -0.502 OA
ATOM     23  H   UNL     1      13.847  12.073  60.812  1.00  0.00     0.293 HD
ENDBRANCH   2  22
BRANCH   6  24
ATOM     24  O   UNL     1      18.186  13.813  58.109  1.00  0.00    -0.507 OA
ATOM     25  H   UNL     1      18.195  12.813  58.246  1.00  0.00     0.293 HD
ENDBRANCH   6  24
BRANCH   8  26
ATOM     26  O   UNL     1      20.009  17.659  60.332  1.00  0.00    -0.508 OA
ATOM     27  H   UNL     1      19.946  18.523  59.805  1.00  0.00     0.293 HD
ENDBRANCH   8  26
TORSDOF 6
ENDMDL
MODEL 2
REMARK VINA RESULT:    -6.919      1.283      2.873
REMARK INTER + INTRA:          -8.609
REMARK INTER:                  -8.301
REMARK INTRA:                  -0.308
REMARK UNBOUND:                -0.274
REMARK SMILES O=c1c(O)c(-c2ccc(O)c(O)c2)oc2cc(O)cc(O)c12
REMARK SMILES IDX 5 1 3 2 2 3 1 4 22 5 20 6 19 7 17 8 16 9 15 10 14 11 6 12
REMARK SMILES IDX 7 13 8 14 9 15 13 16 11 17 10 18 12 20 4 22 21 24 18 26
REMARK H PARENT 10 19 12 21 4 23 21 25 18 27
REMARK Flexibility Score: inf
ROOT
ATOM      1  C   UNL     1      15.038  15.331  62.351  1.00  0.00     0.180 A 
ATOM      2  C   UNL     1      15.952  16.391  62.219  1.00  0.00     0.208 A 
ATOM      3  C   UNL     1      16.933  16.323  61.218  1.00  0.00     0.238 A 
ATOM      4  O   UNL     1      17.782  17.249  61.139  1.00  0.00    -0.285 OA
ATOM      5  C   UNL     1      16.979  15.205  60.350  1.00  0.00     0.111 A 
ATOM      6  C   UNL     1      17.906  15.049  59.276  1.00  0.00     0.134 A 
ATOM      7  C   UNL     1      17.943  13.843  58.565  1.00  0.00     0.093 A 
ATOM      8  C   UNL     1      17.045  12.812  58.849  1.00  0.00     0.123 A 
ATOM      9  C   UNL     1      16.098  12.977  59.857  1.00  0.00     0.094 A 
ATOM     10  C   UNL     1      16.059  14.154  60.607  1.00  0.00     0.146 A 
ATOM     11  O   UNL     1      15.148  14.266  61.566  1.00  0.00    -0.452 OA
ENDROOT
BRANCH   1  12
ATOM     12  C   UNL     1      13.960  15.343  63.367  1.00  0.00     0.025 A 
ATOM     13  C   UNL     1      14.122  14.713  64.613  1.00  0.00     0.016 A 
ATOM     14  C   UNL     1      13.101  14.758  65.566  1.00  0.00     0.051 A 
ATOM     15  C   UNL     1      11.909  15.444  65.294  1.00  0.00     0.157 A 
ATOM     16  C   UNL     1      12.773  16.047  63.107  1.00  0.00     0.062 A 
ATOM     17  C   UNL     1      11.747  16.093  64.059  1.00  0.00     0.158 A 
BRANCH  15  18
ATOM     18  O   UNL     1      10.892  15.486  66.245  1.00  0.00    -0.504 OA
ATOM     19  H   UNL     1      10.446  16.358  66.508  1.00  0.00     0.293 HD
ENDBRANCH  15  18
BRANCH  17  20
ATOM     20  O   UNL     1      10.577  16.790  63.759  1.00  0.00    -0.504 OA
ATOM     21  H   UNL     1      10.339  17.663  64.215  1.00  0.00     0.293 HD
ENDBRANCH  17  20
ENDBRANCH   1  12
BRANCH   2  22
ATOM     22  O   UNL     1      15.903  17.476  63.100  1.00  0.00    -0.502 OA
ATOM     23  H   UNL     1      16.181  17.402  64.070  1.00  0.00     0.293 HD
ENDBRANCH   2  22
BRANCH   6  24
ATOM     24  O   UNL     1      18.782  16.052  58.850  1.00  0.00    -0.507 OA
ATOM     25  H   UNL     1      19.276  16.049  57.971  1.00  0.00     0.293 HD
ENDBRANCH   6  24
BRANCH   8  26
ATOM     26  O   UNL     1      17.079  11.620  58.128  1.00  0.00    -0.508 OA
ATOM     27  H   UNL     1      16.720  11.564  57.181  1.00  0.00     0.293 HD
ENDBRANCH   8  26
TORSDOF 6
ENDMDL
MODEL 3
REMARK VINA RESULT:    -6.665      3.017      6.803
REMARK INTER + INTRA:          -8.303
REMARK INTER:                  -8.024
REMARK INTRA:                  -0.279
REMARK UNBOUND:                -0.274
REMARK SMILES O=c1c(O)c(-c2ccc(O)c(O)c2)oc2cc(O)cc(O)c12
REMARK SMILES IDX 5 1 3 2 2 3 1 4 22 5 20 6 19 7 17 8 16 9 15 10 14 11 6 12
REMARK SMILES IDX 7 13 8 14 9 15 13 16 11 17 10 18 12 20 4 22 21 24 18 26
REMARK H PARENT 10 19 12 21 4 23 21 25 18 27
REMARK Flexibility Score: inf
ROOT
ATOM      1  C   UNL     1      15.031  12.560  61.637  1.00  0.00     0.180 A 
ATOM      2  C   UNL     1      14.581  11.880  62.783  1.00  0.00     0.208 A 
ATOM      3  C   UNL     1      14.054  12.623  63.851  1.00  0.00     0.238 A 
ATOM      4  O   UNL     1      13.703  12.015  64.896  1.00  0.00    -0.285 OA
ATOM      5  C   UNL     1      13.968  14.033  63.755  1.00  0.00     0.111 A 
ATOM      6  C   UNL     1      13.416  14.882  64.761  1.00  0.00     0.134 A 
ATOM      7  C   UNL     1      13.501  16.272  64.614  1.00  0.00     0.093 A 
ATOM      8  C   UNL     1      14.062  16.842  63.469  1.00  0.00     0.123 A 
ATOM      9  C   UNL     1      14.551  16.021  62.456  1.00  0.00     0.094 A 
ATOM     10  C   UNL     1      14.512  14.632  62.589  1.00  0.00     0.146 A 
ATOM     11  O   UNL     1      14.999  13.886  61.604  1.00  0.00    -0.452 OA
ENDROOT
BRANCH   1  12
ATOM     12  C   UNL     1      15.576  11.844  60.461  1.00  0.00     0.025 A 
ATOM     13  C   UNL     1      14.816  11.673  59.291  1.00  0.00     0.016 A 
ATOM     14  C   UNL     1      15.360  11.016  58.184  1.00  0.00     0.051 A 
ATOM     15  C   UNL     1      16.675  10.531  58.225  1.00  0.00     0.157 A 
ATOM     16  C   UNL     1      16.900  11.375  60.490  1.00  0.00     0.062 A 
ATOM     17  C   UNL     1      17.448  10.715  59.383  1.00  0.00     0.158 A 
BRANCH  15  18
ATOM     18  O   UNL     1      17.215   9.875  57.121  1.00  0.00    -0.504 OA
ATOM     19  H   UNL     1      16.739   9.093  56.683  1.00  0.00     0.293 HD
ENDBRANCH  15  18
BRANCH  17  20
ATOM     20  O   UNL     1      18.762  10.252  59.454  1.00  0.00    -0.504 OA
ATOM     21  H   UNL     1      18.981   9.265  59.504  1.00  0.00     0.293 HD
ENDBRANCH  17  20
ENDBRANCH   1  12
BRANCH   2  22
ATOM     22  O   UNL     1      14.695  10.490  62.867  1.00  0.00    -0.502 OA
ATOM     23  H   UNL     1      13.954   9.904  63.232  1.00  0.00     0.293 HD
ENDBRANCH   2  22
BRANCH   6  24
ATOM     24  O   UNL     1      12.751  14.414  65.898  1.00  0.00    -0.507 OA
ATOM     25  H   UNL     1      12.685  14.913  66.772  1.00  0.00     0.293 HD
ENDBRANCH   6  24
BRANCH   8  26
ATOM     26  O   UNL     1      14.130  18.227  63.325  1.00  0.00    -0.508 OA
ATOM     27  H   UNL     1      14.184  18.661  62.411  1.00  0.00     0.293 HD
ENDBRANCH   8  26
TORSDOF 6
ENDMDL
MODEL 4
REMARK VINA RESULT:    -6.511      4.873      6.954
REMARK INTER + INTRA:          -8.118
REMARK INTER:                  -7.854
REMARK INTRA:                  -0.264
REMARK UNBOUND:                -0.274
REMARK SMILES O=c1c(O)c(-c2ccc(O)c(O)c2)oc2cc(O)cc(O)c12
REMARK SMILES IDX 5 1 3 2 2 3 1 4 22 5 20 6 19 7 17 8 16 9 15 10 14 11 6 12
REMARK SMILES IDX 7 13 8 14 9 15 13 16 11 17 10 18 12 20 4 22 21 24 18 26
REMARK H PARENT 10 19 12 21 4 23 21 25 18 27
REMARK Flexibility Score: inf
ROOT
ATOM      1  C   UNL     1      12.283  19.676  63.474  1.00  0.00     0.180 A 
ATOM      2  C   UNL     1      11.228  18.770  63.678  1.00  0.00     0.208 A 
ATOM      3  C   UNL     1      11.497  17.393  63.643  1.00  0.00     0.238 A 
ATOM      4  O   UNL     1      10.540  16.586  63.772  1.00  0.00    -0.285 OA
ATOM      5  C   UNL     1      12.820  16.939  63.422  1.00  0.00     0.111 A 
ATOM      6  C   UNL     1      13.214  15.567  63.406  1.00  0.00     0.134 A 
ATOM      7  C   UNL     1      14.525  15.230  63.048  1.00  0.00     0.093 A 
ATOM      8  C   UNL     1      15.472  16.217  62.768  1.00  0.00     0.123 A 
ATOM      9  C   UNL     1      15.112  17.561  62.838  1.00  0.00     0.094 A 
ATOM     10  C   UNL     1      13.803  17.927  63.157  1.00  0.00     0.146 A 
ATOM     11  O   UNL     1      13.499  19.219  63.203  1.00  0.00    -0.452 OA
ENDROOT
BRANCH   1  12
ATOM     12  C   UNL     1      12.081  21.143  63.521  1.00  0.00     0.025 A 
ATOM     13  C   UNL     1      11.457  21.830  62.465  1.00  0.00     0.016 A 
ATOM     14  C   UNL     1      11.255  23.210  62.542  1.00  0.00     0.051 A 
ATOM     15  C   UNL     1      11.660  23.923  63.679  1.00  0.00     0.157 A 
ATOM     16  C   UNL     1      12.466  21.858  64.667  1.00  0.00     0.062 A 
ATOM     17  C   UNL     1      12.266  23.241  64.747  1.00  0.00     0.158 A 
BRANCH  15  18
ATOM     18  O   UNL     1      11.459  25.299  63.752  1.00  0.00    -0.504 OA
ATOM     19  H   UNL     1      11.036  25.816  62.989  1.00  0.00     0.293 HD
ENDBRANCH  15  18
BRANCH  17  20
ATOM     20  O   UNL     1      12.674  23.919  65.896  1.00  0.00    -0.504 OA
ATOM     21  H   UNL     1      13.551  23.715  66.357  1.00  0.00     0.293 HD
ENDBRANCH  17  20
ENDBRANCH   1  12
BRANCH   2  22
ATOM     22  O   UNL     1       9.925  19.239  63.873  1.00  0.00    -0.502 OA
ATOM     23  H   UNL     1       9.728  20.155  64.256  1.00  0.00     0.293 HD
ENDBRANCH   2  22
BRANCH   6  24
ATOM     24  O   UNL     1      12.371  14.509  63.759  1.00  0.00    -0.507 OA
ATOM     25  H   UNL     1      12.650  13.713  64.313  1.00  0.00     0.293 HD
ENDBRANCH   6  24
BRANCH   8  26
ATOM     26  O   UNL     1      16.778  15.873  62.427  1.00  0.00    -0.508 OA
ATOM     27  H   UNL     1      17.000  14.969  62.025  1.00  0.00     0.293 HD
ENDBRANCH   8  26
TORSDOF 6
ENDMDL
MODEL 5
REMARK VINA RESULT:    -6.488      1.639      2.174
REMARK INTER + INTRA:          -8.090
REMARK INTER:                  -7.834
REMARK INTRA:                  -0.256
REMARK UNBOUND:                -0.274
REMARK SMILES O=c1c(O)c(-c2ccc(O)c(O)c2)oc2cc(O)cc(O)c12
REMARK SMILES IDX 5 1 3 2 2 3 1 4 22 5 20 6 19 7 17 8 16 9 15 10 14 11 6 12
REMARK SMILES IDX 7 13 8 14 9 15 13 16 11 17 10 18 12 20 4 22 21 24 18 26
REMARK H PARENT 10 19 12 21 4 23 21 25 18 27
REMARK Flexibility Score: inf
ROOT
ATOM      1  C   UNL     1      15.681  15.995  61.974  1.00  0.00     0.180 A 
ATOM      2  C   UNL     1      15.494  15.832  60.590  1.00  0.00     0.208 A 
ATOM      3  C   UNL     1      16.594  15.989  59.732  1.00  0.00     0.238 A 
ATOM      4  O   UNL     1      16.410  15.896  58.491  1.00  0.00    -0.285 OA
ATOM      5  C   UNL     1      17.869  16.290  60.269  1.00  0.00     0.111 A 
ATOM      6  C   UNL     1      19.061  16.432  59.496  1.00  0.00     0.134 A 
ATOM      7  C   UNL     1      20.241  16.859  60.118  1.00  0.00     0.093 A 
ATOM      8  C   UNL     1      20.286  17.087  61.495  1.00  0.00     0.123 A 
ATOM      9  C   UNL     1      19.143  16.895  62.267  1.00  0.00     0.094 A 
ATOM     10  C   UNL     1      17.943  16.504  61.670  1.00  0.00     0.146 A 
ATOM     11  O   UNL     1      16.874  16.342  62.441  1.00  0.00    -0.452 OA
ENDROOT
BRANCH   1  12
ATOM     12  C   UNL     1      14.574  15.821  62.943  1.00  0.00     0.025 A 
ATOM     13  C   UNL     1      13.561  16.786  63.079  1.00  0.00     0.016 A 
ATOM     14  C   UNL     1      12.514  16.589  63.982  1.00  0.00     0.051 A 
ATOM     15  C   UNL     1      12.455  15.420  64.753  1.00  0.00     0.157 A 
ATOM     16  C   UNL     1      14.499  14.641  63.702  1.00  0.00     0.062 A 
ATOM     17  C   UNL     1      13.452  14.441  64.609  1.00  0.00     0.158 A 
BRANCH  15  18
ATOM     18  O   UNL     1      11.410  15.227  65.654  1.00  0.00    -0.504 OA
ATOM     19  H   UNL     1      11.067  14.299  65.880  1.00  0.00     0.293 HD
ENDBRANCH  15  18
BRANCH  17  20
ATOM     20  O   UNL     1      13.418  13.263  65.356  1.00  0.00    -0.504 OA
ATOM     21  H   UNL     1      12.918  12.441  65.040  1.00  0.00     0.293 HD
ENDBRANCH  17  20
ENDBRANCH   1  12
BRANCH   2  22
ATOM     22  O   UNL     1      14.222  15.557  60.079  1.00  0.00    -0.502 OA
ATOM     23  H   UNL     1      13.387  15.589  60.651  1.00  0.00     0.293 HD
ENDBRANCH   2  22
BRANCH   6  24
ATOM     24  O   UNL     1      19.145  16.139  58.132  1.00  0.00    -0.507 OA
ATOM     25  H   UNL     1      19.615  16.714  57.449  1.00  0.00     0.293 HD
ENDBRANCH   6  24
BRANCH   8  26
ATOM     26  O   UNL     1      21.468  17.498  62.109  1.00  0.00    -0.508 OA
ATOM     27  H   UNL     1      21.523  17.639  63.112  1.00  0.00     0.293 HD
ENDBRANCH   8  26
TORSDOF 6
ENDMDL
MODEL 6
REMARK VINA RESULT:    -6.451      2.600      4.051
REMARK INTER + INTRA:          -8.046
REMARK INTER:                  -8.050
REMARK INTRA:                   0.004
REMARK UNBOUND:                -0.274
REMARK SMILES O=c1c(O)c(-c2ccc(O)c(O)c2)oc2cc(O)cc(O)c12
REMARK SMILES IDX 5 1 3 2 2 3 1 4 22 5 20 6 19 7 17 8 16 9 15 10 14 11 6 12
REMARK SMILES IDX 7 13 8 14 9 15 13 16 11 17 10 18 12 20 4 22 21 24 18 26
REMARK H PARENT 10 19 12 21 4 23 21 25 18 27
REMARK Flexibility Score: inf
ROOT
ATOM      1  C   UNL     1      13.995  14.666  62.904  1.00  0.00     0.180 A 
ATOM      2  C   UNL     1      13.770  13.569  63.754  1.00  0.00     0.208 A 
ATOM      3  C   UNL     1      14.367  12.336  63.446  1.00  0.00     0.238 A 
ATOM      4  O   UNL     1      14.119  11.344  64.180  1.00  0.00    -0.285 OA
ATOM      5  C   UNL     1      15.195  12.219  62.303  1.00  0.00     0.111 A 
ATOM      6  C   UNL     1      15.882  11.029  61.918  1.00  0.00     0.134 A 
ATOM      7  C   UNL     1      16.568  10.993  60.698  1.00  0.00     0.093 A 
ATOM      8  C   UNL     1      16.644  12.122  59.880  1.00  0.00     0.123 A 
ATOM      9  C   UNL     1      16.026  13.306  60.275  1.00  0.00     0.094 A 
ATOM     10  C   UNL     1      15.305  13.363  61.470  1.00  0.00     0.146 A 
ATOM     11  O   UNL     1      14.721  14.508  61.804  1.00  0.00    -0.452 OA
ENDROOT
BRANCH   1  12
ATOM     12  C   UNL     1      13.419  16.003  63.177  1.00  0.00     0.025 A 
ATOM     13  C   UNL     1      14.221  17.157  63.185  1.00  0.00     0.016 A 
ATOM     14  C   UNL     1      13.652  18.411  63.420  1.00  0.00     0.051 A 
ATOM     15  C   UNL     1      12.272  18.533  63.635  1.00  0.00     0.157 A 
ATOM     16  C   UNL     1      12.034  16.132  63.372  1.00  0.00     0.062 A 
ATOM     17  C   UNL     1      11.461  17.387  63.608  1.00  0.00     0.158 A 
BRANCH  15  18
ATOM     18  O   UNL     1      11.707  19.785  63.871  1.00  0.00    -0.504 OA
ATOM     19  H   UNL     1      12.138  20.452  64.502  1.00  0.00     0.293 HD
ENDBRANCH  15  18
BRANCH  17  20
ATOM     20  O   UNL     1      10.084  17.475  63.811  1.00  0.00    -0.504 OA
ATOM     21  H   UNL     1       9.489  18.046  63.224  1.00  0.00     0.293 HD
ENDBRANCH  17  20
ENDBRANCH   1  12
BRANCH   2  22
ATOM     22  O   UNL     1      12.932  13.699  64.865  1.00  0.00    -0.502 OA
ATOM     23  H   UNL     1      12.407  14.544  65.054  1.00  0.00     0.293 HD
ENDBRANCH   2  22
BRANCH   6  24
ATOM     24  O   UNL     1      15.947   9.876  62.705  1.00  0.00    -0.507 OA
ATOM     25  H   UNL     1      16.278   8.979  62.385  1.00  0.00     0.293 HD
ENDBRANCH   6  24
BRANCH   8  26
ATOM     26  O   UNL     1      17.341  12.081  58.674  1.00  0.00    -0.508 OA
ATOM     27  H   UNL     1      16.906  12.359  57.801  1.00  0.00     0.293 HD
ENDBRANCH   8  26
TORSDOF 6
ENDMDL
MODEL 7
REMARK VINA RESULT:    -6.320      2.900      7.027
REMARK INTER + INTRA:          -7.888
REMARK INTER:                  -7.574
REMARK INTRA:                  -0.314
REMARK UNBOUND:                -0.274
REMARK SMILES O=c1c(O)c(-c2ccc(O)c(O)c2)oc2cc(O)cc(O)c12
REMARK SMILES IDX 5 1 3 2 2 3 1 4 22 5 20 6 19 7 17 8 16 9 15 10 14 11 6 12
REMARK SMILES IDX 7 13 8 14 9 15 13 16 11 17 10 18 12 20 4 22 21 24 18 26
REMARK H PARENT 10 19 12 21 4 23 21 25 18 27
REMARK Flexibility Score: inf
ROOT
ATOM      1  C   UNL     1      14.831  17.171  62.025  1.00  0.00     0.180 A 
ATOM      2  C   UNL     1      13.971  16.242  62.637  1.00  0.00     0.208 A 
ATOM      3  C   UNL     1      12.809  16.706  63.273  1.00  0.00     0.238 A 
ATOM      4  O   UNL     1      12.071  15.877  63.865  1.00  0.00    -0.285 OA
ATOM      5  C   UNL     1      12.513  18.091  63.276  1.00  0.00     0.111 A 
ATOM      6  C   UNL     1      11.343  18.668  63.856  1.00  0.00     0.134 A 
ATOM      7  C   UNL     1      11.217  20.062  63.914  1.00  0.00     0.093 A 
ATOM      8  C   UNL     1      12.188  20.896  63.356  1.00  0.00     0.123 A 
ATOM      9  C   UNL     1      13.305  20.341  62.736  1.00  0.00     0.094 A 
ATOM     10  C   UNL     1      13.476  18.956  62.694  1.00  0.00     0.146 A 
ATOM     11  O   UNL     1      14.560  18.468  62.102  1.00  0.00    -0.452 OA
ENDROOT
BRANCH   1  12
ATOM     12  C   UNL     1      16.062  16.755  61.314  1.00  0.00     0.025 A 
ATOM     13  C   UNL     1      17.267  16.536  62.004  1.00  0.00     0.016 A 
ATOM     14  C   UNL     1      18.410  16.120  61.316  1.00  0.00     0.051 A 
ATOM     15  C   UNL     1      18.362  15.902  59.932  1.00  0.00     0.157 A 
ATOM     16  C   UNL     1      16.013  16.514  59.931  1.00  0.00     0.062 A 
ATOM     17  C   UNL     1      17.156  16.098  59.238  1.00  0.00     0.158 A 
BRANCH  15  18
ATOM     18  O   UNL     1      19.503  15.488  59.248  1.00  0.00    -0.504 OA
ATOM     19  H   UNL     1      19.443  14.930  58.403  1.00  0.00     0.293 HD
ENDBRANCH  15  18
BRANCH  17  20
ATOM     20  O   UNL     1      17.073  15.883  57.863  1.00  0.00    -0.504 OA
ATOM     21  H   UNL     1      17.643  15.192  57.392  1.00  0.00     0.293 HD
ENDBRANCH  17  20
ENDBRANCH   1  12
BRANCH   2  22
ATOM     22  O   UNL     1      14.294  14.882  62.642  1.00  0.00    -0.502 OA
ATOM     23  H   UNL     1      13.596  14.157  62.528  1.00  0.00     0.293 HD
ENDBRANCH   2  22
BRANCH   6  24
ATOM     24  O   UNL     1      10.272  17.923  64.357  1.00  0.00    -0.507 OA
ATOM     25  H   UNL     1       9.842  18.068  65.258  1.00  0.00     0.293 HD
ENDBRANCH   6  24
BRANCH   8  26
ATOM     26  O   UNL     1      12.049  22.282  63.406  1.00  0.00    -0.508 OA
ATOM     27  H   UNL     1      12.839  22.900  63.259  1.00  0.00     0.293 HD
ENDBRANCH   8  26
TORSDOF 6
ENDMDL
MODEL 8
REMARK VINA RESULT:    -6.205      4.855      6.921
REMARK INTER + INTRA:          -7.748
REMARK INTER:                  -7.428
REMARK INTRA:                  -0.320
REMARK UNBOUND:                -0.274
REMARK SMILES O=c1c(O)c(-c2ccc(O)c(O)c2)oc2cc(O)cc(O)c12
REMARK SMILES IDX 5 1 3 2 2 3 1 4 22 5 20 6 19 7 17 8 16 9 15 10 14 11 6 12
REMARK SMILES IDX 7 13 8 14 9 15 13 16 11 17 10 18 12 20 4 22 21 24 18 26
REMARK H PARENT 10 19 12 21 4 23 21 25 18 27
REMARK Flexibility Score: inf
ROOT
ATOM      1  C   UNL     1      12.203  19.655  63.421  1.00  0.00     0.180 A 
ATOM      2  C   UNL     1      11.176  18.736  63.698  1.00  0.00     0.208 A 
ATOM      3  C   UNL     1      11.477  17.365  63.719  1.00  0.00     0.238 A 
ATOM      4  O   UNL     1      10.544  16.544  63.913  1.00  0.00    -0.285 OA
ATOM      5  C   UNL     1      12.803  16.931  63.479  1.00  0.00     0.111 A 
ATOM      6  C   UNL     1      13.230  15.568  63.514  1.00  0.00     0.134 A 
ATOM      7  C   UNL     1      14.537  15.244  63.133  1.00  0.00     0.093 A 
ATOM      8  C   UNL     1      15.452  16.239  62.780  1.00  0.00     0.123 A 
ATOM      9  C   UNL     1      15.062  17.576  62.799  1.00  0.00     0.094 A 
ATOM     10  C   UNL     1      13.755  17.928  63.140  1.00  0.00     0.146 A 
ATOM     11  O   UNL     1      13.422  19.213  63.135  1.00  0.00    -0.452 OA
ENDROOT
BRANCH   1  12
ATOM     12  C   UNL     1      11.968  21.117  63.406  1.00  0.00     0.025 A 
ATOM     13  C   UNL     1      12.219  21.911  64.539  1.00  0.00     0.016 A 
ATOM     14  C   UNL     1      12.014  23.292  64.493  1.00  0.00     0.051 A 
ATOM     15  C   UNL     1      11.568  23.903  63.313  1.00  0.00     0.157 A 
ATOM     16  C   UNL     1      11.541  21.736  62.219  1.00  0.00     0.062 A 
ATOM     17  C   UNL     1      11.333  23.120  62.171  1.00  0.00     0.158 A 
BRANCH  15  18
ATOM     18  O   UNL     1      11.362  25.280  63.271  1.00  0.00    -0.504 OA
ATOM     19  H   UNL     1      12.120  25.935  63.424  1.00  0.00     0.293 HD
ENDBRANCH  15  18
BRANCH  17  20
ATOM     20  O   UNL     1      10.896  23.697  60.979  1.00  0.00    -0.504 OA
ATOM     21  H   UNL     1       9.914  23.841  60.780  1.00  0.00     0.293 HD
ENDBRANCH  17  20
ENDBRANCH   1  12
BRANCH   2  22
ATOM     22  O   UNL     1       9.869  19.184  63.910  1.00  0.00    -0.502 OA
ATOM     23  H   UNL     1       9.311  19.602  63.176  1.00  0.00     0.293 HD
ENDBRANCH   2  22
BRANCH   6  24
ATOM     24  O   UNL     1      12.423  14.510  63.942  1.00  0.00    -0.507 OA
ATOM     25  H   UNL     1      12.743  13.564  64.084  1.00  0.00     0.293 HD
ENDBRANCH   6  24
BRANCH   8  26
ATOM     26  O   UNL     1      16.756  15.909  62.416  1.00  0.00    -0.508 OA
ATOM     27  H   UNL     1      17.552  16.205  62.970  1.00  0.00     0.293 HD
ENDBRANCH   8  26
TORSDOF 6
ENDMDL
MODEL 9
REMARK VINA RESULT:    -6.200      3.119      7.221
REMARK INTER + INTRA:          -7.743
REMARK INTER:                  -7.436
REMARK INTRA:                  -0.306
REMARK UNBOUND:                -0.274
REMARK SMILES O=c1c(O)c(-c2ccc(O)c(O)c2)oc2cc(O)cc(O)c12
REMARK SMILES IDX 5 1 3 2 2 3 1 4 22 5 20 6 19 7 17 8 16 9 15 10 14 11 6 12
REMARK SMILES IDX 7 13 8 14 9 15 13 16 11 17 10 18 12 20 4 22 21 24 18 26
REMARK H PARENT 10 19 12 21 4 23 21 25 18 27
REMARK Flexibility Score: inf
ROOT
ATOM      1  C   UNL     1      14.466  17.362  62.224  1.00  0.00     0.180 A 
ATOM      2  C   UNL     1      13.563  16.470  62.829  1.00  0.00     0.208 A 
ATOM      3  C   UNL     1      12.424  16.985  63.468  1.00  0.00     0.238 A 
ATOM      4  O   UNL     1      11.647  16.187  64.055  1.00  0.00    -0.285 OA
ATOM      5  C   UNL     1      12.193  18.382  63.479  1.00  0.00     0.111 A 
ATOM      6  C   UNL     1      11.051  19.010  64.063  1.00  0.00     0.134 A 
ATOM      7  C   UNL     1      10.991  20.407  64.129  1.00  0.00     0.093 A 
ATOM      8  C   UNL     1      12.001  21.199  63.578  1.00  0.00     0.123 A 
ATOM      9  C   UNL     1      13.091  20.596  62.954  1.00  0.00     0.094 A 
ATOM     10  C   UNL     1      13.196  19.204  62.903  1.00  0.00     0.146 A 
ATOM     11  O   UNL     1      14.257  18.670  62.309  1.00  0.00    -0.452 OA
ENDROOT
BRANCH   1  12
ATOM     12  C   UNL     1      15.677  16.893  61.511  1.00  0.00     0.025 A 
ATOM     13  C   UNL     1      15.700  16.768  60.111  1.00  0.00     0.016 A 
ATOM     14  C   UNL     1      16.861  16.347  59.458  1.00  0.00     0.051 A 
ATOM     15  C   UNL     1      18.020  16.058  60.191  1.00  0.00     0.157 A 
ATOM     16  C   UNL     1      16.847  16.622  62.240  1.00  0.00     0.062 A 
ATOM     17  C   UNL     1      18.012  16.199  61.589  1.00  0.00     0.158 A 
BRANCH  15  18
ATOM     18  O   UNL     1      19.176  15.637  59.537  1.00  0.00    -0.504 OA
ATOM     19  H   UNL     1      19.868  15.059  60.002  1.00  0.00     0.293 HD
ENDBRANCH  15  18
BRANCH  17  20
ATOM     20  O   UNL     1      19.150  15.926  62.347  1.00  0.00    -0.504 OA
ATOM     21  H   UNL     1      19.175  15.179  63.030  1.00  0.00     0.293 HD
ENDBRANCH  17  20
ENDBRANCH   1  12
BRANCH   2  22
ATOM     22  O   UNL     1      13.821  15.097  62.826  1.00  0.00    -0.502 OA
ATOM     23  H   UNL     1      13.433  14.472  62.130  1.00  0.00     0.293 HD
ENDBRANCH   2  22
BRANCH   6  24
ATOM     24  O   UNL     1       9.946  18.313  64.558  1.00  0.00    -0.507 OA
ATOM     25  H   UNL     1       9.302  17.780  63.993  1.00  0.00     0.293 HD
ENDBRANCH   6  24
BRANCH   8  26
ATOM     26  O   UNL     1      11.926  22.589  63.636  1.00  0.00    -0.508 OA
ATOM     27  H   UNL     1      12.746  23.156  63.821  1.00  0.00     0.293 HD
ENDBRANCH   8  26
TORSDOF 6
ENDMDL
