MODEL 1
REMARK VINA RESULT:    -6.081      0.000      0.000
REMARK INTER + INTRA:          -7.276
REMARK INTER:                  -7.147
REMARK INTRA:                  -0.128
REMARK UNBOUND:                -0.128
REMARK SMILES O=C([O-])C=Cc1ccc(O)c(O)c1
REMARK SMILES IDX 6 1 13 2 7 3 11 4 8 5 9 6 5 7 4 8 2 9 1 10 3 11 12 12 10 14
REMARK H PARENT 12 13 10 15
REMARK Flexibility Score: inf
ROOT
ATOM      1  C   UNL     1     -14.575 -29.496 -10.695  1.00  0.00    -0.022 A 
ATOM      2  C   UNL     1     -14.740 -28.860 -11.937  1.00  0.00     0.058 A 
ATOM      3  C   UNL     1     -15.025 -30.823 -10.546  1.00  0.00     0.012 A 
ATOM      4  C   UNL     1     -15.316 -29.535 -13.019  1.00  0.00     0.157 A 
ATOM      5  C   UNL     1     -15.602 -31.499 -11.624  1.00  0.00     0.051 A 
ATOM      6  C   UNL     1     -15.748 -30.862 -12.863  1.00  0.00     0.157 A 
ENDROOT
BRANCH   1   7
ATOM      7  C   UNL     1     -13.966 -28.729  -9.580  1.00  0.00     0.010 C 
ATOM      8  C   UNL     1     -12.766 -29.007  -9.051  1.00  0.00     0.025 C 
BRANCH   8   9
ATOM      9  C   UNL     1     -12.197 -28.212  -7.953  1.00  0.00     0.064 C 
ATOM     10  O   UNL     1     -11.448 -28.768  -7.107  1.00  0.00    -0.545 OA
ATOM     11  O   UNL     1     -12.474 -26.855  -7.831  1.00  0.00    -0.545 OA
ENDBRANCH   8   9
ENDBRANCH   1   7
BRANCH   4  12
ATOM     12  O   UNL     1     -15.453 -28.871 -14.237  1.00  0.00    -0.504 OA
ATOM     13  H   UNL     1     -14.676 -28.753 -14.875  1.00  0.00     0.293 HD
ENDBRANCH   4  12
BRANCH   6  14
ATOM     14  O   UNL     1     -16.322 -31.542 -13.937  1.00  0.00    -0.504 OA
ATOM     15  H   UNL     1     -17.043 -31.118 -14.509  1.00  0.00     0.293 HD
ENDBRANCH   6  14
TORSDOF 4
ENDMDL
MODEL 2
REMARK VINA RESULT:    -6.024      3.532      4.479
REMARK INTER + INTRA:          -7.209
REMARK INTER:                  -7.081
REMARK INTRA:                  -0.128
REMARK UNBOUND:                -0.128
REMARK SMILES O=C([O-])C=Cc1ccc(O)c(O)c1
REMARK SMILES IDX 6 1 13 2 7 3 11 4 8 5 9 6 5 7 4 8 2 9 1 10 3 11 12 12 10 14
REMARK H PARENT 12 13 10 15
REMARK Flexibility Score: inf
ROOT
ATOM      1  C   UNL     1     -15.034 -29.409 -12.697  1.00  0.00    -0.022 A 
ATOM      2  C   UNL     1     -15.280 -30.339 -13.721  1.00  0.00     0.058 A 
ATOM      3  C   UNL     1     -14.904 -29.874 -11.373  1.00  0.00     0.012 A 
ATOM      4  C   UNL     1     -15.368 -31.708 -13.442  1.00  0.00     0.157 A 
ATOM      5  C   UNL     1     -14.992 -31.240 -11.092  1.00  0.00     0.051 A 
ATOM      6  C   UNL     1     -15.222 -32.162 -12.121  1.00  0.00     0.157 A 
ENDROOT
BRANCH   1   7
ATOM      7  C   UNL     1     -14.960 -27.969 -13.048  1.00  0.00     0.010 C 
ATOM      8  C   UNL     1     -14.164 -27.476 -14.007  1.00  0.00     0.025 C 
BRANCH   8   9
ATOM      9  C   UNL     1     -14.132 -26.041 -14.329  1.00  0.00     0.064 C 
ATOM     10  O   UNL     1     -15.213 -25.420 -14.506  1.00  0.00    -0.545 OA
ATOM     11  O   UNL     1     -12.926 -25.358 -14.444  1.00  0.00    -0.545 OA
ENDBRANCH   8   9
ENDBRANCH   1   7
BRANCH   4  12
ATOM     12  O   UNL     1     -15.603 -32.599 -14.488  1.00  0.00    -0.504 OA
ATOM     13  H   UNL     1     -16.449 -33.151 -14.545  1.00  0.00     0.293 HD
ENDBRANCH   4  12
BRANCH   6  14
ATOM     14  O   UNL     1     -15.307 -33.524 -11.836  1.00  0.00    -0.504 OA
ATOM     15  H   UNL     1     -14.930 -33.912 -10.980  1.00  0.00     0.293 HD
ENDBRANCH   6  14
TORSDOF 4
ENDMDL
MODEL 3
REMARK VINA RESULT:    -5.842      2.277      2.898
REMARK INTER + INTRA:          -6.995
REMARK INTER:                  -6.867
REMARK INTRA:                  -0.127
REMARK UNBOUND:                -0.128
REMARK SMILES O=C([O-])C=Cc1ccc(O)c(O)c1
REMARK SMILES IDX 6 1 13 2 7 3 11 4 8 5 9 6 5 7 4 8 2 9 1 10 3 11 12 12 10 14
REMARK H PARENT 12 13 10 15
REMARK Flexibility Score: inf
ROOT
ATOM      1  C   UNL     1     -13.930 -27.754 -12.025  1.00  0.00    -0.022 A 
ATOM      2  C   UNL     1     -13.084 -27.010 -12.864  1.00  0.00     0.058 A 
ATOM      3  C   UNL     1     -14.900 -28.595 -12.608  1.00  0.00     0.012 A 
ATOM      4  C   UNL     1     -13.180 -27.117 -14.256  1.00  0.00     0.157 A 
ATOM      5  C   UNL     1     -14.997 -28.703 -13.998  1.00  0.00     0.051 A 
ATOM      6  C   UNL     1     -14.139 -27.969 -14.827  1.00  0.00     0.157 A 
ENDROOT
BRANCH   1   7
ATOM      7  C   UNL     1     -13.792 -27.596 -10.556  1.00  0.00     0.010 C 
ATOM      8  C   UNL     1     -12.626 -27.688  -9.902  1.00  0.00     0.025 C 
BRANCH   8   9
ATOM      9  C   UNL     1     -12.535 -27.511  -8.445  1.00  0.00     0.064 C 
ATOM     10  O   UNL     1     -12.964 -28.416  -7.681  1.00  0.00    -0.545 OA
ATOM     11  O   UNL     1     -11.985 -26.359  -7.895  1.00  0.00    -0.545 OA
ENDBRANCH   8   9
ENDBRANCH   1   7
BRANCH   4  12
ATOM     12  O   UNL     1     -12.315 -26.369 -15.053  1.00  0.00    -0.504 OA
ATOM     13  H   UNL     1     -12.619 -25.931 -15.914  1.00  0.00     0.293 HD
ENDBRANCH   4  12
BRANCH   6  14
ATOM     14  O   UNL     1     -14.238 -28.081 -16.213  1.00  0.00    -0.504 OA
ATOM     15  H   UNL     1     -14.004 -27.309 -16.827  1.00  0.00     0.293 HD
ENDBRANCH   6  14
TORSDOF 4
ENDMDL
MODEL 4
REMARK VINA RESULT:    -5.791      0.825      1.893
REMARK INTER + INTRA:          -6.935
REMARK INTER:                  -6.811
REMARK INTRA:                  -0.124
REMARK UNBOUND:                -0.128
REMARK SMILES O=C([O-])C=Cc1ccc(O)c(O)c1
REMARK SMILES IDX 6 1 13 2 7 3 11 4 8 5 9 6 5 7 4 8 2 9 1 10 3 11 12 12 10 14
REMARK H PARENT 12 13 10 15
REMARK Flexibility Score: inf
ROOT
ATOM      1  C   UNL     1     -14.509 -29.535 -10.725  1.00  0.00    -0.022 A 
ATOM      2  C   UNL     1     -14.629 -30.935 -10.756  1.00  0.00     0.058 A 
ATOM      3  C   UNL     1     -14.861 -28.797 -11.874  1.00  0.00     0.012 A 
ATOM      4  C   UNL     1     -15.113 -31.589 -11.895  1.00  0.00     0.157 A 
ATOM      5  C   UNL     1     -15.343 -29.449 -13.012  1.00  0.00     0.051 A 
ATOM      6  C   UNL     1     -15.474 -30.844 -13.028  1.00  0.00     0.157 A 
ENDROOT
BRANCH   1   7
ATOM      7  C   UNL     1     -13.982 -28.894  -9.496  1.00  0.00     0.010 C 
ATOM      8  C   UNL     1     -12.688 -28.605  -9.301  1.00  0.00     0.025 C 
BRANCH   8   9
ATOM      9  C   UNL     1     -12.212 -27.957  -8.070  1.00  0.00     0.064 C 
ATOM     10  O   UNL     1     -11.655 -28.651  -7.178  1.00  0.00    -0.545 OA
ATOM     11  O   UNL     1     -12.369 -26.590  -7.871  1.00  0.00    -0.545 OA
ENDBRANCH   8   9
ENDBRANCH   1   7
BRANCH   4  12
ATOM     12  O   UNL     1     -15.225 -32.979 -11.880  1.00  0.00    -0.504 OA
ATOM     13  H   UNL     1     -15.049 -33.542 -12.703  1.00  0.00     0.293 HD
ENDBRANCH   4  12
BRANCH   6  14
ATOM     14  O   UNL     1     -15.957 -31.489 -14.165  1.00  0.00    -0.504 OA
ATOM     15  H   UNL     1     -15.392 -31.589 -15.000  1.00  0.00     0.293 HD
ENDBRANCH   6  14
TORSDOF 4
ENDMDL
MODEL 5
REMARK VINA RESULT:    -5.727      4.529      6.631
REMARK INTER + INTRA:          -6.860
REMARK INTER:                  -6.731
REMARK INTRA:                  -0.129
REMARK UNBOUND:                -0.128
REMARK SMILES O=C([O-])C=Cc1ccc(O)c(O)c1
REMARK SMILES IDX 6 1 13 2 7 3 11 4 8 5 9 6 5 7 4 8 2 9 1 10 3 11 12 12 10 14
REMARK H PARENT 12 13 10 15
REMARK Flexibility Score: inf
ROOT
ATOM      1  C   UNL     1     -10.692 -30.381  -6.846  1.00  0.00    -0.022 A 
ATOM      2  C   UNL     1     -10.830 -31.449  -7.749  1.00  0.00     0.058 A 
ATOM      3  C   UNL     1     -10.240 -30.649  -5.539  1.00  0.00     0.012 A 
ATOM      4  C   UNL     1     -10.501 -32.756  -7.370  1.00  0.00     0.157 A 
ATOM      5  C   UNL     1      -9.911 -31.953  -5.158  1.00  0.00     0.051 A 
ATOM      6  C   UNL     1     -10.037 -33.010  -6.069  1.00  0.00     0.157 A 
ENDROOT
BRANCH   1   7
ATOM      7  C   UNL     1     -11.065 -29.017  -7.298  1.00  0.00     0.010 C 
ATOM      8  C   UNL     1     -12.259 -28.705  -7.820  1.00  0.00     0.025 C 
BRANCH   8   9
ATOM      9  C   UNL     1     -12.589 -27.335  -8.243  1.00  0.00     0.064 C 
ATOM     10  O   UNL     1     -13.602 -27.134  -8.962  1.00  0.00    -0.545 OA
ATOM     11  O   UNL     1     -11.797 -26.257  -7.864  1.00  0.00    -0.545 OA
ENDBRANCH   8   9
ENDBRANCH   1   7
BRANCH   4  12
ATOM     12  O   UNL     1     -10.642 -33.786  -8.298  1.00  0.00    -0.504 OA
ATOM     13  H   UNL     1     -10.171 -34.676  -8.191  1.00  0.00     0.293 HD
ENDBRANCH   4  12
BRANCH   6  14
ATOM     14  O   UNL     1      -9.706 -34.308  -5.686  1.00  0.00    -0.504 OA
ATOM     15  H   UNL     1      -9.038 -34.490  -4.946  1.00  0.00     0.293 HD
ENDBRANCH   6  14
TORSDOF 4
ENDMDL
MODEL 6
REMARK VINA RESULT:    -5.655      2.563      5.796
REMARK INTER + INTRA:          -6.775
REMARK INTER:                  -6.644
REMARK INTRA:                  -0.130
REMARK UNBOUND:                -0.128
REMARK SMILES O=C([O-])C=Cc1ccc(O)c(O)c1
REMARK SMILES IDX 6 1 13 2 7 3 11 4 8 5 9 6 5 7 4 8 2 9 1 10 3 11 12 12 10 14
REMARK H PARENT 12 13 10 15
REMARK Flexibility Score: inf
ROOT
ATOM      1  C   UNL     1     -15.304 -30.988 -12.480  1.00  0.00    -0.022 A 
ATOM      2  C   UNL     1     -15.523 -29.892 -13.333  1.00  0.00     0.058 A 
ATOM      3  C   UNL     1     -14.851 -30.748 -11.168  1.00  0.00     0.012 A 
ATOM      4  C   UNL     1     -15.322 -28.582 -12.884  1.00  0.00     0.157 A 
ATOM      5  C   UNL     1     -14.649 -29.440 -10.717  1.00  0.00     0.051 A 
ATOM      6  C   UNL     1     -14.885 -28.353 -11.569  1.00  0.00     0.157 A 
ENDROOT
BRANCH   1   7
ATOM      7  C   UNL     1     -15.523 -32.356 -13.011  1.00  0.00     0.010 C 
ATOM      8  C   UNL     1     -14.591 -33.059 -13.670  1.00  0.00     0.025 C 
BRANCH   8   9
ATOM      9  C   UNL     1     -14.850 -34.418 -14.168  1.00  0.00     0.064 C 
ATOM     10  O   UNL     1     -15.985 -34.937 -13.997  1.00  0.00    -0.545 OA
ATOM     11  O   UNL     1     -13.860 -35.143 -14.822  1.00  0.00    -0.545 OA
ENDBRANCH   8   9
ENDBRANCH   1   7
BRANCH   4  12
ATOM     12  O   UNL     1     -15.560 -27.523 -13.758  1.00  0.00    -0.504 OA
ATOM     13  H   UNL     1     -15.474 -27.624 -14.762  1.00  0.00     0.293 HD
ENDBRANCH   4  12
BRANCH   6  14
ATOM     14  O   UNL     1     -14.684 -27.051 -11.115  1.00  0.00    -0.504 OA
ATOM     15  H   UNL     1     -15.145 -26.701 -10.284  1.00  0.00     0.293 HD
ENDBRANCH   6  14
TORSDOF 4
ENDMDL
MODEL 7
REMARK VINA RESULT:    -5.561      2.529      6.053
REMARK INTER + INTRA:          -6.665
REMARK INTER:                  -6.534
REMARK INTRA:                  -0.131
REMARK UNBOUND:                -0.128
REMARK SMILES O=C([O-])C=Cc1ccc(O)c(O)c1
REMARK SMILES IDX 6 1 13 2 7 3 11 4 8 5 9 6 5 7 4 8 2 9 1 10 3 11 12 12 10 14
REMARK H PARENT 12 13 10 15
REMARK Flexibility Score: inf
ROOT
ATOM      1  C   UNL     1     -15.270 -30.898 -12.564  1.00  0.00    -0.022 A 
ATOM      2  C   UNL     1     -14.893 -30.705 -11.225  1.00  0.00     0.058 A 
ATOM      3  C   UNL     1     -15.460 -29.770 -13.387  1.00  0.00     0.012 A 
ATOM      4  C   UNL     1     -14.683 -29.417 -10.717  1.00  0.00     0.157 A 
ATOM      5  C   UNL     1     -15.251 -28.483 -12.882  1.00  0.00     0.051 A 
ATOM      6  C   UNL     1     -14.860 -28.301 -11.550  1.00  0.00     0.157 A 
ENDROOT
BRANCH   1   7
ATOM      7  C   UNL     1     -15.489 -32.284 -13.048  1.00  0.00     0.010 C 
ATOM      8  C   UNL     1     -14.570 -32.995 -13.714  1.00  0.00     0.025 C 
BRANCH   8   9
ATOM      9  C   UNL     1     -14.827 -34.372 -14.164  1.00  0.00     0.064 C 
ATOM     10  O   UNL     1     -15.961 -34.884 -13.978  1.00  0.00    -0.545 OA
ATOM     11  O   UNL     1     -13.835 -35.119 -14.790  1.00  0.00    -0.545 OA
ENDBRANCH   8   9
ENDBRANCH   1   7
BRANCH   4  12
ATOM     12  O   UNL     1     -14.300 -29.269  -9.385  1.00  0.00    -0.504 OA
ATOM     13  H   UNL     1     -13.531 -28.672  -9.109  1.00  0.00     0.293 HD
ENDBRANCH   4  12
BRANCH   6  14
ATOM     14  O   UNL     1     -14.651 -27.016 -11.050  1.00  0.00    -0.504 OA
ATOM     15  H   UNL     1     -14.777 -26.194 -11.630  1.00  0.00     0.293 HD
ENDBRANCH   6  14
TORSDOF 4
ENDMDL
MODEL 8
REMARK VINA RESULT:    -5.515      2.131      5.843
REMARK INTER + INTRA:          -6.611
REMARK INTER:                  -6.486
REMARK INTRA:                  -0.125
REMARK UNBOUND:                -0.128
REMARK SMILES O=C([O-])C=Cc1ccc(O)c(O)c1
REMARK SMILES IDX 6 1 13 2 7 3 11 4 8 5 9 6 5 7 4 8 2 9 1 10 3 11 12 12 10 14
REMARK H PARENT 12 13 10 15
REMARK Flexibility Score: inf
ROOT
ATOM      1  C   UNL     1     -13.710 -28.325 -10.027  1.00  0.00    -0.022 A 
ATOM      2  C   UNL     1     -13.037 -29.558  -9.991  1.00  0.00     0.058 A 
ATOM      3  C   UNL     1     -13.473 -27.391  -8.998  1.00  0.00     0.012 A 
ATOM      4  C   UNL     1     -12.126 -29.849  -8.968  1.00  0.00     0.157 A 
ATOM      5  C   UNL     1     -12.565 -27.680  -7.976  1.00  0.00     0.051 A 
ATOM      6  C   UNL     1     -11.887 -28.906  -7.956  1.00  0.00     0.157 A 
ENDROOT
BRANCH   1   7
ATOM      7  C   UNL     1     -14.671 -28.072 -11.128  1.00  0.00     0.010 C 
ATOM      8  C   UNL     1     -14.306 -27.783 -12.385  1.00  0.00     0.025 C 
BRANCH   8   9
ATOM      9  C   UNL     1     -15.295 -27.552 -13.449  1.00  0.00     0.064 C 
ATOM     10  O   UNL     1     -15.270 -26.472 -14.096  1.00  0.00    -0.545 OA
ATOM     11  O   UNL     1     -16.261 -28.505 -13.750  1.00  0.00    -0.545 OA
ENDBRANCH   8   9
ENDBRANCH   1   7
BRANCH   4  12
ATOM     12  O   UNL     1     -11.472 -31.080  -8.975  1.00  0.00    -0.504 OA
ATOM     13  H   UNL     1     -11.932 -31.932  -9.272  1.00  0.00     0.293 HD
ENDBRANCH   4  12
BRANCH   6  14
ATOM     14  O   UNL     1     -10.981 -29.189  -6.936  1.00  0.00    -0.504 OA
ATOM     15  H   UNL     1     -10.112 -28.677  -6.840  1.00  0.00     0.293 HD
ENDBRANCH   6  14
TORSDOF 4
ENDMDL
MODEL 9
REMARK VINA RESULT:    -5.488      1.569      5.661
REMARK INTER + INTRA:          -6.578
REMARK INTER:                  -6.452
REMARK INTRA:                  -0.127
REMARK UNBOUND:                -0.128
REMARK SMILES O=C([O-])C=Cc1ccc(O)c(O)c1
REMARK SMILES IDX 6 1 13 2 7 3 11 4 8 5 9 6 5 7 4 8 2 9 1 10 3 11 12 12 10 14
REMARK H PARENT 12 13 10 15
REMARK Flexibility Score: inf
ROOT
ATOM      1  C   UNL     1     -14.119 -29.941 -10.432  1.00  0.00    -0.022 A 
ATOM      2  C   UNL     1     -14.831 -28.731 -10.479  1.00  0.00     0.058 A 
ATOM      3  C   UNL     1     -12.980 -30.030  -9.606  1.00  0.00     0.012 A 
ATOM      4  C   UNL     1     -14.435 -27.635  -9.702  1.00  0.00     0.157 A 
ATOM      5  C   UNL     1     -12.584 -28.937  -8.830  1.00  0.00     0.051 A 
ATOM      6  C   UNL     1     -13.308 -27.739  -8.871  1.00  0.00     0.157 A 
ENDROOT
BRANCH   1   7
ATOM      7  C   UNL     1     -14.576 -31.067 -11.283  1.00  0.00     0.010 C 
ATOM      8  C   UNL     1     -14.755 -30.976 -12.608  1.00  0.00     0.025 C 
BRANCH   8   9
ATOM      9  C   UNL     1     -15.198 -32.123 -13.415  1.00  0.00     0.064 C 
ATOM     10  O   UNL     1     -16.404 -32.207 -13.765  1.00  0.00    -0.545 OA
ATOM     11  O   UNL     1     -14.307 -33.120 -13.795  1.00  0.00    -0.545 OA
ENDBRANCH   8   9
ENDBRANCH   1   7
BRANCH   4  12
ATOM     12  O   UNL     1     -15.174 -26.455  -9.770  1.00  0.00    -0.504 OA
ATOM     13  H   UNL     1     -15.873 -26.217  -9.077  1.00  0.00     0.293 HD
ENDBRANCH   4  12
BRANCH   6  14
ATOM     14  O   UNL     1     -12.910 -26.652  -8.094  1.00  0.00    -0.504 OA
ATOM     15  H   UNL     1     -13.575 -25.961  -7.767  1.00  0.00     0.293 HD
ENDBRANCH   6  14
TORSDOF 4
ENDMDL
