MODEL 1
REMARK VINA RESULT:    -5.835      0.000      0.000
REMARK INTER + INTRA:          -7.156
REMARK INTER:                  -6.859
REMARK INTRA:                  -0.298
REMARK UNBOUND:                -0.298
REMARK SMILES O=c1c(O)c(-c2ccc(O)cc2)oc2cc(O)cc(O)c12
REMARK SMILES IDX 5 1 3 2 2 3 1 4 21 5 19 6 18 7 16 8 15 9 14 10 13 11 6 12
REMARK SMILES IDX 7 13 8 14 9 15 12 16 11 17 10 18 4 20 20 22 17 24
REMARK H PARENT 10 19 4 21 20 23 17 25
REMARK Flexibility Score: inf
ROOT
ATOM      1  C   UNL     1      17.742  41.243   5.955  1.00  0.00     0.180 A 
ATOM      2  C   UNL     1      17.887  41.974   4.760  1.00  0.00     0.208 A 
ATOM      3  C   UNL     1      18.784  41.511   3.785  1.00  0.00     0.238 A 
ATOM      4  O   UNL     1      18.930  42.162   2.716  1.00  0.00    -0.285 OA
ATOM      5  C   UNL     1      19.504  40.319   4.011  1.00  0.00     0.111 A 
ATOM      6  C   UNL     1      20.424  39.782   3.077  1.00  0.00     0.134 A 
ATOM      7  C   UNL     1      21.096  38.586   3.373  1.00  0.00     0.093 A 
ATOM      8  C   UNL     1      20.863  37.918   4.581  1.00  0.00     0.123 A 
ATOM      9  C   UNL     1      19.957  38.443   5.503  1.00  0.00     0.094 A 
ATOM     10  C   UNL     1      19.280  39.635   5.228  1.00  0.00     0.146 A 
ATOM     11  O   UNL     1      18.427  40.115   6.126  1.00  0.00    -0.452 OA
ENDROOT
BRANCH   1  12
ATOM     12  C   UNL     1      16.831  41.677   7.038  1.00  0.00     0.021 A 
ATOM     13  C   UNL     1      15.514  41.188   7.071  1.00  0.00     0.016 A 
ATOM     14  C   UNL     1      14.643  41.567   8.096  1.00  0.00     0.047 A 
ATOM     15  C   UNL     1      15.080  42.425   9.110  1.00  0.00     0.115 A 
ATOM     16  C   UNL     1      17.271  42.524   8.072  1.00  0.00     0.016 A 
ATOM     17  C   UNL     1      16.398  42.900   9.097  1.00  0.00     0.047 A 
BRANCH  15  18
ATOM     18  O   UNL     1      14.201  42.794  10.125  1.00  0.00    -0.508 OA
ATOM     19  H   UNL     1      13.876  43.749  10.222  1.00  0.00     0.293 HD
ENDBRANCH  15  18
ENDBRANCH   1  12
BRANCH   2  20
ATOM     20  O   UNL     1      17.125  43.124   4.540  1.00  0.00    -0.502 OA
ATOM     21  H   UNL     1      16.122  43.091   4.396  1.00  0.00     0.293 HD
ENDBRANCH   2  20
BRANCH   6  22
ATOM     22  O   UNL     1      20.676  40.425   1.866  1.00  0.00    -0.507 OA
ATOM     23  H   UNL     1      20.103  41.197   1.543  1.00  0.00     0.293 HD
ENDBRANCH   6  22
BRANCH   8  24
ATOM     24  O   UNL     1      21.529  36.729   4.872  1.00  0.00    -0.508 OA
ATOM     25  H   UNL     1      21.901  36.542   5.795  1.00  0.00     0.293 HD
ENDBRANCH   8  24
TORSDOF 5
ENDMDL
MODEL 2
REMARK VINA RESULT:    -5.117      1.406      3.218
REMARK INTER + INTRA:          -6.312
REMARK INTER:                  -6.024
REMARK INTRA:                  -0.289
REMARK UNBOUND:                -0.298
REMARK SMILES O=c1c(O)c(-c2ccc(O)cc2)oc2cc(O)cc(O)c12
REMARK SMILES IDX 5 1 3 2 2 3 1 4 21 5 19 6 18 7 16 8 15 9 14 10 13 11 6 12
REMARK SMILES IDX 7 13 8 14 9 15 12 16 11 17 10 18 4 20 20 22 17 24
REMARK H PARENT 10 19 4 21 20 23 17 25
REMARK Flexibility Score: inf
ROOT
ATOM      1  C   UNL     1      17.565  41.454   5.618  1.00  0.00     0.180 A 
ATOM      2  C   UNL     1      18.495  40.402   5.742  1.00  0.00     0.208 A 
ATOM      3  C   UNL     1      19.292  40.068   4.637  1.00  0.00     0.238 A 
ATOM      4  O   UNL     1      20.120  39.122   4.733  1.00  0.00    -0.285 OA
ATOM      5  C   UNL     1      19.163  40.799   3.438  1.00  0.00     0.111 A 
ATOM      6  C   UNL     1      19.933  40.528   2.279  1.00  0.00     0.134 A 
ATOM      7  C   UNL     1      19.751  41.307   1.127  1.00  0.00     0.093 A 
ATOM      8  C   UNL     1      18.818  42.350   1.111  1.00  0.00     0.123 A 
ATOM      9  C   UNL     1      18.059  42.620   2.250  1.00  0.00     0.094 A 
ATOM     10  C   UNL     1      18.223  41.854   3.408  1.00  0.00     0.146 A 
ATOM     11  O   UNL     1      17.482  42.130   4.475  1.00  0.00    -0.452 OA
ENDROOT
BRANCH   1  12
ATOM     12  C   UNL     1      16.675  41.853   6.731  1.00  0.00     0.021 A 
ATOM     13  C   UNL     1      15.412  41.253   6.856  1.00  0.00     0.016 A 
ATOM     14  C   UNL     1      14.564  41.598   7.913  1.00  0.00     0.047 A 
ATOM     15  C   UNL     1      14.974  42.535   8.867  1.00  0.00     0.115 A 
ATOM     16  C   UNL     1      17.090  42.781   7.705  1.00  0.00     0.016 A 
ATOM     17  C   UNL     1      16.241  43.124   8.762  1.00  0.00     0.047 A 
BRANCH  15  18
ATOM     18  O   UNL     1      14.119  42.870   9.913  1.00  0.00    -0.508 OA
ATOM     19  H   UNL     1      14.315  42.589  10.867  1.00  0.00     0.293 HD
ENDBRANCH  15  18
ENDBRANCH   1  12
BRANCH   2  20
ATOM     20  O   UNL     1      18.637  39.727   6.956  1.00  0.00    -0.502 OA
ATOM     21  H   UNL     1      17.981  39.018   7.264  1.00  0.00     0.293 HD
ENDBRANCH   2  20
BRANCH   6  22
ATOM     22  O   UNL     1      20.871  39.496   2.266  1.00  0.00    -0.507 OA
ATOM     23  H   UNL     1      21.857  39.674   2.116  1.00  0.00     0.293 HD
ENDBRANCH   6  22
BRANCH   8  24
ATOM     24  O   UNL     1      18.640  43.124  -0.034  1.00  0.00    -0.508 OA
ATOM     25  H   UNL     1      19.233  43.920  -0.233  1.00  0.00     0.293 HD
ENDBRANCH   8  24
TORSDOF 5
ENDMDL
MODEL 3
REMARK VINA RESULT:    -5.005      2.027      2.278
REMARK INTER + INTRA:          -6.180
REMARK INTER:                  -5.885
REMARK INTRA:                  -0.295
REMARK UNBOUND:                -0.298
REMARK SMILES O=c1c(O)c(-c2ccc(O)cc2)oc2cc(O)cc(O)c12
REMARK SMILES IDX 5 1 3 2 2 3 1 4 21 5 19 6 18 7 16 8 15 9 14 10 13 11 6 12
REMARK SMILES IDX 7 13 8 14 9 15 12 16 11 17 10 18 4 20 20 22 17 24
REMARK H PARENT 10 19 4 21 20 23 17 25
REMARK Flexibility Score: inf
ROOT
ATOM      1  C   UNL     1      18.563  41.369   6.868  1.00  0.00     0.180 A 
ATOM      2  C   UNL     1      19.766  42.091   7.001  1.00  0.00     0.208 A 
ATOM      3  C   UNL     1      20.838  41.785   6.148  1.00  0.00     0.238 A 
ATOM      4  O   UNL     1      21.923  42.417   6.265  1.00  0.00    -0.285 OA
ATOM      5  C   UNL     1      20.685  40.782   5.169  1.00  0.00     0.111 A 
ATOM      6  C   UNL     1      21.716  40.416   4.268  1.00  0.00     0.134 A 
ATOM      7  C   UNL     1      21.482  39.413   3.316  1.00  0.00     0.093 A 
ATOM      8  C   UNL     1      20.240  38.771   3.246  1.00  0.00     0.123 A 
ATOM      9  C   UNL     1      19.223  39.129   4.131  1.00  0.00     0.094 A 
ATOM     10  C   UNL     1      19.436  40.124   5.089  1.00  0.00     0.146 A 
ATOM     11  O   UNL     1      18.451  40.440   5.923  1.00  0.00    -0.452 OA
ENDROOT
BRANCH   1  12
ATOM     12  C   UNL     1      17.395  41.620   7.742  1.00  0.00     0.021 A 
ATOM     13  C   UNL     1      16.430  42.563   7.352  1.00  0.00     0.016 A 
ATOM     14  C   UNL     1      15.306  42.801   8.150  1.00  0.00     0.047 A 
ATOM     15  C   UNL     1      15.125  42.087   9.339  1.00  0.00     0.115 A 
ATOM     16  C   UNL     1      17.196  40.891   8.929  1.00  0.00     0.016 A 
ATOM     17  C   UNL     1      16.072  41.129   9.725  1.00  0.00     0.047 A 
BRANCH  15  18
ATOM     18  O   UNL     1      14.002  42.334  10.124  1.00  0.00    -0.508 OA
ATOM     19  H   UNL     1      13.325  43.044   9.871  1.00  0.00     0.293 HD
ENDBRANCH  15  18
ENDBRANCH   1  12
BRANCH   2  20
ATOM     20  O   UNL     1      19.874  43.113   7.946  1.00  0.00    -0.502 OA
ATOM     21  H   UNL     1      19.301  43.143   8.782  1.00  0.00     0.293 HD
ENDBRANCH   2  20
BRANCH   6  22
ATOM     22  O   UNL     1      22.963  41.039   4.313  1.00  0.00    -0.507 OA
ATOM     23  H   UNL     1      23.159  41.794   4.961  1.00  0.00     0.293 HD
ENDBRANCH   6  22
BRANCH   8  24
ATOM     24  O   UNL     1      20.009  37.777   2.298  1.00  0.00    -0.508 OA
ATOM     25  H   UNL     1      20.555  36.924   2.280  1.00  0.00     0.293 HD
ENDBRANCH   8  24
TORSDOF 5
ENDMDL
MODEL 4
REMARK VINA RESULT:    -4.686      2.357      3.048
REMARK INTER + INTRA:          -5.805
REMARK INTER:                  -5.531
REMARK INTRA:                  -0.275
REMARK UNBOUND:                -0.298
REMARK SMILES O=c1c(O)c(-c2ccc(O)cc2)oc2cc(O)cc(O)c12
REMARK SMILES IDX 5 1 3 2 2 3 1 4 21 5 19 6 18 7 16 8 15 9 14 10 13 11 6 12
REMARK SMILES IDX 7 13 8 14 9 15 12 16 11 17 10 18 4 20 20 22 17 24
REMARK H PARENT 10 19 4 21 20 23 17 25
REMARK Flexibility Score: inf
ROOT
ATOM      1  C   UNL     1      18.408  41.978   6.545  1.00  0.00     0.180 A 
ATOM      2  C   UNL     1      19.681  42.440   6.933  1.00  0.00     0.208 A 
ATOM      3  C   UNL     1      20.705  42.491   5.975  1.00  0.00     0.238 A 
ATOM      4  O   UNL     1      21.851  42.893   6.314  1.00  0.00    -0.285 OA
ATOM      5  C   UNL     1      20.437  42.102   4.647  1.00  0.00     0.111 A 
ATOM      6  C   UNL     1      21.414  42.128   3.621  1.00  0.00     0.134 A 
ATOM      7  C   UNL     1      21.066  41.732   2.321  1.00  0.00     0.093 A 
ATOM      8  C   UNL     1      19.763  41.313   2.028  1.00  0.00     0.123 A 
ATOM      9  C   UNL     1      18.799  41.285   3.035  1.00  0.00     0.094 A 
ATOM     10  C   UNL     1      19.126  41.674   4.338  1.00  0.00     0.146 A 
ATOM     11  O   UNL     1      18.189  41.632   5.279  1.00  0.00    -0.452 OA
ENDROOT
BRANCH   1  12
ATOM     12  C   UNL     1      17.282  41.876   7.500  1.00  0.00     0.021 A 
ATOM     13  C   UNL     1      16.263  42.843   7.474  1.00  0.00     0.016 A 
ATOM     14  C   UNL     1      15.179  42.755   8.353  1.00  0.00     0.047 A 
ATOM     15  C   UNL     1      15.090  41.691   9.256  1.00  0.00     0.115 A 
ATOM     16  C   UNL     1      17.177  40.797   8.398  1.00  0.00     0.016 A 
ATOM     17  C   UNL     1      16.090  40.711   9.274  1.00  0.00     0.047 A 
BRANCH  15  18
ATOM     18  O   UNL     1      14.005  41.617  10.125  1.00  0.00    -0.508 OA
ATOM     19  H   UNL     1      13.519  40.742  10.291  1.00  0.00     0.293 HD
ENDBRANCH  15  18
ENDBRANCH   1  12
BRANCH   2  20
ATOM     20  O   UNL     1      19.906  42.867   8.244  1.00  0.00    -0.502 OA
ATOM     21  H   UNL     1      20.270  42.250   8.961  1.00  0.00     0.293 HD
ENDBRANCH   2  20
BRANCH   6  22
ATOM     22  O   UNL     1      22.720  42.543   3.883  1.00  0.00    -0.507 OA
ATOM     23  H   UNL     1      23.386  41.940   4.352  1.00  0.00     0.293 HD
ENDBRANCH   6  22
BRANCH   8  24
ATOM     24  O   UNL     1      19.419  40.921   0.736  1.00  0.00    -0.508 OA
ATOM     25  H   UNL     1      18.452  40.822   0.451  1.00  0.00     0.293 HD
ENDBRANCH   8  24
TORSDOF 5
ENDMDL
MODEL 5
REMARK VINA RESULT:    -4.363      2.753      6.312
REMARK INTER + INTRA:          -5.426
REMARK INTER:                  -5.307
REMARK INTRA:                  -0.119
REMARK UNBOUND:                -0.298
REMARK SMILES O=c1c(O)c(-c2ccc(O)cc2)oc2cc(O)cc(O)c12
REMARK SMILES IDX 5 1 3 2 2 3 1 4 21 5 19 6 18 7 16 8 15 9 14 10 13 11 6 12
REMARK SMILES IDX 7 13 8 14 9 15 12 16 11 17 10 18 4 20 20 22 17 24
REMARK H PARENT 10 19 4 21 20 23 17 25
REMARK Flexibility Score: inf
ROOT
ATOM      1  C   UNL     1      18.318  41.974   5.039  1.00  0.00     0.180 A 
ATOM      2  C   UNL     1      19.321  42.450   5.907  1.00  0.00     0.208 A 
ATOM      3  C   UNL     1      19.155  42.286   7.291  1.00  0.00     0.238 A 
ATOM      4  O   UNL     1      20.040  42.717   8.078  1.00  0.00    -0.285 OA
ATOM      5  C   UNL     1      18.005  41.633   7.782  1.00  0.00     0.111 A 
ATOM      6  C   UNL     1      17.764  41.423   9.162  1.00  0.00     0.134 A 
ATOM      7  C   UNL     1      16.599  40.757   9.571  1.00  0.00     0.093 A 
ATOM      8  C   UNL     1      15.673  40.297   8.628  1.00  0.00     0.123 A 
ATOM      9  C   UNL     1      15.907  40.501   7.267  1.00  0.00     0.094 A 
ATOM     10  C   UNL     1      17.061  41.165   6.840  1.00  0.00     0.146 A 
ATOM     11  O   UNL     1      17.255  41.350   5.539  1.00  0.00    -0.452 OA
ENDROOT
BRANCH   1  12
ATOM     12  C   UNL     1      18.412  42.127   3.570  1.00  0.00     0.021 A 
ATOM     13  C   UNL     1      17.490  42.948   2.900  1.00  0.00     0.016 A 
ATOM     14  C   UNL     1      17.573  43.125   1.516  1.00  0.00     0.047 A 
ATOM     15  C   UNL     1      18.587  42.497   0.786  1.00  0.00     0.115 A 
ATOM     16  C   UNL     1      19.442  41.513   2.833  1.00  0.00     0.016 A 
ATOM     17  C   UNL     1      19.523  41.693   1.448  1.00  0.00     0.047 A 
BRANCH  15  18
ATOM     18  O   UNL     1      18.657  42.682  -0.592  1.00  0.00    -0.508 OA
ATOM     19  H   UNL     1      19.438  43.164  -1.023  1.00  0.00     0.293 HD
ENDBRANCH  15  18
ENDBRANCH   1  12
BRANCH   2  20
ATOM     20  O   UNL     1      20.473  43.049   5.392  1.00  0.00    -0.502 OA
ATOM     21  H   UNL     1      20.472  43.571   4.523  1.00  0.00     0.293 HD
ENDBRANCH   2  20
BRANCH   6  22
ATOM     22  O   UNL     1      18.669  41.870  10.125  1.00  0.00    -0.507 OA
ATOM     23  H   UNL     1      19.194  41.225  10.704  1.00  0.00     0.293 HD
ENDBRANCH   6  22
BRANCH   8  24
ATOM     24  O   UNL     1      14.517  39.634   9.034  1.00  0.00    -0.508 OA
ATOM     25  H   UNL     1      14.022  39.899   9.877  1.00  0.00     0.293 HD
ENDBRANCH   8  24
TORSDOF 5
ENDMDL
MODEL 6
REMARK VINA RESULT:    -4.003      2.683      6.666
REMARK INTER + INTRA:          -5.003
REMARK INTER:                  -4.727
REMARK INTRA:                  -0.276
REMARK UNBOUND:                -0.298
REMARK SMILES O=c1c(O)c(-c2ccc(O)cc2)oc2cc(O)cc(O)c12
REMARK SMILES IDX 5 1 3 2 2 3 1 4 21 5 19 6 18 7 16 8 15 9 14 10 13 11 6 12
REMARK SMILES IDX 7 13 8 14 9 15 12 16 11 17 10 18 4 20 20 22 17 24
REMARK H PARENT 10 19 4 21 20 23 17 25
REMARK Flexibility Score: inf
ROOT
ATOM      1  C   UNL     1      19.697  42.039   5.246  1.00  0.00     0.180 A 
ATOM      2  C   UNL     1      20.928  42.306   5.878  1.00  0.00     0.208 A 
ATOM      3  C   UNL     1      20.939  42.579   7.255  1.00  0.00     0.238 A 
ATOM      4  O   UNL     1      22.033  42.830   7.829  1.00  0.00    -0.285 OA
ATOM      5  C   UNL     1      19.728  42.562   7.978  1.00  0.00     0.111 A 
ATOM      6  C   UNL     1      19.653  42.823   9.368  1.00  0.00     0.134 A 
ATOM      7  C   UNL     1      18.410  42.779  10.017  1.00  0.00     0.093 A 
ATOM      8  C   UNL     1      17.244  42.478   9.305  1.00  0.00     0.123 A 
ATOM      9  C   UNL     1      17.313  42.220   7.935  1.00  0.00     0.094 A 
ATOM     10  C   UNL     1      18.542  42.261   7.269  1.00  0.00     0.146 A 
ATOM     11  O   UNL     1      18.578  42.017   5.964  1.00  0.00    -0.452 OA
ENDROOT
BRANCH   1  12
ATOM     12  C   UNL     1      19.602  41.761   3.795  1.00  0.00     0.021 A 
ATOM     13  C   UNL     1      19.821  40.455   3.326  1.00  0.00     0.016 A 
ATOM     14  C   UNL     1      19.714  40.164   1.963  1.00  0.00     0.047 A 
ATOM     15  C   UNL     1      19.371  41.170   1.054  1.00  0.00     0.115 A 
ATOM     16  C   UNL     1      19.238  42.764   2.878  1.00  0.00     0.016 A 
ATOM     17  C   UNL     1      19.130  42.470   1.515  1.00  0.00     0.047 A 
BRANCH  15  18
ATOM     18  O   UNL     1      19.269  40.866  -0.301  1.00  0.00    -0.508 OA
ATOM     19  H   UNL     1      19.643  41.484  -1.012  1.00  0.00     0.293 HD
ENDBRANCH  15  18
ENDBRANCH   1  12
BRANCH   2  20
ATOM     20  O   UNL     1      22.118  42.267   5.148  1.00  0.00    -0.502 OA
ATOM     21  H   UNL     1      22.702  43.086   5.019  1.00  0.00     0.293 HD
ENDBRANCH   2  20
BRANCH   6  22
ATOM     22  O   UNL     1      20.799  43.125  10.105  1.00  0.00    -0.507 OA
ATOM     23  H   UNL     1      20.833  43.005  11.110  1.00  0.00     0.293 HD
ENDBRANCH   6  22
BRANCH   8  24
ATOM     24  O   UNL     1      16.011  42.432   9.951  1.00  0.00    -0.508 OA
ATOM     25  H   UNL     1      15.247  43.038   9.680  1.00  0.00     0.293 HD
ENDBRANCH   8  24
TORSDOF 5
ENDMDL
MODEL 7
REMARK VINA RESULT:    -3.977      2.000      6.779
REMARK INTER + INTRA:          -4.973
REMARK INTER:                  -4.809
REMARK INTRA:                  -0.164
REMARK UNBOUND:                -0.298
REMARK SMILES O=c1c(O)c(-c2ccc(O)cc2)oc2cc(O)cc(O)c12
REMARK SMILES IDX 5 1 3 2 2 3 1 4 21 5 19 6 18 7 16 8 15 9 14 10 13 11 6 12
REMARK SMILES IDX 7 13 8 14 9 15 12 16 11 17 10 18 4 20 20 22 17 24
REMARK H PARENT 10 19 4 21 20 23 17 25
REMARK Flexibility Score: inf
ROOT
ATOM      1  C   UNL     1      19.052  40.466   6.382  1.00  0.00     0.180 A 
ATOM      2  C   UNL     1      19.502  41.581   7.116  1.00  0.00     0.208 A 
ATOM      3  C   UNL     1      18.668  42.121   8.108  1.00  0.00     0.238 A 
ATOM      4  O   UNL     1      19.055  43.125   8.765  1.00  0.00    -0.285 OA
ATOM      5  C   UNL     1      17.414  41.529   8.362  1.00  0.00     0.111 A 
ATOM      6  C   UNL     1      16.516  42.010   9.347  1.00  0.00     0.134 A 
ATOM      7  C   UNL     1      15.289  41.360   9.545  1.00  0.00     0.093 A 
ATOM      8  C   UNL     1      14.943  40.240   8.780  1.00  0.00     0.123 A 
ATOM      9  C   UNL     1      15.825  39.763   7.809  1.00  0.00     0.094 A 
ATOM     10  C   UNL     1      17.052  40.398   7.595  1.00  0.00     0.146 A 
ATOM     11  O   UNL     1      17.869  39.925   6.660  1.00  0.00    -0.452 OA
ENDROOT
BRANCH   1  12
ATOM     12  C   UNL     1      19.865  39.851   5.308  1.00  0.00     0.021 A 
ATOM     13  C   UNL     1      20.291  38.519   5.439  1.00  0.00     0.016 A 
ATOM     14  C   UNL     1      21.040  37.911   4.428  1.00  0.00     0.047 A 
ATOM     15  C   UNL     1      21.359  38.621   3.265  1.00  0.00     0.115 A 
ATOM     16  C   UNL     1      20.172  40.553   4.127  1.00  0.00     0.016 A 
ATOM     17  C   UNL     1      20.920  39.943   3.117  1.00  0.00     0.047 A 
BRANCH  15  18
ATOM     18  O   UNL     1      22.106  38.003   2.266  1.00  0.00    -0.508 OA
ATOM     19  H   UNL     1      21.835  37.105   1.881  1.00  0.00     0.293 HD
ENDBRANCH  15  18
ENDBRANCH   1  12
BRANCH   2  20
ATOM     20  O   UNL     1      20.769  42.117   6.879  1.00  0.00    -0.502 OA
ATOM     21  H   UNL     1      21.546  41.552   6.555  1.00  0.00     0.293 HD
ENDBRANCH   2  20
BRANCH   6  22
ATOM     22  O   UNL     1      16.834  43.123  10.125  1.00  0.00    -0.507 OA
ATOM     23  H   UNL     1      17.354  43.907   9.747  1.00  0.00     0.293 HD
ENDBRANCH   6  22
BRANCH   8  24
ATOM     24  O   UNL     1      13.725  39.594   8.979  1.00  0.00    -0.508 OA
ATOM     25  H   UNL     1      12.994  40.004   9.547  1.00  0.00     0.293 HD
ENDBRANCH   8  24
TORSDOF 5
ENDMDL
MODEL 8
REMARK VINA RESULT:    -3.669      1.550      6.459
REMARK INTER + INTRA:          -4.610
REMARK INTER:                  -4.984
REMARK INTRA:                   0.374
REMARK UNBOUND:                -0.298
REMARK SMILES O=c1c(O)c(-c2ccc(O)cc2)oc2cc(O)cc(O)c12
REMARK SMILES IDX 5 1 3 2 2 3 1 4 21 5 19 6 18 7 16 8 15 9 14 10 13 11 6 12
REMARK SMILES IDX 7 13 8 14 9 15 12 16 11 17 10 18 4 20 20 22 17 24
REMARK H PARENT 10 19 4 21 20 23 17 25
REMARK Flexibility Score: inf
ROOT
ATOM      1  C   UNL     1      18.467  40.263   5.315  1.00  0.00     0.180 A 
ATOM      2  C   UNL     1      17.925  41.471   4.833  1.00  0.00     0.208 A 
ATOM      3  C   UNL     1      16.844  42.050   5.515  1.00  0.00     0.238 A 
ATOM      4  O   UNL     1      16.344  43.125   5.087  1.00  0.00    -0.285 OA
ATOM      5  C   UNL     1      16.337  41.426   6.674  1.00  0.00     0.111 A 
ATOM      6  C   UNL     1      15.252  41.947   7.422  1.00  0.00     0.134 A 
ATOM      7  C   UNL     1      14.812  41.272   8.570  1.00  0.00     0.093 A 
ATOM      8  C   UNL     1      15.434  40.089   8.984  1.00  0.00     0.123 A 
ATOM      9  C   UNL     1      16.503  39.572   8.250  1.00  0.00     0.094 A 
ATOM     10  C   UNL     1      16.956  40.229   7.102  1.00  0.00     0.146 A 
ATOM     11  O   UNL     1      17.972  39.712   6.420  1.00  0.00    -0.452 OA
ENDROOT
BRANCH   1  12
ATOM     12  C   UNL     1      19.594  39.581   4.641  1.00  0.00     0.021 A 
ATOM     13  C   UNL     1      19.744  38.191   4.779  1.00  0.00     0.016 A 
ATOM     14  C   UNL     1      20.789  37.523   4.132  1.00  0.00     0.047 A 
ATOM     15  C   UNL     1      21.686  38.232   3.327  1.00  0.00     0.115 A 
ATOM     16  C   UNL     1      20.489  40.286   3.813  1.00  0.00     0.016 A 
ATOM     17  C   UNL     1      21.531  39.615   3.167  1.00  0.00     0.047 A 
BRANCH  15  18
ATOM     18  O   UNL     1      22.721  37.553   2.690  1.00  0.00    -0.508 OA
ATOM     19  H   UNL     1      23.663  37.553   3.064  1.00  0.00     0.293 HD
ENDBRANCH  15  18
ENDBRANCH   1  12
BRANCH   2  20
ATOM     20  O   UNL     1      18.478  42.093   3.712  1.00  0.00    -0.502 OA
ATOM     21  H   UNL     1      18.243  41.815   2.765  1.00  0.00     0.293 HD
ENDBRANCH   2  20
BRANCH   6  22
ATOM     22  O   UNL     1      14.613  43.125   7.034  1.00  0.00    -0.507 OA
ATOM     23  H   UNL     1      13.807  43.483   7.533  1.00  0.00     0.293 HD
ENDBRANCH   6  22
BRANCH   8  24
ATOM     24  O   UNL     1      14.997  39.420  10.125  1.00  0.00    -0.508 OA
ATOM     25  H   UNL     1      14.043  39.094  10.216  1.00  0.00     0.293 HD
ENDBRANCH   8  24
TORSDOF 5
ENDMDL
MODEL 9
REMARK VINA RESULT:    -3.332      2.652      6.371
REMARK INTER + INTRA:          -4.214
REMARK INTER:                  -4.006
REMARK INTRA:                  -0.208
REMARK UNBOUND:                -0.298
REMARK SMILES O=c1c(O)c(-c2ccc(O)cc2)oc2cc(O)cc(O)c12
REMARK SMILES IDX 5 1 3 2 2 3 1 4 21 5 19 6 18 7 16 8 15 9 14 10 13 11 6 12
REMARK SMILES IDX 7 13 8 14 9 15 12 16 11 17 10 18 4 20 20 22 17 24
REMARK H PARENT 10 19 4 21 20 23 17 25
REMARK Flexibility Score: inf
ROOT
ATOM      1  C   UNL     1      18.791  41.738   5.220  1.00  0.00     0.180 A 
ATOM      2  C   UNL     1      17.542  41.581   5.853  1.00  0.00     0.208 A 
ATOM      3  C   UNL     1      17.461  41.748   7.245  1.00  0.00     0.238 A 
ATOM      4  O   UNL     1      16.351  41.600   7.823  1.00  0.00    -0.285 OA
ATOM      5  C   UNL     1      18.620  42.087   7.974  1.00  0.00     0.111 A 
ATOM      6  C   UNL     1      18.622  42.277   9.378  1.00  0.00     0.134 A 
ATOM      7  C   UNL     1      19.815  42.621  10.031  1.00  0.00     0.093 A 
ATOM      8  C   UNL     1      21.003  42.781   9.308  1.00  0.00     0.123 A 
ATOM      9  C   UNL     1      21.005  42.595   7.925  1.00  0.00     0.094 A 
ATOM     10  C   UNL     1      19.826  42.249   7.256  1.00  0.00     0.146 A 
ATOM     11  O   UNL     1      19.859  42.072   5.940  1.00  0.00    -0.452 OA
ENDROOT
BRANCH   1  12
ATOM     12  C   UNL     1      18.962  41.560   3.761  1.00  0.00     0.021 A 
ATOM     13  C   UNL     1      19.575  40.393   3.273  1.00  0.00     0.016 A 
ATOM     14  C   UNL     1      19.726  40.194   1.898  1.00  0.00     0.047 A 
ATOM     15  C   UNL     1      19.252  41.148   0.992  1.00  0.00     0.115 A 
ATOM     16  C   UNL     1      18.469  42.507   2.844  1.00  0.00     0.016 A 
ATOM     17  C   UNL     1      18.620  42.304   1.468  1.00  0.00     0.047 A 
BRANCH  15  18
ATOM     18  O   UNL     1      19.410  40.936  -0.375  1.00  0.00    -0.508 OA
ATOM     19  H   UNL     1      20.204  41.312  -0.881  1.00  0.00     0.293 HD
ENDBRANCH  15  18
ENDBRANCH   1  12
BRANCH   2  20
ATOM     20  O   UNL     1      16.402  41.294   5.101  1.00  0.00    -0.502 OA
ATOM     21  H   UNL     1      16.027  41.940   4.415  1.00  0.00     0.293 HD
ENDBRANCH   2  20
BRANCH   6  22
ATOM     22  O   UNL     1      17.453  42.126  10.125  1.00  0.00    -0.507 OA
ATOM     23  H   UNL     1      16.816  42.899  10.279  1.00  0.00     0.293 HD
ENDBRANCH   6  22
BRANCH   8  24
ATOM     24  O   UNL     1      22.186  43.125   9.957  1.00  0.00    -0.508 OA
ATOM     25  H   UNL     1      22.460  44.091  10.084  1.00  0.00     0.293 HD
ENDBRANCH   8  24
TORSDOF 5
ENDMDL
