MODEL 1
REMARK VINA RESULT:    -2.181      0.000      0.000
REMARK INTER + INTRA:          -7.244
REMARK INTER:                  -4.985
REMARK INTRA:                  -2.259
REMARK UNBOUND:                -2.259
REMARK SMILES CCCCCCCCCCCCCCCCCCCCCCCC(=O)[O-]
REMARK SMILES IDX 13 1 14 2 15 3 16 4 17 5 18 6 19 7 20 8 21 9 22 10 23 11
REMARK SMILES IDX 24 12 25 13 26 14 12 15 11 16 10 17 9 18 8 19 7 20 6 21 5 22
REMARK SMILES IDX 4 23 3 24 2 25 1 26
REMARK H PARENT
REMARK Flexibility Score: inf
ROOT
ATOM      1  C   UNL     1      31.454  13.564  21.131  1.00  0.00     0.000 C 
ENDROOT
BRANCH   1   2
ATOM      2  C   UNL     1      32.948  13.697  21.480  1.00  0.00     0.000 C 
BRANCH   2   3
ATOM      3  C   UNL     1      33.201  14.608  22.693  1.00  0.00     0.000 C 
BRANCH   3   4
ATOM      4  C   UNL     1      33.366  16.089  22.303  1.00  0.00     0.000 C 
BRANCH   4   5
ATOM      5  C   UNL     1      32.114  16.969  22.500  1.00  0.00     0.000 C 
BRANCH   5   6
ATOM      6  C   UNL     1      31.057  16.866  21.384  1.00  0.00     0.000 C 
BRANCH   6   7
ATOM      7  C   UNL     1      29.607  16.712  21.880  1.00  0.00     0.000 C 
BRANCH   7   8
ATOM      8  C   UNL     1      29.469  15.809  23.124  1.00  0.00     0.000 C 
BRANCH   8   9
ATOM      9  C   UNL     1      28.241  14.885  23.047  1.00  0.00     0.000 C 
BRANCH   9  10
ATOM     10  C   UNL     1      28.616  13.392  23.069  1.00  0.00     0.006 C 
BRANCH  10  11
ATOM     11  C   UNL     1      27.505  12.453  22.572  1.00  0.00     0.053 C 
BRANCH  11  12
ATOM     12  C   UNL     1      27.973  11.569  21.457  1.00  0.00     0.041 C 
ATOM     13  O   UNL     1      29.012  10.872  21.596  1.00  0.00    -0.550 OA
ATOM     14  O   UNL     1      27.286  11.547  20.251  1.00  0.00    -0.550 OA
ENDBRANCH  11  12
ENDBRANCH  10  11
ENDBRANCH   9  10
ENDBRANCH   8   9
ENDBRANCH   7   8
ENDBRANCH   6   7
ENDBRANCH   5   6
ENDBRANCH   4   5
ENDBRANCH   3   4
ENDBRANCH   2   3
ENDBRANCH   1   2
BRANCH   1  15
ATOM     15  C   UNL     1      31.129  13.572  19.627  1.00  0.00     0.000 C 
BRANCH  15  16
ATOM     16  C   UNL     1      29.786  14.252  19.306  1.00  0.00     0.000 C 
BRANCH  16  17
ATOM     17  C   UNL     1      29.926  15.355  18.239  1.00  0.00     0.000 C 
BRANCH  17  18
ATOM     18  C   UNL     1      28.962  16.544  18.427  1.00  0.00    -0.000 C 
BRANCH  18  19
ATOM     19  C   UNL     1      27.502  16.238  18.040  1.00  0.00    -0.000 C 
BRANCH  19  20
ATOM     20  C   UNL     1      27.065  16.982  16.769  1.00  0.00    -0.000 C 
BRANCH  20  21
ATOM     21  C   UNL     1      27.853  16.495  15.545  1.00  0.00    -0.000 C 
BRANCH  21  22
ATOM     22  C   UNL     1      29.259  17.109  15.467  1.00  0.00    -0.000 C 
BRANCH  22  23
ATOM     23  C   UNL     1      29.816  17.125  14.034  1.00  0.00    -0.000 C 
BRANCH  23  24
ATOM     24  C   UNL     1      31.215  16.488  13.931  1.00  0.00    -0.000 C 
BRANCH  24  25
ATOM     25  C   UNL     1      31.212  14.963  13.724  1.00  0.00    -0.003 C 
ATOM     26  C   UNL     1      31.396  14.182  15.024  1.00  0.00     0.004 C 
ENDBRANCH  24  25
ENDBRANCH  23  24
ENDBRANCH  22  23
ENDBRANCH  21  22
ENDBRANCH  20  21
ENDBRANCH  19  20
ENDBRANCH  18  19
ENDBRANCH  17  18
ENDBRANCH  16  17
ENDBRANCH  15  16
ENDBRANCH   1  15
TORSDOF 22
ENDMDL
MODEL 2
REMARK VINA RESULT:    -1.293      1.612      3.169
REMARK INTER + INTRA:          -5.215
REMARK INTER:                  -4.074
REMARK INTRA:                  -1.141
REMARK UNBOUND:                -2.259
REMARK SMILES CCCCCCCCCCCCCCCCCCCCCCCC(=O)[O-]
REMARK SMILES IDX 13 1 14 2 15 3 16 4 17 5 18 6 19 7 20 8 21 9 22 10 23 11
REMARK SMILES IDX 24 12 25 13 26 14 12 15 11 16 10 17 9 18 8 19 7 20 6 21 5 22
REMARK SMILES IDX 4 23 3 24 2 25 1 26
REMARK H PARENT
REMARK Flexibility Score: inf
ROOT
ATOM      1  C   UNL     1      28.692  15.670  20.005  1.00  0.00     0.000 C 
ENDROOT
BRANCH   1   2
ATOM      2  C   UNL     1      28.155  16.021  21.405  1.00  0.00     0.000 C 
BRANCH   2   3
ATOM      3  C   UNL     1      29.272  16.357  22.408  1.00  0.00     0.000 C 
BRANCH   3   4
ATOM      4  C   UNL     1      30.555  16.868  21.725  1.00  0.00     0.000 C 
BRANCH   4   5
ATOM      5  C   UNL     1      31.855  16.680  22.534  1.00  0.00     0.000 C 
BRANCH   5   6
ATOM      6  C   UNL     1      32.785  15.560  22.031  1.00  0.00     0.000 C 
BRANCH   6   7
ATOM      7  C   UNL     1      32.157  14.622  20.982  1.00  0.00     0.000 C 
BRANCH   7   8
ATOM      8  C   UNL     1      32.010  13.163  21.463  1.00  0.00     0.000 C 
BRANCH   8   9
ATOM      9  C   UNL     1      31.145  13.045  22.730  1.00  0.00     0.000 C 
BRANCH   9  10
ATOM     10  C   UNL     1      29.767  12.415  22.456  1.00  0.00     0.006 C 
BRANCH  10  11
ATOM     11  C   UNL     1      29.807  10.906  22.168  1.00  0.00     0.053 C 
BRANCH  11  12
ATOM     12  C   UNL     1      28.444  10.350  21.892  1.00  0.00     0.041 C 
ATOM     13  O   UNL     1      27.483  11.124  21.643  1.00  0.00    -0.550 OA
ATOM     14  O   UNL     1      28.226   8.980  21.951  1.00  0.00    -0.550 OA
ENDBRANCH  11  12
ENDBRANCH  10  11
ENDBRANCH   9  10
ENDBRANCH   8   9
ENDBRANCH   7   8
ENDBRANCH   6   7
ENDBRANCH   5   6
ENDBRANCH   4   5
ENDBRANCH   3   4
ENDBRANCH   2   3
ENDBRANCH   1   2
BRANCH   1  15
ATOM     15  C   UNL     1      27.641  15.675  18.881  1.00  0.00     0.000 C 
BRANCH  15  16
ATOM     16  C   UNL     1      28.237  16.017  17.503  1.00  0.00     0.000 C 
BRANCH  16  17
ATOM     17  C   UNL     1      29.309  17.123  17.585  1.00  0.00     0.000 C 
BRANCH  17  18
ATOM     18  C   UNL     1      30.608  16.694  18.295  1.00  0.00    -0.000 C 
BRANCH  18  19
ATOM     19  C   UNL     1      31.648  16.040  17.364  1.00  0.00    -0.000 C 
BRANCH  19  20
ATOM     20  C   UNL     1      31.699  16.707  15.981  1.00  0.00    -0.000 C 
BRANCH  20  21
ATOM     21  C   UNL     1      30.568  16.193  15.079  1.00  0.00    -0.000 C 
BRANCH  21  22
ATOM     22  C   UNL     1      30.295  17.125  13.888  1.00  0.00    -0.000 C 
BRANCH  22  23
ATOM     23  C   UNL     1      31.138  16.763  12.653  1.00  0.00    -0.000 C 
BRANCH  23  24
ATOM     24  C   UNL     1      31.156  15.251  12.366  1.00  0.00    -0.000 C 
BRANCH  24  25
ATOM     25  C   UNL     1      32.286  14.787  11.430  1.00  0.00    -0.003 C 
ATOM     26  C   UNL     1      33.030  15.947  10.771  1.00  0.00     0.004 C 
ENDBRANCH  24  25
ENDBRANCH  23  24
ENDBRANCH  22  23
ENDBRANCH  21  22
ENDBRANCH  20  21
ENDBRANCH  19  20
ENDBRANCH  18  19
ENDBRANCH  17  18
ENDBRANCH  16  17
ENDBRANCH  15  16
ENDBRANCH   1  15
TORSDOF 22
ENDMDL
MODEL 3
REMARK VINA RESULT:    -0.983      1.416      3.282
REMARK INTER + INTRA:          -4.505
REMARK INTER:                  -2.642
REMARK INTRA:                  -1.864
REMARK UNBOUND:                -2.259
REMARK SMILES CCCCCCCCCCCCCCCCCCCCCCCC(=O)[O-]
REMARK SMILES IDX 13 1 14 2 15 3 16 4 17 5 18 6 19 7 20 8 21 9 22 10 23 11
REMARK SMILES IDX 24 12 25 13 26 14 12 15 11 16 10 17 9 18 8 19 7 20 6 21 5 22
REMARK SMILES IDX 4 23 3 24 2 25 1 26
REMARK H PARENT
REMARK Flexibility Score: inf
ROOT
ATOM      1  C   UNL     1      29.334  15.789  19.876  1.00  0.00     0.000 C 
ENDROOT
BRANCH   1   2
ATOM      2  C   UNL     1      28.647  16.093  21.221  1.00  0.00     0.000 C 
BRANCH   2   3
ATOM      3  C   UNL     1      29.637  16.161  22.397  1.00  0.00     0.000 C 
BRANCH   3   4
ATOM      4  C   UNL     1      30.961  16.855  22.025  1.00  0.00     0.000 C 
BRANCH   4   5
ATOM      5  C   UNL     1      32.162  16.520  22.935  1.00  0.00     0.000 C 
BRANCH   5   6
ATOM      6  C   UNL     1      33.170  15.515  22.348  1.00  0.00     0.000 C 
BRANCH   6   7
ATOM      7  C   UNL     1      32.586  14.553  21.296  1.00  0.00     0.000 C 
BRANCH   7   8
ATOM      8  C   UNL     1      32.569  13.077  21.747  1.00  0.00     0.000 C 
BRANCH   8   9
ATOM      9  C   UNL     1      31.881  12.884  23.109  1.00  0.00     0.000 C 
BRANCH   9  10
ATOM     10  C   UNL     1      30.346  12.942  23.015  1.00  0.00     0.006 C 
BRANCH  10  11
ATOM     11  C   UNL     1      29.778  12.521  21.650  1.00  0.00     0.053 C 
BRANCH  11  12
ATOM     12  C   UNL     1      29.202  11.140  21.681  1.00  0.00     0.041 C 
ATOM     13  O   UNL     1      29.956  10.137  21.583  1.00  0.00    -0.550 OA
ATOM     14  O   UNL     1      27.828  10.961  21.777  1.00  0.00    -0.550 OA
ENDBRANCH  11  12
ENDBRANCH  10  11
ENDBRANCH   9  10
ENDBRANCH   8   9
ENDBRANCH   7   8
ENDBRANCH   6   7
ENDBRANCH   5   6
ENDBRANCH   4   5
ENDBRANCH   3   4
ENDBRANCH   2   3
ENDBRANCH   1   2
BRANCH   1  15
ATOM     15  C   UNL     1      28.381  15.471  18.711  1.00  0.00     0.000 C 
BRANCH  15  16
ATOM     16  C   UNL     1      29.082  15.483  17.340  1.00  0.00     0.000 C 
BRANCH  16  17
ATOM     17  C   UNL     1      29.713  16.851  17.016  1.00  0.00     0.000 C 
BRANCH  17  18
ATOM     18  C   UNL     1      31.124  17.053  17.603  1.00  0.00    -0.000 C 
BRANCH  18  19
ATOM     19  C   UNL     1      32.228  16.264  16.874  1.00  0.00    -0.000 C 
BRANCH  19  20
ATOM     20  C   UNL     1      32.108  16.361  15.346  1.00  0.00    -0.000 C 
BRANCH  20  21
ATOM     21  C   UNL     1      31.643  15.028  14.743  1.00  0.00    -0.000 C 
BRANCH  21  22
ATOM     22  C   UNL     1      30.896  15.212  13.413  1.00  0.00    -0.000 C 
BRANCH  22  23
ATOM     23  C   UNL     1      30.495  16.675  13.160  1.00  0.00    -0.000 C 
BRANCH  23  24
ATOM     24  C   UNL     1      29.306  17.125  14.028  1.00  0.00    -0.000 C 
BRANCH  24  25
ATOM     25  C   UNL     1      28.091  16.180  13.992  1.00  0.00    -0.003 C 
ATOM     26  C   UNL     1      26.896  16.711  14.782  1.00  0.00     0.004 C 
ENDBRANCH  24  25
ENDBRANCH  23  24
ENDBRANCH  22  23
ENDBRANCH  21  22
ENDBRANCH  20  21
ENDBRANCH  19  20
ENDBRANCH  18  19
ENDBRANCH  17  18
ENDBRANCH  16  17
ENDBRANCH  15  16
ENDBRANCH   1  15
TORSDOF 22
ENDMDL
MODEL 4
REMARK VINA RESULT:    -0.279      3.215      7.652
REMARK INTER + INTRA:          -2.896
REMARK INTER:                  -3.609
REMARK INTRA:                   0.712
REMARK UNBOUND:                -2.259
REMARK SMILES CCCCCCCCCCCCCCCCCCCCCCCC(=O)[O-]
REMARK SMILES IDX 13 1 14 2 15 3 16 4 17 5 18 6 19 7 20 8 21 9 22 10 23 11
REMARK SMILES IDX 24 12 25 13 26 14 12 15 11 16 10 17 9 18 8 19 7 20 6 21 5 22
REMARK SMILES IDX 4 23 3 24 2 25 1 26
REMARK H PARENT
REMARK Flexibility Score: inf
ROOT
ATOM      1  C   UNL     1      29.500  14.676  18.415  1.00  0.00     0.000 C 
ENDROOT
BRANCH   1   2
ATOM      2  C   UNL     1      29.758  13.337  17.700  1.00  0.00     0.000 C 
BRANCH   2   3
ATOM      3  C   UNL     1      30.497  13.505  16.361  1.00  0.00     0.000 C 
BRANCH   3   4
ATOM      4  C   UNL     1      31.540  14.638  16.392  1.00  0.00     0.000 C 
BRANCH   4   5
ATOM      5  C   UNL     1      31.278  15.750  17.430  1.00  0.00     0.000 C 
BRANCH   5   6
ATOM      6  C   UNL     1      30.750  17.077  16.852  1.00  0.00     0.000 C 
BRANCH   6   7
ATOM      7  C   UNL     1      29.232  17.109  16.594  1.00  0.00     0.000 C 
BRANCH   7   8
ATOM      8  C   UNL     1      28.857  17.125  15.097  1.00  0.00     0.000 C 
BRANCH   8   9
ATOM      9  C   UNL     1      29.905  16.417  14.220  1.00  0.00     0.000 C 
BRANCH   9  10
ATOM     10  C   UNL     1      30.050  17.058  12.828  1.00  0.00     0.006 C 
BRANCH  10  11
ATOM     11  C   UNL     1      31.483  17.045  12.271  1.00  0.00     0.053 C 
BRANCH  11  12
ATOM     12  C   UNL     1      31.972  15.654  12.009  1.00  0.00     0.041 C 
ATOM     13  O   UNL     1      32.723  15.422  11.026  1.00  0.00    -0.550 OA
ATOM     14  O   UNL     1      31.564  14.608  12.826  1.00  0.00    -0.550 OA
ENDBRANCH  11  12
ENDBRANCH  10  11
ENDBRANCH   9  10
ENDBRANCH   8   9
ENDBRANCH   7   8
ENDBRANCH   6   7
ENDBRANCH   5   6
ENDBRANCH   4   5
ENDBRANCH   3   4
ENDBRANCH   2   3
ENDBRANCH   1   2
BRANCH   1  15
ATOM     15  C   UNL     1      28.040  14.924  18.833  1.00  0.00     0.000 C 
BRANCH  15  16
ATOM     16  C   UNL     1      27.863  15.036  20.358  1.00  0.00     0.000 C 
BRANCH  16  17
ATOM     17  C   UNL     1      29.150  14.678  21.128  1.00  0.00     0.000 C 
BRANCH  17  18
ATOM     18  C   UNL     1      29.440  15.590  22.336  1.00  0.00    -0.000 C 
BRANCH  18  19
ATOM     19  C   UNL     1      30.811  16.291  22.282  1.00  0.00    -0.000 C 
BRANCH  19  20
ATOM     20  C   UNL     1      31.525  16.080  20.939  1.00  0.00    -0.000 C 
BRANCH  20  21
ATOM     21  C   UNL     1      32.835  15.302  21.126  1.00  0.00    -0.000 C 
BRANCH  21  22
ATOM     22  C   UNL     1      32.695  14.143  22.124  1.00  0.00    -0.000 C 
BRANCH  22  23
ATOM     23  C   UNL     1      31.864  12.978  21.560  1.00  0.00    -0.000 C 
BRANCH  23  24
ATOM     24  C   UNL     1      31.069  12.233  22.648  1.00  0.00    -0.000 C 
BRANCH  24  25
ATOM     25  C   UNL     1      30.227  11.051  22.133  1.00  0.00    -0.003 C 
ATOM     26  C   UNL     1      28.741  11.382  22.015  1.00  0.00     0.004 C 
ENDBRANCH  24  25
ENDBRANCH  23  24
ENDBRANCH  22  23
ENDBRANCH  21  22
ENDBRANCH  20  21
ENDBRANCH  19  20
ENDBRANCH  18  19
ENDBRANCH  17  18
ENDBRANCH  16  17
ENDBRANCH  15  16
ENDBRANCH   1  15
TORSDOF 22
ENDMDL
MODEL 5
REMARK VINA RESULT:    -0.080      1.987      7.503
REMARK INTER + INTRA:          -2.442
REMARK INTER:                  -2.181
REMARK INTRA:                  -0.262
REMARK UNBOUND:                -2.259
REMARK SMILES CCCCCCCCCCCCCCCCCCCCCCCC(=O)[O-]
REMARK SMILES IDX 13 1 14 2 15 3 16 4 17 5 18 6 19 7 20 8 21 9 22 10 23 11
REMARK SMILES IDX 24 12 25 13 26 14 12 15 11 16 10 17 9 18 8 19 7 20 6 21 5 22
REMARK SMILES IDX 4 23 3 24 2 25 1 26
REMARK H PARENT
REMARK Flexibility Score: inf
ROOT
ATOM      1  C   UNL     1      27.991  15.116  18.573  1.00  0.00     0.000 C 
ENDROOT
BRANCH   1   2
ATOM      2  C   UNL     1      27.009  15.929  17.709  1.00  0.00     0.000 C 
BRANCH   2   3
ATOM      3  C   UNL     1      27.658  16.491  16.432  1.00  0.00     0.000 C 
BRANCH   3   4
ATOM      4  C   UNL     1      29.037  17.125  16.693  1.00  0.00     0.000 C 
BRANCH   4   5
ATOM      5  C   UNL     1      30.003  17.123  15.489  1.00  0.00     0.000 C 
BRANCH   5   6
ATOM      6  C   UNL     1      29.339  16.926  14.114  1.00  0.00     0.000 C 
BRANCH   6   7
ATOM      7  C   UNL     1      30.300  17.020  12.913  1.00  0.00     0.000 C 
BRANCH   7   8
ATOM      8  C   UNL     1      30.949  15.673  12.530  1.00  0.00     0.000 C 
BRANCH   8   9
ATOM      9  C   UNL     1      31.993  15.208  13.559  1.00  0.00     0.000 C 
BRANCH   9  10
ATOM     10  C   UNL     1      31.459  14.113  14.500  1.00  0.00     0.006 C 
BRANCH  10  11
ATOM     11  C   UNL     1      31.299  14.557  15.963  1.00  0.00     0.053 C 
BRANCH  11  12
ATOM     12  C   UNL     1      30.685  13.487  16.811  1.00  0.00     0.041 C 
ATOM     13  O   UNL     1      30.078  12.523  16.274  1.00  0.00    -0.550 OA
ATOM     14  O   UNL     1      30.745  13.576  18.196  1.00  0.00    -0.550 OA
ENDBRANCH  11  12
ENDBRANCH  10  11
ENDBRANCH   9  10
ENDBRANCH   8   9
ENDBRANCH   7   8
ENDBRANCH   6   7
ENDBRANCH   5   6
ENDBRANCH   4   5
ENDBRANCH   3   4
ENDBRANCH   2   3
ENDBRANCH   1   2
BRANCH   1  15
ATOM     15  C   UNL     1      27.386  14.494  19.844  1.00  0.00     0.000 C 
BRANCH  15  16
ATOM     16  C   UNL     1      28.414  13.707  20.676  1.00  0.00     0.000 C 
BRANCH  16  17
ATOM     17  C   UNL     1      28.422  12.204  20.332  1.00  0.00     0.000 C 
BRANCH  17  18
ATOM     18  C   UNL     1      28.090  11.281  21.521  1.00  0.00    -0.000 C 
BRANCH  18  19
ATOM     19  C   UNL     1      29.306  10.923  22.398  1.00  0.00    -0.000 C 
BRANCH  19  20
ATOM     20  C   UNL     1      30.638  11.089  21.651  1.00  0.00    -0.000 C 
BRANCH  20  21
ATOM     21  C   UNL     1      31.137  12.539  21.730  1.00  0.00    -0.000 C 
BRANCH  21  22
ATOM     22  C   UNL     1      32.330  12.700  22.685  1.00  0.00    -0.000 C 
BRANCH  22  23
ATOM     23  C   UNL     1      32.554  14.162  23.106  1.00  0.00    -0.000 C 
BRANCH  23  24
ATOM     24  C   UNL     1      31.701  15.153  22.292  1.00  0.00    -0.000 C 
BRANCH  24  25
ATOM     25  C   UNL     1      32.367  16.519  22.041  1.00  0.00    -0.003 C 
ATOM     26  C   UNL     1      33.027  16.619  20.667  1.00  0.00     0.004 C 
ENDBRANCH  24  25
ENDBRANCH  23  24
ENDBRANCH  22  23
ENDBRANCH  21  22
ENDBRANCH  20  21
ENDBRANCH  19  20
ENDBRANCH  18  19
ENDBRANCH  17  18
ENDBRANCH  16  17
ENDBRANCH  15  16
ENDBRANCH   1  15
TORSDOF 22
ENDMDL
MODEL 6
REMARK VINA RESULT:     0.427      1.445      3.311
REMARK INTER + INTRA:          -1.283
REMARK INTER:                  -0.760
REMARK INTRA:                  -0.522
REMARK UNBOUND:                -2.259
REMARK SMILES CCCCCCCCCCCCCCCCCCCCCCCC(=O)[O-]
REMARK SMILES IDX 13 1 14 2 15 3 16 4 17 5 18 6 19 7 20 8 21 9 22 10 23 11
REMARK SMILES IDX 24 12 25 13 26 14 12 15 11 16 10 17 9 18 8 19 7 20 6 21 5 22
REMARK SMILES IDX 4 23 3 24 2 25 1 26
REMARK H PARENT
REMARK Flexibility Score: inf
ROOT
ATOM      1  C   UNL     1      29.856  15.078  18.783  1.00  0.00     0.000 C 
ENDROOT
BRANCH   1   2
ATOM      2  C   UNL     1      28.974  16.324  18.983  1.00  0.00     0.000 C 
BRANCH   2   3
ATOM      3  C   UNL     1      28.603  16.565  20.456  1.00  0.00     0.000 C 
BRANCH   3   4
ATOM      4  C   UNL     1      29.788  16.344  21.415  1.00  0.00     0.000 C 
BRANCH   4   5
ATOM      5  C   UNL     1      29.485  15.472  22.651  1.00  0.00     0.000 C 
BRANCH   5   6
ATOM      6  C   UNL     1      30.646  14.577  23.124  1.00  0.00     0.000 C 
BRANCH   6   7
ATOM      7  C   UNL     1      31.991  14.838  22.420  1.00  0.00     0.000 C 
BRANCH   7   8
ATOM      8  C   UNL     1      32.341  13.793  21.340  1.00  0.00     0.000 C 
BRANCH   8   9
ATOM      9  C   UNL     1      31.783  12.397  21.670  1.00  0.00     0.000 C 
BRANCH   9  10
ATOM     10  C   UNL     1      30.502  12.065  20.884  1.00  0.00     0.006 C 
BRANCH  10  11
ATOM     11  C   UNL     1      29.438  11.309  21.697  1.00  0.00     0.053 C 
BRANCH  11  12
ATOM     12  C   UNL     1      28.047  11.707  21.311  1.00  0.00     0.041 C 
ATOM     13  O   UNL     1      27.301  12.288  22.142  1.00  0.00    -0.550 OA
ATOM     14  O   UNL     1      27.561  11.400  20.047  1.00  0.00    -0.550 OA
ENDBRANCH  11  12
ENDBRANCH  10  11
ENDBRANCH   9  10
ENDBRANCH   8   9
ENDBRANCH   7   8
ENDBRANCH   6   7
ENDBRANCH   5   6
ENDBRANCH   4   5
ENDBRANCH   3   4
ENDBRANCH   2   3
ENDBRANCH   1   2
BRANCH   1  15
ATOM     15  C   UNL     1      29.210  13.941  17.973  1.00  0.00     0.000 C 
BRANCH  15  16
ATOM     16  C   UNL     1      30.241  12.965  17.377  1.00  0.00     0.000 C 
BRANCH  16  17
ATOM     17  C   UNL     1      30.497  13.222  15.879  1.00  0.00     0.000 C 
BRANCH  17  18
ATOM     18  C   UNL     1      31.863  13.865  15.572  1.00  0.00    -0.000 C 
BRANCH  18  19
ATOM     19  C   UNL     1      31.824  15.401  15.454  1.00  0.00    -0.000 C 
BRANCH  19  20
ATOM     20  C   UNL     1      30.788  16.035  16.393  1.00  0.00    -0.000 C 
BRANCH  20  21
ATOM     21  C   UNL     1      29.982  17.125  15.672  1.00  0.00    -0.000 C 
BRANCH  21  22
ATOM     22  C   UNL     1      29.032  16.549  14.610  1.00  0.00    -0.000 C 
BRANCH  22  23
ATOM     23  C   UNL     1      29.512  16.829  13.176  1.00  0.00    -0.000 C 
BRANCH  23  24
ATOM     24  C   UNL     1      31.002  16.497  12.971  1.00  0.00    -0.000 C 
BRANCH  24  25
ATOM     25  C   UNL     1      31.284  15.465  11.864  1.00  0.00    -0.003 C 
ATOM     26  C   UNL     1      32.631  15.677  11.177  1.00  0.00     0.004 C 
ENDBRANCH  24  25
ENDBRANCH  23  24
ENDBRANCH  22  23
ENDBRANCH  21  22
ENDBRANCH  20  21
ENDBRANCH  19  20
ENDBRANCH  18  19
ENDBRANCH  17  18
ENDBRANCH  16  17
ENDBRANCH  15  16
ENDBRANCH   1  15
TORSDOF 22
ENDMDL
MODEL 7
REMARK VINA RESULT:     0.675      1.292      2.128
REMARK INTER + INTRA:          -0.715
REMARK INTER:                   1.323
REMARK INTRA:                  -2.038
REMARK UNBOUND:                -2.259
REMARK SMILES CCCCCCCCCCCCCCCCCCCCCCCC(=O)[O-]
REMARK SMILES IDX 13 1 14 2 15 3 16 4 17 5 18 6 19 7 20 8 21 9 22 10 23 11
REMARK SMILES IDX 24 12 25 13 26 14 12 15 11 16 10 17 9 18 8 19 7 20 6 21 5 22
REMARK SMILES IDX 4 23 3 24 2 25 1 26
REMARK H PARENT
REMARK Flexibility Score: inf
ROOT
ATOM      1  C   UNL     1      31.551  13.042  20.239  1.00  0.00     0.000 C 
ENDROOT
BRANCH   1   2
ATOM      2  C   UNL     1      32.793  13.721  20.844  1.00  0.00     0.000 C 
BRANCH   2   3
ATOM      3  C   UNL     1      32.755  13.778  22.382  1.00  0.00     0.000 C 
BRANCH   3   4
ATOM      4  C   UNL     1      32.590  15.211  22.923  1.00  0.00     0.000 C 
BRANCH   4   5
ATOM      5  C   UNL     1      31.180  15.818  22.767  1.00  0.00     0.000 C 
BRANCH   5   6
ATOM      6  C   UNL     1      30.933  16.575  21.449  1.00  0.00     0.000 C 
BRANCH   6   7
ATOM      7  C   UNL     1      29.468  16.575  20.969  1.00  0.00     0.000 C 
BRANCH   7   8
ATOM      8  C   UNL     1      28.499  15.861  21.935  1.00  0.00     0.000 C 
BRANCH   8   9
ATOM      9  C   UNL     1      27.456  15.005  21.196  1.00  0.00     0.000 C 
BRANCH   9  10
ATOM     10  C   UNL     1      27.032  13.759  21.994  1.00  0.00     0.006 C 
BRANCH  10  11
ATOM     11  C   UNL     1      28.204  12.925  22.536  1.00  0.00     0.053 C 
BRANCH  11  12
ATOM     12  C   UNL     1      28.189  11.524  22.009  1.00  0.00     0.041 C 
ATOM     13  O   UNL     1      27.980  11.309  20.786  1.00  0.00    -0.550 OA
ATOM     14  O   UNL     1      28.362  10.453  22.876  1.00  0.00    -0.550 OA
ENDBRANCH  11  12
ENDBRANCH  10  11
ENDBRANCH   9  10
ENDBRANCH   8   9
ENDBRANCH   7   8
ENDBRANCH   6   7
ENDBRANCH   5   6
ENDBRANCH   4   5
ENDBRANCH   3   4
ENDBRANCH   2   3
ENDBRANCH   1   2
BRANCH   1  15
ATOM     15  C   UNL     1      31.820  12.162  19.006  1.00  0.00     0.000 C 
BRANCH  15  16
ATOM     16  C   UNL     1      30.541  11.819  18.221  1.00  0.00     0.000 C 
BRANCH  16  17
ATOM     17  C   UNL     1      30.641  12.212  16.734  1.00  0.00     0.000 C 
BRANCH  17  18
ATOM     18  C   UNL     1      30.403  13.710  16.458  1.00  0.00    -0.000 C 
BRANCH  18  19
ATOM     19  C   UNL     1      30.314  14.578  17.729  1.00  0.00    -0.000 C 
BRANCH  19  20
ATOM     20  C   UNL     1      29.740  15.974  17.446  1.00  0.00    -0.000 C 
BRANCH  20  21
ATOM     21  C   UNL     1      28.205  15.945  17.421  1.00  0.00    -0.000 C 
BRANCH  21  22
ATOM     22  C   UNL     1      27.614  16.942  16.411  1.00  0.00    -0.000 C 
BRANCH  22  23
ATOM     23  C   UNL     1      27.674  16.420  14.965  1.00  0.00    -0.000 C 
BRANCH  23  24
ATOM     24  C   UNL     1      28.753  17.125  14.123  1.00  0.00    -0.000 C 
BRANCH  24  25
ATOM     25  C   UNL     1      30.201  16.768  14.506  1.00  0.00    -0.003 C 
ATOM     26  C   UNL     1      30.952  16.040  13.393  1.00  0.00     0.004 C 
ENDBRANCH  24  25
ENDBRANCH  23  24
ENDBRANCH  22  23
ENDBRANCH  21  22
ENDBRANCH  20  21
ENDBRANCH  19  20
ENDBRANCH  18  19
ENDBRANCH  17  18
ENDBRANCH  16  17
ENDBRANCH  15  16
ENDBRANCH   1  15
TORSDOF 22
ENDMDL
