MODEL 1
REMARK VINA RESULT:     0.084      0.000      0.000
REMARK INTER + INTRA:           1.178
REMARK INTER:                   0.143
REMARK INTRA:                   1.035
REMARK UNBOUND:                 1.035
REMARK SMILES CCCCCCCCCCCCCC(=O)[O-]
REMARK SMILES IDX 8 1 9 2 10 3 11 4 12 5 13 6 14 7 15 8 16 9 7 10 6 11 5 12
REMARK SMILES IDX 4 13 3 14 2 15 1 16
REMARK H PARENT
REMARK Flexibility Score: inf
ROOT
ATOM      1  C   UNL     1      33.750  23.857  27.638  1.00  0.00     0.000 C 
ENDROOT
BRANCH   1   2
ATOM      2  C   UNL     1      32.286  23.672  28.058  1.00  0.00     0.000 C 
BRANCH   2   3
ATOM      3  C   UNL     1      32.188  22.949  29.408  1.00  0.00     0.000 C 
BRANCH   3   4
ATOM      4  C   UNL     1      30.757  23.015  29.963  1.00  0.00     0.000 C 
BRANCH   4   5
ATOM      5  C   UNL     1      29.830  23.909  29.119  1.00  0.00     0.006 C 
BRANCH   5   6
ATOM      6  C   UNL     1      28.810  23.136  28.268  1.00  0.00     0.053 C 
BRANCH   6   7
ATOM      7  C   UNL     1      29.385  21.867  27.716  1.00  0.00     0.041 C 
ATOM      8  O   UNL     1      28.714  20.803  27.746  1.00  0.00    -0.550 OA
ATOM      9  O   UNL     1      30.674  21.855  27.199  1.00  0.00    -0.550 OA
ENDBRANCH   6   7
ENDBRANCH   5   6
ENDBRANCH   4   5
ENDBRANCH   3   4
ENDBRANCH   2   3
ENDBRANCH   1   2
BRANCH   1  10
ATOM     10  C   UNL     1      34.682  23.792  28.853  1.00  0.00     0.000 C 
BRANCH  10  11
ATOM     11  C   UNL     1      35.989  23.066  28.506  1.00  0.00    -0.000 C 
BRANCH  11  12
ATOM     12  C   UNL     1      35.952  22.391  27.124  1.00  0.00    -0.000 C 
BRANCH  12  13
ATOM     13  C   UNL     1      37.124  21.417  26.880  1.00  0.00    -0.000 C 
BRANCH  13  14
ATOM     14  C   UNL     1      36.982  20.123  27.699  1.00  0.00    -0.000 C 
BRANCH  14  15
ATOM     15  C   UNL     1      36.396  18.966  26.875  1.00  0.00    -0.003 C 
ATOM     16  C   UNL     1      37.048  17.623  27.201  1.00  0.00     0.004 C 
ENDBRANCH  14  15
ENDBRANCH  13  14
ENDBRANCH  12  13
ENDBRANCH  11  12
ENDBRANCH  10  11
ENDBRANCH   1  10
TORSDOF 12
ENDMDL
MODEL 2
REMARK VINA RESULT:     1.325      2.378      6.753
REMARK INTER + INTRA:           3.290
REMARK INTER:                   0.409
REMARK INTRA:                   2.881
REMARK UNBOUND:                 1.035
REMARK SMILES CCCCCCCCCCCCCC(=O)[O-]
REMARK SMILES IDX 8 1 9 2 10 3 11 4 12 5 13 6 14 7 15 8 16 9 7 10 6 11 5 12
REMARK SMILES IDX 4 13 3 14 2 15 1 16
REMARK H PARENT
REMARK Flexibility Score: inf
ROOT
ATOM      1  C   UNL     1      31.901  22.893  28.481  1.00  0.00     0.000 C 
ENDROOT
BRANCH   1   2
ATOM      2  C   UNL     1      33.388  22.750  28.135  1.00  0.00     0.000 C 
BRANCH   2   3
ATOM      3  C   UNL     1      34.039  24.123  27.924  1.00  0.00     0.000 C 
BRANCH   3   4
ATOM      4  C   UNL     1      35.245  24.021  26.979  1.00  0.00     0.000 C 
BRANCH   4   5
ATOM      5  C   UNL     1      36.491  23.430  27.664  1.00  0.00     0.006 C 
BRANCH   5   6
ATOM      6  C   UNL     1      37.125  22.248  26.913  1.00  0.00     0.053 C 
BRANCH   6   7
ATOM      7  C   UNL     1      36.329  20.989  27.073  1.00  0.00     0.041 C 
ATOM      8  O   UNL     1      36.906  19.908  27.357  1.00  0.00    -0.550 OA
ATOM      9  O   UNL     1      34.954  21.006  26.875  1.00  0.00    -0.550 OA
ENDBRANCH   6   7
ENDBRANCH   5   6
ENDBRANCH   4   5
ENDBRANCH   3   4
ENDBRANCH   2   3
ENDBRANCH   1   2
BRANCH   1  10
ATOM     10  C   UNL     1      31.098  21.697  27.956  1.00  0.00     0.000 C 
BRANCH  10  11
ATOM     11  C   UNL     1      29.599  22.021  27.900  1.00  0.00    -0.000 C 
BRANCH  11  12
ATOM     12  C   UNL     1      29.288  23.484  28.259  1.00  0.00    -0.000 C 
BRANCH  12  13
ATOM     13  C   UNL     1      30.322  24.120  29.211  1.00  0.00    -0.000 C 
BRANCH  13  14
ATOM     14  C   UNL     1      29.923  23.962  30.689  1.00  0.00    -0.000 C 
BRANCH  14  15
ATOM     15  C   UNL     1      31.141  23.912  31.626  1.00  0.00    -0.003 C 
ATOM     16  C   UNL     1      30.760  24.088  33.095  1.00  0.00     0.004 C 
ENDBRANCH  14  15
ENDBRANCH  13  14
ENDBRANCH  12  13
ENDBRANCH  11  12
ENDBRANCH  10  11
ENDBRANCH   1  10
TORSDOF 12
ENDMDL
MODEL 3
REMARK VINA RESULT:     1.888      3.014      4.563
REMARK INTER + INTRA:           4.247
REMARK INTER:                   4.897
REMARK INTRA:                  -0.650
REMARK UNBOUND:                 1.035
REMARK SMILES CCCCCCCCCCCCCC(=O)[O-]
REMARK SMILES IDX 8 1 9 2 10 3 11 4 12 5 13 6 14 7 15 8 16 9 7 10 6 11 5 12
REMARK SMILES IDX 4 13 3 14 2 15 1 16
REMARK H PARENT
REMARK Flexibility Score: inf
ROOT
ATOM      1  C   UNL     1      32.052  23.658  33.612  1.00  0.00     0.000 C 
ENDROOT
BRANCH   1   2
ATOM      2  C   UNL     1      31.927  24.092  32.147  1.00  0.00     0.000 C 
BRANCH   2   3
ATOM      3  C   UNL     1      30.460  24.098  31.698  1.00  0.00     0.000 C 
BRANCH   3   4
ATOM      4  C   UNL     1      30.340  23.743  30.208  1.00  0.00     0.000 C 
BRANCH   4   5
ATOM      5  C   UNL     1      31.656  23.950  29.438  1.00  0.00     0.006 C 
BRANCH   5   6
ATOM      6  C   UNL     1      31.493  24.002  27.910  1.00  0.00     0.053 C 
BRANCH   6   7
ATOM      7  C   UNL     1      31.551  22.639  27.292  1.00  0.00     0.041 C 
ATOM      8  O   UNL     1      30.490  22.058  26.942  1.00  0.00    -0.550 OA
ATOM      9  O   UNL     1      32.772  21.998  27.133  1.00  0.00    -0.550 OA
ENDBRANCH   6   7
ENDBRANCH   5   6
ENDBRANCH   4   5
ENDBRANCH   3   4
ENDBRANCH   2   3
ENDBRANCH   1   2
BRANCH   1  10
ATOM     10  C   UNL     1      33.387  24.120  34.210  1.00  0.00     0.000 C 
BRANCH  10  11
ATOM     11  C   UNL     1      34.564  23.370  33.574  1.00  0.00    -0.000 C 
BRANCH  11  12
ATOM     12  C   UNL     1      35.898  24.125  33.706  1.00  0.00    -0.000 C 
BRANCH  12  13
ATOM     13  C   UNL     1      37.016  23.568  32.798  1.00  0.00    -0.000 C 
BRANCH  13  14
ATOM     14  C   UNL     1      36.930  24.124  31.366  1.00  0.00    -0.000 C 
BRANCH  14  15
ATOM     15  C   UNL     1      36.944  23.016  30.302  1.00  0.00    -0.003 C 
ATOM     16  C   UNL     1      36.911  23.569  28.877  1.00  0.00     0.004 C 
ENDBRANCH  14  15
ENDBRANCH  13  14
ENDBRANCH  12  13
ENDBRANCH  11  12
ENDBRANCH  10  11
ENDBRANCH   1  10
TORSDOF 12
ENDMDL
MODEL 4
REMARK VINA RESULT:     2.407      3.008      3.865
REMARK INTER + INTRA:           5.131
REMARK INTER:                   4.888
REMARK INTRA:                   0.243
REMARK UNBOUND:                 1.035
REMARK SMILES CCCCCCCCCCCCCC(=O)[O-]
REMARK SMILES IDX 8 1 9 2 10 3 11 4 12 5 13 6 14 7 15 8 16 9 7 10 6 11 5 12
REMARK SMILES IDX 4 13 3 14 2 15 1 16
REMARK H PARENT
REMARK Flexibility Score: inf
ROOT
ATOM      1  C   UNL     1      31.780  21.997  28.011  1.00  0.00     0.000 C 
ENDROOT
BRANCH   1   2
ATOM      2  C   UNL     1      30.669  22.514  27.088  1.00  0.00     0.000 C 
BRANCH   2   3
ATOM      3  C   UNL     1      29.879  23.646  27.757  1.00  0.00     0.000 C 
BRANCH   3   4
ATOM      4  C   UNL     1      28.773  23.085  28.661  1.00  0.00     0.000 C 
BRANCH   4   5
ATOM      5  C   UNL     1      29.080  23.261  30.160  1.00  0.00     0.006 C 
BRANCH   5   6
ATOM      6  C   UNL     1      30.317  24.125  30.454  1.00  0.00     0.053 C 
BRANCH   6   7
ATOM      7  C   UNL     1      30.763  24.000  31.878  1.00  0.00     0.041 C 
ATOM      8  O   UNL     1      31.988  24.033  32.163  1.00  0.00    -0.550 OA
ATOM      9  O   UNL     1      29.826  23.815  32.887  1.00  0.00    -0.550 OA
ENDBRANCH   6   7
ENDBRANCH   5   6
ENDBRANCH   4   5
ENDBRANCH   3   4
ENDBRANCH   2   3
ENDBRANCH   1   2
BRANCH   1  10
ATOM     10  C   UNL     1      32.305  23.116  28.918  1.00  0.00     0.000 C 
BRANCH  10  11
ATOM     11  C   UNL     1      33.343  23.976  28.188  1.00  0.00    -0.000 C 
BRANCH  11  12
ATOM     12  C   UNL     1      34.413  23.141  27.464  1.00  0.00    -0.000 C 
BRANCH  12  13
ATOM     13  C   UNL     1      35.564  23.984  26.877  1.00  0.00    -0.000 C 
BRANCH  13  14
ATOM     14  C   UNL     1      36.759  24.085  27.840  1.00  0.00    -0.000 C 
BRANCH  14  15
ATOM     15  C   UNL     1      36.885  22.856  28.754  1.00  0.00    -0.003 C 
ATOM     16  C   UNL     1      36.576  23.177  30.216  1.00  0.00     0.004 C 
ENDBRANCH  14  15
ENDBRANCH  13  14
ENDBRANCH  12  13
ENDBRANCH  11  12
ENDBRANCH  10  11
ENDBRANCH   1  10
TORSDOF 12
ENDMDL
