MODEL 1
REMARK VINA RESULT:    -3.479      0.000      0.000
REMARK INTER + INTRA:          -4.161
REMARK INTER:                  -4.293
REMARK INTRA:                   0.132
REMARK UNBOUND:                 0.132
REMARK SMILES Oc1cc(O)c2cc(O)c(-c3cc(O)c(O)c(O)c3)[o+]c2c1
REMARK SMILES IDX 10 1 20 2 21 3 22 4 2 5 3 6 4 7 6 8 7 9 8 10 11 11 12 12
REMARK SMILES IDX 13 13 19 14 15 15 17 16 14 17 16 19 18 21 9 23 1 25 5 27
REMARK H PARENT 14 18 16 20 18 22 9 24 1 26 5 28
REMARK Flexibility Score: inf
ROOT
ATOM      1  C   UNL     1       6.743   5.477  13.253  1.00  0.00     0.402 A 
ATOM      2  O   UNL     1       6.480   5.762  14.525  1.00  0.00    -0.202 OA
ATOM      3  C   UNL     1       6.474   7.000  15.010  1.00  0.00     0.368 A 
ATOM      4  C   UNL     1       6.183   7.201  16.361  1.00  0.00     0.162 A 
ATOM      5  C   UNL     1       6.167   8.489  16.895  1.00  0.00     0.128 A 
ATOM      6  C   UNL     1       6.442   9.588  16.074  1.00  0.00     0.093 A 
ATOM      7  C   UNL     1       6.736   9.414  14.716  1.00  0.00     0.136 A 
ATOM      8  C   UNL     1       6.757   8.104  14.169  1.00  0.00     0.125 A 
ATOM      9  C   UNL     1       7.054   7.833  12.823  1.00  0.00     0.078 A 
ATOM     10  C   UNL     1       7.060   6.515  12.358  1.00  0.00     0.223 A 
ENDROOT
BRANCH   1  11
ATOM     11  C   UNL     1       6.709   4.056  12.832  1.00  0.00     0.091 A 
ATOM     12  C   UNL     1       7.025   3.055  13.762  1.00  0.00     0.068 A 
ATOM     13  C   UNL     1       6.983   1.705  13.399  1.00  0.00     0.162 A 
ATOM     14  C   UNL     1       6.312   3.687  11.536  1.00  0.00     0.068 A 
ATOM     15  C   UNL     1       6.605   1.339  12.095  1.00  0.00     0.200 A 
ATOM     16  C   UNL     1       6.265   2.336  11.164  1.00  0.00     0.162 A 
BRANCH  13  17
ATOM     17  O   UNL     1       7.319   0.739  14.347  1.00  0.00    -0.504 OA
ATOM     18  H   UNL     1       6.756   0.574  15.173  1.00  0.00     0.293 HD
ENDBRANCH  13  17
BRANCH  15  19
ATOM     19  O   UNL     1       6.569  -0.009  11.740  1.00  0.00    -0.502 OA
ATOM     20  H   UNL     1       7.391  -0.599  11.777  1.00  0.00     0.293 HD
ENDBRANCH  15  19
BRANCH  16  21
ATOM     21  O   UNL     1       5.875   1.981   9.873  1.00  0.00    -0.504 OA
ATOM     22  H   UNL     1       4.908   2.035   9.577  1.00  0.00     0.293 HD
ENDBRANCH  16  21
ENDBRANCH   1  11
BRANCH  10  23
ATOM     23  O   UNL     1       7.404   6.242  11.034  1.00  0.00    -0.500 OA
ATOM     24  H   UNL     1       7.985   6.871  10.494  1.00  0.00     0.294 HD
ENDBRANCH  10  23
BRANCH   5  25
ATOM     25  O   UNL     1       5.875   8.668  18.246  1.00  0.00    -0.507 OA
ATOM     26  H   UNL     1       5.889   9.586  18.674  1.00  0.00     0.293 HD
ENDBRANCH   5  25
BRANCH   7  27
ATOM     27  O   UNL     1       6.997  10.561  13.961  1.00  0.00    -0.507 OA
ATOM     28  H   UNL     1       6.396  10.911  13.230  1.00  0.00     0.293 HD
ENDBRANCH   7  27
TORSDOF 7
ENDMDL
MODEL 2
REMARK VINA RESULT:    -1.954      1.282      2.358
REMARK INTER + INTRA:          -2.279
REMARK INTER:                  -2.580
REMARK INTRA:                   0.300
REMARK UNBOUND:                 0.132
REMARK SMILES Oc1cc(O)c2cc(O)c(-c3cc(O)c(O)c(O)c3)[o+]c2c1
REMARK SMILES IDX 10 1 20 2 21 3 22 4 2 5 3 6 4 7 6 8 7 9 8 10 11 11 12 12
REMARK SMILES IDX 13 13 19 14 15 15 17 16 14 17 16 19 18 21 9 23 1 25 5 27
REMARK H PARENT 14 18 16 20 18 22 9 24 1 26 5 28
REMARK Flexibility Score: inf
ROOT
ATOM      1  C   UNL     1       6.669   3.961  13.250  1.00  0.00     0.402 A 
ATOM      2  O   UNL     1       6.342   4.434  14.449  1.00  0.00    -0.202 OA
ATOM      3  C   UNL     1       6.491   5.708  14.797  1.00  0.00     0.368 A 
ATOM      4  C   UNL     1       6.116   6.112  16.080  1.00  0.00     0.162 A 
ATOM      5  C   UNL     1       6.259   7.443  16.471  1.00  0.00     0.128 A 
ATOM      6  C   UNL     1       6.781   8.381  15.573  1.00  0.00     0.093 A 
ATOM      7  C   UNL     1       7.165   8.002  14.281  1.00  0.00     0.136 A 
ATOM      8  C   UNL     1       7.023   6.648  13.880  1.00  0.00     0.125 A 
ATOM      9  C   UNL     1       7.393   6.175  12.611  1.00  0.00     0.078 A 
ATOM     10  C   UNL     1       7.228   4.824  12.290  1.00  0.00     0.223 A 
ENDROOT
BRANCH   1  11
ATOM     11  C   UNL     1       6.445   2.521  12.980  1.00  0.00     0.091 A 
ATOM     12  C   UNL     1       6.292   2.085  11.655  1.00  0.00     0.068 A 
ATOM     13  C   UNL     1       6.099   0.730  11.368  1.00  0.00     0.162 A 
ATOM     14  C   UNL     1       6.439   1.575  14.018  1.00  0.00     0.068 A 
ATOM     15  C   UNL     1       6.072  -0.212  12.411  1.00  0.00     0.200 A 
ATOM     16  C   UNL     1       6.248   0.214  13.739  1.00  0.00     0.162 A 
BRANCH  13  17
ATOM     17  O   UNL     1       5.935   0.337  10.040  1.00  0.00    -0.504 OA
ATOM     18  H   UNL     1       6.213   0.925   9.265  1.00  0.00     0.293 HD
ENDBRANCH  13  17
BRANCH  15  19
ATOM     19  O   UNL     1       5.876  -1.562  12.116  1.00  0.00    -0.502 OA
ATOM     20  H   UNL     1       5.680  -2.248  12.836  1.00  0.00     0.293 HD
ENDBRANCH  15  19
BRANCH  16  21
ATOM     21  O   UNL     1       6.238  -0.716  14.778  1.00  0.00    -0.504 OA
ATOM     22  H   UNL     1       7.094  -1.122  15.136  1.00  0.00     0.293 HD
ENDBRANCH  16  21
ENDBRANCH   1  11
BRANCH  10  23
ATOM     23  O   UNL     1       7.642   4.345  11.047  1.00  0.00    -0.500 OA
ATOM     24  H   UNL     1       8.487   3.796  10.942  1.00  0.00     0.294 HD
ENDBRANCH  10  23
BRANCH   5  25
ATOM     25  O   UNL     1       5.879   7.826  17.756  1.00  0.00    -0.507 OA
ATOM     26  H   UNL     1       5.258   8.611  17.914  1.00  0.00     0.293 HD
ENDBRANCH   5  25
BRANCH   7  27
ATOM     27  O   UNL     1       7.674   8.998  13.442  1.00  0.00    -0.507 OA
ATOM     28  H   UNL     1       8.473   9.573  13.661  1.00  0.00     0.293 HD
ENDBRANCH   7  27
TORSDOF 7
ENDMDL
MODEL 3
REMARK VINA RESULT:    -1.951      2.203      7.654
REMARK INTER + INTRA:          -2.276
REMARK INTER:                  -2.201
REMARK INTRA:                  -0.075
REMARK UNBOUND:                 0.132
REMARK SMILES Oc1cc(O)c2cc(O)c(-c3cc(O)c(O)c(O)c3)[o+]c2c1
REMARK SMILES IDX 10 1 20 2 21 3 22 4 2 5 3 6 4 7 6 8 7 9 8 10 11 11 12 12
REMARK SMILES IDX 13 13 19 14 15 15 17 16 14 17 16 19 18 21 9 23 1 25 5 27
REMARK H PARENT 14 18 16 20 18 22 9 24 1 26 5 28
REMARK Flexibility Score: inf
ROOT
ATOM      1  C   UNL     1       6.902   2.194  12.516  1.00  0.00     0.402 A 
ATOM      2  O   UNL     1       7.256   1.271  13.406  1.00  0.00    -0.202 OA
ATOM      3  C   UNL     1       7.108  -0.034  13.203  1.00  0.00     0.368 A 
ATOM      4  C   UNL     1       7.512  -0.928  14.197  1.00  0.00     0.162 A 
ATOM      5  C   UNL     1       7.370  -2.303  14.009  1.00  0.00     0.128 A 
ATOM      6  C   UNL     1       6.822  -2.791  12.817  1.00  0.00     0.093 A 
ATOM      7  C   UNL     1       6.409  -1.916  11.805  1.00  0.00     0.136 A 
ATOM      8  C   UNL     1       6.549  -0.516  11.994  1.00  0.00     0.125 A 
ATOM      9  C   UNL     1       6.151   0.436  11.041  1.00  0.00     0.078 A 
ATOM     10  C   UNL     1       6.316   1.800  11.300  1.00  0.00     0.223 A 
ENDROOT
BRANCH   1  11
ATOM     11  C   UNL     1       7.128   3.619  12.857  1.00  0.00     0.091 A 
ATOM     12  C   UNL     1       6.767   4.088  14.129  1.00  0.00     0.068 A 
ATOM     13  C   UNL     1       6.985   5.423  14.485  1.00  0.00     0.162 A 
ATOM     14  C   UNL     1       7.748   4.497  11.953  1.00  0.00     0.068 A 
ATOM     15  C   UNL     1       7.588   6.305  13.571  1.00  0.00     0.200 A 
ATOM     16  C   UNL     1       7.973   5.836  12.303  1.00  0.00     0.162 A 
BRANCH  13  17
ATOM     17  O   UNL     1       6.599   5.856  15.754  1.00  0.00    -0.504 OA
ATOM     18  H   UNL     1       6.274   5.215  16.467  1.00  0.00     0.293 HD
ENDBRANCH  13  17
BRANCH  15  19
ATOM     19  O   UNL     1       7.799   7.635  13.934  1.00  0.00    -0.502 OA
ATOM     20  H   UNL     1       8.184   7.894  14.834  1.00  0.00     0.293 HD
ENDBRANCH  15  19
BRANCH  16  21
ATOM     21  O   UNL     1       8.584   6.701  11.396  1.00  0.00    -0.504 OA
ATOM     22  H   UNL     1       8.084   7.073  10.597  1.00  0.00     0.293 HD
ENDBRANCH  16  21
ENDBRANCH   1  11
BRANCH  10  23
ATOM     23  O   UNL     1       5.875   2.746  10.375  1.00  0.00    -0.500 OA
ATOM     24  H   UNL     1       4.942   3.137  10.417  1.00  0.00     0.294 HD
ENDBRANCH  10  23
BRANCH   5  25
ATOM     25  O   UNL     1       7.779  -3.179  15.013  1.00  0.00    -0.507 OA
ATOM     26  H   UNL     1       7.827  -2.888  15.983  1.00  0.00     0.293 HD
ENDBRANCH   5  25
BRANCH   7  27
ATOM     27  O   UNL     1       5.875  -2.481  10.644  1.00  0.00    -0.507 OA
ATOM     28  H   UNL     1       5.426  -1.955   9.909  1.00  0.00     0.293 HD
ENDBRANCH   7  27
TORSDOF 7
ENDMDL
MODEL 4
REMARK VINA RESULT:    -1.925      2.210      7.836
REMARK INTER + INTRA:          -2.244
REMARK INTER:                  -2.229
REMARK INTRA:                  -0.015
REMARK UNBOUND:                 0.132
REMARK SMILES Oc1cc(O)c2cc(O)c(-c3cc(O)c(O)c(O)c3)[o+]c2c1
REMARK SMILES IDX 10 1 20 2 21 3 22 4 2 5 3 6 4 7 6 8 7 9 8 10 11 11 12 12
REMARK SMILES IDX 13 13 19 14 15 15 17 16 14 17 16 19 18 21 9 23 1 25 5 27
REMARK H PARENT 14 18 16 20 18 22 9 24 1 26 5 28
REMARK Flexibility Score: inf
ROOT
ATOM      1  C   UNL     1       6.868   2.135  12.555  1.00  0.00     0.402 A 
ATOM      2  O   UNL     1       7.206   1.197  13.435  1.00  0.00    -0.202 OA
ATOM      3  C   UNL     1       7.063  -0.105  13.207  1.00  0.00     0.368 A 
ATOM      4  C   UNL     1       7.451  -1.016  14.192  1.00  0.00     0.162 A 
ATOM      5  C   UNL     1       7.313  -2.388  13.978  1.00  0.00     0.128 A 
ATOM      6  C   UNL     1       6.786  -2.855  12.769  1.00  0.00     0.093 A 
ATOM      7  C   UNL     1       6.389  -1.963  11.765  1.00  0.00     0.136 A 
ATOM      8  C   UNL     1       6.525  -0.566  11.980  1.00  0.00     0.125 A 
ATOM      9  C   UNL     1       6.142   0.401  11.037  1.00  0.00     0.078 A 
ATOM     10  C   UNL     1       6.302   1.761  11.323  1.00  0.00     0.223 A 
ENDROOT
BRANCH   1  11
ATOM     11  C   UNL     1       7.087   3.553  12.924  1.00  0.00     0.091 A 
ATOM     12  C   UNL     1       7.695   4.418  12.003  1.00  0.00     0.068 A 
ATOM     13  C   UNL     1       7.897   5.766  12.315  1.00  0.00     0.162 A 
ATOM     14  C   UNL     1       6.647   4.064  14.157  1.00  0.00     0.068 A 
ATOM     15  C   UNL     1       7.474   6.270  13.558  1.00  0.00     0.200 A 
ATOM     16  C   UNL     1       6.843   5.414  14.478  1.00  0.00     0.162 A 
BRANCH  13  17
ATOM     17  O   UNL     1       8.518   6.592  11.378  1.00  0.00    -0.504 OA
ATOM     18  H   UNL     1       8.562   7.597  11.490  1.00  0.00     0.293 HD
ENDBRANCH  13  17
BRANCH  15  19
ATOM     19  O   UNL     1       7.682   7.616  13.863  1.00  0.00    -0.502 OA
ATOM     20  H   UNL     1       7.899   8.303  13.151  1.00  0.00     0.293 HD
ENDBRANCH  15  19
BRANCH  16  21
ATOM     21  O   UNL     1       6.408   5.910  15.706  1.00  0.00    -0.504 OA
ATOM     22  H   UNL     1       6.941   5.766  16.556  1.00  0.00     0.293 HD
ENDBRANCH  16  21
ENDBRANCH   1  11
BRANCH  10  23
ATOM     23  O   UNL     1       5.876   2.722  10.407  1.00  0.00    -0.500 OA
ATOM     24  H   UNL     1       6.007   2.603   9.410  1.00  0.00     0.294 HD
ENDBRANCH  10  23
BRANCH   5  25
ATOM     25  O   UNL     1       7.705  -3.280  14.974  1.00  0.00    -0.507 OA
ATOM     26  H   UNL     1       8.531  -3.116  15.538  1.00  0.00     0.293 HD
ENDBRANCH   5  25
BRANCH   7  27
ATOM     27  O   UNL     1       5.875  -2.508  10.586  1.00  0.00    -0.507 OA
ATOM     28  H   UNL     1       6.420  -2.685   9.755  1.00  0.00     0.293 HD
ENDBRANCH   7  27
TORSDOF 7
ENDMDL
MODEL 5
REMARK VINA RESULT:    -1.369      2.128      7.988
REMARK INTER + INTRA:          -1.557
REMARK INTER:                  -1.961
REMARK INTRA:                   0.404
REMARK UNBOUND:                 0.132
REMARK SMILES Oc1cc(O)c2cc(O)c(-c3cc(O)c(O)c(O)c3)[o+]c2c1
REMARK SMILES IDX 10 1 20 2 21 3 22 4 2 5 3 6 4 7 6 8 7 9 8 10 11 11 12 12
REMARK SMILES IDX 13 13 19 14 15 15 17 16 14 17 16 19 18 21 9 23 1 25 5 27
REMARK H PARENT 14 18 16 20 18 22 9 24 1 26 5 28
REMARK Flexibility Score: inf
ROOT
ATOM      1  C   UNL     1       6.572   2.227  13.050  1.00  0.00     0.402 A 
ATOM      2  O   UNL     1       6.464   1.670  11.847  1.00  0.00    -0.202 OA
ATOM      3  C   UNL     1       6.278   0.366  11.660  1.00  0.00     0.368 A 
ATOM      4  C   UNL     1       6.173  -0.126  10.357  1.00  0.00     0.162 A 
ATOM      5  C   UNL     1       5.976  -1.488  10.132  1.00  0.00     0.128 A 
ATOM      6  C   UNL     1       5.882  -2.368  11.216  1.00  0.00     0.093 A 
ATOM      7  C   UNL     1       5.983  -1.900  12.532  1.00  0.00     0.136 A 
ATOM      8  C   UNL     1       6.187  -0.514  12.765  1.00  0.00     0.125 A 
ATOM      9  C   UNL     1       6.313   0.043  14.048  1.00  0.00     0.078 A 
ATOM     10  C   UNL     1       6.517   1.418  14.199  1.00  0.00     0.223 A 
ENDROOT
BRANCH   1  11
ATOM     11  C   UNL     1       6.766   3.694  13.127  1.00  0.00     0.091 A 
ATOM     12  C   UNL     1       6.602   4.346  14.358  1.00  0.00     0.068 A 
ATOM     13  C   UNL     1       6.798   5.727  14.466  1.00  0.00     0.162 A 
ATOM     14  C   UNL     1       7.166   4.439  12.005  1.00  0.00     0.068 A 
ATOM     15  C   UNL     1       7.178   6.473  13.336  1.00  0.00     0.200 A 
ATOM     16  C   UNL     1       7.366   5.822  12.104  1.00  0.00     0.162 A 
BRANCH  13  17
ATOM     17  O   UNL     1       6.611   6.342  15.704  1.00  0.00    -0.504 OA
ATOM     18  H   UNL     1       5.697   6.624  16.034  1.00  0.00     0.293 HD
ENDBRANCH  13  17
BRANCH  15  19
ATOM     19  O   UNL     1       7.368   7.850  13.452  1.00  0.00    -0.502 OA
ATOM     20  H   UNL     1       8.288   8.260  13.565  1.00  0.00     0.293 HD
ENDBRANCH  15  19
BRANCH  16  21
ATOM     21  O   UNL     1       7.758   6.553  10.983  1.00  0.00    -0.504 OA
ATOM     22  H   UNL     1       8.657   7.018  10.939  1.00  0.00     0.293 HD
ENDBRANCH  16  21
ENDBRANCH   1  11
BRANCH  10  23
ATOM     23  O   UNL     1       6.693   1.963  15.471  1.00  0.00    -0.500 OA
ATOM     24  H   UNL     1       6.771   1.379  16.294  1.00  0.00     0.294 HD
ENDBRANCH  10  23
BRANCH   5  25
ATOM     25  O   UNL     1       5.875  -1.960   8.824  1.00  0.00    -0.507 OA
ATOM     26  H   UNL     1       4.996  -2.295   8.449  1.00  0.00     0.293 HD
ENDBRANCH   5  25
BRANCH   7  27
ATOM     27  O   UNL     1       5.875  -2.840  13.560  1.00  0.00    -0.507 OA
ATOM     28  H   UNL     1       5.041  -2.994  14.106  1.00  0.00     0.293 HD
ENDBRANCH   7  27
TORSDOF 7
ENDMDL
MODEL 6
REMARK VINA RESULT:    -0.610      2.463      4.336
REMARK INTER + INTRA:          -0.620
REMARK INTER:                  -0.923
REMARK INTRA:                   0.302
REMARK UNBOUND:                 0.132
REMARK SMILES Oc1cc(O)c2cc(O)c(-c3cc(O)c(O)c(O)c3)[o+]c2c1
REMARK SMILES IDX 10 1 20 2 21 3 22 4 2 5 3 6 4 7 6 8 7 9 8 10 11 11 12 12
REMARK SMILES IDX 13 13 19 14 15 15 17 16 14 17 16 19 18 21 9 23 1 25 5 27
REMARK H PARENT 14 18 16 20 18 22 9 24 1 26 5 28
REMARK Flexibility Score: inf
ROOT
ATOM      1  C   UNL     1       6.656   1.910  12.365  1.00  0.00     0.402 A 
ATOM      2  O   UNL     1       7.173   2.595  13.381  1.00  0.00    -0.202 OA
ATOM      3  C   UNL     1       7.406   3.903  13.335  1.00  0.00     0.368 A 
ATOM      4  C   UNL     1       7.949   4.537  14.455  1.00  0.00     0.162 A 
ATOM      5  C   UNL     1       8.202   5.909  14.436  1.00  0.00     0.128 A 
ATOM      6  C   UNL     1       7.909   6.656  13.289  1.00  0.00     0.093 A 
ATOM      7  C   UNL     1       7.364   6.044  12.153  1.00  0.00     0.136 A 
ATOM      8  C   UNL     1       7.108   4.648  12.168  1.00  0.00     0.125 A 
ATOM      9  C   UNL     1       6.576   3.949  11.072  1.00  0.00     0.078 A 
ATOM     10  C   UNL     1       6.356   2.571  11.160  1.00  0.00     0.223 A 
ENDROOT
BRANCH   1  11
ATOM     11  C   UNL     1       6.433   0.456  12.543  1.00  0.00     0.091 A 
ATOM     12  C   UNL     1       6.461  -0.388  11.422  1.00  0.00     0.068 A 
ATOM     13  C   UNL     1       6.274  -1.767  11.561  1.00  0.00     0.162 A 
ATOM     14  C   UNL     1       6.250  -0.106  13.817  1.00  0.00     0.068 A 
ATOM     15  C   UNL     1       6.070  -2.322  12.836  1.00  0.00     0.200 A 
ATOM     16  C   UNL     1       6.062  -1.487  13.967  1.00  0.00     0.162 A 
BRANCH  13  17
ATOM     17  O   UNL     1       6.294  -2.570  10.421  1.00  0.00    -0.504 OA
ATOM     18  H   UNL     1       6.735  -3.482  10.411  1.00  0.00     0.293 HD
ENDBRANCH  13  17
BRANCH  15  19
ATOM     19  O   UNL     1       5.880  -3.699  12.966  1.00  0.00    -0.502 OA
ATOM     20  H   UNL     1       5.332  -4.099  13.718  1.00  0.00     0.293 HD
ENDBRANCH  15  19
BRANCH  16  21
ATOM     21  O   UNL     1       5.875  -2.033  15.236  1.00  0.00    -0.504 OA
ATOM     22  H   UNL     1       6.629  -2.493  15.733  1.00  0.00     0.293 HD
ENDBRANCH  16  21
ENDBRANCH   1  11
BRANCH  10  23
ATOM     23  O   UNL     1       5.875   1.868  10.055  1.00  0.00    -0.500 OA
ATOM     24  H   UNL     1       5.718   2.321   9.163  1.00  0.00     0.294 HD
ENDBRANCH  10  23
BRANCH   5  25
ATOM     25  O   UNL     1       8.744   6.523  15.564  1.00  0.00    -0.507 OA
ATOM     26  H   UNL     1       8.367   6.359  16.489  1.00  0.00     0.293 HD
ENDBRANCH   5  25
BRANCH   7  27
ATOM     27  O   UNL     1       7.097   6.859  11.049  1.00  0.00    -0.507 OA
ATOM     28  H   UNL     1       6.335   6.713  10.405  1.00  0.00     0.293 HD
ENDBRANCH   7  27
TORSDOF 7
ENDMDL
