MODEL 1
REMARK VINA RESULT:    -4.659      0.000      0.000
REMARK INTER + INTRA:          -5.639
REMARK INTER:                  -5.340
REMARK INTRA:                  -0.299
REMARK UNBOUND:                -0.299
REMARK SMILES O=C([O-])C=Cc1ccc(O)cc1
REMARK SMILES IDX 6 1 7 2 12 3 8 4 11 5 9 6 5 7 4 8 2 9 1 10 3 11 10 12
REMARK H PARENT 10 13
REMARK Flexibility Score: inf
ROOT
ATOM      1  C   UNL     1       8.389  -7.620  -9.268  1.00  0.00    -0.025 A 
ATOM      2  C   UNL     1       9.663  -8.019  -8.835  1.00  0.00     0.012 A 
ATOM      3  C   UNL     1       7.805  -6.468  -8.714  1.00  0.00     0.012 A 
ATOM      4  C   UNL     1      10.364  -7.250  -7.900  1.00  0.00     0.047 A 
ATOM      5  C   UNL     1       8.507  -5.701  -7.778  1.00  0.00     0.047 A 
ATOM      6  C   UNL     1       9.788  -6.087  -7.372  1.00  0.00     0.115 A 
ENDROOT
BRANCH   1   7
ATOM      7  C   UNL     1       7.647  -8.476 -10.216  1.00  0.00     0.010 C 
ATOM      8  C   UNL     1       7.565  -8.279 -11.541  1.00  0.00     0.025 C 
BRANCH   8   9
ATOM      9  C   UNL     1       8.339  -7.289 -12.317  1.00  0.00     0.064 C 
ATOM     10  O   UNL     1       7.852  -6.171 -12.629  1.00  0.00    -0.545 OA
ATOM     11  O   UNL     1       9.657  -7.572 -12.650  1.00  0.00    -0.545 OA
ENDBRANCH   8   9
ENDBRANCH   1   7
BRANCH   6  12
ATOM     12  O   UNL     1      10.476  -5.312  -6.441  1.00  0.00    -0.508 OA
ATOM     13  H   UNL     1      11.482  -5.386  -6.331  1.00  0.00     0.293 HD
ENDBRANCH   6  12
TORSDOF 3
ENDMDL
MODEL 2
REMARK VINA RESULT:    -4.382     11.995     13.799
REMARK INTER + INTRA:          -5.321
REMARK INTER:                  -5.032
REMARK INTRA:                  -0.289
REMARK UNBOUND:                -0.299
REMARK SMILES O=C([O-])C=Cc1ccc(O)cc1
REMARK SMILES IDX 6 1 7 2 12 3 8 4 11 5 9 6 5 7 4 8 2 9 1 10 3 11 10 12
REMARK H PARENT 10 13
REMARK Flexibility Score: inf
ROOT
ATOM      1  C   UNL     1      21.668  -2.427  -7.626  1.00  0.00    -0.025 A 
ATOM      2  C   UNL     1      20.589  -2.333  -8.519  1.00  0.00     0.012 A 
ATOM      3  C   UNL     1      21.417  -2.706  -6.271  1.00  0.00     0.012 A 
ATOM      4  C   UNL     1      19.283  -2.566  -8.074  1.00  0.00     0.047 A 
ATOM      5  C   UNL     1      20.110  -2.937  -5.829  1.00  0.00     0.047 A 
ATOM      6  C   UNL     1      19.041  -2.872  -6.729  1.00  0.00     0.115 A 
ENDROOT
BRANCH   1   7
ATOM      7  C   UNL     1      23.032  -2.125  -8.107  1.00  0.00     0.010 C 
ATOM      8  C   UNL     1      23.935  -3.035  -8.505  1.00  0.00     0.025 C 
BRANCH   8   9
ATOM      9  C   UNL     1      23.677  -4.475  -8.710  1.00  0.00     0.064 C 
ATOM     10  O   UNL     1      24.069  -5.338  -7.881  1.00  0.00    -0.545 OA
ATOM     11  O   UNL     1      22.927  -4.878  -9.806  1.00  0.00    -0.545 OA
ENDBRANCH   8   9
ENDBRANCH   1   7
BRANCH   6  12
ATOM     12  O   UNL     1      17.746  -3.107  -6.274  1.00  0.00    -0.508 OA
ATOM     13  H   UNL     1      16.950  -3.073  -6.903  1.00  0.00     0.293 HD
ENDBRANCH   6  12
TORSDOF 3
ENDMDL
MODEL 3
REMARK VINA RESULT:    -4.366     22.187     23.274
REMARK INTER + INTRA:          -5.303
REMARK INTER:                  -5.027
REMARK INTRA:                  -0.276
REMARK UNBOUND:                -0.299
REMARK SMILES O=C([O-])C=Cc1ccc(O)cc1
REMARK SMILES IDX 6 1 7 2 12 3 8 4 11 5 9 6 5 7 4 8 2 9 1 10 3 11 10 12
REMARK H PARENT 10 13
REMARK Flexibility Score: inf
ROOT
ATOM      1  C   UNL     1      24.294   8.127 -19.032  1.00  0.00    -0.025 A 
ATOM      2  C   UNL     1      22.936   8.096 -19.384  1.00  0.00     0.012 A 
ATOM      3  C   UNL     1      25.113   7.031 -19.353  1.00  0.00     0.012 A 
ATOM      4  C   UNL     1      22.415   7.008 -20.093  1.00  0.00     0.047 A 
ATOM      5  C   UNL     1      24.590   5.944 -20.060  1.00  0.00     0.047 A 
ATOM      6  C   UNL     1      23.243   5.931 -20.435  1.00  0.00     0.115 A 
ENDROOT
BRANCH   1   7
ATOM      7  C   UNL     1      24.809   9.263 -18.238  1.00  0.00     0.010 C 
ATOM      8  C   UNL     1      24.758   9.363 -16.901  1.00  0.00     0.025 C 
BRANCH   8   9
ATOM      9  C   UNL     1      24.348   8.293 -15.970  1.00  0.00     0.064 C 
ATOM     10  O   UNL     1      25.123   7.347 -15.672  1.00  0.00    -0.545 OA
ATOM     11  O   UNL     1      23.104   8.368 -15.358  1.00  0.00    -0.545 OA
ENDBRANCH   8   9
ENDBRANCH   1   7
BRANCH   6  12
ATOM     12  O   UNL     1      22.736   4.842 -21.141  1.00  0.00    -0.508 OA
ATOM     13  H   UNL     1      22.224   4.965 -22.008  1.00  0.00     0.293 HD
ENDBRANCH   6  12
TORSDOF 3
ENDMDL
MODEL 4
REMARK VINA RESULT:    -4.349      2.454      3.349
REMARK INTER + INTRA:          -5.283
REMARK INTER:                  -4.984
REMARK INTRA:                  -0.299
REMARK UNBOUND:                -0.299
REMARK SMILES O=C([O-])C=Cc1ccc(O)cc1
REMARK SMILES IDX 6 1 7 2 12 3 8 4 11 5 9 6 5 7 4 8 2 9 1 10 3 11 10 12
REMARK H PARENT 10 13
REMARK Flexibility Score: inf
ROOT
ATOM      1  C   UNL     1      10.244  -6.937  -8.163  1.00  0.00    -0.025 A 
ATOM      2  C   UNL     1       9.386  -6.025  -7.529  1.00  0.00     0.012 A 
ATOM      3  C   UNL     1       9.938  -8.309  -8.126  1.00  0.00     0.012 A 
ATOM      4  C   UNL     1       8.212  -6.471  -6.914  1.00  0.00     0.047 A 
ATOM      5  C   UNL     1       8.764  -8.753  -7.509  1.00  0.00     0.047 A 
ATOM      6  C   UNL     1       7.897  -7.837  -6.905  1.00  0.00     0.115 A 
ENDROOT
BRANCH   1   7
ATOM      7  C   UNL     1      11.505  -6.449  -8.761  1.00  0.00     0.010 C 
ATOM      8  C   UNL     1      11.689  -6.159 -10.058  1.00  0.00     0.025 C 
BRANCH   8   9
ATOM      9  C   UNL     1      10.632  -6.099 -11.087  1.00  0.00     0.064 C 
ATOM     10  O   UNL     1      10.428  -7.057 -11.879  1.00  0.00    -0.545 OA
ATOM     11  O   UNL     1       9.800  -4.989 -11.139  1.00  0.00    -0.545 OA
ENDBRANCH   8   9
ENDBRANCH   1   7
BRANCH   6  12
ATOM     12  O   UNL     1       6.730  -8.293  -6.297  1.00  0.00    -0.508 OA
ATOM     13  H   UNL     1       6.760  -8.889  -5.476  1.00  0.00     0.293 HD
ENDBRANCH   6  12
TORSDOF 3
ENDMDL
MODEL 5
REMARK VINA RESULT:    -4.318      2.635      3.481
REMARK INTER + INTRA:          -5.248
REMARK INTER:                  -4.969
REMARK INTRA:                  -0.279
REMARK UNBOUND:                -0.299
REMARK SMILES O=C([O-])C=Cc1ccc(O)cc1
REMARK SMILES IDX 6 1 7 2 12 3 8 4 11 5 9 6 5 7 4 8 2 9 1 10 3 11 10 12
REMARK H PARENT 10 13
REMARK Flexibility Score: inf
ROOT
ATOM      1  C   UNL     1       8.080  -6.480  -7.739  1.00  0.00    -0.025 A 
ATOM      2  C   UNL     1       8.310  -5.452  -6.812  1.00  0.00     0.012 A 
ATOM      3  C   UNL     1       7.778  -7.771  -7.273  1.00  0.00     0.012 A 
ATOM      4  C   UNL     1       8.189  -5.698  -5.440  1.00  0.00     0.047 A 
ATOM      5  C   UNL     1       7.659  -8.016  -5.902  1.00  0.00     0.047 A 
ATOM      6  C   UNL     1       7.860  -6.981  -4.983  1.00  0.00     0.115 A 
ENDROOT
BRANCH   1   7
ATOM      7  C   UNL     1       8.265  -6.208  -9.180  1.00  0.00     0.010 C 
ATOM      8  C   UNL     1       9.425  -6.310  -9.848  1.00  0.00     0.025 C 
BRANCH   8   9
ATOM      9  C   UNL     1      10.680  -6.879  -9.317  1.00  0.00     0.064 C 
ATOM     10  O   UNL     1      11.633  -6.143  -8.949  1.00  0.00    -0.545 OA
ATOM     11  O   UNL     1      10.784  -8.254  -9.157  1.00  0.00    -0.545 OA
ENDBRANCH   8   9
ENDBRANCH   1   7
BRANCH   6  12
ATOM     12  O   UNL     1       7.736  -7.239  -3.619  1.00  0.00    -0.508 OA
ATOM     13  H   UNL     1       6.954  -7.769  -3.250  1.00  0.00     0.293 HD
ENDBRANCH   6  12
TORSDOF 3
ENDMDL
MODEL 6
REMARK VINA RESULT:    -4.308      2.074      2.567
REMARK INTER + INTRA:          -5.236
REMARK INTER:                  -4.948
REMARK INTRA:                  -0.288
REMARK UNBOUND:                -0.299
REMARK SMILES O=C([O-])C=Cc1ccc(O)cc1
REMARK SMILES IDX 6 1 7 2 12 3 8 4 11 5 9 6 5 7 4 8 2 9 1 10 3 11 10 12
REMARK H PARENT 10 13
REMARK Flexibility Score: inf
ROOT
ATOM      1  C   UNL     1       9.291  -6.716  -8.367  1.00  0.00    -0.025 A 
ATOM      2  C   UNL     1      10.120  -6.182  -7.368  1.00  0.00     0.012 A 
ATOM      3  C   UNL     1       7.896  -6.623  -8.225  1.00  0.00     0.012 A 
ATOM      4  C   UNL     1       9.563  -5.520  -6.269  1.00  0.00     0.047 A 
ATOM      5  C   UNL     1       7.341  -5.962  -7.125  1.00  0.00     0.047 A 
ATOM      6  C   UNL     1       8.172  -5.406  -6.147  1.00  0.00     0.115 A 
ENDROOT
BRANCH   1   7
ATOM      7  C   UNL     1       9.900  -7.456  -9.492  1.00  0.00     0.010 C 
ATOM      8  C   UNL     1      10.178  -6.944 -10.700  1.00  0.00     0.025 C 
BRANCH   8   9
ATOM      9  C   UNL     1      10.099  -5.517 -11.072  1.00  0.00     0.064 C 
ATOM     10  O   UNL     1      11.126  -4.789 -11.115  1.00  0.00    -0.545 OA
ATOM     11  O   UNL     1       8.873  -4.983 -11.447  1.00  0.00    -0.545 OA
ENDBRANCH   8   9
ENDBRANCH   1   7
BRANCH   6  12
ATOM     12  O   UNL     1       7.605  -4.747  -5.057  1.00  0.00    -0.508 OA
ATOM     13  H   UNL     1       6.615  -4.531  -5.027  1.00  0.00     0.293 HD
ENDBRANCH   6  12
TORSDOF 3
ENDMDL
MODEL 7
REMARK VINA RESULT:    -4.259      1.877      2.490
REMARK INTER + INTRA:          -5.180
REMARK INTER:                  -4.891
REMARK INTRA:                  -0.290
REMARK UNBOUND:                -0.299
REMARK SMILES O=C([O-])C=Cc1ccc(O)cc1
REMARK SMILES IDX 6 1 7 2 12 3 8 4 11 5 9 6 5 7 4 8 2 9 1 10 3 11 10 12
REMARK H PARENT 10 13
REMARK Flexibility Score: inf
ROOT
ATOM      1  C   UNL     1       9.534  -7.597  -7.618  1.00  0.00    -0.025 A 
ATOM      2  C   UNL     1       8.276  -7.905  -7.079  1.00  0.00     0.012 A 
ATOM      3  C   UNL     1      10.118  -6.351  -7.334  1.00  0.00     0.012 A 
ATOM      4  C   UNL     1       7.633  -7.001  -6.226  1.00  0.00     0.047 A 
ATOM      5  C   UNL     1       9.473  -5.448  -6.482  1.00  0.00     0.047 A 
ATOM      6  C   UNL     1       8.232  -5.771  -5.924  1.00  0.00     0.115 A 
ENDROOT
BRANCH   1   7
ATOM      7  C   UNL     1      10.170  -8.545  -8.557  1.00  0.00     0.010 C 
ATOM      8  C   UNL     1       9.969  -8.576  -9.884  1.00  0.00     0.025 C 
BRANCH   8   9
ATOM      9  C   UNL     1       9.229  -7.569 -10.669  1.00  0.00     0.064 C 
ATOM     10  O   UNL     1       7.982  -7.641 -10.824  1.00  0.00    -0.545 OA
ATOM     11  O   UNL     1       9.915  -6.480 -11.191  1.00  0.00    -0.545 OA
ENDBRANCH   8   9
ENDBRANCH   1   7
BRANCH   6  12
ATOM     12  O   UNL     1       7.603  -4.863  -5.075  1.00  0.00    -0.508 OA
ATOM     13  H   UNL     1       8.068  -4.015  -4.770  1.00  0.00     0.293 HD
ENDBRANCH   6  12
TORSDOF 3
ENDMDL
MODEL 8
REMARK VINA RESULT:    -4.172      1.753      4.983
REMARK INTER + INTRA:          -5.081
REMARK INTER:                  -4.827
REMARK INTRA:                  -0.253
REMARK UNBOUND:                -0.299
REMARK SMILES O=C([O-])C=Cc1ccc(O)cc1
REMARK SMILES IDX 6 1 7 2 12 3 8 4 11 5 9 6 5 7 4 8 2 9 1 10 3 11 10 12
REMARK H PARENT 10 13
REMARK Flexibility Score: inf
ROOT
ATOM      1  C   UNL     1       9.631  -6.694  -9.778  1.00  0.00    -0.025 A 
ATOM      2  C   UNL     1       9.086  -5.698 -10.603  1.00  0.00     0.012 A 
ATOM      3  C   UNL     1       9.305  -8.039 -10.017  1.00  0.00     0.012 A 
ATOM      4  C   UNL     1       8.268  -6.046 -11.683  1.00  0.00     0.047 A 
ATOM      5  C   UNL     1       8.486  -8.386 -11.097  1.00  0.00     0.047 A 
ATOM      6  C   UNL     1       7.969  -7.392 -11.934  1.00  0.00     0.115 A 
ENDROOT
BRANCH   1   7
ATOM      7  C   UNL     1      10.449  -6.299  -8.612  1.00  0.00     0.010 C 
ATOM      8  C   UNL     1       9.984  -6.098  -7.369  1.00  0.00     0.025 C 
BRANCH   8   9
ATOM      9  C   UNL     1       8.620  -6.407  -6.897  1.00  0.00     0.064 C 
ATOM     10  O   UNL     1       8.279  -7.579  -6.587  1.00  0.00    -0.545 OA
ATOM     11  O   UNL     1       7.713  -5.370  -6.726  1.00  0.00    -0.545 OA
ENDBRANCH   8   9
ENDBRANCH   1   7
BRANCH   6  12
ATOM     12  O   UNL     1       7.157  -7.751 -13.007  1.00  0.00    -0.508 OA
ATOM     13  H   UNL     1       7.145  -7.211 -13.866  1.00  0.00     0.293 HD
ENDBRANCH   6  12
TORSDOF 3
ENDMDL
