MODEL 1
REMARK VINA RESULT:    12.442      0.000      0.000
REMARK INTER + INTRA:          25.961
REMARK INTER:                  26.990
REMARK INTRA:                  -1.028
REMARK UNBOUND:                -1.028
REMARK SMILES CCCCCCCCCCCCCCCCCCCCCC(=O)[O-]
REMARK SMILES IDX 12 1 11 2 10 3 9 4 8 5 7 6 6 7 5 8 4 9 3 10 2 11 1 12 13 13
REMARK SMILES IDX 14 14 15 15 16 16 17 17 18 18 19 19 20 20 21 21 22 22 23 23
REMARK SMILES IDX 24 24
REMARK H PARENT
REMARK Flexibility Score: inf
ROOT
ATOM      1  C   UNL     1      -7.105  16.399 -11.729  1.00  0.00     0.000 C 
ENDROOT
BRANCH   1   2
ATOM      2  C   UNL     1      -7.810  15.308 -12.551  1.00  0.00     0.000 C 
BRANCH   2   3
ATOM      3  C   UNL     1      -9.328  15.266 -12.299  1.00  0.00     0.000 C 
BRANCH   3   4
ATOM      4  C   UNL     1      -9.813  13.877 -11.856  1.00  0.00    -0.000 C 
BRANCH   4   5
ATOM      5  C   UNL     1     -10.503  13.902 -10.481  1.00  0.00    -0.000 C 
BRANCH   5   6
ATOM      6  C   UNL     1     -10.692  15.340  -9.952  1.00  0.00    -0.000 C 
BRANCH   6   7
ATOM      7  C   UNL     1      -9.680  15.732  -8.861  1.00  0.00    -0.000 C 
BRANCH   7   8
ATOM      8  C   UNL     1     -10.152  16.921  -8.010  1.00  0.00    -0.000 C 
BRANCH   8   9
ATOM      9  C   UNL     1     -11.585  16.706  -7.510  1.00  0.00    -0.000 C 
BRANCH   9  10
ATOM     10  C   UNL     1     -11.589  16.028  -6.132  1.00  0.00    -0.000 C 
BRANCH  10  11
ATOM     11  C   UNL     1     -12.998  15.615  -5.682  1.00  0.00    -0.003 C 
ATOM     12  C   UNL     1     -13.073  14.153  -5.240  1.00  0.00     0.004 C 
ENDBRANCH  10  11
ENDBRANCH   9  10
ENDBRANCH   8   9
ENDBRANCH   7   8
ENDBRANCH   6   7
ENDBRANCH   5   6
ENDBRANCH   4   5
ENDBRANCH   3   4
ENDBRANCH   2   3
ENDBRANCH   1   2
BRANCH   1  13
ATOM     13  C   UNL     1      -6.201  15.818 -10.630  1.00  0.00     0.000 C 
BRANCH  13  14
ATOM     14  C   UNL     1      -4.971  15.126 -11.236  1.00  0.00     0.000 C 
BRANCH  14  15
ATOM     15  C   UNL     1      -3.764  15.099 -10.281  1.00  0.00     0.000 C 
BRANCH  15  16
ATOM     16  C   UNL     1      -3.056  16.451 -10.083  1.00  0.00     0.000 C 
BRANCH  16  17
ATOM     17  C   UNL     1      -3.493  17.512 -11.108  1.00  0.00     0.000 C 
BRANCH  17  18
ATOM     18  C   UNL     1      -3.223  18.947 -10.626  1.00  0.00     0.000 C 
BRANCH  18  19
ATOM     19  C   UNL     1      -4.295  19.944 -11.094  1.00  0.00     0.000 C 
BRANCH  19  20
ATOM     20  C   UNL     1      -5.706  19.407 -10.809  1.00  0.00     0.006 C 
BRANCH  20  21
ATOM     21  C   UNL     1      -6.741  19.931 -11.814  1.00  0.00     0.053 C 
BRANCH  21  22
ATOM     22  C   UNL     1      -6.356  21.269 -12.364  1.00  0.00     0.041 C 
ATOM     23  O   UNL     1      -6.560  21.538 -13.577  1.00  0.00    -0.550 OA
ATOM     24  O   UNL     1      -5.733  22.204 -11.548  1.00  0.00    -0.550 OA
ENDBRANCH  21  22
ENDBRANCH  20  21
ENDBRANCH  19  20
ENDBRANCH  18  19
ENDBRANCH  17  18
ENDBRANCH  16  17
ENDBRANCH  15  16
ENDBRANCH  14  15
ENDBRANCH  13  14
ENDBRANCH   1  13
TORSDOF 20
ENDMDL
MODEL 2
REMARK VINA RESULT:    12.708      0.771      1.443
REMARK INTER + INTRA:          26.538
REMARK INTER:                  28.460
REMARK INTRA:                  -1.922
REMARK UNBOUND:                -1.028
REMARK SMILES CCCCCCCCCCCCCCCCCCCCCC(=O)[O-]
REMARK SMILES IDX 12 1 11 2 10 3 9 4 8 5 7 6 6 7 5 8 4 9 3 10 2 11 1 12 13 13
REMARK SMILES IDX 14 14 15 15 16 16 17 17 18 18 19 19 20 20 21 21 22 22 23 23
REMARK SMILES IDX 24 24
REMARK H PARENT
REMARK Flexibility Score: inf
ROOT
ATOM      1  C   UNL     1      -6.395  15.524 -10.942  1.00  0.00     0.000 C 
ENDROOT
BRANCH   1   2
ATOM      2  C   UNL     1      -7.155  16.311 -12.021  1.00  0.00     0.000 C 
BRANCH   2   3
ATOM      3  C   UNL     1      -8.081  15.416 -12.865  1.00  0.00     0.000 C 
BRANCH   3   4
ATOM      4  C   UNL     1      -9.525  15.405 -12.342  1.00  0.00    -0.000 C 
BRANCH   4   5
ATOM      5  C   UNL     1      -9.942  14.033 -11.783  1.00  0.00    -0.000 C 
BRANCH   5   6
ATOM      6  C   UNL     1     -10.430  14.124 -10.322  1.00  0.00    -0.000 C 
BRANCH   6   7
ATOM      7  C   UNL     1     -10.456  15.560  -9.770  1.00  0.00    -0.000 C 
BRANCH   7   8
ATOM      8  C   UNL     1      -9.376  15.810  -8.707  1.00  0.00    -0.000 C 
BRANCH   8   9
ATOM      9  C   UNL     1      -9.911  16.697  -7.576  1.00  0.00    -0.000 C 
BRANCH   9  10
ATOM     10  C   UNL     1     -11.429  16.528  -7.420  1.00  0.00    -0.000 C 
BRANCH  10  11
ATOM     11  C   UNL     1     -11.861  16.416  -5.950  1.00  0.00    -0.003 C 
ATOM     12  C   UNL     1     -12.946  15.361  -5.732  1.00  0.00     0.004 C 
ENDBRANCH  10  11
ENDBRANCH   9  10
ENDBRANCH   8   9
ENDBRANCH   7   8
ENDBRANCH   6   7
ENDBRANCH   5   6
ENDBRANCH   4   5
ENDBRANCH   3   4
ENDBRANCH   2   3
ENDBRANCH   1   2
BRANCH   1  13
ATOM     13  C   UNL     1      -5.190  14.757 -11.509  1.00  0.00     0.000 C 
BRANCH  13  14
ATOM     14  C   UNL     1      -4.218  14.351 -10.391  1.00  0.00     0.000 C 
BRANCH  14  15
ATOM     15  C   UNL     1      -2.920  15.179 -10.393  1.00  0.00     0.000 C 
BRANCH  15  16
ATOM     16  C   UNL     1      -3.073  16.637  -9.925  1.00  0.00     0.000 C 
BRANCH  16  17
ATOM     17  C   UNL     1      -3.376  17.608 -11.079  1.00  0.00     0.000 C 
BRANCH  17  18
ATOM     18  C   UNL     1      -4.253  18.793 -10.640  1.00  0.00     0.000 C 
BRANCH  18  19
ATOM     19  C   UNL     1      -3.740  20.141 -11.170  1.00  0.00     0.000 C 
BRANCH  19  20
ATOM     20  C   UNL     1      -4.837  21.214 -11.096  1.00  0.00     0.006 C 
BRANCH  20  21
ATOM     21  C   UNL     1      -6.244  20.617 -11.235  1.00  0.00     0.053 C 
BRANCH  21  22
ATOM     22  C   UNL     1      -6.678  20.539 -12.666  1.00  0.00     0.041 C 
ATOM     23  O   UNL     1      -6.641  21.564 -13.396  1.00  0.00    -0.550 OA
ATOM     24  O   UNL     1      -7.161  19.344 -13.183  1.00  0.00    -0.550 OA
ENDBRANCH  21  22
ENDBRANCH  20  21
ENDBRANCH  19  20
ENDBRANCH  18  19
ENDBRANCH  17  18
ENDBRANCH  16  17
ENDBRANCH  15  16
ENDBRANCH  14  15
ENDBRANCH  13  14
ENDBRANCH   1  13
TORSDOF 20
ENDMDL
MODEL 3
REMARK VINA RESULT:    12.870      3.439      7.944
REMARK INTER + INTRA:          26.889
REMARK INTER:                  28.290
REMARK INTRA:                  -1.400
REMARK UNBOUND:                -1.028
REMARK SMILES CCCCCCCCCCCCCCCCCCCCCC(=O)[O-]
REMARK SMILES IDX 12 1 11 2 10 3 9 4 8 5 7 6 6 7 5 8 4 9 3 10 2 11 1 12 13 13
REMARK SMILES IDX 14 14 15 15 16 16 17 17 18 18 19 19 20 20 21 21 22 22 23 23
REMARK SMILES IDX 24 24
REMARK H PARENT
REMARK Flexibility Score: inf
ROOT
ATOM      1  C   UNL     1      -7.004  16.581 -11.837  1.00  0.00     0.000 C 
ENDROOT
BRANCH   1   2
ATOM      2  C   UNL     1      -5.960  16.185 -10.781  1.00  0.00     0.000 C 
BRANCH   2   3
ATOM      3  C   UNL     1      -5.051  15.035 -11.249  1.00  0.00     0.000 C 
BRANCH   3   4
ATOM      4  C   UNL     1      -3.656  15.088 -10.606  1.00  0.00    -0.000 C 
BRANCH   4   5
ATOM      5  C   UNL     1      -3.319  16.478 -10.039  1.00  0.00    -0.000 C 
BRANCH   5   6
ATOM      6  C   UNL     1      -3.274  17.560 -11.140  1.00  0.00    -0.000 C 
BRANCH   6   7
ATOM      7  C   UNL     1      -3.294  18.997 -10.591  1.00  0.00    -0.000 C 
BRANCH   7   8
ATOM      8  C   UNL     1      -4.339  19.885 -11.282  1.00  0.00    -0.000 C 
BRANCH   8   9
ATOM      9  C   UNL     1      -5.752  19.567 -10.778  1.00  0.00    -0.000 C 
BRANCH   9  10
ATOM     10  C   UNL     1      -6.753  20.634 -11.245  1.00  0.00    -0.000 C 
BRANCH  10  11
ATOM     11  C   UNL     1      -6.119  21.660 -12.196  1.00  0.00    -0.003 C 
ATOM     12  C   UNL     1      -6.599  21.503 -13.639  1.00  0.00     0.004 C 
ENDBRANCH  10  11
ENDBRANCH   9  10
ENDBRANCH   8   9
ENDBRANCH   7   8
ENDBRANCH   6   7
ENDBRANCH   5   6
ENDBRANCH   4   5
ENDBRANCH   3   4
ENDBRANCH   2   3
ENDBRANCH   1   2
BRANCH   1  13
ATOM     13  C   UNL     1      -7.642  15.362 -12.522  1.00  0.00     0.000 C 
BRANCH  13  14
ATOM     14  C   UNL     1      -9.169  15.376 -12.360  1.00  0.00     0.000 C 
BRANCH  14  15
ATOM     15  C   UNL     1      -9.735  14.027 -11.880  1.00  0.00     0.000 C 
BRANCH  15  16
ATOM     16  C   UNL     1     -10.438  14.063 -10.511  1.00  0.00     0.000 C 
BRANCH  16  17
ATOM     17  C   UNL     1     -10.440  15.464  -9.875  1.00  0.00     0.000 C 
BRANCH  17  18
ATOM     18  C   UNL     1      -9.340  15.632  -8.813  1.00  0.00     0.000 C 
BRANCH  18  19
ATOM     19  C   UNL     1      -9.683  16.704  -7.766  1.00  0.00     0.000 C 
BRANCH  19  20
ATOM     20  C   UNL     1     -11.189  16.716  -7.465  1.00  0.00     0.006 C 
BRANCH  20  21
ATOM     21  C   UNL     1     -11.499  16.244  -6.038  1.00  0.00     0.053 C 
BRANCH  21  22
ATOM     22  C   UNL     1     -12.824  15.552  -5.955  1.00  0.00     0.041 C 
ATOM     23  O   UNL     1     -12.986  14.586  -5.164  1.00  0.00    -0.550 OA
ATOM     24  O   UNL     1     -13.868  15.946  -6.781  1.00  0.00    -0.550 OA
ENDBRANCH  21  22
ENDBRANCH  20  21
ENDBRANCH  19  20
ENDBRANCH  18  19
ENDBRANCH  17  18
ENDBRANCH  16  17
ENDBRANCH  15  16
ENDBRANCH  14  15
ENDBRANCH  13  14
ENDBRANCH   1  13
TORSDOF 20
ENDMDL
MODEL 4
REMARK VINA RESULT:    13.051      3.320      7.982
REMARK INTER + INTRA:          27.281
REMARK INTER:                  27.976
REMARK INTRA:                  -0.695
REMARK UNBOUND:                -1.028
REMARK SMILES CCCCCCCCCCCCCCCCCCCCCC(=O)[O-]
REMARK SMILES IDX 12 1 11 2 10 3 9 4 8 5 7 6 6 7 5 8 4 9 3 10 2 11 1 12 13 13
REMARK SMILES IDX 14 14 15 15 16 16 17 17 18 18 19 19 20 20 21 21 22 22 23 23
REMARK SMILES IDX 24 24
REMARK H PARENT
REMARK Flexibility Score: inf
ROOT
ATOM      1  C   UNL     1      -5.978  15.796 -10.745  1.00  0.00     0.000 C 
ENDROOT
BRANCH   1   2
ATOM      2  C   UNL     1      -4.949  14.746 -11.192  1.00  0.00     0.000 C 
BRANCH   2   3
ATOM      3  C   UNL     1      -3.739  14.660 -10.244  1.00  0.00     0.000 C 
BRANCH   3   4
ATOM      4  C   UNL     1      -3.103  16.033  -9.976  1.00  0.00    -0.000 C 
BRANCH   4   5
ATOM      5  C   UNL     1      -3.557  17.103 -10.984  1.00  0.00    -0.000 C 
BRANCH   5   6
ATOM      6  C   UNL     1      -3.011  18.503 -10.630  1.00  0.00    -0.000 C 
BRANCH   6   7
ATOM      7  C   UNL     1      -3.983  19.646 -10.971  1.00  0.00    -0.000 C 
BRANCH   7   8
ATOM      8  C   UNL     1      -5.446  19.185 -11.042  1.00  0.00    -0.000 C 
BRANCH   8   9
ATOM      9  C   UNL     1      -6.405  20.346 -10.752  1.00  0.00    -0.000 C 
BRANCH   9  10
ATOM     10  C   UNL     1      -6.384  21.371 -11.895  1.00  0.00    -0.000 C 
BRANCH  10  11
ATOM     11  C   UNL     1      -6.733  20.746 -13.254  1.00  0.00    -0.003 C 
ATOM     12  C   UNL     1      -6.730  21.766 -14.393  1.00  0.00     0.004 C 
ENDBRANCH  10  11
ENDBRANCH   9  10
ENDBRANCH   8   9
ENDBRANCH   7   8
ENDBRANCH   6   7
ENDBRANCH   5   6
ENDBRANCH   4   5
ENDBRANCH   3   4
ENDBRANCH   2   3
ENDBRANCH   1   2
BRANCH   1  13
ATOM     13  C   UNL     1      -6.854  16.295 -11.905  1.00  0.00     0.000 C 
BRANCH  13  14
ATOM     14  C   UNL     1      -7.633  15.137 -12.545  1.00  0.00     0.000 C 
BRANCH  14  15
ATOM     15  C   UNL     1      -9.159  15.291 -12.411  1.00  0.00     0.000 C 
BRANCH  15  16
ATOM     16  C   UNL     1      -9.897  14.051 -11.876  1.00  0.00     0.000 C 
BRANCH  16  17
ATOM     17  C   UNL     1     -10.408  14.233 -10.436  1.00  0.00     0.000 C 
BRANCH  17  18
ATOM     18  C   UNL     1     -10.266  15.681  -9.936  1.00  0.00     0.000 C 
BRANCH  18  19
ATOM     19  C   UNL     1     -10.273  15.784  -8.403  1.00  0.00     0.000 C 
BRANCH  19  20
ATOM     20  C   UNL     1     -11.332  16.789  -7.924  1.00  0.00     0.006 C 
BRANCH  20  21
ATOM     21  C   UNL     1     -12.564  16.094  -7.328  1.00  0.00     0.053 C 
BRANCH  21  22
ATOM     22  C   UNL     1     -12.383  15.791  -5.873  1.00  0.00     0.041 C 
ATOM     23  O   UNL     1     -13.194  15.033  -5.279  1.00  0.00    -0.550 OA
ATOM     24  O   UNL     1     -11.344  16.377  -5.163  1.00  0.00    -0.550 OA
ENDBRANCH  21  22
ENDBRANCH  20  21
ENDBRANCH  19  20
ENDBRANCH  18  19
ENDBRANCH  17  18
ENDBRANCH  16  17
ENDBRANCH  15  16
ENDBRANCH  14  15
ENDBRANCH  13  14
ENDBRANCH   1  13
TORSDOF 20
ENDMDL
MODEL 5
REMARK VINA RESULT:    13.622      3.399      7.860
REMARK INTER + INTRA:          28.520
REMARK INTER:                  29.729
REMARK INTRA:                  -1.209
REMARK UNBOUND:                -1.028
REMARK SMILES CCCCCCCCCCCCCCCCCCCCCC(=O)[O-]
REMARK SMILES IDX 12 1 11 2 10 3 9 4 8 5 7 6 6 7 5 8 4 9 3 10 2 11 1 12 13 13
REMARK SMILES IDX 14 14 15 15 16 16 17 17 18 18 19 19 20 20 21 21 22 22 23 23
REMARK SMILES IDX 24 24
REMARK H PARENT
REMARK Flexibility Score: inf
ROOT
ATOM      1  C   UNL     1      -7.616  18.281 -13.910  1.00  0.00     0.000 C 
ENDROOT
BRANCH   1   2
ATOM      2  C   UNL     1      -7.421  18.881 -12.509  1.00  0.00     0.000 C 
BRANCH   2   3
ATOM      3  C   UNL     1      -6.711  20.247 -12.543  1.00  0.00     0.000 C 
BRANCH   3   4
ATOM      4  C   UNL     1      -6.228  20.694 -11.155  1.00  0.00    -0.000 C 
BRANCH   4   5
ATOM      5  C   UNL     1      -4.796  21.255 -11.180  1.00  0.00    -0.000 C 
BRANCH   5   6
ATOM      6  C   UNL     1      -3.746  20.186 -10.810  1.00  0.00    -0.000 C 
BRANCH   6   7
ATOM      7  C   UNL     1      -4.324  18.762 -10.717  1.00  0.00    -0.000 C 
BRANCH   7   8
ATOM      8  C   UNL     1      -3.327  17.683 -11.163  1.00  0.00    -0.000 C 
BRANCH   8   9
ATOM      9  C   UNL     1      -3.507  16.396 -10.349  1.00  0.00    -0.000 C 
BRANCH   9  10
ATOM     10  C   UNL     1      -4.256  15.332 -11.166  1.00  0.00    -0.000 C 
BRANCH  10  11
ATOM     11  C   UNL     1      -3.975  13.905 -10.671  1.00  0.00    -0.003 C 
ATOM     12  C   UNL     1      -3.352  13.875  -9.276  1.00  0.00     0.004 C 
ENDBRANCH  10  11
ENDBRANCH   9  10
ENDBRANCH   8   9
ENDBRANCH   7   8
ENDBRANCH   6   7
ENDBRANCH   5   6
ENDBRANCH   4   5
ENDBRANCH   3   4
ENDBRANCH   2   3
ENDBRANCH   1   2
BRANCH   1  13
ATOM     13  C   UNL     1      -8.601  17.100 -13.914  1.00  0.00     0.000 C 
BRANCH  13  14
ATOM     14  C   UNL     1      -8.591  16.370 -12.563  1.00  0.00     0.000 C 
BRANCH  14  15
ATOM     15  C   UNL     1      -9.127  14.929 -12.655  1.00  0.00     0.000 C 
BRANCH  15  16
ATOM     16  C   UNL     1      -9.970  14.467 -11.453  1.00  0.00     0.000 C 
BRANCH  16  17
ATOM     17  C   UNL     1     -10.230  15.592 -10.435  1.00  0.00     0.000 C 
BRANCH  17  18
ATOM     18  C   UNL     1      -9.612  15.299  -9.058  1.00  0.00     0.000 C 
BRANCH  18  19
ATOM     19  C   UNL     1      -9.475  16.558  -8.188  1.00  0.00     0.000 C 
BRANCH  19  20
ATOM     20  C   UNL     1     -10.855  17.118  -7.810  1.00  0.00     0.006 C 
BRANCH  20  21
ATOM     21  C   UNL     1     -11.853  16.009  -7.451  1.00  0.00     0.053 C 
BRANCH  21  22
ATOM     22  C   UNL     1     -12.213  16.031  -5.998  1.00  0.00     0.041 C 
ATOM     23  O   UNL     1     -11.617  16.811  -5.210  1.00  0.00    -0.550 OA
ATOM     24  O   UNL     1     -13.177  15.161  -5.507  1.00  0.00    -0.550 OA
ENDBRANCH  21  22
ENDBRANCH  20  21
ENDBRANCH  19  20
ENDBRANCH  18  19
ENDBRANCH  17  18
ENDBRANCH  16  17
ENDBRANCH  15  16
ENDBRANCH  14  15
ENDBRANCH  13  14
ENDBRANCH   1  13
TORSDOF 20
ENDMDL
MODEL 6
REMARK VINA RESULT:    13.912      2.370      3.663
REMARK INTER + INTRA:          29.151
REMARK INTER:                  30.149
REMARK INTRA:                  -0.998
REMARK UNBOUND:                -1.028
REMARK SMILES CCCCCCCCCCCCCCCCCCCCCC(=O)[O-]
REMARK SMILES IDX 12 1 11 2 10 3 9 4 8 5 7 6 6 7 5 8 4 9 3 10 2 11 1 12 13 13
REMARK SMILES IDX 14 14 15 15 16 16 17 17 18 18 19 19 20 20 21 21 22 22 23 23
REMARK SMILES IDX 24 24
REMARK H PARENT
REMARK Flexibility Score: inf
ROOT
ATOM      1  C   UNL     1      -7.900  16.482 -12.543  1.00  0.00     0.000 C 
ENDROOT
BRANCH   1   2
ATOM      2  C   UNL     1      -9.173  15.715 -12.933  1.00  0.00     0.000 C 
BRANCH   2   3
ATOM      3  C   UNL     1      -9.174  14.265 -12.415  1.00  0.00     0.000 C 
BRANCH   3   4
ATOM      4  C   UNL     1     -10.472  13.905 -11.676  1.00  0.00    -0.000 C 
BRANCH   4   5
ATOM      5  C   UNL     1     -10.341  14.041 -10.149  1.00  0.00    -0.000 C 
BRANCH   5   6
ATOM      6  C   UNL     1     -10.415  15.513  -9.689  1.00  0.00    -0.000 C 
BRANCH   6   7
ATOM      7  C   UNL     1      -9.230  15.942  -8.805  1.00  0.00    -0.000 C 
BRANCH   7   8
ATOM      8  C   UNL     1      -9.668  16.435  -7.418  1.00  0.00    -0.000 C 
BRANCH   8   9
ATOM      9  C   UNL     1     -11.183  16.671  -7.370  1.00  0.00    -0.000 C 
BRANCH   9  10
ATOM     10  C   UNL     1     -11.663  16.850  -5.923  1.00  0.00    -0.000 C 
BRANCH  10  11
ATOM     11  C   UNL     1     -12.767  15.852  -5.541  1.00  0.00    -0.003 C 
ATOM     12  C   UNL     1     -12.969  14.762  -6.594  1.00  0.00     0.004 C 
ENDBRANCH  10  11
ENDBRANCH   9  10
ENDBRANCH   8   9
ENDBRANCH   7   8
ENDBRANCH   6   7
ENDBRANCH   5   6
ENDBRANCH   4   5
ENDBRANCH   3   4
ENDBRANCH   2   3
ENDBRANCH   1   2
BRANCH   1  13
ATOM     13  C   UNL     1      -7.877  17.912 -13.104  1.00  0.00     0.000 C 
BRANCH  13  14
ATOM     14  C   UNL     1      -6.767  18.745 -12.446  1.00  0.00     0.000 C 
BRANCH  14  15
ATOM     15  C   UNL     1      -6.720  20.197 -12.957  1.00  0.00     0.000 C 
BRANCH  15  16
ATOM     16  C   UNL     1      -6.503  21.266 -11.872  1.00  0.00     0.000 C 
BRANCH  16  17
ATOM     17  C   UNL     1      -5.119  21.171 -11.206  1.00  0.00     0.000 C 
BRANCH  17  18
ATOM     18  C   UNL     1      -4.741  19.727 -10.831  1.00  0.00     0.000 C 
BRANCH  18  19
ATOM     19  C   UNL     1      -3.256  19.419 -11.076  1.00  0.00     0.000 C 
BRANCH  19  20
ATOM     20  C   UNL     1      -3.007  17.903 -11.107  1.00  0.00     0.006 C 
BRANCH  20  21
ATOM     21  C   UNL     1      -4.179  17.110 -10.513  1.00  0.00     0.053 C 
BRANCH  21  22
ATOM     22  C   UNL     1      -3.975  15.632 -10.642  1.00  0.00     0.041 C 
ATOM     23  O   UNL     1      -4.902  14.900 -11.077  1.00  0.00    -0.550 OA
ATOM     24  O   UNL     1      -2.775  15.058 -10.242  1.00  0.00    -0.550 OA
ENDBRANCH  21  22
ENDBRANCH  20  21
ENDBRANCH  19  20
ENDBRANCH  18  19
ENDBRANCH  17  18
ENDBRANCH  16  17
ENDBRANCH  15  16
ENDBRANCH  14  15
ENDBRANCH  13  14
ENDBRANCH   1  13
TORSDOF 20
ENDMDL
MODEL 7
REMARK VINA RESULT:    14.810      4.153      8.060
REMARK INTER + INTRA:          31.097
REMARK INTER:                  30.540
REMARK INTRA:                   0.557
REMARK UNBOUND:                -1.028
REMARK SMILES CCCCCCCCCCCCCCCCCCCCCC(=O)[O-]
REMARK SMILES IDX 12 1 11 2 10 3 9 4 8 5 7 6 6 7 5 8 4 9 3 10 2 11 1 12 13 13
REMARK SMILES IDX 14 14 15 15 16 16 17 17 18 18 19 19 20 20 21 21 22 22 23 23
REMARK SMILES IDX 24 24
REMARK H PARENT
REMARK Flexibility Score: inf
ROOT
ATOM      1  C   UNL     1      -4.158  19.597 -10.708  1.00  0.00     0.000 C 
ENDROOT
BRANCH   1   2
ATOM      2  C   UNL     1      -5.460  18.787 -10.808  1.00  0.00     0.000 C 
BRANCH   2   3
ATOM      3  C   UNL     1      -6.681  19.666 -11.136  1.00  0.00     0.000 C 
BRANCH   3   4
ATOM      4  C   UNL     1      -6.682  20.151 -12.594  1.00  0.00    -0.000 C 
BRANCH   4   5
ATOM      5  C   UNL     1      -6.323  21.642 -12.722  1.00  0.00    -0.000 C 
BRANCH   5   6
ATOM      6  C   UNL     1      -5.724  22.209 -11.418  1.00  0.00    -0.000 C 
BRANCH   6   7
ATOM      7  C   UNL     1      -4.490  23.100 -11.644  1.00  0.00    -0.000 C 
BRANCH   7   8
ATOM      8  C   UNL     1      -4.832  24.597 -11.670  1.00  0.00    -0.000 C 
BRANCH   8   9
ATOM      9  C   UNL     1      -3.680  25.436 -11.104  1.00  0.00    -0.000 C 
BRANCH   9  10
ATOM     10  C   UNL     1      -4.114  26.894 -10.896  1.00  0.00    -0.000 C 
BRANCH  10  11
ATOM     11  C   UNL     1      -5.619  27.099 -11.129  1.00  0.00    -0.003 C 
ATOM     12  C   UNL     1      -5.950  28.496 -11.655  1.00  0.00     0.004 C 
ENDBRANCH  10  11
ENDBRANCH   9  10
ENDBRANCH   8   9
ENDBRANCH   7   8
ENDBRANCH   6   7
ENDBRANCH   5   6
ENDBRANCH   4   5
ENDBRANCH   3   4
ENDBRANCH   2   3
ENDBRANCH   1   2
BRANCH   1  13
ATOM     13  C   UNL     1      -2.906  18.729 -10.909  1.00  0.00     0.000 C 
BRANCH  13  14
ATOM     14  C   UNL     1      -3.283  17.251 -11.089  1.00  0.00     0.000 C 
BRANCH  14  15
ATOM     15  C   UNL     1      -2.981  16.397  -9.844  1.00  0.00     0.000 C 
BRANCH  15  16
ATOM     16  C   UNL     1      -2.203  15.097 -10.116  1.00  0.00     0.000 C 
BRANCH  16  17
ATOM     17  C   UNL     1      -3.123  13.881 -10.322  1.00  0.00     0.000 C 
BRANCH  17  18
ATOM     18  C   UNL     1      -4.612  14.263 -10.343  1.00  0.00     0.000 C 
BRANCH  18  19
ATOM     19  C   UNL     1      -4.966  15.215 -11.497  1.00  0.00     0.000 C 
BRANCH  19  20
ATOM     20  C   UNL     1      -6.480  15.471 -11.554  1.00  0.00     0.006 C 
BRANCH  20  21
ATOM     21  C   UNL     1      -7.013  15.481 -12.993  1.00  0.00     0.053 C 
BRANCH  21  22
ATOM     22  C   UNL     1      -8.243  16.324 -13.126  1.00  0.00     0.041 C 
ATOM     23  O   UNL     1      -8.187  17.439 -13.710  1.00  0.00    -0.550 OA
ATOM     24  O   UNL     1      -9.442  15.899 -12.570  1.00  0.00    -0.550 OA
ENDBRANCH  21  22
ENDBRANCH  20  21
ENDBRANCH  19  20
ENDBRANCH  18  19
ENDBRANCH  17  18
ENDBRANCH  16  17
ENDBRANCH  15  16
ENDBRANCH  14  15
ENDBRANCH  13  14
ENDBRANCH   1  13
TORSDOF 20
ENDMDL
MODEL 8
REMARK VINA RESULT:    14.877      3.867      7.134
REMARK INTER + INTRA:          31.243
REMARK INTER:                  30.576
REMARK INTRA:                   0.667
REMARK UNBOUND:                -1.028
REMARK SMILES CCCCCCCCCCCCCCCCCCCCCC(=O)[O-]
REMARK SMILES IDX 12 1 11 2 10 3 9 4 8 5 7 6 6 7 5 8 4 9 3 10 2 11 1 12 13 13
REMARK SMILES IDX 14 14 15 15 16 16 17 17 18 18 19 19 20 20 21 21 22 22 23 23
REMARK SMILES IDX 24 24
REMARK H PARENT
REMARK Flexibility Score: inf
ROOT
ATOM      1  C   UNL     1      -6.746  19.453 -11.151  1.00  0.00     0.000 C 
ENDROOT
BRANCH   1   2
ATOM      2  C   UNL     1      -5.465  18.738 -10.693  1.00  0.00     0.000 C 
BRANCH   2   3
ATOM      3  C   UNL     1      -4.192  19.546 -11.003  1.00  0.00     0.000 C 
BRANCH   3   4
ATOM      4  C   UNL     1      -2.908  18.734 -10.772  1.00  0.00    -0.000 C 
BRANCH   4   5
ATOM      5  C   UNL     1      -3.096  17.235 -11.066  1.00  0.00    -0.000 C 
BRANCH   5   6
ATOM      6  C   UNL     1      -3.012  16.377  -9.786  1.00  0.00    -0.000 C 
BRANCH   6   7
ATOM      7  C   UNL     1      -2.469  14.958 -10.030  1.00  0.00    -0.000 C 
BRANCH   7   8
ATOM      8  C   UNL     1      -3.554  13.877  -9.926  1.00  0.00    -0.000 C 
BRANCH   8   9
ATOM      9  C   UNL     1      -4.543  13.976 -11.094  1.00  0.00    -0.000 C 
BRANCH   9  10
ATOM     10  C   UNL     1      -5.152  15.383 -11.178  1.00  0.00    -0.000 C 
BRANCH  10  11
ATOM     11  C   UNL     1      -6.256  15.484 -12.242  1.00  0.00    -0.003 C 
ATOM     12  C   UNL     1      -7.600  15.921 -11.659  1.00  0.00     0.004 C 
ENDBRANCH  10  11
ENDBRANCH   9  10
ENDBRANCH   8   9
ENDBRANCH   7   8
ENDBRANCH   6   7
ENDBRANCH   5   6
ENDBRANCH   4   5
ENDBRANCH   3   4
ENDBRANCH   2   3
ENDBRANCH   1   2
BRANCH   1  13
ATOM     13  C   UNL     1      -6.757  19.734 -12.662  1.00  0.00     0.000 C 
BRANCH  13  14
ATOM     14  C   UNL     1      -6.511  21.223 -12.948  1.00  0.00     0.000 C 
BRANCH  14  15
ATOM     15  C   UNL     1      -6.315  22.057 -11.668  1.00  0.00     0.000 C 
BRANCH  15  16
ATOM     16  C   UNL     1      -4.917  22.678 -11.500  1.00  0.00     0.000 C 
BRANCH  16  17
ATOM     17  C   UNL     1      -4.948  24.216 -11.442  1.00  0.00     0.000 C 
BRANCH  17  18
ATOM     18  C   UNL     1      -3.600  24.849 -11.827  1.00  0.00     0.000 C 
BRANCH  18  19
ATOM     19  C   UNL     1      -3.538  26.352 -11.512  1.00  0.00     0.000 C 
BRANCH  19  20
ATOM     20  C   UNL     1      -3.862  26.617 -10.033  1.00  0.00     0.006 C 
BRANCH  20  21
ATOM     21  C   UNL     1      -5.058  27.564  -9.862  1.00  0.00     0.053 C 
BRANCH  21  22
ATOM     22  C   UNL     1      -5.757  27.820 -11.162  1.00  0.00     0.041 C 
ATOM     23  O   UNL     1      -5.372  28.753 -11.915  1.00  0.00    -0.550 OA
ATOM     24  O   UNL     1      -6.858  27.056 -11.522  1.00  0.00    -0.550 OA
ENDBRANCH  21  22
ENDBRANCH  20  21
ENDBRANCH  19  20
ENDBRANCH  18  19
ENDBRANCH  17  18
ENDBRANCH  16  17
ENDBRANCH  15  16
ENDBRANCH  14  15
ENDBRANCH  13  14
ENDBRANCH   1  13
TORSDOF 20
ENDMDL
MODEL 9
REMARK VINA RESULT:    15.385      4.064      7.756
REMARK INTER + INTRA:          32.345
REMARK INTER:                  31.205
REMARK INTRA:                   1.139
REMARK UNBOUND:                -1.028
REMARK SMILES CCCCCCCCCCCCCCCCCCCCCC(=O)[O-]
REMARK SMILES IDX 12 1 11 2 10 3 9 4 8 5 7 6 6 7 5 8 4 9 3 10 2 11 1 12 13 13
REMARK SMILES IDX 14 14 15 15 16 16 17 17 18 18 19 19 20 20 21 21 22 22 23 23
REMARK SMILES IDX 24 24
REMARK H PARENT
REMARK Flexibility Score: inf
ROOT
ATOM      1  C   UNL     1      -4.086  19.833 -10.766  1.00  0.00     0.000 C 
ENDROOT
BRANCH   1   2
ATOM      2  C   UNL     1      -5.430  19.099 -10.904  1.00  0.00     0.000 C 
BRANCH   2   3
ATOM      3  C   UNL     1      -6.626  20.065 -10.989  1.00  0.00     0.000 C 
BRANCH   3   4
ATOM      4  C   UNL     1      -6.410  21.179 -12.025  1.00  0.00    -0.000 C 
BRANCH   4   5
ATOM      5  C   UNL     1      -6.680  20.709 -13.465  1.00  0.00    -0.000 C 
BRANCH   5   6
ATOM      6  C   UNL     1      -6.680  21.881 -14.469  1.00  0.00    -0.000 C 
BRANCH   6   7
ATOM      7  C   UNL     1      -6.687  21.431 -15.941  1.00  0.00    -0.000 C 
BRANCH   7   8
ATOM      8  C   UNL     1      -5.947  20.104 -16.163  1.00  0.00    -0.000 C 
BRANCH   8   9
ATOM      9  C   UNL     1      -5.750  19.826 -17.658  1.00  0.00    -0.000 C 
BRANCH   9  10
ATOM     10  C   UNL     1      -5.629  18.319 -17.923  1.00  0.00    -0.000 C 
BRANCH  10  11
ATOM     11  C   UNL     1      -6.972  17.586 -17.785  1.00  0.00    -0.003 C 
ATOM     12  C   UNL     1      -7.133  16.450 -18.796  1.00  0.00     0.004 C 
ENDBRANCH  10  11
ENDBRANCH   9  10
ENDBRANCH   8   9
ENDBRANCH   7   8
ENDBRANCH   6   7
ENDBRANCH   5   6
ENDBRANCH   4   5
ENDBRANCH   3   4
ENDBRANCH   2   3
ENDBRANCH   1   2
BRANCH   1  13
ATOM     13  C   UNL     1      -2.888  18.871 -10.739  1.00  0.00     0.000 C 
BRANCH  13  14
ATOM     14  C   UNL     1      -3.345  17.416 -10.925  1.00  0.00     0.000 C 
BRANCH  14  15
ATOM     15  C   UNL     1      -2.714  16.452  -9.905  1.00  0.00     0.000 C 
BRANCH  15  16
ATOM     16  C   UNL     1      -2.340  15.066 -10.459  1.00  0.00     0.000 C 
BRANCH  16  17
ATOM     17  C   UNL     1      -3.345  13.970 -10.059  1.00  0.00     0.000 C 
BRANCH  17  18
ATOM     18  C   UNL     1      -4.741  14.201 -10.661  1.00  0.00     0.000 C 
BRANCH  18  19
ATOM     19  C   UNL     1      -4.979  15.664 -11.069  1.00  0.00     0.000 C 
BRANCH  19  20
ATOM     20  C   UNL     1      -6.476  15.941 -11.272  1.00  0.00     0.006 C 
BRANCH  20  21
ATOM     21  C   UNL     1      -6.953  15.554 -12.678  1.00  0.00     0.053 C 
BRANCH  21  22
ATOM     22  C   UNL     1      -8.236  16.236 -13.039  1.00  0.00     0.041 C 
ATOM     23  O   UNL     1      -9.340  15.723 -12.715  1.00  0.00    -0.550 OA
ATOM     24  O   UNL     1      -8.215  17.417 -13.769  1.00  0.00    -0.550 OA
ENDBRANCH  21  22
ENDBRANCH  20  21
ENDBRANCH  19  20
ENDBRANCH  18  19
ENDBRANCH  17  18
ENDBRANCH  16  17
ENDBRANCH  15  16
ENDBRANCH  14  15
ENDBRANCH  13  14
ENDBRANCH   1  13
TORSDOF 20
ENDMDL
