MODEL 1
REMARK VINA RESULT:    -3.440      0.000      0.000
REMARK INTER + INTRA:         -10.284
REMARK INTER:                  -7.864
REMARK INTRA:                  -2.420
REMARK UNBOUND:                -2.420
REMARK SMILES CCCCCCCCCCCCCCCCCCCCCCCC(=O)[O-]
REMARK SMILES IDX 13 1 14 2 15 3 16 4 17 5 18 6 19 7 20 8 21 9 22 10 23 11
REMARK SMILES IDX 24 12 25 13 26 14 12 15 11 16 10 17 9 18 8 19 7 20 6 21 5 22
REMARK SMILES IDX 4 23 3 24 2 25 1 26
REMARK H PARENT
REMARK Flexibility Score: inf
ROOT
ATOM      1  C   UNL     1     -13.793  10.341  -2.359  1.00  0.00     0.000 C 
ENDROOT
BRANCH   1   2
ATOM      2  C   UNL     1     -15.088  11.163  -2.278  1.00  0.00     0.000 C 
BRANCH   2   3
ATOM      3  C   UNL     1     -16.302  10.324  -2.697  1.00  0.00     0.000 C 
BRANCH   3   4
ATOM      4  C   UNL     1     -16.785   9.442  -1.536  1.00  0.00     0.000 C 
BRANCH   4   5
ATOM      5  C   UNL     1     -16.699  10.151  -0.174  1.00  0.00     0.000 C 
BRANCH   5   6
ATOM      6  C   UNL     1     -17.041   9.220   1.003  1.00  0.00     0.000 C 
BRANCH   6   7
ATOM      7  C   UNL     1     -15.877   9.072   1.995  1.00  0.00     0.000 C 
BRANCH   7   8
ATOM      8  C   UNL     1     -16.013  10.007   3.210  1.00  0.00     0.000 C 
BRANCH   8   9
ATOM      9  C   UNL     1     -15.540   9.352   4.519  1.00  0.00     0.000 C 
BRANCH   9  10
ATOM     10  C   UNL     1     -14.025   9.101   4.541  1.00  0.00     0.006 C 
BRANCH  10  11
ATOM     11  C   UNL     1     -13.249  10.409   4.360  1.00  0.00     0.053 C 
BRANCH  11  12
ATOM     12  C   UNL     1     -12.182  10.534   5.402  1.00  0.00     0.041 C 
ATOM     13  O   UNL     1     -11.995   9.605   6.233  1.00  0.00    -0.550 OA
ATOM     14  O   UNL     1     -11.435  11.702   5.495  1.00  0.00    -0.550 OA
ENDBRANCH  11  12
ENDBRANCH  10  11
ENDBRANCH   9  10
ENDBRANCH   8   9
ENDBRANCH   7   8
ENDBRANCH   6   7
ENDBRANCH   5   6
ENDBRANCH   4   5
ENDBRANCH   3   4
ENDBRANCH   2   3
ENDBRANCH   1   2
BRANCH   1  15
ATOM     15  C   UNL     1     -13.541   9.772  -3.764  1.00  0.00     0.000 C 
BRANCH  15  16
ATOM     16  C   UNL     1     -12.820  10.769  -4.689  1.00  0.00     0.000 C 
BRANCH  16  17
ATOM     17  C   UNL     1     -13.723  11.281  -5.821  1.00  0.00     0.000 C 
BRANCH  17  18
ATOM     18  C   UNL     1     -13.896  12.810  -5.793  1.00  0.00    -0.000 C 
BRANCH  18  19
ATOM     19  C   UNL     1     -15.353  13.244  -6.065  1.00  0.00    -0.000 C 
BRANCH  19  20
ATOM     20  C   UNL     1     -16.191  13.434  -4.786  1.00  0.00    -0.000 C 
BRANCH  20  21
ATOM     21  C   UNL     1     -17.716  13.429  -5.005  1.00  0.00    -0.000 C 
BRANCH  21  22
ATOM     22  C   UNL     1     -18.552  13.098  -3.752  1.00  0.00    -0.000 C 
BRANCH  22  23
ATOM     23  C   UNL     1     -18.347  14.049  -2.556  1.00  0.00    -0.000 C 
BRANCH  23  24
ATOM     24  C   UNL     1     -18.011  13.355  -1.223  1.00  0.00    -0.000 C 
BRANCH  24  25
ATOM     25  C   UNL     1     -18.312  14.239  -0.004  1.00  0.00    -0.003 C 
ATOM     26  C   UNL     1     -18.606  15.676  -0.425  1.00  0.00     0.004 C 
ENDBRANCH  24  25
ENDBRANCH  23  24
ENDBRANCH  22  23
ENDBRANCH  21  22
ENDBRANCH  20  21
ENDBRANCH  19  20
ENDBRANCH  18  19
ENDBRANCH  17  18
ENDBRANCH  16  17
ENDBRANCH  15  16
ENDBRANCH   1  15
TORSDOF 22
ENDMDL
MODEL 2
REMARK VINA RESULT:    -3.281      2.814      7.760
REMARK INTER + INTRA:          -9.920
REMARK INTER:                  -7.718
REMARK INTRA:                  -2.202
REMARK UNBOUND:                -2.420
REMARK SMILES CCCCCCCCCCCCCCCCCCCCCCCC(=O)[O-]
REMARK SMILES IDX 13 1 14 2 15 3 16 4 17 5 18 6 19 7 20 8 21 9 22 10 23 11
REMARK SMILES IDX 24 12 25 13 26 14 12 15 11 16 10 17 9 18 8 19 7 20 6 21 5 22
REMARK SMILES IDX 4 23 3 24 2 25 1 26
REMARK H PARENT
REMARK Flexibility Score: inf
ROOT
ATOM      1  C   UNL     1     -12.889  10.750  -3.074  1.00  0.00     0.000 C 
ENDROOT
BRANCH   1   2
ATOM      2  C   UNL     1     -12.762  10.373  -4.558  1.00  0.00     0.000 C 
BRANCH   2   3
ATOM      3  C   UNL     1     -13.504  11.378  -5.448  1.00  0.00     0.000 C 
BRANCH   3   4
ATOM      4  C   UNL     1     -14.715  10.720  -6.125  1.00  0.00     0.000 C 
BRANCH   4   5
ATOM      5  C   UNL     1     -15.991  11.571  -6.019  1.00  0.00     0.000 C 
BRANCH   5   6
ATOM      6  C   UNL     1     -15.693  13.065  -5.794  1.00  0.00     0.000 C 
BRANCH   6   7
ATOM      7  C   UNL     1     -16.854  13.802  -5.110  1.00  0.00     0.000 C 
BRANCH   7   8
ATOM      8  C   UNL     1     -17.505  12.970  -3.990  1.00  0.00     0.000 C 
BRANCH   8   9
ATOM      9  C   UNL     1     -18.904  13.482  -3.608  1.00  0.00     0.000 C 
BRANCH   9  10
ATOM     10  C   UNL     1     -18.862  14.549  -2.504  1.00  0.00     0.006 C 
BRANCH  10  11
ATOM     11  C   UNL     1     -18.290  13.974  -1.205  1.00  0.00     0.053 C 
BRANCH  11  12
ATOM     12  C   UNL     1     -18.397  14.974  -0.097  1.00  0.00     0.041 C 
ATOM     13  O   UNL     1     -18.504  14.587   1.098  1.00  0.00    -0.550 OA
ATOM     14  O   UNL     1     -18.441  16.332  -0.388  1.00  0.00    -0.550 OA
ENDBRANCH  11  12
ENDBRANCH  10  11
ENDBRANCH   9  10
ENDBRANCH   8   9
ENDBRANCH   7   8
ENDBRANCH   6   7
ENDBRANCH   5   6
ENDBRANCH   4   5
ENDBRANCH   3   4
ENDBRANCH   2   3
ENDBRANCH   1   2
BRANCH   1  15
ATOM     15  C   UNL     1     -14.282  11.292  -2.718  1.00  0.00     0.000 C 
BRANCH  15  16
ATOM     16  C   UNL     1     -15.191  10.225  -2.083  1.00  0.00     0.000 C 
BRANCH  16  17
ATOM     17  C   UNL     1     -16.340  10.839  -1.268  1.00  0.00     0.000 C 
BRANCH  17  18
ATOM     18  C   UNL     1     -17.289   9.775  -0.691  1.00  0.00    -0.000 C 
BRANCH  18  19
ATOM     19  C   UNL     1     -17.407   9.859   0.846  1.00  0.00    -0.000 C 
BRANCH  19  20
ATOM     20  C   UNL     1     -16.246   9.176   1.594  1.00  0.00    -0.000 C 
BRANCH  20  21
ATOM     21  C   UNL     1     -15.943   9.757   2.988  1.00  0.00    -0.000 C 
BRANCH  21  22
ATOM     22  C   UNL     1     -14.815   9.041   3.760  1.00  0.00    -0.000 C 
BRANCH  22  23
ATOM     23  C   UNL     1     -13.473   8.930   3.007  1.00  0.00    -0.000 C 
BRANCH  23  24
ATOM     24  C   UNL     1     -12.300   9.689   3.654  1.00  0.00    -0.000 C 
BRANCH  24  25
ATOM     25  C   UNL     1     -12.723  10.483   4.899  1.00  0.00    -0.003 C 
ATOM     26  C   UNL     1     -12.199   9.828   6.173  1.00  0.00     0.004 C 
ENDBRANCH  24  25
ENDBRANCH  23  24
ENDBRANCH  22  23
ENDBRANCH  21  22
ENDBRANCH  20  21
ENDBRANCH  19  20
ENDBRANCH  18  19
ENDBRANCH  17  18
ENDBRANCH  16  17
ENDBRANCH  15  16
ENDBRANCH   1  15
TORSDOF 22
ENDMDL
MODEL 3
REMARK VINA RESULT:    -3.259      4.646     10.164
REMARK INTER + INTRA:          -9.870
REMARK INTER:                  -7.410
REMARK INTRA:                  -2.460
REMARK UNBOUND:                -2.420
REMARK SMILES CCCCCCCCCCCCCCCCCCCCCCCC(=O)[O-]
REMARK SMILES IDX 13 1 14 2 15 3 16 4 17 5 18 6 19 7 20 8 21 9 22 10 23 11
REMARK SMILES IDX 24 12 25 13 26 14 12 15 11 16 10 17 9 18 8 19 7 20 6 21 5 22
REMARK SMILES IDX 4 23 3 24 2 25 1 26
REMARK H PARENT
REMARK Flexibility Score: inf
ROOT
ATOM      1  C   UNL     1     -11.698   9.638   5.140  1.00  0.00     0.000 C 
ENDROOT
BRANCH   1   2
ATOM      2  C   UNL     1     -12.507  10.165   3.945  1.00  0.00     0.000 C 
BRANCH   2   3
ATOM      3  C   UNL     1     -13.136   9.012   3.153  1.00  0.00     0.000 C 
BRANCH   3   4
ATOM      4  C   UNL     1     -14.631   8.875   3.480  1.00  0.00     0.000 C 
BRANCH   4   5
ATOM      5  C   UNL     1     -15.313  10.231   3.724  1.00  0.00     0.000 C 
BRANCH   5   6
ATOM      6  C   UNL     1     -16.843  10.166   3.556  1.00  0.00     0.000 C 
BRANCH   6   7
ATOM      7  C   UNL     1     -17.270   9.270   2.383  1.00  0.00     0.000 C 
BRANCH   7   8
ATOM      8  C   UNL     1     -17.096   9.960   1.018  1.00  0.00     0.000 C 
BRANCH   8   9
ATOM      9  C   UNL     1     -16.496   9.026  -0.046  1.00  0.00     0.000 C 
BRANCH   9  10
ATOM     10  C   UNL     1     -15.315   9.663  -0.794  1.00  0.00     0.006 C 
BRANCH  10  11
ATOM     11  C   UNL     1     -15.770  10.260  -2.129  1.00  0.00     0.053 C 
BRANCH  11  12
ATOM     12  C   UNL     1     -14.666  11.058  -2.750  1.00  0.00     0.041 C 
ATOM     13  O   UNL     1     -13.478  10.638  -2.707  1.00  0.00    -0.550 OA
ATOM     14  O   UNL     1     -14.939  12.296  -3.320  1.00  0.00    -0.550 OA
ENDBRANCH  11  12
ENDBRANCH  10  11
ENDBRANCH   9  10
ENDBRANCH   8   9
ENDBRANCH   7   8
ENDBRANCH   6   7
ENDBRANCH   5   6
ENDBRANCH   4   5
ENDBRANCH   3   4
ENDBRANCH   2   3
ENDBRANCH   1   2
BRANCH   1  15
ATOM     15  C   UNL     1     -12.312  10.037   6.492  1.00  0.00     0.000 C 
BRANCH  15  16
ATOM     16  C   UNL     1     -13.322   9.000   7.015  1.00  0.00     0.000 C 
BRANCH  16  17
ATOM     17  C   UNL     1     -14.500   9.648   7.758  1.00  0.00     0.000 C 
BRANCH  17  18
ATOM     18  C   UNL     1     -15.857   9.329   7.107  1.00  0.00    -0.000 C 
BRANCH  18  19
ATOM     19  C   UNL     1     -16.857  10.500   7.222  1.00  0.00    -0.000 C 
BRANCH  19  20
ATOM     20  C   UNL     1     -18.267  10.067   7.669  1.00  0.00    -0.000 C 
BRANCH  20  21
ATOM     21  C   UNL     1     -18.711  10.620   9.037  1.00  0.00    -0.000 C 
BRANCH  21  22
ATOM     22  C   UNL     1     -17.944  10.052  10.248  1.00  0.00    -0.000 C 
BRANCH  22  23
ATOM     23  C   UNL     1     -16.738  10.892  10.714  1.00  0.00    -0.000 C 
BRANCH  23  24
ATOM     24  C   UNL     1     -16.272  10.618  12.155  1.00  0.00    -0.000 C 
BRANCH  24  25
ATOM     25  C   UNL     1     -16.118  11.903  12.982  1.00  0.00    -0.003 C 
ATOM     26  C   UNL     1     -17.183  12.929  12.607  1.00  0.00     0.004 C 
ENDBRANCH  24  25
ENDBRANCH  23  24
ENDBRANCH  22  23
ENDBRANCH  21  22
ENDBRANCH  20  21
ENDBRANCH  19  20
ENDBRANCH  18  19
ENDBRANCH  17  18
ENDBRANCH  16  17
ENDBRANCH  15  16
ENDBRANCH   1  15
TORSDOF 22
ENDMDL
MODEL 4
REMARK VINA RESULT:    -3.156      4.916     10.648
REMARK INTER + INTRA:          -9.636
REMARK INTER:                  -7.553
REMARK INTRA:                  -2.083
REMARK UNBOUND:                -2.420
REMARK SMILES CCCCCCCCCCCCCCCCCCCCCCCC(=O)[O-]
REMARK SMILES IDX 13 1 14 2 15 3 16 4 17 5 18 6 19 7 20 8 21 9 22 10 23 11
REMARK SMILES IDX 24 12 25 13 26 14 12 15 11 16 10 17 9 18 8 19 7 20 6 21 5 22
REMARK SMILES IDX 4 23 3 24 2 25 1 26
REMARK H PARENT
REMARK Flexibility Score: inf
ROOT
ATOM      1  C   UNL     1     -12.320  10.041   4.715  1.00  0.00     0.000 C 
ENDROOT
BRANCH   1   2
ATOM      2  C   UNL     1     -13.684  10.604   4.285  1.00  0.00     0.000 C 
BRANCH   2   3
ATOM      3  C   UNL     1     -14.537   9.525   3.608  1.00  0.00     0.000 C 
BRANCH   3   4
ATOM      4  C   UNL     1     -15.934   9.453   4.244  1.00  0.00     0.000 C 
BRANCH   4   5
ATOM      5  C   UNL     1     -17.044   9.185   3.214  1.00  0.00     0.000 C 
BRANCH   5   6
ATOM      6  C   UNL     1     -17.266  10.371   2.257  1.00  0.00     0.000 C 
BRANCH   6   7
ATOM      7  C   UNL     1     -16.980  10.008   0.792  1.00  0.00     0.000 C 
BRANCH   7   8
ATOM      8  C   UNL     1     -17.947  10.698  -0.187  1.00  0.00     0.000 C 
BRANCH   8   9
ATOM      9  C   UNL     1     -17.220  11.586  -1.212  1.00  0.00     0.000 C 
BRANCH   9  10
ATOM     10  C   UNL     1     -17.750  13.027  -1.226  1.00  0.00     0.006 C 
BRANCH  10  11
ATOM     11  C   UNL     1     -18.769  13.249  -0.104  1.00  0.00     0.053 C 
BRANCH  11  12
ATOM     12  C   UNL     1     -18.612  14.616   0.485  1.00  0.00     0.041 C 
ATOM     13  O   UNL     1     -18.394  15.607  -0.262  1.00  0.00    -0.550 OA
ATOM     14  O   UNL     1     -18.644  14.786   1.864  1.00  0.00    -0.550 OA
ENDBRANCH  11  12
ENDBRANCH  10  11
ENDBRANCH   9  10
ENDBRANCH   8   9
ENDBRANCH   7   8
ENDBRANCH   6   7
ENDBRANCH   5   6
ENDBRANCH   4   5
ENDBRANCH   3   4
ENDBRANCH   2   3
ENDBRANCH   1   2
BRANCH   1  15
ATOM     15  C   UNL     1     -12.430   9.060   5.893  1.00  0.00     0.000 C 
BRANCH  15  16
ATOM     16  C   UNL     1     -12.777   9.760   7.219  1.00  0.00     0.000 C 
BRANCH  16  17
ATOM     17  C   UNL     1     -13.634   8.881   8.143  1.00  0.00     0.000 C 
BRANCH  17  18
ATOM     18  C   UNL     1     -15.120   8.876   7.743  1.00  0.00    -0.000 C 
BRANCH  18  19
ATOM     19  C   UNL     1     -15.753  10.283   7.806  1.00  0.00    -0.000 C 
BRANCH  19  20
ATOM     20  C   UNL     1     -17.059  10.338   8.621  1.00  0.00    -0.000 C 
BRANCH  20  21
ATOM     21  C   UNL     1     -16.957   9.768  10.048  1.00  0.00    -0.000 C 
BRANCH  21  22
ATOM     22  C   UNL     1     -15.859  10.403  10.925  1.00  0.00    -0.000 C 
BRANCH  22  23
ATOM     23  C   UNL     1     -16.213  10.545  12.419  1.00  0.00    -0.000 C 
BRANCH  23  24
ATOM     24  C   UNL     1     -15.994  11.950  13.009  1.00  0.00    -0.000 C 
BRANCH  24  25
ATOM     25  C   UNL     1     -17.125  12.925  12.650  1.00  0.00    -0.003 C 
ATOM     26  C   UNL     1     -18.490  12.256  12.783  1.00  0.00     0.004 C 
ENDBRANCH  24  25
ENDBRANCH  23  24
ENDBRANCH  22  23
ENDBRANCH  21  22
ENDBRANCH  20  21
ENDBRANCH  19  20
ENDBRANCH  18  19
ENDBRANCH  17  18
ENDBRANCH  16  17
ENDBRANCH  15  16
ENDBRANCH   1  15
TORSDOF 22
ENDMDL
MODEL 5
REMARK VINA RESULT:    -3.139      5.245     11.228
REMARK INTER + INTRA:          -9.595
REMARK INTER:                  -7.721
REMARK INTRA:                  -1.874
REMARK UNBOUND:                -2.420
REMARK SMILES CCCCCCCCCCCCCCCCCCCCCCCC(=O)[O-]
REMARK SMILES IDX 13 1 14 2 15 3 16 4 17 5 18 6 19 7 20 8 21 9 22 10 23 11
REMARK SMILES IDX 24 12 25 13 26 14 12 15 11 16 10 17 9 18 8 19 7 20 6 21 5 22
REMARK SMILES IDX 4 23 3 24 2 25 1 26
REMARK H PARENT
REMARK Flexibility Score: inf
ROOT
ATOM      1  C   UNL     1     -11.910  10.152   5.016  1.00  0.00     0.000 C 
ENDROOT
BRANCH   1   2
ATOM      2  C   UNL     1     -13.002  10.365   3.956  1.00  0.00     0.000 C 
BRANCH   2   3
ATOM      3  C   UNL     1     -13.328   9.054   3.230  1.00  0.00     0.000 C 
BRANCH   3   4
ATOM      4  C   UNL     1     -14.847   8.875   3.080  1.00  0.00     0.000 C 
BRANCH   4   5
ATOM      5  C   UNL     1     -15.641  10.096   3.573  1.00  0.00     0.000 C 
BRANCH   5   6
ATOM      6  C   UNL     1     -16.962  10.294   2.808  1.00  0.00     0.000 C 
BRANCH   6   7
ATOM      7  C   UNL     1     -16.975   9.568   1.454  1.00  0.00     0.000 C 
BRANCH   7   8
ATOM      8  C   UNL     1     -17.307  10.507   0.281  1.00  0.00     0.000 C 
BRANCH   8   9
ATOM      9  C   UNL     1     -16.247  10.463  -0.833  1.00  0.00     0.000 C 
BRANCH   9  10
ATOM     10  C   UNL     1     -16.431  11.582  -1.868  1.00  0.00     0.006 C 
BRANCH  10  11
ATOM     11  C   UNL     1     -15.226  11.660  -2.812  1.00  0.00     0.053 C 
BRANCH  11  12
ATOM     12  C   UNL     1     -15.538  12.530  -3.989  1.00  0.00     0.041 C 
ATOM     13  O   UNL     1     -14.665  12.734  -4.876  1.00  0.00    -0.550 OA
ATOM     14  O   UNL     1     -16.771  13.165  -4.077  1.00  0.00    -0.550 OA
ENDBRANCH  11  12
ENDBRANCH  10  11
ENDBRANCH   9  10
ENDBRANCH   8   9
ENDBRANCH   7   8
ENDBRANCH   6   7
ENDBRANCH   5   6
ENDBRANCH   4   5
ENDBRANCH   3   4
ENDBRANCH   2   3
ENDBRANCH   1   2
BRANCH   1  15
ATOM     15  C   UNL     1     -12.409  10.427   6.444  1.00  0.00     0.000 C 
BRANCH  15  16
ATOM     16  C   UNL     1     -13.315   9.305   6.983  1.00  0.00     0.000 C 
BRANCH  16  17
ATOM     17  C   UNL     1     -14.764   9.769   7.198  1.00  0.00     0.000 C 
BRANCH  17  18
ATOM     18  C   UNL     1     -15.214   9.639   8.663  1.00  0.00    -0.000 C 
BRANCH  18  19
ATOM     19  C   UNL     1     -16.612  10.247   8.907  1.00  0.00    -0.000 C 
BRANCH  19  20
ATOM     20  C   UNL     1     -17.207   9.898  10.285  1.00  0.00    -0.000 C 
BRANCH  20  21
ATOM     21  C   UNL     1     -17.330  11.087  11.257  1.00  0.00    -0.000 C 
BRANCH  21  22
ATOM     22  C   UNL     1     -17.299  10.710  12.753  1.00  0.00    -0.000 C 
BRANCH  22  23
ATOM     23  C   UNL     1     -15.908  10.340  13.307  1.00  0.00    -0.000 C 
BRANCH  23  24
ATOM     24  C   UNL     1     -14.874  11.480  13.280  1.00  0.00    -0.000 C 
BRANCH  24  25
ATOM     25  C   UNL     1     -13.465  10.992  12.912  1.00  0.00    -0.003 C 
ATOM     26  C   UNL     1     -13.514   9.977  11.775  1.00  0.00     0.004 C 
ENDBRANCH  24  25
ENDBRANCH  23  24
ENDBRANCH  22  23
ENDBRANCH  21  22
ENDBRANCH  20  21
ENDBRANCH  19  20
ENDBRANCH  18  19
ENDBRANCH  17  18
ENDBRANCH  16  17
ENDBRANCH  15  16
ENDBRANCH   1  15
TORSDOF 22
ENDMDL
MODEL 6
REMARK VINA RESULT:    -3.058      3.183      5.047
REMARK INTER + INTRA:          -9.411
REMARK INTER:                  -7.370
REMARK INTRA:                  -2.041
REMARK UNBOUND:                -2.420
REMARK SMILES CCCCCCCCCCCCCCCCCCCCCCCC(=O)[O-]
REMARK SMILES IDX 13 1 14 2 15 3 16 4 17 5 18 6 19 7 20 8 21 9 22 10 23 11
REMARK SMILES IDX 24 12 25 13 26 14 12 15 11 16 10 17 9 18 8 19 7 20 6 21 5 22
REMARK SMILES IDX 4 23 3 24 2 25 1 26
REMARK H PARENT
REMARK Flexibility Score: inf
ROOT
ATOM      1  C   UNL     1     -11.916   9.209   0.833  1.00  0.00     0.000 C 
ENDROOT
BRANCH   1   2
ATOM      2  C   UNL     1     -12.802   8.876   2.043  1.00  0.00     0.000 C 
BRANCH   2   3
ATOM      3  C   UNL     1     -12.437   9.746   3.251  1.00  0.00     0.000 C 
BRANCH   3   4
ATOM      4  C   UNL     1     -12.084   8.875   4.467  1.00  0.00     0.000 C 
BRANCH   4   5
ATOM      5  C   UNL     1     -12.117   9.658   5.789  1.00  0.00     0.000 C 
BRANCH   5   6
ATOM      6  C   UNL     1     -12.360  11.165   5.583  1.00  0.00     0.000 C 
BRANCH   6   7
ATOM      7  C   UNL     1     -13.709  11.628   6.153  1.00  0.00     0.000 C 
BRANCH   7   8
ATOM      8  C   UNL     1     -14.808  10.560   6.016  1.00  0.00     0.000 C 
BRANCH   8   9
ATOM      9  C   UNL     1     -16.002  10.813   6.951  1.00  0.00     0.000 C 
BRANCH   9  10
ATOM     10  C   UNL     1     -16.248   9.653   7.926  1.00  0.00     0.006 C 
BRANCH  10  11
ATOM     11  C   UNL     1     -15.818  10.030   9.347  1.00  0.00     0.053 C 
BRANCH  11  12
ATOM     12  C   UNL     1     -17.015  10.344  10.190  1.00  0.00     0.041 C 
ATOM     13  O   UNL     1     -18.097   9.724  10.012  1.00  0.00    -0.550 OA
ATOM     14  O   UNL     1     -16.952  11.365  11.132  1.00  0.00    -0.550 OA
ENDBRANCH  11  12
ENDBRANCH  10  11
ENDBRANCH   9  10
ENDBRANCH   8   9
ENDBRANCH   7   8
ENDBRANCH   6   7
ENDBRANCH   5   6
ENDBRANCH   4   5
ENDBRANCH   3   4
ENDBRANCH   2   3
ENDBRANCH   1   2
BRANCH   1  15
ATOM     15  C   UNL     1     -12.638   8.996  -0.507  1.00  0.00     0.000 C 
BRANCH  15  16
ATOM     16  C   UNL     1     -14.169   8.964  -0.358  1.00  0.00     0.000 C 
BRANCH  16  17
ATOM     17  C   UNL     1     -14.896   9.380  -1.647  1.00  0.00     0.000 C 
BRANCH  17  18
ATOM     18  C   UNL     1     -14.211  10.560  -2.356  1.00  0.00    -0.000 C 
BRANCH  18  19
ATOM     19  C   UNL     1     -14.768  10.800  -3.776  1.00  0.00    -0.000 C 
BRANCH  19  20
ATOM     20  C   UNL     1     -15.351  12.211  -3.983  1.00  0.00    -0.000 C 
BRANCH  20  21
ATOM     21  C   UNL     1     -16.556  12.552  -3.087  1.00  0.00    -0.000 C 
BRANCH  21  22
ATOM     22  C   UNL     1     -17.792  11.651  -3.288  1.00  0.00    -0.000 C 
BRANCH  22  23
ATOM     23  C   UNL     1     -18.398  11.072  -1.993  1.00  0.00    -0.000 C 
BRANCH  23  24
ATOM     24  C   UNL     1     -17.930  11.753  -0.695  1.00  0.00    -0.000 C 
BRANCH  24  25
ATOM     25  C   UNL     1     -17.514  10.745   0.386  1.00  0.00    -0.003 C 
ATOM     26  C   UNL     1     -18.394  10.875   1.626  1.00  0.00     0.004 C 
ENDBRANCH  24  25
ENDBRANCH  23  24
ENDBRANCH  22  23
ENDBRANCH  21  22
ENDBRANCH  20  21
ENDBRANCH  19  20
ENDBRANCH  18  19
ENDBRANCH  17  18
ENDBRANCH  16  17
ENDBRANCH  15  16
ENDBRANCH   1  15
TORSDOF 22
ENDMDL
MODEL 7
REMARK VINA RESULT:    -3.031      4.536      7.973
REMARK INTER + INTRA:          -9.350
REMARK INTER:                  -7.952
REMARK INTRA:                  -1.398
REMARK UNBOUND:                -2.420
REMARK SMILES CCCCCCCCCCCCCCCCCCCCCCCC(=O)[O-]
REMARK SMILES IDX 13 1 14 2 15 3 16 4 17 5 18 6 19 7 20 8 21 9 22 10 23 11
REMARK SMILES IDX 24 12 25 13 26 14 12 15 11 16 10 17 9 18 8 19 7 20 6 21 5 22
REMARK SMILES IDX 4 23 3 24 2 25 1 26
REMARK H PARENT
REMARK Flexibility Score: inf
ROOT
ATOM      1  C   UNL     1     -13.897  10.221   4.407  1.00  0.00     0.000 C 
ENDROOT
BRANCH   1   2
ATOM      2  C   UNL     1     -12.764  10.738   5.306  1.00  0.00     0.000 C 
BRANCH   2   3
ATOM      3  C   UNL     1     -12.499   9.775   6.469  1.00  0.00     0.000 C 
BRANCH   3   4
ATOM      4  C   UNL     1     -13.699   9.730   7.428  1.00  0.00     0.000 C 
BRANCH   4   5
ATOM      5  C   UNL     1     -13.402   8.948   8.717  1.00  0.00     0.000 C 
BRANCH   5   6
ATOM      6  C   UNL     1     -13.972   9.633   9.973  1.00  0.00     0.000 C 
BRANCH   6   7
ATOM      7  C   UNL     1     -15.456   9.308  10.201  1.00  0.00     0.000 C 
BRANCH   7   8
ATOM      8  C   UNL     1     -16.393  10.390   9.637  1.00  0.00     0.000 C 
BRANCH   8   9
ATOM      9  C   UNL     1     -17.655  10.587  10.492  1.00  0.00     0.000 C 
BRANCH   9  10
ATOM     10  C   UNL     1     -17.479  10.081  11.931  1.00  0.00     0.006 C 
BRANCH  10  11
ATOM     11  C   UNL     1     -17.743  11.201  12.943  1.00  0.00     0.053 C 
BRANCH  11  12
ATOM     12  C   UNL     1     -16.649  12.221  12.893  1.00  0.00     0.041 C 
ATOM     13  O   UNL     1     -15.446  11.869  13.031  1.00  0.00    -0.550 OA
ATOM     14  O   UNL     1     -16.961  13.569  12.756  1.00  0.00    -0.550 OA
ENDBRANCH  11  12
ENDBRANCH  10  11
ENDBRANCH   9  10
ENDBRANCH   8   9
ENDBRANCH   7   8
ENDBRANCH   6   7
ENDBRANCH   5   6
ENDBRANCH   4   5
ENDBRANCH   3   4
ENDBRANCH   2   3
ENDBRANCH   1   2
BRANCH   1  15
ATOM     15  C   UNL     1     -15.133  11.134   4.427  1.00  0.00     0.000 C 
BRANCH  15  16
ATOM     16  C   UNL     1     -16.407  10.421   3.939  1.00  0.00     0.000 C 
BRANCH  16  17
ATOM     17  C   UNL     1     -16.112   9.344   2.884  1.00  0.00     0.000 C 
BRANCH  17  18
ATOM     18  C   UNL     1     -16.968   9.509   1.617  1.00  0.00    -0.000 C 
BRANCH  18  19
ATOM     19  C   UNL     1     -17.916  10.725   1.699  1.00  0.00    -0.000 C 
BRANCH  19  20
ATOM     20  C   UNL     1     -18.195  11.387   0.335  1.00  0.00    -0.000 C 
BRANCH  20  21
ATOM     21  C   UNL     1     -17.543  10.684  -0.871  1.00  0.00    -0.000 C 
BRANCH  21  22
ATOM     22  C   UNL     1     -16.523  11.540  -1.649  1.00  0.00    -0.000 C 
BRANCH  22  23
ATOM     23  C   UNL     1     -15.531  10.745  -2.522  1.00  0.00    -0.000 C 
BRANCH  23  24
ATOM     24  C   UNL     1     -14.244  11.501  -2.897  1.00  0.00    -0.000 C 
BRANCH  24  25
ATOM     25  C   UNL     1     -13.077  10.558  -3.226  1.00  0.00    -0.003 C 
ATOM     26  C   UNL     1     -12.948  10.349  -4.732  1.00  0.00     0.004 C 
ENDBRANCH  24  25
ENDBRANCH  23  24
ENDBRANCH  22  23
ENDBRANCH  21  22
ENDBRANCH  20  21
ENDBRANCH  19  20
ENDBRANCH  18  19
ENDBRANCH  17  18
ENDBRANCH  16  17
ENDBRANCH  15  16
ENDBRANCH   1  15
TORSDOF 22
ENDMDL
MODEL 8
REMARK VINA RESULT:    -2.955      3.928      9.567
REMARK INTER + INTRA:          -9.176
REMARK INTER:                  -7.232
REMARK INTRA:                  -1.944
REMARK UNBOUND:                -2.420
REMARK SMILES CCCCCCCCCCCCCCCCCCCCCCCC(=O)[O-]
REMARK SMILES IDX 13 1 14 2 15 3 16 4 17 5 18 6 19 7 20 8 21 9 22 10 23 11
REMARK SMILES IDX 24 12 25 13 26 14 12 15 11 16 10 17 9 18 8 19 7 20 6 21 5 22
REMARK SMILES IDX 4 23 3 24 2 25 1 26
REMARK H PARENT
REMARK Flexibility Score: inf
ROOT
ATOM      1  C   UNL     1     -13.007   8.877   2.139  1.00  0.00     0.000 C 
ENDROOT
BRANCH   1   2
ATOM      2  C   UNL     1     -12.286   8.945   0.783  1.00  0.00     0.000 C 
BRANCH   2   3
ATOM      3  C   UNL     1     -13.291   8.996  -0.374  1.00  0.00     0.000 C 
BRANCH   3   4
ATOM      4  C   UNL     1     -12.805   9.947  -1.478  1.00  0.00     0.000 C 
BRANCH   4   5
ATOM      5  C   UNL     1     -13.932  10.376  -2.432  1.00  0.00     0.000 C 
BRANCH   5   6
ATOM      6  C   UNL     1     -15.218   9.550  -2.243  1.00  0.00     0.000 C 
BRANCH   6   7
ATOM      7  C   UNL     1     -16.491  10.392  -2.420  1.00  0.00     0.000 C 
BRANCH   7   8
ATOM      8  C   UNL     1     -16.709  11.386  -1.265  1.00  0.00     0.000 C 
BRANCH   8   9
ATOM      9  C   UNL     1     -17.991  11.096  -0.467  1.00  0.00     0.000 C 
BRANCH   9  10
ATOM     10  C   UNL     1     -17.896   9.803   0.356  1.00  0.00     0.006 C 
BRANCH  10  11
ATOM     11  C   UNL     1     -16.625   9.787   1.210  1.00  0.00     0.053 C 
BRANCH  11  12
ATOM     12  C   UNL     1     -16.968   9.908   2.663  1.00  0.00     0.041 C 
ATOM     13  O   UNL     1     -16.061  10.122   3.513  1.00  0.00    -0.550 OA
ATOM     14  O   UNL     1     -18.279   9.723   3.085  1.00  0.00    -0.550 OA
ENDBRANCH  11  12
ENDBRANCH  10  11
ENDBRANCH   9  10
ENDBRANCH   8   9
ENDBRANCH   7   8
ENDBRANCH   6   7
ENDBRANCH   5   6
ENDBRANCH   4   5
ENDBRANCH   3   4
ENDBRANCH   2   3
ENDBRANCH   1   2
BRANCH   1  15
ATOM     15  C   UNL     1     -12.504   9.938   3.130  1.00  0.00     0.000 C 
BRANCH  15  16
ATOM     16  C   UNL     1     -12.066   9.333   4.476  1.00  0.00     0.000 C 
BRANCH  16  17
ATOM     17  C   UNL     1     -11.832  10.402   5.554  1.00  0.00     0.000 C 
BRANCH  17  18
ATOM     18  C   UNL     1     -13.097  11.223   5.858  1.00  0.00    -0.000 C 
BRANCH  18  19
ATOM     19  C   UNL     1     -14.203  10.376   6.525  1.00  0.00    -0.000 C 
BRANCH  19  20
ATOM     20  C   UNL     1     -13.749   9.670   7.817  1.00  0.00    -0.000 C 
BRANCH  20  21
ATOM     21  C   UNL     1     -14.852   8.879   8.545  1.00  0.00    -0.000 C 
BRANCH  21  22
ATOM     22  C   UNL     1     -15.328   9.500   9.874  1.00  0.00    -0.000 C 
BRANCH  22  23
ATOM     23  C   UNL     1     -14.203   9.920  10.842  1.00  0.00    -0.000 C 
BRANCH  23  24
ATOM     24  C   UNL     1     -14.059   9.034  12.093  1.00  0.00    -0.000 C 
BRANCH  24  25
ATOM     25  C   UNL     1     -14.589   9.715  13.364  1.00  0.00    -0.003 C 
ATOM     26  C   UNL     1     -14.957  11.171  13.095  1.00  0.00     0.004 C 
ENDBRANCH  24  25
ENDBRANCH  23  24
ENDBRANCH  22  23
ENDBRANCH  21  22
ENDBRANCH  20  21
ENDBRANCH  19  20
ENDBRANCH  18  19
ENDBRANCH  17  18
ENDBRANCH  16  17
ENDBRANCH  15  16
ENDBRANCH   1  15
TORSDOF 22
ENDMDL
