MODEL 1
REMARK VINA RESULT:    -6.115      0.000      0.000
REMARK INTER + INTRA:          -9.418
REMARK INTER:                  -8.081
REMARK INTRA:                  -1.337
REMARK UNBOUND:                -1.337
REMARK SMILES CC[C@H](C=C[C@H](C)[C@@H]1CC[C@H]2[C@@H]3CC=C4C[C@@H](O)CC[C@@]4(C)[C@@H]3CC[C@]21C)C(C)C
REMARK SMILES IDX 6 1 7 2 5 3 4 4 3 5 2 6 1 7 28 8 29 9 30 10 8 11 9 12 26 13
REMARK SMILES IDX 10 14 11 15 25 16 27 17 12 18 24 19 23 20 13 21 21 22 14 23
REMARK SMILES IDX 15 24 20 25 22 26 16 27 19 28 17 29 18 30
REMARK H PARENT 18 31
REMARK Flexibility Score: inf
ROOT
ATOM      1  C   UNL     1      22.881  22.785 -13.857  1.00  0.00     0.012 C 
ATOM      2  C   UNL     1      22.237  21.517 -14.485  1.00  0.00     0.012 C 
ENDROOT
BRANCH   1   3
ATOM      3  C   UNL     1      24.307  22.430 -13.451  1.00  0.00    -0.028 C 
ATOM      4  C   UNL     1      24.740  22.521 -12.176  1.00  0.00    -0.027 C 
BRANCH   4   5
ATOM      5  C   UNL     1      26.155  22.155 -11.753  1.00  0.00     0.014 C 
BRANCH   5   6
ATOM      6  C   UNL     1      26.678  20.975 -12.622  1.00  0.00     0.004 C 
ATOM      7  C   UNL     1      26.572  19.610 -11.950  1.00  0.00     0.004 C 
ENDBRANCH   5   6
BRANCH   5   8
ATOM      8  C   UNL     1      27.039  23.452 -11.775  1.00  0.00    -0.011 C 
ATOM      9  C   UNL     1      27.838  23.610 -13.079  1.00  0.00     0.008 C 
ATOM     10  C   UNL     1      26.263  24.737 -11.441  1.00  0.00     0.008 C 
ENDBRANCH   5   8
ENDBRANCH   4   5
ENDBRANCH   1   3
BRANCH   1  11
ATOM     11  C   UNL     1      22.830  24.022 -14.848  1.00  0.00     0.002 C 
ATOM     12  C   UNL     1      24.028  24.044 -15.802  1.00  0.00     0.005 C 
ATOM     13  C   UNL     1      22.899  25.472 -14.212  1.00  0.00    -0.026 C 
ATOM     14  C   UNL     1      25.120  24.758 -15.035  1.00  0.00     0.005 C 
ATOM     15  C   UNL     1      24.401  25.918 -14.327  1.00  0.00    -0.001 C 
ATOM     16  C   UNL     1      21.977  26.399 -15.048  1.00  0.00     0.007 C 
ATOM     17  C   UNL     1      22.454  25.540 -12.720  1.00  0.00     0.012 C 
ATOM     18  C   UNL     1      24.679  27.263 -15.104  1.00  0.00     0.000 C 
ATOM     19  C   UNL     1      22.156  27.873 -14.691  1.00  0.00     0.005 C 
ATOM     20  C   UNL     1      23.577  28.381 -15.014  1.00  0.00     0.003 C 
ATOM     21  C   UNL     1      26.100  27.779 -14.746  1.00  0.00     0.031 C 
ATOM     22  C   UNL     1      23.991  29.647 -14.186  1.00  0.00    -0.008 C 
ATOM     23  C   UNL     1      26.296  29.239 -15.037  1.00  0.00    -0.027 C 
ATOM     24  C   UNL     1      25.346  30.141 -14.719  1.00  0.00    -0.065 C 
ATOM     25  C   UNL     1      22.915  30.756 -14.402  1.00  0.00     0.014 C 
ATOM     26  C   UNL     1      24.123  29.317 -12.670  1.00  0.00     0.016 C 
ATOM     27  C   UNL     1      25.758  31.604 -14.626  1.00  0.00     0.063 C 
ATOM     28  C   UNL     1      23.385  32.140 -13.946  1.00  0.00     0.033 C 
ATOM     29  C   UNL     1      24.597  32.595 -14.765  1.00  0.00     0.118 C 
BRANCH  29  30
ATOM     30  O   UNL     1      24.263  32.735 -16.125  1.00  0.00    -0.393 OA
ATOM     31  H   UNL     1      23.669  31.975 -16.357  1.00  0.00     0.210 HD
ENDBRANCH  29  30
ENDBRANCH   1  11
TORSDOF 6
ENDMDL
MODEL 2
REMARK VINA RESULT:    -6.112      2.541      4.317
REMARK INTER + INTRA:          -9.415
REMARK INTER:                  -8.013
REMARK INTRA:                  -1.401
REMARK UNBOUND:                -1.337
REMARK SMILES CC[C@H](C=C[C@H](C)[C@@H]1CC[C@H]2[C@@H]3CC=C4C[C@@H](O)CC[C@@]4(C)[C@@H]3CC[C@]21C)C(C)C
REMARK SMILES IDX 6 1 7 2 5 3 4 4 3 5 2 6 1 7 28 8 29 9 30 10 8 11 9 12 26 13
REMARK SMILES IDX 10 14 11 15 25 16 27 17 12 18 24 19 23 20 13 21 21 22 14 23
REMARK SMILES IDX 15 24 20 25 22 26 16 27 19 28 17 29 18 30
REMARK H PARENT 18 31
REMARK Flexibility Score: inf
ROOT
ATOM      1  C   UNL     1      25.633  20.424 -11.562  1.00  0.00     0.012 C 
ATOM      2  C   UNL     1      26.188  18.977 -11.674  1.00  0.00     0.012 C 
ENDROOT
BRANCH   1   3
ATOM      3  C   UNL     1      25.624  20.806 -10.086  1.00  0.00    -0.028 C 
ATOM      4  C   UNL     1      24.529  21.304  -9.474  1.00  0.00    -0.027 C 
BRANCH   4   5
ATOM      5  C   UNL     1      24.500  21.675  -7.998  1.00  0.00     0.014 C 
BRANCH   5   6
ATOM      6  C   UNL     1      25.719  21.040  -7.270  1.00  0.00     0.004 C 
ATOM      7  C   UNL     1      25.394  20.459  -5.898  1.00  0.00     0.004 C 
ENDBRANCH   5   6
BRANCH   5   8
ATOM      8  C   UNL     1      24.378  23.235  -7.873  1.00  0.00    -0.011 C 
ATOM      9  C   UNL     1      25.708  23.912  -7.507  1.00  0.00     0.008 C 
ATOM     10  C   UNL     1      23.731  23.907  -9.096  1.00  0.00     0.008 C 
ENDBRANCH   5   8
ENDBRANCH   4   5
ENDBRANCH   1   3
BRANCH   1  11
ATOM     11  C   UNL     1      26.470  21.444 -12.440  1.00  0.00     0.002 C 
ATOM     12  C   UNL     1      27.630  22.062 -11.654  1.00  0.00     0.005 C 
ATOM     13  C   UNL     1      25.722  22.735 -12.975  1.00  0.00    -0.026 C 
ATOM     14  C   UNL     1      27.024  23.246 -10.934  1.00  0.00     0.005 C 
ATOM     15  C   UNL     1      26.081  23.885 -11.966  1.00  0.00    -0.001 C 
ATOM     16  C   UNL     1      26.269  23.046 -14.393  1.00  0.00     0.007 C 
ATOM     17  C   UNL     1      24.173  22.589 -13.060  1.00  0.00     0.012 C 
ATOM     18  C   UNL     1      26.762  25.170 -12.578  1.00  0.00     0.000 C 
ATOM     19  C   UNL     1      25.812  24.409 -14.907  1.00  0.00     0.005 C 
ATOM     20  C   UNL     1      26.353  25.568 -14.044  1.00  0.00     0.003 C 
ATOM     21  C   UNL     1      26.637  26.347 -11.571  1.00  0.00     0.031 C 
ATOM     22  C   UNL     1      25.501  26.880 -14.155  1.00  0.00    -0.008 C 
ATOM     23  C   UNL     1      26.816  27.697 -12.204  1.00  0.00    -0.027 C 
ATOM     24  C   UNL     1      26.235  27.989 -13.385  1.00  0.00    -0.065 C 
ATOM     25  C   UNL     1      25.397  27.278 -15.660  1.00  0.00     0.014 C 
ATOM     26  C   UNL     1      24.078  26.688 -13.552  1.00  0.00     0.016 C 
ATOM     27  C   UNL     1      26.082  29.459 -13.756  1.00  0.00     0.063 C 
ATOM     28  C   UNL     1      24.908  28.714 -15.865  1.00  0.00     0.033 C 
ATOM     29  C   UNL     1      25.897  29.713 -15.256  1.00  0.00     0.118 C 
BRANCH  29  30
ATOM     30  O   UNL     1      27.146  29.640 -15.899  1.00  0.00    -0.393 OA
ATOM     31  H   UNL     1      27.103  30.241 -16.686  1.00  0.00     0.210 HD
ENDBRANCH  29  30
ENDBRANCH   1  11
TORSDOF 6
ENDMDL
MODEL 3
REMARK VINA RESULT:    -5.909      1.362      1.813
REMARK INTER + INTRA:          -9.146
REMARK INTER:                  -7.857
REMARK INTRA:                  -1.289
REMARK UNBOUND:                -1.337
REMARK SMILES CC[C@H](C=C[C@H](C)[C@@H]1CC[C@H]2[C@@H]3CC=C4C[C@@H](O)CC[C@@]4(C)[C@@H]3CC[C@]21C)C(C)C
REMARK SMILES IDX 6 1 7 2 5 3 4 4 3 5 2 6 1 7 28 8 29 9 30 10 8 11 9 12 26 13
REMARK SMILES IDX 10 14 11 15 25 16 27 17 12 18 24 19 23 20 13 21 21 22 14 23
REMARK SMILES IDX 15 24 20 25 22 26 16 27 19 28 17 29 18 30
REMARK H PARENT 18 31
REMARK Flexibility Score: inf
ROOT
ATOM      1  C   UNL     1      24.078  22.768 -13.667  1.00  0.00     0.012 C 
ATOM      2  C   UNL     1      23.129  21.983 -14.614  1.00  0.00     0.012 C 
ENDROOT
BRANCH   1   3
ATOM      3  C   UNL     1      25.087  21.779 -13.094  1.00  0.00    -0.028 C 
ATOM      4  C   UNL     1      25.170  21.513 -11.774  1.00  0.00    -0.027 C 
BRANCH   4   5
ATOM      5  C   UNL     1      26.161  20.516 -11.190  1.00  0.00     0.014 C 
BRANCH   5   6
ATOM      6  C   UNL     1      26.655  19.548 -12.303  1.00  0.00     0.004 C 
ATOM      7  C   UNL     1      26.518  18.070 -11.951  1.00  0.00     0.004 C 
ENDBRANCH   5   6
BRANCH   5   8
ATOM      8  C   UNL     1      27.288  21.308 -10.437  1.00  0.00    -0.011 C 
ATOM      9  C   UNL     1      28.575  21.451 -11.264  1.00  0.00     0.008 C 
ATOM     10  C   UNL     1      26.828  22.669  -9.886  1.00  0.00     0.008 C 
ENDBRANCH   5   8
ENDBRANCH   4   5
ENDBRANCH   1   3
BRANCH   1  11
ATOM     11  C   UNL     1      24.781  23.979 -14.410  1.00  0.00     0.002 C 
ATOM     12  C   UNL     1      26.188  24.248 -13.867  1.00  0.00     0.005 C 
ATOM     13  C   UNL     1      24.108  25.408 -14.281  1.00  0.00    -0.026 C 
ATOM     14  C   UNL     1      25.976  25.159 -12.677  1.00  0.00     0.005 C 
ATOM     15  C   UNL     1      24.888  26.146 -13.134  1.00  0.00    -0.001 C 
ATOM     16  C   UNL     1      24.288  26.140 -15.637  1.00  0.00     0.007 C 
ATOM     17  C   UNL     1      22.590  25.372 -13.931  1.00  0.00     0.012 C 
ATOM     18  C   UNL     1      25.553  27.526 -13.511  1.00  0.00     0.000 C 
ATOM     19  C   UNL     1      23.907  27.616 -15.557  1.00  0.00     0.005 C 
ATOM     20  C   UNL     1      24.822  28.401 -14.594  1.00  0.00     0.003 C 
ATOM     21  C   UNL     1      25.877  28.312 -12.210  1.00  0.00     0.031 C 
ATOM     22  C   UNL     1      24.169  29.717 -14.044  1.00  0.00    -0.008 C 
ATOM     23  C   UNL     1      26.068  29.785 -12.434  1.00  0.00    -0.027 C 
ATOM     24  C   UNL     1      25.235  30.475 -13.238  1.00  0.00    -0.065 C 
ATOM     25  C   UNL     1      23.717  30.590 -15.255  1.00  0.00     0.014 C 
ATOM     26  C   UNL     1      22.952  29.406 -13.123  1.00  0.00     0.016 C 
ATOM     27  C   UNL     1      25.199  31.991 -13.088  1.00  0.00     0.063 C 
ATOM     28  C   UNL     1      23.401  32.036 -14.862  1.00  0.00     0.033 C 
ATOM     29  C   UNL     1      24.650  32.731 -14.314  1.00  0.00     0.118 C 
BRANCH  29  30
ATOM     30  O   UNL     1      25.654  32.813 -15.297  1.00  0.00    -0.393 OA
ATOM     31  H   UNL     1      25.382  32.216 -16.040  1.00  0.00     0.210 HD
ENDBRANCH  29  30
ENDBRANCH   1  11
TORSDOF 6
ENDMDL
MODEL 4
REMARK VINA RESULT:    -5.832      2.976      4.596
REMARK INTER + INTRA:          -9.044
REMARK INTER:                  -7.953
REMARK INTRA:                  -1.091
REMARK UNBOUND:                -1.337
REMARK SMILES CC[C@H](C=C[C@H](C)[C@@H]1CC[C@H]2[C@@H]3CC=C4C[C@@H](O)CC[C@@]4(C)[C@@H]3CC[C@]21C)C(C)C
REMARK SMILES IDX 6 1 7 2 5 3 4 4 3 5 2 6 1 7 28 8 29 9 30 10 8 11 9 12 26 13
REMARK SMILES IDX 10 14 11 15 25 16 27 17 12 18 24 19 23 20 13 21 21 22 14 23
REMARK SMILES IDX 15 24 20 25 22 26 16 27 19 28 17 29 18 30
REMARK H PARENT 18 31
REMARK Flexibility Score: inf
ROOT
ATOM      1  C   UNL     1      25.029  21.129 -11.267  1.00  0.00     0.012 C 
ATOM      2  C   UNL     1      24.760  19.785 -11.998  1.00  0.00     0.012 C 
ENDROOT
BRANCH   1   3
ATOM      3  C   UNL     1      25.548  20.804  -9.871  1.00  0.00    -0.028 C 
ATOM      4  C   UNL     1      24.868  21.128  -8.751  1.00  0.00    -0.027 C 
BRANCH   4   5
ATOM      5  C   UNL     1      25.367  20.796  -7.352  1.00  0.00     0.014 C 
BRANCH   5   6
ATOM      6  C   UNL     1      25.830  22.095  -6.633  1.00  0.00     0.004 C 
ATOM      7  C   UNL     1      27.193  22.607  -7.085  1.00  0.00     0.004 C 
ENDBRANCH   5   6
BRANCH   5   8
ATOM      8  C   UNL     1      24.260  19.969  -6.606  1.00  0.00    -0.011 C 
ATOM      9  C   UNL     1      23.460  19.055  -7.547  1.00  0.00     0.008 C 
ATOM     10  C   UNL     1      24.783  19.191  -5.387  1.00  0.00     0.008 C 
ENDBRANCH   5   8
ENDBRANCH   4   5
ENDBRANCH   1   3
BRANCH   1  11
ATOM     11  C   UNL     1      26.030  22.050 -12.079  1.00  0.00     0.002 C 
ATOM     12  C   UNL     1      27.162  22.587 -11.198  1.00  0.00     0.005 C 
ATOM     13  C   UNL     1      25.452  23.386 -12.707  1.00  0.00    -0.026 C 
ATOM     14  C   UNL     1      26.598  23.837 -10.561  1.00  0.00     0.005 C 
ATOM     15  C   UNL     1      25.815  24.528 -11.690  1.00  0.00    -0.001 C 
ATOM     16  C   UNL     1      26.154  23.611 -14.071  1.00  0.00     0.007 C 
ATOM     17  C   UNL     1      23.910  23.371 -12.936  1.00  0.00     0.012 C 
ATOM     18  C   UNL     1      26.661  25.733 -12.257  1.00  0.00     0.000 C 
ATOM     19  C   UNL     1      25.869  24.995 -14.652  1.00  0.00     0.005 C 
ATOM     20  C   UNL     1      26.427  26.125 -13.762  1.00  0.00     0.003 C 
ATOM     21  C   UNL     1      26.547  26.942 -11.288  1.00  0.00     0.031 C 
ATOM     22  C   UNL     1      25.708  27.502 -13.978  1.00  0.00    -0.008 C 
ATOM     23  C   UNL     1      26.902  28.254 -11.926  1.00  0.00    -0.027 C 
ATOM     24  C   UNL     1      26.461  28.564 -13.161  1.00  0.00    -0.065 C 
ATOM     25  C   UNL     1      25.779  27.868 -15.493  1.00  0.00     0.014 C 
ATOM     26  C   UNL     1      24.224  27.449 -13.509  1.00  0.00     0.016 C 
ATOM     27  C   UNL     1      26.474  30.031 -13.572  1.00  0.00     0.063 C 
ATOM     28  C   UNL     1      25.440  29.335 -15.769  1.00  0.00     0.033 C 
ATOM     29  C   UNL     1      26.452  30.260 -15.087  1.00  0.00     0.118 C 
BRANCH  29  30
ATOM     30  O   UNL     1      27.744  30.064 -15.607  1.00  0.00    -0.393 OA
ATOM     31  H   UNL     1      27.833  29.097 -15.808  1.00  0.00     0.210 HD
ENDBRANCH  29  30
ENDBRANCH   1  11
TORSDOF 6
ENDMDL
MODEL 5
REMARK VINA RESULT:    -5.739      7.891     12.341
REMARK INTER + INTRA:          -8.922
REMARK INTER:                  -7.683
REMARK INTRA:                  -1.238
REMARK UNBOUND:                -1.337
REMARK SMILES CC[C@H](C=C[C@H](C)[C@@H]1CC[C@H]2[C@@H]3CC=C4C[C@@H](O)CC[C@@]4(C)[C@@H]3CC[C@]21C)C(C)C
REMARK SMILES IDX 6 1 7 2 5 3 4 4 3 5 2 6 1 7 28 8 29 9 30 10 8 11 9 12 26 13
REMARK SMILES IDX 10 14 11 15 25 16 27 17 12 18 24 19 23 20 13 21 21 22 14 23
REMARK SMILES IDX 15 24 20 25 22 26 16 27 19 28 17 29 18 30
REMARK H PARENT 18 31
REMARK Flexibility Score: inf
ROOT
ATOM      1  C   UNL     1      25.226  23.700  -7.782  1.00  0.00     0.012 C 
ATOM      2  C   UNL     1      24.442  25.017  -7.526  1.00  0.00     0.012 C 
ENDROOT
BRANCH   1   3
ATOM      3  C   UNL     1      25.746  23.740  -9.215  1.00  0.00    -0.028 C 
ATOM      4  C   UNL     1      25.459  22.776 -10.116  1.00  0.00    -0.027 C 
BRANCH   4   5
ATOM      5  C   UNL     1      25.958  22.811 -11.554  1.00  0.00     0.014 C 
BRANCH   5   6
ATOM      6  C   UNL     1      26.748  24.127 -11.808  1.00  0.00     0.004 C 
ATOM      7  C   UNL     1      27.421  24.197 -13.174  1.00  0.00     0.004 C 
ENDBRANCH   5   6
BRANCH   5   8
ATOM      8  C   UNL     1      26.745  21.484 -11.846  1.00  0.00    -0.011 C 
ATOM      9  C   UNL     1      27.998  21.327 -10.971  1.00  0.00     0.008 C 
ATOM     10  C   UNL     1      25.870  20.220 -11.796  1.00  0.00     0.008 C 
ENDBRANCH   5   8
ENDBRANCH   4   5
ENDBRANCH   1   3
BRANCH   1  11
ATOM     11  C   UNL     1      26.391  23.494  -6.728  1.00  0.00     0.002 C 
ATOM     12  C   UNL     1      27.637  22.868  -7.362  1.00  0.00     0.005 C 
ATOM     13  C   UNL     1      26.117  22.508  -5.517  1.00  0.00    -0.026 C 
ATOM     14  C   UNL     1      27.388  21.376  -7.313  1.00  0.00     0.005 C 
ATOM     15  C   UNL     1      26.756  21.134  -5.933  1.00  0.00    -0.001 C 
ATOM     16  C   UNL     1      26.819  23.092  -4.263  1.00  0.00     0.007 C 
ATOM     17  C   UNL     1      24.608  22.298  -5.191  1.00  0.00     0.012 C 
ATOM     18  C   UNL     1      27.840  20.538  -4.953  1.00  0.00     0.000 C 
ATOM     19  C   UNL     1      26.843  22.107  -3.097  1.00  0.00     0.005 C 
ATOM     20  C   UNL     1      27.665  20.843  -3.421  1.00  0.00     0.003 C 
ATOM     21  C   UNL     1      28.029  19.025  -5.256  1.00  0.00     0.031 C 
ATOM     22  C   UNL     1      27.275  19.601  -2.545  1.00  0.00    -0.008 C 
ATOM     23  C   UNL     1      28.659  18.264  -4.125  1.00  0.00    -0.027 C 
ATOM     24  C   UNL     1      28.270  18.472  -2.851  1.00  0.00    -0.065 C 
ATOM     25  C   UNL     1      27.390  19.999  -1.041  1.00  0.00     0.014 C 
ATOM     26  C   UNL     1      25.829  19.115  -2.860  1.00  0.00     0.016 C 
ATOM     27  C   UNL     1      28.607  17.399  -1.823  1.00  0.00     0.063 C 
ATOM     28  C   UNL     1      27.388  18.790  -0.102  1.00  0.00     0.033 C 
ATOM     29  C   UNL     1      28.601  17.894  -0.372  1.00  0.00     0.118 C 
BRANCH  29  30
ATOM     30  O   UNL     1      29.801  18.579  -0.108  1.00  0.00    -0.393 OA
ATOM     31  H   UNL     1      30.351  18.531  -0.932  1.00  0.00     0.210 HD
ENDBRANCH  29  30
ENDBRANCH   1  11
TORSDOF 6
ENDMDL
MODEL 6
REMARK VINA RESULT:    -5.733     13.474     15.912
REMARK INTER + INTRA:          -8.914
REMARK INTER:                  -7.846
REMARK INTRA:                  -1.067
REMARK UNBOUND:                -1.337
REMARK SMILES CC[C@H](C=C[C@H](C)[C@@H]1CC[C@H]2[C@@H]3CC=C4C[C@@H](O)CC[C@@]4(C)[C@@H]3CC[C@]21C)C(C)C
REMARK SMILES IDX 6 1 7 2 5 3 4 4 3 5 2 6 1 7 28 8 29 9 30 10 8 11 9 12 26 13
REMARK SMILES IDX 10 14 11 15 25 16 27 17 12 18 24 19 23 20 13 21 21 22 14 23
REMARK SMILES IDX 15 24 20 25 22 26 16 27 19 28 17 29 18 30
REMARK H PARENT 18 31
REMARK Flexibility Score: inf
ROOT
ATOM      1  C   UNL     1      24.622  18.640  -0.051  1.00  0.00     0.012 C 
ATOM      2  C   UNL     1      25.267  17.541   0.840  1.00  0.00     0.012 C 
ENDROOT
BRANCH   1   3
ATOM      3  C   UNL     1      25.271  18.562  -1.428  1.00  0.00    -0.028 C 
ATOM      4  C   UNL     1      25.897  17.451  -1.871  1.00  0.00    -0.027 C 
BRANCH   4   5
ATOM      5  C   UNL     1      26.536  17.353  -3.249  1.00  0.00     0.014 C 
BRANCH   5   6
ATOM      6  C   UNL     1      25.489  17.710  -4.343  1.00  0.00     0.004 C 
ATOM      7  C   UNL     1      24.610  16.539  -4.771  1.00  0.00     0.004 C 
ENDBRANCH   5   6
BRANCH   5   8
ATOM      8  C   UNL     1      27.845  18.220  -3.260  1.00  0.00    -0.011 C 
ATOM      9  C   UNL     1      28.884  17.747  -2.233  1.00  0.00     0.008 C 
ATOM     10  C   UNL     1      28.473  18.376  -4.655  1.00  0.00     0.008 C 
ENDBRANCH   5   8
ENDBRANCH   4   5
ENDBRANCH   1   3
BRANCH   1  11
ATOM     11  C   UNL     1      23.046  18.489  -0.122  1.00  0.00     0.002 C 
ATOM     12  C   UNL     1      22.516  18.658  -1.549  1.00  0.00     0.005 C 
ATOM     13  C   UNL     1      22.173  19.548   0.672  1.00  0.00    -0.026 C 
ATOM     14  C   UNL     1      22.338  20.151  -1.722  1.00  0.00     0.005 C 
ATOM     15  C   UNL     1      21.744  20.627  -0.386  1.00  0.00    -0.001 C 
ATOM     16  C   UNL     1      20.936  18.807   1.245  1.00  0.00     0.007 C 
ATOM     17  C   UNL     1      22.923  20.246   1.846  1.00  0.00     0.012 C 
ATOM     18  C   UNL     1      20.194  20.870  -0.555  1.00  0.00     0.000 C 
ATOM     19  C   UNL     1      19.893  19.767   1.811  1.00  0.00     0.005 C 
ATOM     20  C   UNL     1      19.298  20.686   0.724  1.00  0.00     0.003 C 
ATOM     21  C   UNL     1      19.962  22.230  -1.270  1.00  0.00     0.031 C 
ATOM     22  C   UNL     1      18.686  22.013   1.294  1.00  0.00    -0.008 C 
ATOM     23  C   UNL     1      18.579  22.781  -1.073  1.00  0.00    -0.027 C 
ATOM     24  C   UNL     1      17.990  22.749   0.139  1.00  0.00    -0.065 C 
ATOM     25  C   UNL     1      17.632  21.646   2.384  1.00  0.00     0.014 C 
ATOM     26  C   UNL     1      19.787  22.932   1.902  1.00  0.00     0.016 C 
ATOM     27  C   UNL     1      16.813  23.686   0.379  1.00  0.00     0.063 C 
ATOM     28  C   UNL     1      16.719  22.819   2.750  1.00  0.00     0.033 C 
ATOM     29  C   UNL     1      15.899  23.265   1.536  1.00  0.00     0.118 C 
BRANCH  29  30
ATOM     30  O   UNL     1      15.042  22.236   1.102  1.00  0.00    -0.393 OA
ATOM     31  H   UNL     1      15.287  21.420   1.610  1.00  0.00     0.210 HD
ENDBRANCH  29  30
ENDBRANCH   1  11
TORSDOF 6
ENDMDL
MODEL 7
REMARK VINA RESULT:    -5.628      2.034      3.032
REMARK INTER + INTRA:          -8.775
REMARK INTER:                  -7.571
REMARK INTRA:                  -1.203
REMARK UNBOUND:                -1.337
REMARK SMILES CC[C@H](C=C[C@H](C)[C@@H]1CC[C@H]2[C@@H]3CC=C4C[C@@H](O)CC[C@@]4(C)[C@@H]3CC[C@]21C)C(C)C
REMARK SMILES IDX 6 1 7 2 5 3 4 4 3 5 2 6 1 7 28 8 29 9 30 10 8 11 9 12 26 13
REMARK SMILES IDX 10 14 11 15 25 16 27 17 12 18 24 19 23 20 13 21 21 22 14 23
REMARK SMILES IDX 15 24 20 25 22 26 16 27 19 28 17 29 18 30
REMARK H PARENT 18 31
REMARK Flexibility Score: inf
ROOT
ATOM      1  C   UNL     1      25.541  23.003 -12.829  1.00  0.00     0.012 C 
ATOM      2  C   UNL     1      26.199  21.681 -13.312  1.00  0.00     0.012 C 
ENDROOT
BRANCH   1   3
ATOM      3  C   UNL     1      25.881  23.179 -11.353  1.00  0.00    -0.028 C 
ATOM      4  C   UNL     1      24.932  23.271 -10.398  1.00  0.00    -0.027 C 
BRANCH   4   5
ATOM      5  C   UNL     1      25.257  23.431  -8.919  1.00  0.00     0.014 C 
BRANCH   5   6
ATOM      6  C   UNL     1      26.787  23.265  -8.693  1.00  0.00     0.004 C 
ATOM      7  C   UNL     1      27.201  23.228  -7.226  1.00  0.00     0.004 C 
ENDBRANCH   5   6
BRANCH   5   8
ATOM      8  C   UNL     1      24.644  24.784  -8.412  1.00  0.00    -0.011 C 
ATOM      9  C   UNL     1      25.416  26.015  -8.911  1.00  0.00     0.008 C 
ATOM     10  C   UNL     1      23.137  24.924  -8.689  1.00  0.00     0.008 C 
ENDBRANCH   5   8
ENDBRANCH   4   5
ENDBRANCH   1   3
BRANCH   1  11
ATOM     11  C   UNL     1      26.002  24.243 -13.702  1.00  0.00     0.002 C 
ATOM     12  C   UNL     1      27.321  24.840 -13.202  1.00  0.00     0.005 C 
ATOM     13  C   UNL     1      25.059  25.517 -13.720  1.00  0.00    -0.026 C 
ATOM     14  C   UNL     1      26.918  25.812 -12.114  1.00  0.00     0.005 C 
ATOM     15  C   UNL     1      25.664  26.511 -12.664  1.00  0.00    -0.001 C 
ATOM     16  C   UNL     1      25.109  26.123 -15.147  1.00  0.00     0.007 C 
ATOM     17  C   UNL     1      23.573  25.220 -13.356  1.00  0.00     0.012 C 
ATOM     18  C   UNL     1      26.049  27.948 -13.190  1.00  0.00     0.000 C 
ATOM     19  C   UNL     1      24.444  27.496 -15.221  1.00  0.00     0.005 C 
ATOM     20  C   UNL     1      25.174  28.542 -14.354  1.00  0.00     0.003 C 
ATOM     21  C   UNL     1      26.195  28.915 -11.982  1.00  0.00     0.031 C 
ATOM     22  C   UNL     1      24.268  29.754 -13.941  1.00  0.00    -0.008 C 
ATOM     23  C   UNL     1      26.095  30.364 -12.362  1.00  0.00    -0.027 C 
ATOM     24  C   UNL     1      25.153  30.788 -13.229  1.00  0.00    -0.065 C 
ATOM     25  C   UNL     1      23.668  30.388 -15.233  1.00  0.00     0.014 C 
ATOM     26  C   UNL     1      23.124  29.308 -12.983  1.00  0.00     0.016 C 
ATOM     27  C   UNL     1      24.817  32.274 -13.240  1.00  0.00     0.063 C 
ATOM     28  C   UNL     1      23.069  31.777 -14.994  1.00  0.00     0.033 C 
ATOM     29  C   UNL     1      24.150  32.758 -14.532  1.00  0.00     0.118 C 
BRANCH  29  30
ATOM     30  O   UNL     1      25.130  32.933 -15.526  1.00  0.00    -0.393 OA
ATOM     31  H   UNL     1      25.747  32.159 -15.465  1.00  0.00     0.210 HD
ENDBRANCH  29  30
ENDBRANCH   1  11
TORSDOF 6
ENDMDL
MODEL 8
REMARK VINA RESULT:    -5.524      2.992      8.103
REMARK INTER + INTRA:          -8.637
REMARK INTER:                  -7.442
REMARK INTRA:                  -1.195
REMARK UNBOUND:                -1.337
REMARK SMILES CC[C@H](C=C[C@H](C)[C@@H]1CC[C@H]2[C@@H]3CC=C4C[C@@H](O)CC[C@@]4(C)[C@@H]3CC[C@]21C)C(C)C
REMARK SMILES IDX 6 1 7 2 5 3 4 4 3 5 2 6 1 7 28 8 29 9 30 10 8 11 9 12 26 13
REMARK SMILES IDX 10 14 11 15 25 16 27 17 12 18 24 19 23 20 13 21 21 22 14 23
REMARK SMILES IDX 15 24 20 25 22 26 16 27 19 28 17 29 18 30
REMARK H PARENT 18 31
REMARK Flexibility Score: inf
ROOT
ATOM      1  C   UNL     1      23.929  31.563 -12.215  1.00  0.00     0.012 C 
ATOM      2  C   UNL     1      24.263  33.064 -11.994  1.00  0.00     0.012 C 
ENDROOT
BRANCH   1   3
ATOM      3  C   UNL     1      23.358  31.415 -13.621  1.00  0.00    -0.028 C 
ATOM      4  C   UNL     1      22.149  30.864 -13.857  1.00  0.00    -0.027 C 
BRANCH   4   5
ATOM      5  C   UNL     1      21.559  30.725 -15.254  1.00  0.00     0.014 C 
BRANCH   5   6
ATOM      6  C   UNL     1      21.796  29.282 -15.786  1.00  0.00     0.004 C 
ATOM      7  C   UNL     1      21.801  28.210 -14.702  1.00  0.00     0.004 C 
ENDBRANCH   5   6
BRANCH   5   8
ATOM      8  C   UNL     1      20.062  31.193 -15.217  1.00  0.00    -0.011 C 
ATOM      9  C   UNL     1      19.150  30.353 -16.124  1.00  0.00     0.008 C 
ATOM     10  C   UNL     1      19.482  31.306 -13.797  1.00  0.00     0.008 C 
ENDBRANCH   5   8
ENDBRANCH   4   5
ENDBRANCH   1   3
BRANCH   1  11
ATOM     11  C   UNL     1      25.195  30.638 -11.983  1.00  0.00     0.002 C 
ATOM     12  C   UNL     1      26.096  30.576 -13.220  1.00  0.00     0.005 C 
ATOM     13  C   UNL     1      24.937  29.101 -11.697  1.00  0.00    -0.026 C 
ATOM     14  C   UNL     1      25.505  29.477 -14.076  1.00  0.00     0.005 C 
ATOM     15  C   UNL     1      25.123  28.372 -13.077  1.00  0.00    -0.001 C 
ATOM     16  C   UNL     1      25.997  28.626 -10.669  1.00  0.00     0.007 C 
ATOM     17  C   UNL     1      23.519  28.783 -11.134  1.00  0.00     0.012 C 
ATOM     18  C   UNL     1      26.202  27.222 -13.125  1.00  0.00     0.000 C 
ATOM     19  C   UNL     1      26.012  27.108 -10.507  1.00  0.00     0.005 C 
ATOM     20  C   UNL     1      26.418  26.388 -11.809  1.00  0.00     0.003 C 
ATOM     21  C   UNL     1      25.950  26.333 -14.375  1.00  0.00     0.031 C 
ATOM     22  C   UNL     1      25.919  24.902 -11.884  1.00  0.00    -0.008 C 
ATOM     23  C   UNL     1      26.588  24.977 -14.282  1.00  0.00    -0.027 C 
ATOM     24  C   UNL     1      26.526  24.261 -13.142  1.00  0.00    -0.065 C 
ATOM     25  C   UNL     1      26.428  24.144 -10.620  1.00  0.00     0.014 C 
ATOM     26  C   UNL     1      24.366  24.827 -11.965  1.00  0.00     0.016 C 
ATOM     27  C   UNL     1      26.788  22.763 -13.230  1.00  0.00     0.063 C 
ATOM     28  C   UNL     1      26.318  22.623 -10.753  1.00  0.00     0.033 C 
ATOM     29  C   UNL     1      27.195  22.116 -11.901  1.00  0.00     0.118 C 
BRANCH  29  30
ATOM     30  O   UNL     1      28.554  22.380 -11.651  1.00  0.00    -0.393 OA
ATOM     31  H   UNL     1      28.623  23.334 -11.393  1.00  0.00     0.210 HD
ENDBRANCH  29  30
ENDBRANCH   1  11
TORSDOF 6
ENDMDL
