MODEL 1
REMARK VINA RESULT:    -4.833      0.000      0.000
REMARK INTER + INTRA:          -9.150
REMARK INTER:                  -8.224
REMARK INTRA:                  -0.926
REMARK UNBOUND:                -0.926
REMARK SMILES CCCCCCCCCCCCCC(=O)[O-]
REMARK SMILES IDX 8 1 9 2 10 3 11 4 12 5 13 6 14 7 15 8 16 9 7 10 6 11 5 12
REMARK SMILES IDX 4 13 3 14 2 15 1 16
REMARK H PARENT
REMARK Flexibility Score: inf
ROOT
ATOM      1  C   UNL     1      26.547 -15.500  23.141  1.00  0.00     0.000 C 
ENDROOT
BRANCH   1   2
ATOM      2  C   UNL     1      27.607 -16.424  22.517  1.00  0.00     0.000 C 
BRANCH   2   3
ATOM      3  C   UNL     1      27.560 -17.854  23.085  1.00  0.00     0.000 C 
BRANCH   3   4
ATOM      4  C   UNL     1      28.713 -18.773  22.640  1.00  0.00     0.000 C 
BRANCH   4   5
ATOM      5  C   UNL     1      29.265 -19.638  23.786  1.00  0.00     0.006 C 
BRANCH   5   6
ATOM      6  C   UNL     1      30.776 -19.872  23.659  1.00  0.00     0.053 C 
BRANCH   6   7
ATOM      7  C   UNL     1      31.087 -21.267  23.211  1.00  0.00     0.041 C 
ATOM      8  O   UNL     1      30.651 -21.692  22.109  1.00  0.00    -0.550 OA
ATOM      9  O   UNL     1      31.879 -22.091  24.001  1.00  0.00    -0.550 OA
ENDBRANCH   6   7
ENDBRANCH   5   6
ENDBRANCH   4   5
ENDBRANCH   3   4
ENDBRANCH   2   3
ENDBRANCH   1   2
BRANCH   1  10
ATOM     10  C   UNL     1      26.427 -15.674  24.665  1.00  0.00     0.000 C 
BRANCH  10  11
ATOM     11  C   UNL     1      25.022 -15.412  25.244  1.00  0.00    -0.000 C 
BRANCH  11  12
ATOM     12  C   UNL     1      24.951 -14.178  26.170  1.00  0.00    -0.000 C 
BRANCH  12  13
ATOM     13  C   UNL     1      25.484 -12.908  25.485  1.00  0.00    -0.000 C 
BRANCH  13  14
ATOM     14  C   UNL     1      26.526 -12.170  26.340  1.00  0.00    -0.000 C 
BRANCH  14  15
ATOM     15  C   UNL     1      27.954 -12.341  25.798  1.00  0.00    -0.003 C 
ATOM     16  C   UNL     1      27.980 -12.227  24.276  1.00  0.00     0.004 C 
ENDBRANCH  14  15
ENDBRANCH  13  14
ENDBRANCH  12  13
ENDBRANCH  11  12
ENDBRANCH  10  11
ENDBRANCH   1  10
TORSDOF 12
ENDMDL
MODEL 2
REMARK VINA RESULT:    -4.827      8.213     11.814
REMARK INTER + INTRA:          -9.138
REMARK INTER:                  -8.182
REMARK INTRA:                  -0.957
REMARK UNBOUND:                -0.926
REMARK SMILES CCCCCCCCCCCCCC(=O)[O-]
REMARK SMILES IDX 8 1 9 2 10 3 11 4 12 5 13 6 14 7 15 8 16 9 7 10 6 11 5 12
REMARK SMILES IDX 4 13 3 14 2 15 1 16
REMARK H PARENT
REMARK Flexibility Score: inf
ROOT
ATOM      1  C   UNL     1      22.414  -9.614  27.716  1.00  0.00     0.000 C 
ENDROOT
BRANCH   1   2
ATOM      2  C   UNL     1      20.913  -9.791  27.429  1.00  0.00     0.000 C 
BRANCH   2   3
ATOM      3  C   UNL     1      20.048  -8.695  28.078  1.00  0.00     0.000 C 
BRANCH   3   4
ATOM      4  C   UNL     1      20.671  -8.013  29.310  1.00  0.00     0.000 C 
BRANCH   4   5
ATOM      5  C   UNL     1      20.331  -8.732  30.628  1.00  0.00     0.006 C 
BRANCH   5   6
ATOM      6  C   UNL     1      18.903  -9.294  30.629  1.00  0.00     0.053 C 
BRANCH   6   7
ATOM      7  C   UNL     1      18.884 -10.761  30.933  1.00  0.00     0.041 C 
ATOM      8  O   UNL     1      18.033 -11.232  31.732  1.00  0.00    -0.550 OA
ATOM      9  O   UNL     1      19.792 -11.611  30.315  1.00  0.00    -0.550 OA
ENDBRANCH   6   7
ENDBRANCH   5   6
ENDBRANCH   4   5
ENDBRANCH   3   4
ENDBRANCH   2   3
ENDBRANCH   1   2
BRANCH   1  10
ATOM     10  C   UNL     1      22.997 -10.752  28.573  1.00  0.00     0.000 C 
BRANCH  10  11
ATOM     11  C   UNL     1      23.482 -11.983  27.782  1.00  0.00    -0.000 C 
BRANCH  11  12
ATOM     12  C   UNL     1      24.996 -11.971  27.480  1.00  0.00    -0.000 C 
BRANCH  12  13
ATOM     13  C   UNL     1      25.317 -12.572  26.101  1.00  0.00    -0.000 C 
BRANCH  13  14
ATOM     14  C   UNL     1      25.640 -14.072  26.171  1.00  0.00    -0.000 C 
BRANCH  14  15
ATOM     15  C   UNL     1      24.693 -14.916  25.304  1.00  0.00    -0.003 C 
ATOM     16  C   UNL     1      23.584 -15.538  26.148  1.00  0.00     0.004 C 
ENDBRANCH  14  15
ENDBRANCH  13  14
ENDBRANCH  12  13
ENDBRANCH  11  12
ENDBRANCH  10  11
ENDBRANCH   1  10
TORSDOF 12
ENDMDL
MODEL 3
REMARK VINA RESULT:    -4.790      3.318      6.924
REMARK INTER + INTRA:          -9.076
REMARK INTER:                  -7.956
REMARK INTRA:                  -1.120
REMARK UNBOUND:                -0.926
REMARK SMILES CCCCCCCCCCCCCC(=O)[O-]
REMARK SMILES IDX 8 1 9 2 10 3 11 4 12 5 13 6 14 7 15 8 16 9 7 10 6 11 5 12
REMARK SMILES IDX 4 13 3 14 2 15 1 16
REMARK H PARENT
REMARK Flexibility Score: inf
ROOT
ATOM      1  C   UNL     1      25.158 -15.747  25.383  1.00  0.00     0.000 C 
ENDROOT
BRANCH   1   2
ATOM      2  C   UNL     1      24.613 -14.310  25.312  1.00  0.00     0.000 C 
BRANCH   2   3
ATOM      3  C   UNL     1      25.167 -13.406  26.428  1.00  0.00     0.000 C 
BRANCH   3   4
ATOM      4  C   UNL     1      25.749 -12.062  25.954  1.00  0.00     0.000 C 
BRANCH   4   5
ATOM      5  C   UNL     1      27.277 -12.103  25.773  1.00  0.00     0.006 C 
BRANCH   5   6
ATOM      6  C   UNL     1      27.680 -12.368  24.316  1.00  0.00     0.053 C 
BRANCH   6   7
ATOM      7  C   UNL     1      29.132 -12.721  24.197  1.00  0.00     0.041 C 
ATOM      8  O   UNL     1      29.552 -13.348  23.189  1.00  0.00    -0.550 OA
ATOM      9  O   UNL     1      30.024 -12.335  25.189  1.00  0.00    -0.550 OA
ENDBRANCH   6   7
ENDBRANCH   5   6
ENDBRANCH   4   5
ENDBRANCH   3   4
ENDBRANCH   2   3
ENDBRANCH   1   2
BRANCH   1  10
ATOM     10  C   UNL     1      26.525 -15.901  24.695  1.00  0.00     0.000 C 
BRANCH  10  11
ATOM     11  C   UNL     1      26.526 -15.638  23.176  1.00  0.00    -0.000 C 
BRANCH  11  12
ATOM     12  C   UNL     1      27.575 -16.463  22.402  1.00  0.00    -0.000 C 
BRANCH  12  13
ATOM     13  C   UNL     1      27.667 -17.911  22.914  1.00  0.00    -0.000 C 
BRANCH  13  14
ATOM     14  C   UNL     1      28.571 -18.791  22.038  1.00  0.00    -0.000 C 
BRANCH  14  15
ATOM     15  C   UNL     1      29.755 -19.378  22.823  1.00  0.00    -0.003 C 
ATOM     16  C   UNL     1      29.329 -19.789  24.230  1.00  0.00     0.004 C 
ENDBRANCH  14  15
ENDBRANCH  13  14
ENDBRANCH  12  13
ENDBRANCH  11  12
ENDBRANCH  10  11
ENDBRANCH   1  10
TORSDOF 12
ENDMDL
MODEL 4
REMARK VINA RESULT:    -4.782      5.973      8.429
REMARK INTER + INTRA:          -9.063
REMARK INTER:                  -8.212
REMARK INTRA:                  -0.851
REMARK UNBOUND:                -0.926
REMARK SMILES CCCCCCCCCCCCCC(=O)[O-]
REMARK SMILES IDX 8 1 9 2 10 3 11 4 12 5 13 6 14 7 15 8 16 9 7 10 6 11 5 12
REMARK SMILES IDX 4 13 3 14 2 15 1 16
REMARK H PARENT
REMARK Flexibility Score: inf
ROOT
ATOM      1  C   UNL     1      22.395 -10.858  28.061  1.00  0.00     0.000 C 
ENDROOT
BRANCH   1   2
ATOM      2  C   UNL     1      23.888 -11.206  28.187  1.00  0.00     0.000 C 
BRANCH   2   3
ATOM      3  C   UNL     1      24.302 -12.390  27.294  1.00  0.00     0.000 C 
BRANCH   3   4
ATOM      4  C   UNL     1      25.815 -12.523  27.045  1.00  0.00     0.000 C 
BRANCH   4   5
ATOM      5  C   UNL     1      26.145 -13.062  25.641  1.00  0.00     0.006 C 
BRANCH   5   6
ATOM      6  C   UNL     1      25.012 -13.925  25.071  1.00  0.00     0.053 C 
BRANCH   6   7
ATOM      7  C   UNL     1      25.234 -15.382  25.342  1.00  0.00     0.041 C 
ATOM      8  O   UNL     1      24.320 -16.078  25.856  1.00  0.00    -0.550 OA
ATOM      9  O   UNL     1      26.443 -15.976  25.001  1.00  0.00    -0.550 OA
ENDBRANCH   6   7
ENDBRANCH   5   6
ENDBRANCH   4   5
ENDBRANCH   3   4
ENDBRANCH   2   3
ENDBRANCH   1   2
BRANCH   1  10
ATOM     10  C   UNL     1      22.155  -9.495  27.388  1.00  0.00     0.000 C 
BRANCH  10  11
ATOM     11  C   UNL     1      20.766  -9.321  26.741  1.00  0.00    -0.000 C 
BRANCH  11  12
ATOM     12  C   UNL     1      19.883  -8.265  27.439  1.00  0.00    -0.000 C 
BRANCH  12  13
ATOM     13  C   UNL     1      20.301  -8.034  28.902  1.00  0.00    -0.000 C 
BRANCH  13  14
ATOM     14  C   UNL     1      19.529  -8.927  29.884  1.00  0.00    -0.000 C 
BRANCH  14  15
ATOM     15  C   UNL     1      20.115  -8.876  31.304  1.00  0.00    -0.003 C 
ATOM     16  C   UNL     1      21.454  -9.605  31.371  1.00  0.00     0.004 C 
ENDBRANCH  14  15
ENDBRANCH  13  14
ENDBRANCH  12  13
ENDBRANCH  11  12
ENDBRANCH  10  11
ENDBRANCH   1  10
TORSDOF 12
ENDMDL
MODEL 5
REMARK VINA RESULT:    -4.765      8.292     11.712
REMARK INTER + INTRA:          -9.033
REMARK INTER:                  -7.963
REMARK INTRA:                  -1.070
REMARK UNBOUND:                -0.926
REMARK SMILES CCCCCCCCCCCCCC(=O)[O-]
REMARK SMILES IDX 8 1 9 2 10 3 11 4 12 5 13 6 14 7 15 8 16 9 7 10 6 11 5 12
REMARK SMILES IDX 4 13 3 14 2 15 1 16
REMARK H PARENT
REMARK Flexibility Score: inf
ROOT
ATOM      1  C   UNL     1      21.975  -9.431  26.885  1.00  0.00     0.000 C 
ENDROOT
BRANCH   1   2
ATOM      2  C   UNL     1      20.501  -9.005  26.772  1.00  0.00     0.000 C 
BRANCH   2   3
ATOM      3  C   UNL     1      20.081  -8.011  27.869  1.00  0.00     0.000 C 
BRANCH   3   4
ATOM      4  C   UNL     1      18.920  -8.477  28.766  1.00  0.00     0.000 C 
BRANCH   4   5
ATOM      5  C   UNL     1      19.396  -9.262  30.001  1.00  0.00     0.006 C 
BRANCH   5   6
ATOM      6  C   UNL     1      19.423 -10.776  29.750  1.00  0.00     0.053 C 
BRANCH   6   7
ATOM      7  C   UNL     1      19.112 -11.550  30.994  1.00  0.00     0.041 C 
ATOM      8  O   UNL     1      18.027 -11.364  31.604  1.00  0.00    -0.550 OA
ATOM      9  O   UNL     1      20.013 -12.498  31.466  1.00  0.00    -0.550 OA
ENDBRANCH   6   7
ENDBRANCH   5   6
ENDBRANCH   4   5
ENDBRANCH   3   4
ENDBRANCH   2   3
ENDBRANCH   1   2
BRANCH   1  10
ATOM     10  C   UNL     1      22.585  -9.108  28.260  1.00  0.00     0.000 C 
BRANCH  10  11
ATOM     11  C   UNL     1      23.354 -10.268  28.923  1.00  0.00    -0.000 C 
BRANCH  11  12
ATOM     12  C   UNL     1      23.327 -11.578  28.108  1.00  0.00    -0.000 C 
BRANCH  12  13
ATOM     13  C   UNL     1      24.702 -11.915  27.506  1.00  0.00    -0.000 C 
BRANCH  13  14
ATOM     14  C   UNL     1      24.722 -13.284  26.810  1.00  0.00    -0.000 C 
BRANCH  14  15
ATOM     15  C   UNL     1      25.309 -13.211  25.392  1.00  0.00    -0.003 C 
ATOM     16  C   UNL     1      26.426 -12.174  25.314  1.00  0.00     0.004 C 
ENDBRANCH  14  15
ENDBRANCH  13  14
ENDBRANCH  12  13
ENDBRANCH  11  12
ENDBRANCH  10  11
ENDBRANCH   1  10
TORSDOF 12
ENDMDL
MODEL 6
REMARK VINA RESULT:    -4.742      7.384     10.755
REMARK INTER + INTRA:          -8.995
REMARK INTER:                  -7.886
REMARK INTRA:                  -1.109
REMARK UNBOUND:                -0.926
REMARK SMILES CCCCCCCCCCCCCC(=O)[O-]
REMARK SMILES IDX 8 1 9 2 10 3 11 4 12 5 13 6 14 7 15 8 16 9 7 10 6 11 5 12
REMARK SMILES IDX 4 13 3 14 2 15 1 16
REMARK H PARENT
REMARK Flexibility Score: inf
ROOT
ATOM      1  C   UNL     1      24.661 -11.926  26.950  1.00  0.00     0.000 C 
ENDROOT
BRANCH   1   2
ATOM      2  C   UNL     1      23.539 -12.182  27.971  1.00  0.00     0.000 C 
BRANCH   2   3
ATOM      3  C   UNL     1      22.818 -10.893  28.403  1.00  0.00     0.000 C 
BRANCH   3   4
ATOM      4  C   UNL     1      22.373  -9.974  27.250  1.00  0.00     0.000 C 
BRANCH   4   5
ATOM      5  C   UNL     1      21.017  -9.296  27.515  1.00  0.00     0.006 C 
BRANCH   5   6
ATOM      6  C   UNL     1      20.800  -8.998  29.005  1.00  0.00     0.053 C 
BRANCH   6   7
ATOM      7  C   UNL     1      19.616  -9.735  29.552  1.00  0.00     0.041 C 
ATOM      8  O   UNL     1      19.352 -10.898  29.150  1.00  0.00    -0.550 OA
ATOM      9  O   UNL     1      18.819  -9.145  30.525  1.00  0.00    -0.550 OA
ENDBRANCH   6   7
ENDBRANCH   5   6
ENDBRANCH   4   5
ENDBRANCH   3   4
ENDBRANCH   2   3
ENDBRANCH   1   2
BRANCH   1  10
ATOM     10  C   UNL     1      26.060 -12.229  27.513  1.00  0.00     0.000 C 
BRANCH  10  11
ATOM     11  C   UNL     1      27.196 -12.236  26.471  1.00  0.00    -0.000 C 
BRANCH  11  12
ATOM     12  C   UNL     1      26.704 -12.385  25.015  1.00  0.00    -0.000 C 
BRANCH  12  13
ATOM     13  C   UNL     1      27.106 -13.739  24.403  1.00  0.00    -0.000 C 
BRANCH  13  14
ATOM     14  C   UNL     1      25.907 -14.681  24.217  1.00  0.00    -0.000 C 
BRANCH  14  15
ATOM     15  C   UNL     1      25.513 -15.390  25.522  1.00  0.00    -0.003 C 
ATOM     16  C   UNL     1      23.996 -15.418  25.694  1.00  0.00     0.004 C 
ENDBRANCH  14  15
ENDBRANCH  13  14
ENDBRANCH  12  13
ENDBRANCH  11  12
ENDBRANCH  10  11
ENDBRANCH   1  10
TORSDOF 12
ENDMDL
MODEL 7
REMARK VINA RESULT:    -4.742      6.331      9.256
REMARK INTER + INTRA:          -8.994
REMARK INTER:                  -7.520
REMARK INTRA:                  -1.474
REMARK UNBOUND:                -0.926
REMARK SMILES CCCCCCCCCCCCCC(=O)[O-]
REMARK SMILES IDX 8 1 9 2 10 3 11 4 12 5 13 6 14 7 15 8 16 9 7 10 6 11 5 12
REMARK SMILES IDX 4 13 3 14 2 15 1 16
REMARK H PARENT
REMARK Flexibility Score: inf
ROOT
ATOM      1  C   UNL     1      22.216  -9.581  27.056  1.00  0.00     0.000 C 
ENDROOT
BRANCH   1   2
ATOM      2  C   UNL     1      22.785  -9.559  28.484  1.00  0.00     0.000 C 
BRANCH   2   3
ATOM      3  C   UNL     1      23.815 -10.676  28.733  1.00  0.00     0.000 C 
BRANCH   3   4
ATOM      4  C   UNL     1      23.750 -11.858  27.749  1.00  0.00     0.000 C 
BRANCH   4   5
ATOM      5  C   UNL     1      25.140 -12.345  27.305  1.00  0.00     0.006 C 
BRANCH   5   6
ATOM      6  C   UNL     1      25.269 -12.413  25.777  1.00  0.00     0.053 C 
BRANCH   6   7
ATOM      7  C   UNL     1      25.481 -13.817  25.299  1.00  0.00     0.041 C 
ATOM      8  O   UNL     1      26.299 -14.056  24.373  1.00  0.00    -0.550 OA
ATOM      9  O   UNL     1      24.793 -14.866  25.896  1.00  0.00    -0.550 OA
ENDBRANCH   6   7
ENDBRANCH   5   6
ENDBRANCH   4   5
ENDBRANCH   3   4
ENDBRANCH   2   3
ENDBRANCH   1   2
BRANCH   1  10
ATOM     10  C   UNL     1      20.730  -9.185  26.999  1.00  0.00     0.000 C 
BRANCH  10  11
ATOM     11  C   UNL     1      20.280  -8.179  28.077  1.00  0.00    -0.000 C 
BRANCH  11  12
ATOM     12  C   UNL     1      19.038  -8.633  28.872  1.00  0.00    -0.000 C 
BRANCH  12  13
ATOM     13  C   UNL     1      19.413  -9.485  30.097  1.00  0.00    -0.000 C 
BRANCH  13  14
ATOM     14  C   UNL     1      19.352 -10.992  29.809  1.00  0.00    -0.000 C 
BRANCH  14  15
ATOM     15  C   UNL     1      20.555 -11.749  30.394  1.00  0.00    -0.003 C 
ATOM     16  C   UNL     1      21.199 -10.959  31.530  1.00  0.00     0.004 C 
ENDBRANCH  14  15
ENDBRANCH  13  14
ENDBRANCH  12  13
ENDBRANCH  11  12
ENDBRANCH  10  11
ENDBRANCH   1  10
TORSDOF 12
ENDMDL
MODEL 8
REMARK VINA RESULT:    -4.736      1.288      2.110
REMARK INTER + INTRA:          -8.985
REMARK INTER:                  -7.699
REMARK INTRA:                  -1.285
REMARK UNBOUND:                -0.926
REMARK SMILES CCCCCCCCCCCCCC(=O)[O-]
REMARK SMILES IDX 8 1 9 2 10 3 11 4 12 5 13 6 14 7 15 8 16 9 7 10 6 11 5 12
REMARK SMILES IDX 4 13 3 14 2 15 1 16
REMARK H PARENT
REMARK Flexibility Score: inf
ROOT
ATOM      1  C   UNL     1      26.128 -15.749  24.935  1.00  0.00     0.000 C 
ENDROOT
BRANCH   1   2
ATOM      2  C   UNL     1      26.389 -15.181  23.530  1.00  0.00     0.000 C 
BRANCH   2   3
ATOM      3  C   UNL     1      27.479 -15.955  22.767  1.00  0.00     0.000 C 
BRANCH   3   4
ATOM      4  C   UNL     1      26.960 -16.948  21.711  1.00  0.00     0.000 C 
BRANCH   4   5
ATOM      5  C   UNL     1      27.585 -18.348  21.847  1.00  0.00     0.006 C 
BRANCH   5   6
ATOM      6  C   UNL     1      28.327 -18.523  23.179  1.00  0.00     0.053 C 
BRANCH   6   7
ATOM      7  C   UNL     1      29.302 -19.660  23.125  1.00  0.00     0.041 C 
ATOM      8  O   UNL     1      29.258 -20.490  22.180  1.00  0.00    -0.550 OA
ATOM      9  O   UNL     1      30.276 -19.787  24.108  1.00  0.00    -0.550 OA
ENDBRANCH   6   7
ENDBRANCH   5   6
ENDBRANCH   4   5
ENDBRANCH   3   4
ENDBRANCH   2   3
ENDBRANCH   1   2
BRANCH   1  10
ATOM     10  C   UNL     1      24.998 -15.013  25.676  1.00  0.00     0.000 C 
BRANCH  10  11
ATOM     11  C   UNL     1      25.001 -13.480  25.514  1.00  0.00    -0.000 C 
BRANCH  11  12
ATOM     12  C   UNL     1      25.443 -12.721  26.784  1.00  0.00    -0.000 C 
BRANCH  12  13
ATOM     13  C   UNL     1      26.936 -12.350  26.748  1.00  0.00    -0.000 C 
BRANCH  13  14
ATOM     14  C   UNL     1      27.429 -12.025  25.331  1.00  0.00    -0.000 C 
BRANCH  14  15
ATOM     15  C   UNL     1      28.920 -12.347  25.142  1.00  0.00    -0.003 C 
ATOM     16  C   UNL     1      29.206 -12.800  23.712  1.00  0.00     0.004 C 
ENDBRANCH  14  15
ENDBRANCH  13  14
ENDBRANCH  12  13
ENDBRANCH  11  12
ENDBRANCH  10  11
ENDBRANCH   1  10
TORSDOF 12
ENDMDL
MODEL 9
REMARK VINA RESULT:    -4.694      3.728      7.749
REMARK INTER + INTRA:          -8.914
REMARK INTER:                  -8.141
REMARK INTRA:                  -0.772
REMARK UNBOUND:                -0.926
REMARK SMILES CCCCCCCCCCCCCC(=O)[O-]
REMARK SMILES IDX 8 1 9 2 10 3 11 4 12 5 13 6 14 7 15 8 16 9 7 10 6 11 5 12
REMARK SMILES IDX 4 13 3 14 2 15 1 16
REMARK H PARENT
REMARK Flexibility Score: inf
ROOT
ATOM      1  C   UNL     1      26.797 -15.564  23.205  1.00  0.00     0.000 C 
ENDROOT
BRANCH   1   2
ATOM      2  C   UNL     1      26.620 -16.089  24.640  1.00  0.00     0.000 C 
BRANCH   2   3
ATOM      3  C   UNL     1      25.329 -15.581  25.307  1.00  0.00     0.000 C 
BRANCH   3   4
ATOM      4  C   UNL     1      24.956 -14.122  24.984  1.00  0.00     0.000 C 
BRANCH   4   5
ATOM      5  C   UNL     1      25.099 -13.186  26.197  1.00  0.00     0.006 C 
BRANCH   5   6
ATOM      6  C   UNL     1      25.848 -11.893  25.846  1.00  0.00     0.053 C 
BRANCH   6   7
ATOM      7  C   UNL     1      27.289 -12.154  25.532  1.00  0.00     0.041 C 
ATOM      8  O   UNL     1      28.127 -12.291  26.462  1.00  0.00    -0.550 OA
ATOM      9  O   UNL     1      27.703 -12.270  24.211  1.00  0.00    -0.550 OA
ENDBRANCH   6   7
ENDBRANCH   5   6
ENDBRANCH   4   5
ENDBRANCH   3   4
ENDBRANCH   2   3
ENDBRANCH   1   2
BRANCH   1  10
ATOM     10  C   UNL     1      27.556 -16.549  22.298  1.00  0.00     0.000 C 
BRANCH  10  11
ATOM     11  C   UNL     1      27.498 -18.024  22.743  1.00  0.00    -0.000 C 
BRANCH  11  12
ATOM     12  C   UNL     1      28.840 -18.772  22.592  1.00  0.00    -0.000 C 
BRANCH  12  13
ATOM     13  C   UNL     1      29.188 -19.595  23.845  1.00  0.00    -0.000 C 
BRANCH  13  14
ATOM     14  C   UNL     1      30.702 -19.695  24.083  1.00  0.00    -0.000 C 
BRANCH  14  15
ATOM     15  C   UNL     1      31.404 -20.566  23.028  1.00  0.00    -0.003 C 
ATOM     16  C   UNL     1      31.150 -22.049  23.285  1.00  0.00     0.004 C 
ENDBRANCH  14  15
ENDBRANCH  13  14
ENDBRANCH  12  13
ENDBRANCH  11  12
ENDBRANCH  10  11
ENDBRANCH   1  10
TORSDOF 12
ENDMDL
