MODEL 1
REMARK VINA RESULT:    -3.211      0.000      0.000
REMARK INTER + INTRA:          -6.507
REMARK INTER:                  -5.838
REMARK INTRA:                  -0.669
REMARK UNBOUND:                -0.669
REMARK SMILES CCCCCCCCCCCCCCCC(=O)[O-]
REMARK SMILES IDX 9 1 10 2 11 3 12 4 13 5 14 6 15 7 16 8 17 9 18 10 8 11 7 12
REMARK SMILES IDX 6 13 5 14 4 15 3 16 2 17 1 18
REMARK H PARENT
REMARK Flexibility Score: inf
ROOT
ATOM      1  C   UNL     1       4.885 -37.760  19.915  1.00  0.00     0.000 C 
ENDROOT
BRANCH   1   2
ATOM      2  C   UNL     1       5.848 -36.597  20.200  1.00  0.00     0.000 C 
BRANCH   2   3
ATOM      3  C   UNL     1       5.071 -35.319  20.554  1.00  0.00     0.000 C 
BRANCH   3   4
ATOM      4  C   UNL     1       4.393 -35.396  21.930  1.00  0.00     0.000 C 
BRANCH   4   5
ATOM      5  C   UNL     1       5.317 -34.942  23.072  1.00  0.00     0.000 C 
BRANCH   5   6
ATOM      6  C   UNL     1       6.125 -36.102  23.684  1.00  0.00     0.006 C 
BRANCH   6   7
ATOM      7  C   UNL     1       5.846 -36.353  25.174  1.00  0.00     0.053 C 
BRANCH   7   8
ATOM      8  C   UNL     1       5.030 -37.590  25.391  1.00  0.00     0.041 C 
ATOM      9  O   UNL     1       4.160 -37.623  26.301  1.00  0.00    -0.550 OA
ATOM     10  O   UNL     1       5.251 -38.716  24.609  1.00  0.00    -0.550 OA
ENDBRANCH   7   8
ENDBRANCH   6   7
ENDBRANCH   5   6
ENDBRANCH   4   5
ENDBRANCH   3   4
ENDBRANCH   2   3
ENDBRANCH   1   2
BRANCH   1  11
ATOM     11  C   UNL     1       3.755 -37.380  18.941  1.00  0.00     0.000 C 
BRANCH  11  12
ATOM     12  C   UNL     1       2.335 -37.738  19.422  1.00  0.00    -0.000 C 
BRANCH  12  13
ATOM     13  C   UNL     1       1.255 -37.721  18.324  1.00  0.00    -0.000 C 
BRANCH  13  14
ATOM     14  C   UNL     1       1.824 -37.846  16.893  1.00  0.00    -0.000 C 
BRANCH  14  15
ATOM     15  C   UNL     1       1.988 -36.479  16.208  1.00  0.00    -0.000 C 
BRANCH  15  16
ATOM     16  C   UNL     1       2.360 -36.597  14.719  1.00  0.00    -0.000 C 
BRANCH  16  17
ATOM     17  C   UNL     1       3.835 -36.940  14.445  1.00  0.00    -0.003 C 
ATOM     18  C   UNL     1       4.094 -38.443  14.358  1.00  0.00     0.004 C 
ENDBRANCH  16  17
ENDBRANCH  15  16
ENDBRANCH  14  15
ENDBRANCH  13  14
ENDBRANCH  12  13
ENDBRANCH  11  12
ENDBRANCH   1  11
TORSDOF 14
ENDMDL
MODEL 2
REMARK VINA RESULT:    -2.761      0.984      2.142
REMARK INTER + INTRA:          -5.690
REMARK INTER:                  -5.610
REMARK INTRA:                  -0.080
REMARK UNBOUND:                -0.669
REMARK SMILES CCCCCCCCCCCCCCCC(=O)[O-]
REMARK SMILES IDX 9 1 10 2 11 3 12 4 13 5 14 6 15 7 16 8 17 9 18 10 8 11 7 12
REMARK SMILES IDX 6 13 5 14 4 15 3 16 2 17 1 18
REMARK H PARENT
REMARK Flexibility Score: inf
ROOT
ATOM      1  C   UNL     1       2.922 -37.734  19.659  1.00  0.00     0.000 C 
ENDROOT
BRANCH   1   2
ATOM      2  C   UNL     1       4.339 -37.884  19.086  1.00  0.00     0.000 C 
BRANCH   2   3
ATOM      3  C   UNL     1       5.390 -37.389  20.091  1.00  0.00     0.000 C 
BRANCH   3   4
ATOM      4  C   UNL     1       5.380 -35.862  20.259  1.00  0.00     0.000 C 
BRANCH   4   5
ATOM      5  C   UNL     1       6.122 -35.401  21.525  1.00  0.00     0.000 C 
BRANCH   5   6
ATOM      6  C   UNL     1       5.185 -35.234  22.737  1.00  0.00     0.006 C 
BRANCH   6   7
ATOM      7  C   UNL     1       5.873 -35.408  24.100  1.00  0.00     0.053 C 
BRANCH   7   8
ATOM      8  C   UNL     1       5.659 -36.777  24.666  1.00  0.00     0.041 C 
ATOM      9  O   UNL     1       5.761 -37.792  23.927  1.00  0.00    -0.550 OA
ATOM     10  O   UNL     1       5.315 -36.931  26.003  1.00  0.00    -0.550 OA
ENDBRANCH   7   8
ENDBRANCH   6   7
ENDBRANCH   5   6
ENDBRANCH   4   5
ENDBRANCH   3   4
ENDBRANCH   2   3
ENDBRANCH   1   2
BRANCH   1  11
ATOM     11  C   UNL     1       1.822 -37.905  18.594  1.00  0.00     0.000 C 
BRANCH  11  12
ATOM     12  C   UNL     1       2.291 -37.710  17.139  1.00  0.00    -0.000 C 
BRANCH  12  13
ATOM     13  C   UNL     1       1.855 -36.383  16.489  1.00  0.00    -0.000 C 
BRANCH  13  14
ATOM     14  C   UNL     1       2.540 -36.104  15.132  1.00  0.00    -0.000 C 
BRANCH  14  15
ATOM     15  C   UNL     1       2.782 -37.390  14.325  1.00  0.00    -0.000 C 
BRANCH  15  16
ATOM     16  C   UNL     1       3.902 -38.265  14.915  1.00  0.00    -0.000 C 
BRANCH  16  17
ATOM     17  C   UNL     1       4.767 -38.998  13.875  1.00  0.00    -0.003 C 
ATOM     18  C   UNL     1       5.011 -40.466  14.226  1.00  0.00     0.004 C 
ENDBRANCH  16  17
ENDBRANCH  15  16
ENDBRANCH  14  15
ENDBRANCH  13  14
ENDBRANCH  12  13
ENDBRANCH  11  12
ENDBRANCH   1  11
TORSDOF 14
ENDMDL
MODEL 3
REMARK VINA RESULT:    -2.696      2.042      2.994
REMARK INTER + INTRA:          -5.571
REMARK INTER:                  -4.739
REMARK INTRA:                  -0.832
REMARK UNBOUND:                -0.669
REMARK SMILES CCCCCCCCCCCCCCCC(=O)[O-]
REMARK SMILES IDX 9 1 10 2 11 3 12 4 13 5 14 6 15 7 16 8 17 9 18 10 8 11 7 12
REMARK SMILES IDX 6 13 5 14 4 15 3 16 2 17 1 18
REMARK H PARENT
REMARK Flexibility Score: inf
ROOT
ATOM      1  C   UNL     1       5.689 -38.510  21.416  1.00  0.00     0.000 C 
ENDROOT
BRANCH   1   2
ATOM      2  C   UNL     1       5.454 -39.890  22.050  1.00  0.00     0.000 C 
BRANCH   2   3
ATOM      3  C   UNL     1       5.273 -39.770  23.570  1.00  0.00     0.000 C 
BRANCH   3   4
ATOM      4  C   UNL     1       5.747 -38.416  24.121  1.00  0.00     0.000 C 
BRANCH   4   5
ATOM      5  C   UNL     1       4.882 -37.917  25.291  1.00  0.00     0.000 C 
BRANCH   5   6
ATOM      6  C   UNL     1       5.005 -36.398  25.518  1.00  0.00     0.006 C 
BRANCH   6   7
ATOM      7  C   UNL     1       6.119 -35.723  24.704  1.00  0.00     0.053 C 
BRANCH   7   8
ATOM      8  C   UNL     1       5.570 -34.805  23.656  1.00  0.00     0.041 C 
ATOM      9  O   UNL     1       4.931 -35.272  22.676  1.00  0.00    -0.550 OA
ATOM     10  O   UNL     1       5.789 -33.436  23.745  1.00  0.00    -0.550 OA
ENDBRANCH   7   8
ENDBRANCH   6   7
ENDBRANCH   5   6
ENDBRANCH   4   5
ENDBRANCH   3   4
ENDBRANCH   2   3
ENDBRANCH   1   2
BRANCH   1  11
ATOM     11  C   UNL     1       5.232 -38.437  19.948  1.00  0.00     0.000 C 
BRANCH  11  12
ATOM     12  C   UNL     1       4.277 -37.273  19.621  1.00  0.00    -0.000 C 
BRANCH  12  13
ATOM     13  C   UNL     1       3.424 -37.469  18.354  1.00  0.00    -0.000 C 
BRANCH  13  14
ATOM     14  C   UNL     1       3.812 -36.525  17.194  1.00  0.00    -0.000 C 
BRANCH  14  15
ATOM     15  C   UNL     1       2.588 -36.059  16.386  1.00  0.00    -0.000 C 
BRANCH  15  16
ATOM     16  C   UNL     1       2.305 -36.951  15.163  1.00  0.00    -0.000 C 
BRANCH  16  17
ATOM     17  C   UNL     1       3.439 -37.005  14.125  1.00  0.00    -0.003 C 
ATOM     18  C   UNL     1       4.227 -38.314  14.166  1.00  0.00     0.004 C 
ENDBRANCH  16  17
ENDBRANCH  15  16
ENDBRANCH  14  15
ENDBRANCH  13  14
ENDBRANCH  12  13
ENDBRANCH  11  12
ENDBRANCH   1  11
TORSDOF 14
ENDMDL
MODEL 4
REMARK VINA RESULT:    -2.663      3.655      8.483
REMARK INTER + INTRA:          -5.511
REMARK INTER:                  -4.745
REMARK INTRA:                  -0.766
REMARK UNBOUND:                -0.669
REMARK SMILES CCCCCCCCCCCCCCCC(=O)[O-]
REMARK SMILES IDX 9 1 10 2 11 3 12 4 13 5 14 6 15 7 16 8 17 9 18 10 8 11 7 12
REMARK SMILES IDX 6 13 5 14 4 15 3 16 2 17 1 18
REMARK H PARENT
REMARK Flexibility Score: inf
ROOT
ATOM      1  C   UNL     1       5.214 -37.836  20.266  1.00  0.00     0.000 C 
ENDROOT
BRANCH   1   2
ATOM      2  C   UNL     1       4.680 -36.884  19.185  1.00  0.00     0.000 C 
BRANCH   2   3
ATOM      3  C   UNL     1       3.860 -37.652  18.137  1.00  0.00     0.000 C 
BRANCH   3   4
ATOM      4  C   UNL     1       2.344 -37.531  18.363  1.00  0.00     0.000 C 
BRANCH   4   5
ATOM      5  C   UNL     1       1.560 -37.386  17.048  1.00  0.00     0.000 C 
BRANCH   5   6
ATOM      6  C   UNL     1       2.176 -36.340  16.099  1.00  0.00     0.006 C 
BRANCH   6   7
ATOM      7  C   UNL     1       2.375 -36.830  14.657  1.00  0.00     0.053 C 
BRANCH   7   8
ATOM      8  C   UNL     1       3.695 -37.513  14.474  1.00  0.00     0.041 C 
ATOM      9  O   UNL     1       3.862 -38.691  14.886  1.00  0.00    -0.550 OA
ATOM     10  O   UNL     1       4.751 -36.837  13.875  1.00  0.00    -0.550 OA
ENDBRANCH   7   8
ENDBRANCH   6   7
ENDBRANCH   5   6
ENDBRANCH   4   5
ENDBRANCH   3   4
ENDBRANCH   2   3
ENDBRANCH   1   2
BRANCH   1  11
ATOM     11  C   UNL     1       5.698 -37.100  21.529  1.00  0.00     0.000 C 
BRANCH  11  12
ATOM     12  C   UNL     1       5.398 -35.588  21.555  1.00  0.00    -0.000 C 
BRANCH  12  13
ATOM     13  C   UNL     1       4.945 -35.040  22.922  1.00  0.00    -0.000 C 
BRANCH  13  14
ATOM     14  C   UNL     1       6.115 -34.715  23.877  1.00  0.00    -0.000 C 
BRANCH  14  15
ATOM     15  C   UNL     1       6.125 -35.623  25.119  1.00  0.00    -0.000 C 
BRANCH  15  16
ATOM     16  C   UNL     1       5.925 -37.110  24.775  1.00  0.00    -0.000 C 
BRANCH  16  17
ATOM     17  C   UNL     1       5.100 -37.907  25.801  1.00  0.00    -0.003 C 
ATOM     18  C   UNL     1       3.846 -37.167  26.266  1.00  0.00     0.004 C 
ENDBRANCH  16  17
ENDBRANCH  15  16
ENDBRANCH  14  15
ENDBRANCH  13  14
ENDBRANCH  12  13
ENDBRANCH  11  12
ENDBRANCH   1  11
TORSDOF 14
ENDMDL
MODEL 5
REMARK VINA RESULT:    -2.254      3.725      7.929
REMARK INTER + INTRA:          -4.768
REMARK INTER:                  -4.088
REMARK INTRA:                  -0.681
REMARK UNBOUND:                -0.669
REMARK SMILES CCCCCCCCCCCCCCCC(=O)[O-]
REMARK SMILES IDX 9 1 10 2 11 3 12 4 13 5 14 6 15 7 16 8 17 9 18 10 8 11 7 12
REMARK SMILES IDX 6 13 5 14 4 15 3 16 2 17 1 18
REMARK H PARENT
REMARK Flexibility Score: inf
ROOT
ATOM      1  C   UNL     1       4.742 -36.050  20.198  1.00  0.00     0.000 C 
ENDROOT
BRANCH   1   2
ATOM      2  C   UNL     1       5.023 -37.530  19.898  1.00  0.00     0.000 C 
BRANCH   2   3
ATOM      3  C   UNL     1       3.712 -38.323  19.778  1.00  0.00     0.000 C 
BRANCH   3   4
ATOM      4  C   UNL     1       2.524 -37.446  19.352  1.00  0.00     0.000 C 
BRANCH   4   5
ATOM      5  C   UNL     1       1.638 -38.124  18.294  1.00  0.00     0.000 C 
BRANCH   5   6
ATOM      6  C   UNL     1       1.685 -37.408  16.930  1.00  0.00     0.006 C 
BRANCH   6   7
ATOM      7  C   UNL     1       3.079 -36.908  16.523  1.00  0.00     0.053 C 
BRANCH   7   8
ATOM      8  C   UNL     1       3.406 -37.253  15.103  1.00  0.00     0.041 C 
ATOM      9  O   UNL     1       3.287 -36.387  14.196  1.00  0.00    -0.550 OA
ATOM     10  O   UNL     1       3.812 -38.541  14.776  1.00  0.00    -0.550 OA
ENDBRANCH   7   8
ENDBRANCH   6   7
ENDBRANCH   5   6
ENDBRANCH   4   5
ENDBRANCH   3   4
ENDBRANCH   2   3
ENDBRANCH   1   2
BRANCH   1  11
ATOM     11  C   UNL     1       5.888 -35.365  20.965  1.00  0.00     0.000 C 
BRANCH  11  12
ATOM     12  C   UNL     1       6.125 -35.897  22.392  1.00  0.00    -0.000 C 
BRANCH  12  13
ATOM     13  C   UNL     1       5.298 -35.201  23.490  1.00  0.00    -0.000 C 
BRANCH  13  14
ATOM     14  C   UNL     1       5.868 -35.397  24.912  1.00  0.00    -0.000 C 
BRANCH  14  15
ATOM     15  C   UNL     1       5.846 -36.871  25.352  1.00  0.00    -0.000 C 
BRANCH  15  16
ATOM     16  C   UNL     1       5.056 -37.772  24.385  1.00  0.00    -0.000 C 
BRANCH  16  17
ATOM     17  C   UNL     1       5.786 -39.057  23.956  1.00  0.00    -0.003 C 
ATOM     18  C   UNL     1       5.107 -39.769  22.787  1.00  0.00     0.004 C 
ENDBRANCH  16  17
ENDBRANCH  15  16
ENDBRANCH  14  15
ENDBRANCH  13  14
ENDBRANCH  12  13
ENDBRANCH  11  12
ENDBRANCH   1  11
TORSDOF 14
ENDMDL
MODEL 6
REMARK VINA RESULT:    -2.021      3.862      7.749
REMARK INTER + INTRA:          -4.344
REMARK INTER:                  -3.105
REMARK INTRA:                  -1.239
REMARK UNBOUND:                -0.669
REMARK SMILES CCCCCCCCCCCCCCCC(=O)[O-]
REMARK SMILES IDX 9 1 10 2 11 3 12 4 13 5 14 6 15 7 16 8 17 9 18 10 8 11 7 12
REMARK SMILES IDX 6 13 5 14 4 15 3 16 2 17 1 18
REMARK H PARENT
REMARK Flexibility Score: inf
ROOT
ATOM      1  C   UNL     1       5.794 -39.598  20.636  1.00  0.00     0.000 C 
ENDROOT
BRANCH   1   2
ATOM      2  C   UNL     1       5.407 -38.145  20.320  1.00  0.00     0.000 C 
BRANCH   2   3
ATOM      3  C   UNL     1       3.885 -38.004  20.172  1.00  0.00     0.000 C 
BRANCH   3   4
ATOM      4  C   UNL     1       3.477 -37.280  18.879  1.00  0.00     0.000 C 
BRANCH   4   5
ATOM      5  C   UNL     1       2.205 -37.869  18.247  1.00  0.00     0.000 C 
BRANCH   5   6
ATOM      6  C   UNL     1       1.855 -37.219  16.895  1.00  0.00     0.006 C 
BRANCH   6   7
ATOM      7  C   UNL     1       3.035 -36.521  16.201  1.00  0.00     0.053 C 
BRANCH   7   8
ATOM      8  C   UNL     1       3.241 -37.024  14.806  1.00  0.00     0.041 C 
ATOM      9  O   UNL     1       2.476 -36.652  13.878  1.00  0.00    -0.550 OA
ATOM     10  O   UNL     1       4.262 -37.927  14.536  1.00  0.00    -0.550 OA
ENDBRANCH   7   8
ENDBRANCH   6   7
ENDBRANCH   5   6
ENDBRANCH   4   5
ENDBRANCH   3   4
ENDBRANCH   2   3
ENDBRANCH   1   2
BRANCH   1  11
ATOM     11  C   UNL     1       6.125 -39.822  22.123  1.00  0.00     0.000 C 
BRANCH  11  12
ATOM     12  C   UNL     1       4.911 -39.793  23.071  1.00  0.00    -0.000 C 
BRANCH  12  13
ATOM     13  C   UNL     1       5.085 -38.911  24.322  1.00  0.00    -0.000 C 
BRANCH  13  14
ATOM     14  C   UNL     1       5.936 -37.646  24.074  1.00  0.00    -0.000 C 
BRANCH  14  15
ATOM     15  C   UNL     1       5.259 -36.372  24.610  1.00  0.00    -0.000 C 
BRANCH  15  16
ATOM     16  C   UNL     1       5.676 -35.105  23.841  1.00  0.00    -0.000 C 
BRANCH  16  17
ATOM     17  C   UNL     1       5.650 -35.240  22.309  1.00  0.00    -0.003 C 
ATOM     18  C   UNL     1       4.293 -34.888  21.699  1.00  0.00     0.004 C 
ENDBRANCH  16  17
ENDBRANCH  15  16
ENDBRANCH  14  15
ENDBRANCH  13  14
ENDBRANCH  12  13
ENDBRANCH  11  12
ENDBRANCH   1  11
TORSDOF 14
ENDMDL
MODEL 7
REMARK VINA RESULT:    -2.002      1.733      2.957
REMARK INTER + INTRA:          -4.310
REMARK INTER:                  -4.466
REMARK INTRA:                   0.156
REMARK UNBOUND:                -0.669
REMARK SMILES CCCCCCCCCCCCCCCC(=O)[O-]
REMARK SMILES IDX 9 1 10 2 11 3 12 4 13 5 14 6 15 7 16 8 17 9 18 10 8 11 7 12
REMARK SMILES IDX 6 13 5 14 4 15 3 16 2 17 1 18
REMARK H PARENT
REMARK Flexibility Score: inf
ROOT
ATOM      1  C   UNL     1       4.463 -35.249  22.161  1.00  0.00     0.000 C 
ENDROOT
BRANCH   1   2
ATOM      2  C   UNL     1       5.934 -34.963  22.497  1.00  0.00     0.000 C 
BRANCH   2   3
ATOM      3  C   UNL     1       6.124 -34.784  24.011  1.00  0.00     0.000 C 
BRANCH   3   4
ATOM      4  C   UNL     1       5.614 -35.987  24.821  1.00  0.00     0.000 C 
BRANCH   4   5
ATOM      5  C   UNL     1       6.123 -37.329  24.271  1.00  0.00     0.000 C 
BRANCH   5   6
ATOM      6  C   UNL     1       5.011 -38.390  24.165  1.00  0.00     0.006 C 
BRANCH   6   7
ATOM      7  C   UNL     1       5.499 -39.780  23.727  1.00  0.00     0.053 C 
BRANCH   7   8
ATOM      8  C   UNL     1       5.724 -39.855  22.248  1.00  0.00     0.041 C 
ATOM      9  O   UNL     1       5.647 -38.815  21.542  1.00  0.00    -0.550 OA
ATOM     10  O   UNL     1       5.988 -41.078  21.646  1.00  0.00    -0.550 OA
ENDBRANCH   7   8
ENDBRANCH   6   7
ENDBRANCH   5   6
ENDBRANCH   4   5
ENDBRANCH   3   4
ENDBRANCH   2   3
ENDBRANCH   1   2
BRANCH   1  11
ATOM     11  C   UNL     1       4.222 -35.469  20.656  1.00  0.00     0.000 C 
BRANCH  11  12
ATOM     12  C   UNL     1       4.484 -36.903  20.158  1.00  0.00    -0.000 C 
BRANCH  12  13
ATOM     13  C   UNL     1       3.408 -37.468  19.212  1.00  0.00    -0.000 C 
BRANCH  13  14
ATOM     14  C   UNL     1       3.598 -37.048  17.737  1.00  0.00    -0.000 C 
BRANCH  14  15
ATOM     15  C   UNL     1       2.492 -37.605  16.824  1.00  0.00    -0.000 C 
BRANCH  15  16
ATOM     16  C   UNL     1       1.927 -36.550  15.856  1.00  0.00    -0.000 C 
BRANCH  16  17
ATOM     17  C   UNL     1       2.386 -36.700  14.395  1.00  0.00    -0.003 C 
ATOM     18  C   UNL     1       3.679 -37.502  14.253  1.00  0.00     0.004 C 
ENDBRANCH  16  17
ENDBRANCH  15  16
ENDBRANCH  14  15
ENDBRANCH  13  14
ENDBRANCH  12  13
ENDBRANCH  11  12
ENDBRANCH   1  11
TORSDOF 14
ENDMDL
MODEL 8
REMARK VINA RESULT:    -1.870      2.599      7.498
REMARK INTER + INTRA:          -4.069
REMARK INTER:                  -3.062
REMARK INTRA:                  -1.006
REMARK UNBOUND:                -0.669
REMARK SMILES CCCCCCCCCCCCCCCC(=O)[O-]
REMARK SMILES IDX 9 1 10 2 11 3 12 4 13 5 14 6 15 7 16 8 17 9 18 10 8 11 7 12
REMARK SMILES IDX 6 13 5 14 4 15 3 16 2 17 1 18
REMARK H PARENT
REMARK Flexibility Score: inf
ROOT
ATOM      1  C   UNL     1       4.944 -36.780  19.312  1.00  0.00     0.000 C 
ENDROOT
BRANCH   1   2
ATOM      2  C   UNL     1       5.284 -35.406  18.716  1.00  0.00     0.000 C 
BRANCH   2   3
ATOM      3  C   UNL     1       4.263 -35.010  17.638  1.00  0.00     0.000 C 
BRANCH   3   4
ATOM      4  C   UNL     1       4.045 -36.113  16.590  1.00  0.00     0.000 C 
BRANCH   4   5
ATOM      5  C   UNL     1       2.668 -36.022  15.913  1.00  0.00     0.000 C 
BRANCH   5   6
ATOM      6  C   UNL     1       1.649 -37.017  16.498  1.00  0.00     0.006 C 
BRANCH   6   7
ATOM      7  C   UNL     1       2.209 -37.921  17.607  1.00  0.00     0.053 C 
BRANCH   7   8
ATOM      8  C   UNL     1       1.308 -37.967  18.802  1.00  0.00     0.041 C 
ATOM      9  O   UNL     1       0.057 -37.962  18.654  1.00  0.00    -0.550 OA
ATOM     10  O   UNL     1       1.849 -37.983  20.082  1.00  0.00    -0.550 OA
ENDBRANCH   7   8
ENDBRANCH   6   7
ENDBRANCH   5   6
ENDBRANCH   4   5
ENDBRANCH   3   4
ENDBRANCH   2   3
ENDBRANCH   1   2
BRANCH   1  11
ATOM     11  C   UNL     1       5.421 -36.938  20.768  1.00  0.00     0.000 C 
BRANCH  11  12
ATOM     12  C   UNL     1       6.034 -35.670  21.392  1.00  0.00    -0.000 C 
BRANCH  12  13
ATOM     13  C   UNL     1       5.134 -34.950  22.415  1.00  0.00    -0.000 C 
BRANCH  13  14
ATOM     14  C   UNL     1       5.747 -34.870  23.830  1.00  0.00    -0.000 C 
BRANCH  14  15
ATOM     15  C   UNL     1       6.121 -36.256  24.384  1.00  0.00    -0.000 C 
BRANCH  15  16
ATOM     16  C   UNL     1       5.507 -36.533  25.768  1.00  0.00    -0.000 C 
BRANCH  16  17
ATOM     17  C   UNL     1       4.619 -37.787  25.843  1.00  0.00    -0.003 C 
ATOM     18  C   UNL     1       5.016 -38.863  24.832  1.00  0.00     0.004 C 
ENDBRANCH  16  17
ENDBRANCH  15  16
ENDBRANCH  14  15
ENDBRANCH  13  14
ENDBRANCH  12  13
ENDBRANCH  11  12
ENDBRANCH   1  11
TORSDOF 14
ENDMDL
