MODEL 1
REMARK VINA RESULT:    -2.425      0.000      0.000
REMARK INTER + INTRA:          -3.114
REMARK INTER:                  -2.850
REMARK INTRA:                  -0.263
REMARK UNBOUND:                -0.263
REMARK SMILES O=c1cc(-c2ccc(O)c(O)c2)oc2cc(O)cc(O)c12
REMARK SMILES IDX 4 1 3 2 2 3 1 4 21 5 19 6 18 7 16 8 15 9 14 10 13 11 5 12
REMARK SMILES IDX 6 13 7 14 8 15 12 16 10 17 9 18 11 20 20 22 17 24
REMARK H PARENT 9 19 11 21 20 23 17 25
REMARK Flexibility Score: inf
ROOT
ATOM      1  C   UNL     1      16.111  -4.709  26.083  1.00  0.00     0.138 A 
ATOM      2  C   UNL     1      15.178  -3.690  26.318  1.00  0.00     0.100 A 
ATOM      3  C   UNL     1      15.566  -2.548  27.019  1.00  0.00     0.197 A 
ATOM      4  O   UNL     1      14.691  -1.679  27.269  1.00  0.00    -0.289 OA
ATOM      5  C   UNL     1      16.905  -2.412  27.458  1.00  0.00     0.107 A 
ATOM      6  C   UNL     1      17.424  -1.275  28.146  1.00  0.00     0.134 A 
ATOM      7  C   UNL     1      18.735  -1.302  28.635  1.00  0.00     0.093 A 
ATOM      8  C   UNL     1      19.566  -2.404  28.408  1.00  0.00     0.123 A 
ATOM      9  C   UNL     1      19.086  -3.496  27.692  1.00  0.00     0.094 A 
ATOM     10  C   UNL     1      17.771  -3.513  27.221  1.00  0.00     0.146 A 
ATOM     11  O   UNL     1      17.347  -4.582  26.554  1.00  0.00    -0.456 OA
ENDROOT
BRANCH   1  12
ATOM     12  C   UNL     1      15.753  -5.946  25.342  1.00  0.00     0.021 A 
ATOM     13  C   UNL     1      15.571  -7.176  26.002  1.00  0.00     0.016 A 
ATOM     14  C   UNL     1      15.224  -8.322  25.280  1.00  0.00     0.051 A 
ATOM     15  C   UNL     1      15.048  -8.258  23.893  1.00  0.00     0.157 A 
ATOM     16  C   UNL     1      15.561  -5.888  23.951  1.00  0.00     0.062 A 
ATOM     17  C   UNL     1      15.216  -7.034  23.226  1.00  0.00     0.158 A 
BRANCH  15  18
ATOM     18  O   UNL     1      14.704  -9.405  23.177  1.00  0.00    -0.504 OA
ATOM     19  H   UNL     1      14.826 -10.331  23.568  1.00  0.00     0.293 HD
ENDBRANCH  15  18
BRANCH  17  20
ATOM     20  O   UNL     1      15.043  -6.936  21.845  1.00  0.00    -0.504 OA
ATOM     21  H   UNL     1      14.853  -6.052  21.389  1.00  0.00     0.293 HD
ENDBRANCH  17  20
ENDBRANCH   1  12
BRANCH   6  22
ATOM     22  O   UNL     1      16.706  -0.092  28.351  1.00  0.00    -0.507 OA
ATOM     23  H   UNL     1      16.958   0.809  27.974  1.00  0.00     0.293 HD
ENDBRANCH   6  22
BRANCH   8  24
ATOM     24  O   UNL     1      20.875  -2.416  28.886  1.00  0.00    -0.508 OA
ATOM     25  H   UNL     1      21.087  -2.667  29.844  1.00  0.00     0.293 HD
ENDBRANCH   8  24
TORSDOF 5
ENDMDL
MODEL 2
REMARK VINA RESULT:    -2.267      1.355      2.792
REMARK INTER + INTRA:          -2.928
REMARK INTER:                  -2.637
REMARK INTRA:                  -0.291
REMARK UNBOUND:                -0.263
REMARK SMILES O=c1cc(-c2ccc(O)c(O)c2)oc2cc(O)cc(O)c12
REMARK SMILES IDX 4 1 3 2 2 3 1 4 21 5 19 6 18 7 16 8 15 9 14 10 13 11 5 12
REMARK SMILES IDX 6 13 7 14 8 15 12 16 10 17 9 18 11 20 20 22 17 24
REMARK H PARENT 9 19 11 21 20 23 17 25
REMARK Flexibility Score: inf
ROOT
ATOM      1  C   UNL     1      16.154  -4.617  26.215  1.00  0.00     0.138 A 
ATOM      2  C   UNL     1      17.201  -4.613  27.146  1.00  0.00     0.100 A 
ATOM      3  C   UNL     1      17.508  -3.437  27.833  1.00  0.00     0.197 A 
ATOM      4  O   UNL     1      18.494  -3.447  28.616  1.00  0.00    -0.289 OA
ATOM      5  C   UNL     1      16.740  -2.270  27.610  1.00  0.00     0.107 A 
ATOM      6  C   UNL     1      16.935  -1.027  28.282  1.00  0.00     0.134 A 
ATOM      7  C   UNL     1      16.189   0.093  27.894  1.00  0.00     0.093 A 
ATOM      8  C   UNL     1      15.212  -0.002  26.898  1.00  0.00     0.123 A 
ATOM      9  C   UNL     1      14.977  -1.223  26.274  1.00  0.00     0.094 A 
ATOM     10  C   UNL     1      15.729  -2.350  26.614  1.00  0.00     0.146 A 
ATOM     11  O   UNL     1      15.483  -3.494  25.983  1.00  0.00    -0.456 OA
ENDROOT
BRANCH   1  12
ATOM     12  C   UNL     1      15.784  -5.840  25.457  1.00  0.00     0.021 A 
ATOM     13  C   UNL     1      15.595  -7.079  26.099  1.00  0.00     0.016 A 
ATOM     14  C   UNL     1      15.237  -8.211  25.362  1.00  0.00     0.051 A 
ATOM     15  C   UNL     1      15.055  -8.125  23.976  1.00  0.00     0.157 A 
ATOM     16  C   UNL     1      15.586  -5.760  24.067  1.00  0.00     0.062 A 
ATOM     17  C   UNL     1      15.230  -6.892  23.327  1.00  0.00     0.158 A 
BRANCH  15  18
ATOM     18  O   UNL     1      14.700  -9.258  23.244  1.00  0.00    -0.504 OA
ATOM     19  H   UNL     1      14.122  -9.193  22.415  1.00  0.00     0.293 HD
ENDBRANCH  15  18
BRANCH  17  20
ATOM     20  O   UNL     1      15.052  -6.772  21.949  1.00  0.00    -0.504 OA
ATOM     21  H   UNL     1      14.973  -7.582  21.344  1.00  0.00     0.293 HD
ENDBRANCH  17  20
ENDBRANCH   1  12
BRANCH   6  22
ATOM     22  O   UNL     1      17.823  -0.846  29.346  1.00  0.00    -0.507 OA
ATOM     23  H   UNL     1      18.068  -1.555  30.021  1.00  0.00     0.293 HD
ENDBRANCH   6  22
BRANCH   8  24
ATOM     24  O   UNL     1      14.464   1.114  26.529  1.00  0.00    -0.508 OA
ATOM     25  H   UNL     1      14.874   1.875  25.999  1.00  0.00     0.293 HD
ENDBRANCH   8  24
TORSDOF 5
ENDMDL
MODEL 3
REMARK VINA RESULT:    -0.574      2.853      4.419
REMARK INTER + INTRA:          -0.938
REMARK INTER:                  -0.658
REMARK INTRA:                  -0.280
REMARK UNBOUND:                -0.263
REMARK SMILES O=c1cc(-c2ccc(O)c(O)c2)oc2cc(O)cc(O)c12
REMARK SMILES IDX 4 1 3 2 2 3 1 4 21 5 19 6 18 7 16 8 15 9 14 10 13 11 5 12
REMARK SMILES IDX 6 13 7 14 8 15 12 16 10 17 9 18 11 20 20 22 17 24
REMARK H PARENT 9 19 11 21 20 23 17 25
REMARK Flexibility Score: inf
ROOT
ATOM      1  C   UNL     1      16.053  -2.127  27.130  1.00  0.00     0.138 A 
ATOM      2  C   UNL     1      16.281  -1.681  28.439  1.00  0.00     0.100 A 
ATOM      3  C   UNL     1      16.082  -0.336  28.753  1.00  0.00     0.197 A 
ATOM      4  O   UNL     1      16.356   0.048  29.920  1.00  0.00    -0.289 OA
ATOM      5  C   UNL     1      15.620   0.559  27.758  1.00  0.00     0.107 A 
ATOM      6  C   UNL     1      15.344   1.942  27.974  1.00  0.00     0.134 A 
ATOM      7  C   UNL     1      15.004   2.756  26.886  1.00  0.00     0.093 A 
ATOM      8  C   UNL     1      14.872   2.222  25.601  1.00  0.00     0.123 A 
ATOM      9  C   UNL     1      15.087   0.863  25.390  1.00  0.00     0.094 A 
ATOM     10  C   UNL     1      15.462   0.033  26.448  1.00  0.00     0.146 A 
ATOM     11  O   UNL     1      15.673  -1.256  26.201  1.00  0.00    -0.456 OA
ENDROOT
BRANCH   1  12
ATOM     12  C   UNL     1      16.248  -3.547  26.740  1.00  0.00     0.021 A 
ATOM     13  C   UNL     1      17.478  -4.205  26.934  1.00  0.00     0.016 A 
ATOM     14  C   UNL     1      17.630  -5.545  26.567  1.00  0.00     0.051 A 
ATOM     15  C   UNL     1      16.559  -6.252  26.008  1.00  0.00     0.157 A 
ATOM     16  C   UNL     1      15.174  -4.269  26.190  1.00  0.00     0.062 A 
ATOM     17  C   UNL     1      15.325  -5.609  25.821  1.00  0.00     0.158 A 
BRANCH  15  18
ATOM     18  O   UNL     1      16.716  -7.588  25.641  1.00  0.00    -0.504 OA
ATOM     19  H   UNL     1      17.037  -8.285  26.303  1.00  0.00     0.293 HD
ENDBRANCH  15  18
BRANCH  17  20
ATOM     20  O   UNL     1      14.236  -6.287  25.270  1.00  0.00    -0.504 OA
ATOM     21  H   UNL     1      13.773  -5.965  24.428  1.00  0.00     0.293 HD
ENDBRANCH  17  20
ENDBRANCH   1  12
BRANCH   6  22
ATOM     22  O   UNL     1      15.364   2.556  29.230  1.00  0.00    -0.507 OA
ATOM     23  H   UNL     1      16.004   2.326  29.974  1.00  0.00     0.293 HD
ENDBRANCH   6  22
BRANCH   8  24
ATOM     24  O   UNL     1      14.518   3.037  24.527  1.00  0.00    -0.508 OA
ATOM     25  H   UNL     1      13.596   2.990  24.107  1.00  0.00     0.293 HD
ENDBRANCH   8  24
TORSDOF 5
ENDMDL
MODEL 4
REMARK VINA RESULT:    -0.369      4.704      8.219
REMARK INTER + INTRA:          -0.697
REMARK INTER:                  -0.413
REMARK INTRA:                  -0.284
REMARK UNBOUND:                -0.263
REMARK SMILES O=c1cc(-c2ccc(O)c(O)c2)oc2cc(O)cc(O)c12
REMARK SMILES IDX 4 1 3 2 2 3 1 4 21 5 19 6 18 7 16 8 15 9 14 10 13 11 5 12
REMARK SMILES IDX 6 13 7 14 8 15 12 16 10 17 9 18 11 20 20 22 17 24
REMARK H PARENT 9 19 11 21 20 23 17 25
REMARK Flexibility Score: inf
ROOT
ATOM      1  C   UNL     1      14.207  -9.580  26.984  1.00  0.00     0.138 A 
ATOM      2  C   UNL     1      13.180  -9.282  27.889  1.00  0.00     0.100 A 
ATOM      3  C   UNL     1      12.833 -10.212  28.870  1.00  0.00     0.197 A 
ATOM      4  O   UNL     1      11.865  -9.943  29.628  1.00  0.00    -0.289 OA
ATOM      5  C   UNL     1      13.542 -11.433  28.964  1.00  0.00     0.107 A 
ATOM      6  C   UNL     1      13.304 -12.439  29.947  1.00  0.00     0.134 A 
ATOM      7  C   UNL     1      13.989 -13.657  29.870  1.00  0.00     0.093 A 
ATOM      8  C   UNL     1      14.948 -13.883  28.879  1.00  0.00     0.123 A 
ATOM      9  C   UNL     1      15.227 -12.888  27.946  1.00  0.00     0.094 A 
ATOM     10  C   UNL     1      14.535 -11.675  27.976  1.00  0.00     0.146 A 
ATOM     11  O   UNL     1      14.820 -10.756  27.058  1.00  0.00    -0.456 OA
ENDROOT
BRANCH   1  12
ATOM     12  C   UNL     1      14.618  -8.626  25.921  1.00  0.00     0.021 A 
ATOM     13  C   UNL     1      15.023  -7.312  26.224  1.00  0.00     0.016 A 
ATOM     14  C   UNL     1      15.414  -6.439  25.205  1.00  0.00     0.051 A 
ATOM     15  C   UNL     1      15.415  -6.864  23.871  1.00  0.00     0.157 A 
ATOM     16  C   UNL     1      14.634  -9.048  24.580  1.00  0.00     0.062 A 
ATOM     17  C   UNL     1      15.024  -8.175  23.559  1.00  0.00     0.158 A 
BRANCH  15  18
ATOM     18  O   UNL     1      15.804  -5.989  22.857  1.00  0.00    -0.504 OA
ATOM     19  H   UNL     1      15.815  -4.985  22.998  1.00  0.00     0.293 HD
ENDBRANCH  15  18
BRANCH  17  20
ATOM     20  O   UNL     1      15.017  -8.631  22.240  1.00  0.00    -0.504 OA
ATOM     21  H   UNL     1      15.151  -9.608  22.008  1.00  0.00     0.293 HD
ENDBRANCH  17  20
ENDBRANCH   1  12
BRANCH   6  22
ATOM     22  O   UNL     1      12.429 -12.282  31.027  1.00  0.00    -0.507 OA
ATOM     23  H   UNL     1      12.601 -11.693  31.828  1.00  0.00     0.293 HD
ENDBRANCH   6  22
BRANCH   8  24
ATOM     24  O   UNL     1      15.636 -15.093  28.819  1.00  0.00    -0.508 OA
ATOM     25  H   UNL     1      15.571 -15.777  29.563  1.00  0.00     0.293 HD
ENDBRANCH   8  24
TORSDOF 5
ENDMDL
MODEL 5
REMARK VINA RESULT:    -0.301      4.705      8.396
REMARK INTER + INTRA:          -0.617
REMARK INTER:                  -0.355
REMARK INTRA:                  -0.262
REMARK UNBOUND:                -0.263
REMARK SMILES O=c1cc(-c2ccc(O)c(O)c2)oc2cc(O)cc(O)c12
REMARK SMILES IDX 4 1 3 2 2 3 1 4 21 5 19 6 18 7 16 8 15 9 14 10 13 11 5 12
REMARK SMILES IDX 6 13 7 14 8 15 12 16 10 17 9 18 11 20 20 22 17 24
REMARK H PARENT 9 19 11 21 20 23 17 25
REMARK Flexibility Score: inf
ROOT
ATOM      1  C   UNL     1      14.245  -9.520  26.872  1.00  0.00     0.138 A 
ATOM      2  C   UNL     1      15.142 -10.449  27.417  1.00  0.00     0.100 A 
ATOM      3  C   UNL     1      14.710 -11.319  28.419  1.00  0.00     0.197 A 
ATOM      4  O   UNL     1      15.554 -12.099  28.932  1.00  0.00    -0.289 OA
ATOM      5  C   UNL     1      13.363 -11.280  28.854  1.00  0.00     0.107 A 
ATOM      6  C   UNL     1      12.801 -12.145  29.839  1.00  0.00     0.134 A 
ATOM      7  C   UNL     1      11.487 -11.936  30.273  1.00  0.00     0.093 A 
ATOM      8  C   UNL     1      10.695 -10.929  29.713  1.00  0.00     0.123 A 
ATOM      9  C   UNL     1      11.217 -10.114  28.713  1.00  0.00     0.094 A 
ATOM     10  C   UNL     1      12.536 -10.275  28.284  1.00  0.00     0.146 A 
ATOM     11  O   UNL     1      13.001  -9.466  27.337  1.00  0.00    -0.456 OA
ENDROOT
BRANCH   1  12
ATOM     12  C   UNL     1      14.650  -8.571  25.804  1.00  0.00     0.021 A 
ATOM     13  C   UNL     1      14.997  -7.237  26.093  1.00  0.00     0.016 A 
ATOM     14  C   UNL     1      15.384  -6.369  25.068  1.00  0.00     0.051 A 
ATOM     15  C   UNL     1      15.437  -6.817  23.743  1.00  0.00     0.157 A 
ATOM     16  C   UNL     1      14.718  -9.016  24.472  1.00  0.00     0.062 A 
ATOM     17  C   UNL     1      15.104  -8.148  23.445  1.00  0.00     0.158 A 
BRANCH  15  18
ATOM     18  O   UNL     1      15.822  -5.946  22.723  1.00  0.00    -0.504 OA
ATOM     19  H   UNL     1      15.396  -5.983  21.805  1.00  0.00     0.293 HD
ENDBRANCH  15  18
BRANCH  17  20
ATOM     20  O   UNL     1      15.151  -8.626  22.135  1.00  0.00    -0.504 OA
ATOM     21  H   UNL     1      14.713  -8.133  21.366  1.00  0.00     0.293 HD
ENDBRANCH  17  20
ENDBRANCH   1  12
BRANCH   6  22
ATOM     22  O   UNL     1      13.478 -13.233  30.400  1.00  0.00    -0.507 OA
ATOM     23  H   UNL     1      14.165 -13.795  29.920  1.00  0.00     0.293 HD
ENDBRANCH   6  22
BRANCH   8  24
ATOM     24  O   UNL     1       9.383 -10.738  30.141  1.00  0.00    -0.508 OA
ATOM     25  H   UNL     1       8.616 -11.280  29.759  1.00  0.00     0.293 HD
ENDBRANCH   8  24
TORSDOF 5
ENDMDL
MODEL 6
REMARK VINA RESULT:    -0.023      5.584      9.423
REMARK INTER + INTRA:          -0.291
REMARK INTER:                  -0.018
REMARK INTRA:                  -0.273
REMARK UNBOUND:                -0.263
REMARK SMILES O=c1cc(-c2ccc(O)c(O)c2)oc2cc(O)cc(O)c12
REMARK SMILES IDX 4 1 3 2 2 3 1 4 21 5 19 6 18 7 16 8 15 9 14 10 13 11 5 12
REMARK SMILES IDX 6 13 7 14 8 15 12 16 10 17 9 18 11 20 20 22 17 24
REMARK H PARENT 9 19 11 21 20 23 17 25
REMARK Flexibility Score: inf
ROOT
ATOM      1  C   UNL     1      14.542 -10.727  27.894  1.00  0.00     0.138 A 
ATOM      2  C   UNL     1      14.069 -10.749  29.213  1.00  0.00     0.100 A 
ATOM      3  C   UNL     1      14.051 -11.953  29.920  1.00  0.00     0.197 A 
ATOM      4  O   UNL     1      13.562 -11.953  31.079  1.00  0.00    -0.289 OA
ATOM      5  C   UNL     1      14.542 -13.133  29.312  1.00  0.00     0.107 A 
ATOM      6  C   UNL     1      14.611 -14.408  29.949  1.00  0.00     0.134 A 
ATOM      7  C   UNL     1      15.005 -15.529  29.210  1.00  0.00     0.093 A 
ATOM      8  C   UNL     1      15.392 -15.410  27.872  1.00  0.00     0.123 A 
ATOM      9  C   UNL     1      15.380 -14.162  27.256  1.00  0.00     0.094 A 
ATOM     10  C   UNL     1      14.957 -13.030  27.957  1.00  0.00     0.146 A 
ATOM     11  O   UNL     1      14.946 -11.859  27.328  1.00  0.00    -0.456 OA
ENDROOT
BRANCH   1  12
ATOM     12  C   UNL     1      14.584  -9.475  27.097  1.00  0.00     0.021 A 
ATOM     13  C   UNL     1      13.409  -8.783  26.744  1.00  0.00     0.016 A 
ATOM     14  C   UNL     1      13.479  -7.602  26.001  1.00  0.00     0.051 A 
ATOM     15  C   UNL     1      14.720  -7.088  25.604  1.00  0.00     0.157 A 
ATOM     16  C   UNL     1      15.826  -8.944  26.705  1.00  0.00     0.062 A 
ATOM     17  C   UNL     1      15.898  -7.763  25.960  1.00  0.00     0.158 A 
BRANCH  15  18
ATOM     18  O   UNL     1      14.785  -5.909  24.861  1.00  0.00    -0.504 OA
ATOM     19  H   UNL     1      14.160  -5.738  24.082  1.00  0.00     0.293 HD
ENDBRANCH  15  18
BRANCH  17  20
ATOM     20  O   UNL     1      17.150  -7.274  25.583  1.00  0.00    -0.504 OA
ATOM     21  H   UNL     1      17.290  -6.309  25.309  1.00  0.00     0.293 HD
ENDBRANCH  17  20
ENDBRANCH   1  12
BRANCH   6  22
ATOM     22  O   UNL     1      14.328 -14.620  31.302  1.00  0.00    -0.507 OA
ATOM     23  H   UNL     1      14.203 -15.525  31.731  1.00  0.00     0.293 HD
ENDBRANCH   6  22
BRANCH   8  24
ATOM     24  O   UNL     1      15.798 -16.529  27.148  1.00  0.00    -0.508 OA
ATOM     25  H   UNL     1      16.215 -17.333  27.604  1.00  0.00     0.293 HD
ENDBRANCH   8  24
TORSDOF 5
ENDMDL
MODEL 7
REMARK VINA RESULT:     0.483      4.764      8.500
REMARK INTER + INTRA:           0.305
REMARK INTER:                   0.574
REMARK INTRA:                  -0.269
REMARK UNBOUND:                -0.263
REMARK SMILES O=c1cc(-c2ccc(O)c(O)c2)oc2cc(O)cc(O)c12
REMARK SMILES IDX 4 1 3 2 2 3 1 4 21 5 19 6 18 7 16 8 15 9 14 10 13 11 5 12
REMARK SMILES IDX 6 13 7 14 8 15 12 16 10 17 9 18 11 20 20 22 17 24
REMARK H PARENT 9 19 11 21 20 23 17 25
REMARK Flexibility Score: inf
ROOT
ATOM      1  C   UNL     1      14.221  -9.689  26.827  1.00  0.00     0.138 A 
ATOM      2  C   UNL     1      15.125 -10.600  27.391  1.00  0.00     0.100 A 
ATOM      3  C   UNL     1      14.705 -11.434  28.428  1.00  0.00     0.197 A 
ATOM      4  O   UNL     1      15.555 -12.197  28.957  1.00  0.00    -0.289 OA
ATOM      5  C   UNL     1      13.364 -11.378  28.878  1.00  0.00     0.107 A 
ATOM      6  C   UNL     1      12.814 -12.208  29.900  1.00  0.00     0.134 A 
ATOM      7  C   UNL     1      11.506 -11.982  30.344  1.00  0.00     0.093 A 
ATOM      8  C   UNL     1      10.708 -10.994  29.760  1.00  0.00     0.123 A 
ATOM      9  C   UNL     1      11.217 -10.215  28.726  1.00  0.00     0.094 A 
ATOM     10  C   UNL     1      12.531 -10.392  28.285  1.00  0.00     0.146 A 
ATOM     11  O   UNL     1      12.984  -9.617  27.305  1.00  0.00    -0.456 OA
ENDROOT
BRANCH   1  12
ATOM     12  C   UNL     1      14.614  -8.778  25.721  1.00  0.00     0.021 A 
ATOM     13  C   UNL     1      14.611  -9.202  24.378  1.00  0.00     0.016 A 
ATOM     14  C   UNL     1      14.975  -8.320  23.357  1.00  0.00     0.051 A 
ATOM     15  C   UNL     1      15.341  -7.002  23.656  1.00  0.00     0.157 A 
ATOM     16  C   UNL     1      14.970  -7.449  26.011  1.00  0.00     0.062 A 
ATOM     17  C   UNL     1      15.337  -6.566  24.990  1.00  0.00     0.158 A 
BRANCH  15  18
ATOM     18  O   UNL     1      15.706  -6.127  22.634  1.00  0.00    -0.504 OA
ATOM     19  H   UNL     1      16.669  -5.843  22.496  1.00  0.00     0.293 HD
ENDBRANCH  15  18
BRANCH  17  20
ATOM     20  O   UNL     1      15.692  -5.258  25.322  1.00  0.00    -0.504 OA
ATOM     21  H   UNL     1      16.506  -4.805  24.923  1.00  0.00     0.293 HD
ENDBRANCH  17  20
ENDBRANCH   1  12
BRANCH   6  22
ATOM     22  O   UNL     1      13.497 -13.277  30.489  1.00  0.00    -0.507 OA
ATOM     23  H   UNL     1      13.800 -13.309  31.451  1.00  0.00     0.293 HD
ENDBRANCH   6  22
BRANCH   8  24
ATOM     24  O   UNL     1       9.401 -10.786  30.198  1.00  0.00    -0.508 OA
ATOM     25  H   UNL     1       8.604 -11.099  29.655  1.00  0.00     0.293 HD
ENDBRANCH   8  24
TORSDOF 5
ENDMDL
