MODEL 1
REMARK VINA RESULT:    -7.625      0.000      0.000
REMARK INTER + INTRA:          -8.772
REMARK INTER:                  -9.185
REMARK INTRA:                   0.414
REMARK UNBOUND:                 0.414
REMARK SMILES O=c1c(O)c(-c2ccc(O)c(O)c2)oc2cc(O)cc(O)c12
REMARK SMILES IDX 5 1 3 2 2 3 1 4 22 5 20 6 19 7 17 8 16 9 15 10 14 11 6 12
REMARK SMILES IDX 7 13 8 14 9 15 13 16 11 17 10 18 12 20 4 22 21 24 18 26
REMARK H PARENT 10 19 12 21 4 23 21 25 18 27
REMARK Flexibility Score: inf
ROOT
ATOM      1  C   UNL     1       9.594  13.130  23.165  1.00  0.00     0.180 A 
ATOM      2  C   UNL     1       9.072  13.825  24.274  1.00  0.00     0.208 A 
ATOM      3  C   UNL     1       8.680  13.097  25.408  1.00  0.00     0.238 A 
ATOM      4  O   UNL     1       8.202  13.707  26.403  1.00  0.00    -0.285 OA
ATOM      5  C   UNL     1       8.832  11.695  25.423  1.00  0.00     0.111 A 
ATOM      6  C   UNL     1       8.464  10.888  26.527  1.00  0.00     0.134 A 
ATOM      7  C   UNL     1       8.656   9.500  26.468  1.00  0.00     0.093 A 
ATOM      8  C   UNL     1       9.208   8.904  25.329  1.00  0.00     0.123 A 
ATOM      9  C   UNL     1       9.571   9.696  24.238  1.00  0.00     0.094 A 
ATOM     10  C   UNL     1       9.387  11.080  24.276  1.00  0.00     0.146 A 
ATOM     11  O   UNL     1       9.737  11.808  23.222  1.00  0.00    -0.452 OA
ENDROOT
BRANCH   1  12
ATOM     12  C   UNL     1      10.012  13.825  21.927  1.00  0.00     0.025 A 
ATOM     13  C   UNL     1      10.120  13.142  20.706  1.00  0.00     0.016 A 
ATOM     14  C   UNL     1      10.540  13.814  19.557  1.00  0.00     0.051 A 
ATOM     15  C   UNL     1      10.872  15.173  19.604  1.00  0.00     0.157 A 
ATOM     16  C   UNL     1      10.365  15.182  21.982  1.00  0.00     0.062 A 
ATOM     17  C   UNL     1      10.787  15.866  20.835  1.00  0.00     0.158 A 
BRANCH  15  18
ATOM     18  O   UNL     1      11.280  15.787  18.418  1.00  0.00    -0.504 OA
ATOM     19  H   UNL     1      11.965  16.528  18.373  1.00  0.00     0.293 HD
ENDBRANCH  15  18
BRANCH  17  20
ATOM     20  O   UNL     1      11.111  17.218  20.963  1.00  0.00    -0.504 OA
ATOM     21  H   UNL     1      11.041  17.736  21.827  1.00  0.00     0.293 HD
ENDBRANCH  17  20
ENDBRANCH   1  12
BRANCH   2  22
ATOM     22  O   UNL     1       8.978  15.218  24.252  1.00  0.00    -0.502 OA
ATOM     23  H   UNL     1       8.231  15.704  23.771  1.00  0.00     0.293 HD
ENDBRANCH   2  22
BRANCH   6  24
ATOM     24  O   UNL     1       7.913  11.453  27.678  1.00  0.00    -0.507 OA
ATOM     25  H   UNL     1       7.886  12.457  27.819  1.00  0.00     0.293 HD
ENDBRANCH   6  24
BRANCH   8  26
ATOM     26  O   UNL     1       9.399   7.525  25.271  1.00  0.00    -0.508 OA
ATOM     27  H   UNL     1      10.063   7.109  24.629  1.00  0.00     0.293 HD
ENDBRANCH   8  26
TORSDOF 6
ENDMDL
MODEL 2
REMARK VINA RESULT:    -6.662      2.428      3.543
REMARK INTER + INTRA:          -7.611
REMARK INTER:                  -7.313
REMARK INTRA:                  -0.298
REMARK UNBOUND:                 0.414
REMARK SMILES O=c1c(O)c(-c2ccc(O)c(O)c2)oc2cc(O)cc(O)c12
REMARK SMILES IDX 5 1 3 2 2 3 1 4 22 5 20 6 19 7 17 8 16 9 15 10 14 11 6 12
REMARK SMILES IDX 7 13 8 14 9 15 13 16 11 17 10 18 12 20 4 22 21 24 18 26
REMARK H PARENT 10 19 12 21 4 23 21 25 18 27
REMARK Flexibility Score: inf
ROOT
ATOM      1  C   UNL     1       9.203  12.656  24.705  1.00  0.00     0.180 A 
ATOM      2  C   UNL     1       9.500  11.572  23.856  1.00  0.00     0.208 A 
ATOM      3  C   UNL     1       9.434  10.268  24.372  1.00  0.00     0.238 A 
ATOM      4  O   UNL     1       9.709   9.290  23.625  1.00  0.00    -0.285 OA
ATOM      5  C   UNL     1       9.055  10.069  25.716  1.00  0.00     0.111 A 
ATOM      6  C   UNL     1       8.961   8.789  26.312  1.00  0.00     0.134 A 
ATOM      7  C   UNL     1       8.568   8.673  27.653  1.00  0.00     0.093 A 
ATOM      8  C   UNL     1       8.267   9.812  28.409  1.00  0.00     0.123 A 
ATOM      9  C   UNL     1       8.359  11.077  27.825  1.00  0.00     0.094 A 
ATOM     10  C   UNL     1       8.750  11.213  26.490  1.00  0.00     0.146 A 
ATOM     11  O   UNL     1       8.834  12.429  25.963  1.00  0.00    -0.452 OA
ENDROOT
BRANCH   1  12
ATOM     12  C   UNL     1       9.269  14.060  24.239  1.00  0.00     0.025 A 
ATOM     13  C   UNL     1       8.118  14.749  23.828  1.00  0.00     0.016 A 
ATOM     14  C   UNL     1       8.209  16.065  23.370  1.00  0.00     0.051 A 
ATOM     15  C   UNL     1       9.446  16.714  23.301  1.00  0.00     0.157 A 
ATOM     16  C   UNL     1      10.515  14.701  24.150  1.00  0.00     0.062 A 
ATOM     17  C   UNL     1      10.617  16.020  23.693  1.00  0.00     0.158 A 
BRANCH  15  18
ATOM     18  O   UNL     1       9.469  18.031  22.839  1.00  0.00    -0.504 OA
ATOM     19  H   UNL     1      10.098  18.741  23.185  1.00  0.00     0.293 HD
ENDBRANCH  15  18
BRANCH  17  20
ATOM     20  O   UNL     1      11.887  16.598  23.643  1.00  0.00    -0.504 OA
ATOM     21  H   UNL     1      12.086  17.551  23.911  1.00  0.00     0.293 HD
ENDBRANCH  17  20
ENDBRANCH   1  12
BRANCH   2  22
ATOM     22  O   UNL     1       9.825  11.794  22.516  1.00  0.00    -0.502 OA
ATOM     23  H   UNL     1      10.749  11.610  22.144  1.00  0.00     0.293 HD
ENDBRANCH   2  22
BRANCH   6  24
ATOM     24  O   UNL     1       9.253   7.634  25.584  1.00  0.00    -0.507 OA
ATOM     25  H   UNL     1      10.040   7.589  24.947  1.00  0.00     0.293 HD
ENDBRANCH   6  24
BRANCH   8  26
ATOM     26  O   UNL     1       7.875   9.697  29.741  1.00  0.00    -0.508 OA
ATOM     27  H   UNL     1       6.945   9.961  30.045  1.00  0.00     0.293 HD
ENDBRANCH   8  26
TORSDOF 6
ENDMDL
MODEL 3
REMARK VINA RESULT:    -6.642      1.611      7.379
REMARK INTER + INTRA:          -7.587
REMARK INTER:                  -7.826
REMARK INTRA:                   0.239
REMARK UNBOUND:                 0.414
REMARK SMILES O=c1c(O)c(-c2ccc(O)c(O)c2)oc2cc(O)cc(O)c12
REMARK SMILES IDX 5 1 3 2 2 3 1 4 22 5 20 6 19 7 17 8 16 9 15 10 14 11 6 12
REMARK SMILES IDX 7 13 8 14 9 15 13 16 11 17 10 18 12 20 4 22 21 24 18 26
REMARK H PARENT 10 19 12 21 4 23 21 25 18 27
REMARK Flexibility Score: inf
ROOT
ATOM      1  C   UNL     1       9.563  13.598  24.108  1.00  0.00     0.180 A 
ATOM      2  C   UNL     1       9.598  13.118  22.784  1.00  0.00     0.208 A 
ATOM      3  C   UNL     1      10.026  13.979  21.761  1.00  0.00     0.238 A 
ATOM      4  O   UNL     1      10.051  13.563  20.571  1.00  0.00    -0.285 OA
ATOM      5  C   UNL     1      10.428  15.292  22.079  1.00  0.00     0.111 A 
ATOM      6  C   UNL     1      10.876  16.221  21.108  1.00  0.00     0.134 A 
ATOM      7  C   UNL     1      11.269  17.507  21.505  1.00  0.00     0.093 A 
ATOM      8  C   UNL     1      11.223  17.882  22.853  1.00  0.00     0.123 A 
ATOM      9  C   UNL     1      10.782  16.970  23.813  1.00  0.00     0.094 A 
ATOM     10  C   UNL     1      10.385  15.684  23.437  1.00  0.00     0.146 A 
ATOM     11  O   UNL     1       9.965  14.839  24.371  1.00  0.00    -0.452 OA
ENDROOT
BRANCH   1  12
ATOM     12  C   UNL     1       9.106  12.758  25.238  1.00  0.00     0.025 A 
ATOM     13  C   UNL     1       8.407  13.308  26.323  1.00  0.00     0.016 A 
ATOM     14  C   UNL     1       8.008  12.499  27.388  1.00  0.00     0.051 A 
ATOM     15  C   UNL     1       8.307  11.132  27.400  1.00  0.00     0.157 A 
ATOM     16  C   UNL     1       9.427  11.391  25.256  1.00  0.00     0.062 A 
ATOM     17  C   UNL     1       9.031  10.571  26.319  1.00  0.00     0.158 A 
BRANCH  15  18
ATOM     18  O   UNL     1       7.876  10.378  28.492  1.00  0.00    -0.504 OA
ATOM     19  H   UNL     1       8.421  10.234  29.330  1.00  0.00     0.293 HD
ENDBRANCH  15  18
BRANCH  17  20
ATOM     20  O   UNL     1       9.375   9.219  26.265  1.00  0.00    -0.504 OA
ATOM     21  H   UNL     1       9.078   8.590  25.532  1.00  0.00     0.293 HD
ENDBRANCH  17  20
ENDBRANCH   1  12
BRANCH   2  22
ATOM     22  O   UNL     1       9.240  11.797  22.503  1.00  0.00    -0.502 OA
ATOM     23  H   UNL     1       9.607  11.294  21.705  1.00  0.00     0.293 HD
ENDBRANCH   2  22
BRANCH   6  24
ATOM     24  O   UNL     1      10.935  15.876  19.757  1.00  0.00    -0.507 OA
ATOM     25  H   UNL     1      10.210  16.151  19.104  1.00  0.00     0.293 HD
ENDBRANCH   6  24
BRANCH   8  26
ATOM     26  O   UNL     1      11.614  19.160  23.247  1.00  0.00    -0.508 OA
ATOM     27  H   UNL     1      11.250  19.589  24.090  1.00  0.00     0.293 HD
ENDBRANCH   8  26
TORSDOF 6
ENDMDL
MODEL 4
REMARK VINA RESULT:    -6.575      1.060      6.683
REMARK INTER + INTRA:          -7.507
REMARK INTER:                  -8.049
REMARK INTRA:                   0.542
REMARK UNBOUND:                 0.414
REMARK SMILES O=c1c(O)c(-c2ccc(O)c(O)c2)oc2cc(O)cc(O)c12
REMARK SMILES IDX 5 1 3 2 2 3 1 4 22 5 20 6 19 7 17 8 16 9 15 10 14 11 6 12
REMARK SMILES IDX 7 13 8 14 9 15 13 16 11 17 10 18 12 20 4 22 21 24 18 26
REMARK H PARENT 10 19 12 21 4 23 21 25 18 27
REMARK Flexibility Score: inf
ROOT
ATOM      1  C   UNL     1       9.227  12.095  24.106  1.00  0.00     0.180 A 
ATOM      2  C   UNL     1       8.780  13.300  24.682  1.00  0.00     0.208 A 
ATOM      3  C   UNL     1       8.888  14.488  23.942  1.00  0.00     0.238 A 
ATOM      4  O   UNL     1       8.502  15.574  24.452  1.00  0.00    -0.285 OA
ATOM      5  C   UNL     1       9.421  14.449  22.637  1.00  0.00     0.111 A 
ATOM      6  C   UNL     1       9.562  15.599  21.824  1.00  0.00     0.134 A 
ATOM      7  C   UNL     1      10.093  15.477  20.531  1.00  0.00     0.093 A 
ATOM      8  C   UNL     1      10.485  14.228  20.037  1.00  0.00     0.123 A 
ATOM      9  C   UNL     1      10.348  13.091  20.836  1.00  0.00     0.094 A 
ATOM     10  C   UNL     1       9.823  13.192  22.126  1.00  0.00     0.146 A 
ATOM     11  O   UNL     1       9.710  12.095  22.866  1.00  0.00    -0.452 OA
ENDROOT
BRANCH   1  12
ATOM     12  C   UNL     1       9.163  10.805  24.830  1.00  0.00     0.025 A 
ATOM     13  C   UNL     1       9.519   9.599  24.208  1.00  0.00     0.016 A 
ATOM     14  C   UNL     1       9.427   8.392  24.905  1.00  0.00     0.051 A 
ATOM     15  C   UNL     1       8.967   8.363  26.226  1.00  0.00     0.157 A 
ATOM     16  C   UNL     1       8.680  10.776  26.148  1.00  0.00     0.062 A 
ATOM     17  C   UNL     1       8.585   9.572  26.855  1.00  0.00     0.158 A 
BRANCH  15  18
ATOM     18  O   UNL     1       8.903   7.125  26.868  1.00  0.00    -0.504 OA
ATOM     19  H   UNL     1       8.585   6.997  27.818  1.00  0.00     0.293 HD
ENDBRANCH  15  18
BRANCH  17  20
ATOM     20  O   UNL     1       8.107   9.621  28.167  1.00  0.00    -0.504 OA
ATOM     21  H   UNL     1       8.433  10.277  28.862  1.00  0.00     0.293 HD
ENDBRANCH  17  20
ENDBRANCH   1  12
BRANCH   2  22
ATOM     22  O   UNL     1       8.211  13.303  25.958  1.00  0.00    -0.502 OA
ATOM     23  H   UNL     1       7.293  12.919  26.144  1.00  0.00     0.293 HD
ENDBRANCH   2  22
BRANCH   6  24
ATOM     24  O   UNL     1       9.178  16.859  22.288  1.00  0.00    -0.507 OA
ATOM     25  H   UNL     1       9.307  17.695  21.730  1.00  0.00     0.293 HD
ENDBRANCH   6  24
BRANCH   8  26
ATOM     26  O   UNL     1      11.011  14.106  18.753  1.00  0.00    -0.508 OA
ATOM     27  H   UNL     1      11.641  13.351  18.507  1.00  0.00     0.293 HD
ENDBRANCH   8  26
TORSDOF 6
ENDMDL
MODEL 5
REMARK VINA RESULT:    -6.432      2.317      3.865
REMARK INTER + INTRA:          -7.334
REMARK INTER:                  -7.504
REMARK INTRA:                   0.170
REMARK UNBOUND:                 0.414
REMARK SMILES O=c1c(O)c(-c2ccc(O)c(O)c2)oc2cc(O)cc(O)c12
REMARK SMILES IDX 5 1 3 2 2 3 1 4 22 5 20 6 19 7 17 8 16 9 15 10 14 11 6 12
REMARK SMILES IDX 7 13 8 14 9 15 13 16 11 17 10 18 12 20 4 22 21 24 18 26
REMARK H PARENT 10 19 12 21 4 23 21 25 18 27
REMARK Flexibility Score: inf
ROOT
ATOM      1  C   UNL     1       9.888  14.991  23.479  1.00  0.00     0.180 A 
ATOM      2  C   UNL     1      10.424  14.070  22.558  1.00  0.00     0.208 A 
ATOM      3  C   UNL     1      10.366  12.699  22.856  1.00  0.00     0.238 A 
ATOM      4  O   UNL     1      10.853  11.866  22.044  1.00  0.00    -0.285 OA
ATOM      5  C   UNL     1       9.760  12.273  24.055  1.00  0.00     0.111 A 
ATOM      6  C   UNL     1       9.659  10.911  24.430  1.00  0.00     0.134 A 
ATOM      7  C   UNL     1       9.032  10.566  25.636  1.00  0.00     0.093 A 
ATOM      8  C   UNL     1       8.505  11.555  26.474  1.00  0.00     0.123 A 
ATOM      9  C   UNL     1       8.604  12.899  26.109  1.00  0.00     0.094 A 
ATOM     10  C   UNL     1       9.225  13.264  24.912  1.00  0.00     0.146 A 
ATOM     11  O   UNL     1       9.310  14.550  24.593  1.00  0.00    -0.452 OA
ENDROOT
BRANCH   1  12
ATOM     12  C   UNL     1       9.927  16.452  23.244  1.00  0.00     0.025 A 
ATOM     13  C   UNL     1       9.737  16.992  21.963  1.00  0.00     0.016 A 
ATOM     14  C   UNL     1       9.803  18.372  21.762  1.00  0.00     0.051 A 
ATOM     15  C   UNL     1      10.072  19.237  22.828  1.00  0.00     0.157 A 
ATOM     16  C   UNL     1      10.219  17.316  24.311  1.00  0.00     0.062 A 
ATOM     17  C   UNL     1      10.287  18.701  24.121  1.00  0.00     0.158 A 
BRANCH  15  18
ATOM     18  O   UNL     1      10.119  20.607  22.561  1.00  0.00    -0.504 OA
ATOM     19  H   UNL     1       9.553  21.295  23.037  1.00  0.00     0.293 HD
ENDBRANCH  15  18
BRANCH  17  20
ATOM     20  O   UNL     1      10.569  19.500  25.230  1.00  0.00    -0.504 OA
ATOM     21  H   UNL     1      11.322  19.320  25.878  1.00  0.00     0.293 HD
ENDBRANCH  17  20
ENDBRANCH   1  12
BRANCH   2  22
ATOM     22  O   UNL     1      10.975  14.516  21.354  1.00  0.00    -0.502 OA
ATOM     23  H   UNL     1      11.767  14.060  20.918  1.00  0.00     0.293 HD
ENDBRANCH   2  22
BRANCH   6  24
ATOM     24  O   UNL     1      10.173   9.901  23.614  1.00  0.00    -0.507 OA
ATOM     25  H   UNL     1      10.250  10.014  22.610  1.00  0.00     0.293 HD
ENDBRANCH   6  24
BRANCH   8  26
ATOM     26  O   UNL     1       7.882  11.213  27.672  1.00  0.00    -0.508 OA
ATOM     27  H   UNL     1       8.195  10.425  28.226  1.00  0.00     0.293 HD
ENDBRANCH   8  26
TORSDOF 6
ENDMDL
MODEL 6
REMARK VINA RESULT:    -6.381      2.038      7.043
REMARK INTER + INTRA:          -7.273
REMARK INTER:                  -7.566
REMARK INTRA:                   0.293
REMARK UNBOUND:                 0.414
REMARK SMILES O=c1c(O)c(-c2ccc(O)c(O)c2)oc2cc(O)cc(O)c12
REMARK SMILES IDX 5 1 3 2 2 3 1 4 22 5 20 6 19 7 17 8 16 9 15 10 14 11 6 12
REMARK SMILES IDX 7 13 8 14 9 15 13 16 11 17 10 18 12 20 4 22 21 24 18 26
REMARK H PARENT 10 19 12 21 4 23 21 25 18 27
REMARK Flexibility Score: inf
ROOT
ATOM      1  C   UNL     1       9.510  13.478  23.984  1.00  0.00     0.180 A 
ATOM      2  C   UNL     1       9.436  13.637  22.587  1.00  0.00     0.208 A 
ATOM      3  C   UNL     1       9.519  14.929  22.044  1.00  0.00     0.238 A 
ATOM      4  O   UNL     1       9.443  15.084  20.795  1.00  0.00    -0.285 OA
ATOM      5  C   UNL     1       9.691  16.034  22.903  1.00  0.00     0.111 A 
ATOM      6  C   UNL     1       9.787  17.368  22.437  1.00  0.00     0.134 A 
ATOM      7  C   UNL     1       9.968  18.414  23.355  1.00  0.00     0.093 A 
ATOM      8  C   UNL     1      10.056  18.151  24.726  1.00  0.00     0.123 A 
ATOM      9  C   UNL     1       9.962  16.838  25.190  1.00  0.00     0.094 A 
ATOM     10  C   UNL     1       9.780  15.782  24.292  1.00  0.00     0.146 A 
ATOM     11  O   UNL     1       9.689  14.544  24.761  1.00  0.00    -0.452 OA
ENDROOT
BRANCH   1  12
ATOM     12  C   UNL     1       9.412  12.151  24.632  1.00  0.00     0.025 A 
ATOM     13  C   UNL     1       9.815  10.982  23.967  1.00  0.00     0.016 A 
ATOM     14  C   UNL     1       9.690   9.738  24.590  1.00  0.00     0.051 A 
ATOM     15  C   UNL     1       9.152   9.634  25.877  1.00  0.00     0.157 A 
ATOM     16  C   UNL     1       8.851  12.047  25.914  1.00  0.00     0.062 A 
ATOM     17  C   UNL     1       8.723  10.805  26.547  1.00  0.00     0.158 A 
BRANCH  15  18
ATOM     18  O   UNL     1       9.059   8.362  26.445  1.00  0.00    -0.504 OA
ATOM     19  H   UNL     1       8.950   7.511  25.911  1.00  0.00     0.293 HD
ENDBRANCH  15  18
BRANCH  17  20
ATOM     20  O   UNL     1       8.167  10.779  27.828  1.00  0.00    -0.504 OA
ATOM     21  H   UNL     1       8.524  11.309  28.610  1.00  0.00     0.293 HD
ENDBRANCH  17  20
ENDBRANCH   1  12
BRANCH   2  22
ATOM     22  O   UNL     1       9.315  12.520  21.756  1.00  0.00    -0.502 OA
ATOM     23  H   UNL     1       9.285  12.596  20.746  1.00  0.00     0.293 HD
ENDBRANCH   2  22
BRANCH   6  24
ATOM     24  O   UNL     1       9.704  17.662  21.075  1.00  0.00    -0.507 OA
ATOM     25  H   UNL     1      10.120  17.059  20.374  1.00  0.00     0.293 HD
ENDBRANCH   6  24
BRANCH   8  26
ATOM     26  O   UNL     1      10.236  19.190  25.637  1.00  0.00    -0.508 OA
ATOM     27  H   UNL     1      11.152  19.418  26.007  1.00  0.00     0.293 HD
ENDBRANCH   8  26
TORSDOF 6
ENDMDL
MODEL 7
REMARK VINA RESULT:    -6.299      1.881      7.464
REMARK INTER + INTRA:          -7.175
REMARK INTER:                  -7.495
REMARK INTRA:                   0.321
REMARK UNBOUND:                 0.414
REMARK SMILES O=c1c(O)c(-c2ccc(O)c(O)c2)oc2cc(O)cc(O)c12
REMARK SMILES IDX 5 1 3 2 2 3 1 4 22 5 20 6 19 7 17 8 16 9 15 10 14 11 6 12
REMARK SMILES IDX 7 13 8 14 9 15 13 16 11 17 10 18 12 20 4 22 21 24 18 26
REMARK H PARENT 10 19 12 21 4 23 21 25 18 27
REMARK Flexibility Score: inf
ROOT
ATOM      1  C   UNL     1       9.266  11.760  25.207  1.00  0.00     0.180 A 
ATOM      2  C   UNL     1       9.833  11.422  23.963  1.00  0.00     0.208 A 
ATOM      3  C   UNL     1      10.080  12.441  23.030  1.00  0.00     0.238 A 
ATOM      4  O   UNL     1      10.577  12.148  21.908  1.00  0.00    -0.285 OA
ATOM      5  C   UNL     1       9.775  13.777  23.361  1.00  0.00     0.111 A 
ATOM      6  C   UNL     1       9.996  14.863  22.479  1.00  0.00     0.134 A 
ATOM      7  C   UNL     1       9.675  16.166  22.886  1.00  0.00     0.093 A 
ATOM      8  C   UNL     1       9.139  16.404  24.157  1.00  0.00     0.123 A 
ATOM      9  C   UNL     1       8.919  15.337  25.029  1.00  0.00     0.094 A 
ATOM     10  C   UNL     1       9.231  14.031  24.642  1.00  0.00     0.146 A 
ATOM     11  O   UNL     1       9.006  13.034  25.490  1.00  0.00    -0.452 OA
ENDROOT
BRANCH   1  12
ATOM     12  C   UNL     1       8.959  10.740  26.235  1.00  0.00     0.025 A 
ATOM     13  C   UNL     1       9.028  11.039  27.605  1.00  0.00     0.016 A 
ATOM     14  C   UNL     1       8.758  10.053  28.556  1.00  0.00     0.051 A 
ATOM     15  C   UNL     1       8.427   8.752  28.163  1.00  0.00     0.157 A 
ATOM     16  C   UNL     1       8.649   9.430  25.838  1.00  0.00     0.062 A 
ATOM     17  C   UNL     1       8.375   8.435  26.784  1.00  0.00     0.158 A 
BRANCH  15  18
ATOM     18  O   UNL     1       8.164   7.814  29.163  1.00  0.00    -0.504 OA
ATOM     19  H   UNL     1       7.761   6.904  28.993  1.00  0.00     0.293 HD
ENDBRANCH  15  18
BRANCH  17  20
ATOM     20  O   UNL     1       8.062   7.157  26.316  1.00  0.00    -0.504 OA
ATOM     21  H   UNL     1       8.378   6.787  25.431  1.00  0.00     0.293 HD
ENDBRANCH  17  20
ENDBRANCH   1  12
BRANCH   2  22
ATOM     22  O   UNL     1      10.170  10.096  23.679  1.00  0.00    -0.502 OA
ATOM     23  H   UNL     1      11.048   9.841  23.243  1.00  0.00     0.293 HD
ENDBRANCH   2  22
BRANCH   6  24
ATOM     24  O   UNL     1      10.531  14.657  21.206  1.00  0.00    -0.507 OA
ATOM     25  H   UNL     1      10.013  14.887  20.366  1.00  0.00     0.293 HD
ENDBRANCH   6  24
BRANCH   8  26
ATOM     26  O   UNL     1       8.821  17.699  24.561  1.00  0.00    -0.508 OA
ATOM     27  H   UNL     1       8.819  18.473  23.908  1.00  0.00     0.293 HD
ENDBRANCH   8  26
TORSDOF 6
ENDMDL
MODEL 8
REMARK VINA RESULT:    -6.098      3.586      7.399
REMARK INTER + INTRA:          -6.933
REMARK INTER:                  -7.019
REMARK INTRA:                   0.087
REMARK UNBOUND:                 0.414
REMARK SMILES O=c1c(O)c(-c2ccc(O)c(O)c2)oc2cc(O)cc(O)c12
REMARK SMILES IDX 5 1 3 2 2 3 1 4 22 5 20 6 19 7 17 8 16 9 15 10 14 11 6 12
REMARK SMILES IDX 7 13 8 14 9 15 13 16 11 17 10 18 12 20 4 22 21 24 18 26
REMARK H PARENT 10 19 12 21 4 23 21 25 18 27
REMARK Flexibility Score: inf
ROOT
ATOM      1  C   UNL     1       9.657  16.072  23.713  1.00  0.00     0.180 A 
ATOM      2  C   UNL     1       9.386  16.703  22.483  1.00  0.00     0.208 A 
ATOM      3  C   UNL     1       9.335  18.105  22.434  1.00  0.00     0.238 A 
ATOM      4  O   UNL     1       9.082  18.680  21.341  1.00  0.00    -0.285 OA
ATOM      5  C   UNL     1       9.575  18.851  23.607  1.00  0.00     0.111 A 
ATOM      6  C   UNL     1       9.546  20.266  23.643  1.00  0.00     0.134 A 
ATOM      7  C   UNL     1       9.804  20.936  24.848  1.00  0.00     0.093 A 
ATOM      8  C   UNL     1      10.091  20.219  26.015  1.00  0.00     0.123 A 
ATOM      9  C   UNL     1      10.120  18.824  25.984  1.00  0.00     0.094 A 
ATOM     10  C   UNL     1       9.864  18.138  24.794  1.00  0.00     0.146 A 
ATOM     11  O   UNL     1       9.893  16.810  24.794  1.00  0.00    -0.452 OA
ENDROOT
BRANCH   1  12
ATOM     12  C   UNL     1       9.708  14.599  23.847  1.00  0.00     0.025 A 
ATOM     13  C   UNL     1       9.084  13.940  24.917  1.00  0.00     0.016 A 
ATOM     14  C   UNL     1       9.167  12.552  25.036  1.00  0.00     0.051 A 
ATOM     15  C   UNL     1       9.882  11.796  24.100  1.00  0.00     0.157 A 
ATOM     16  C   UNL     1      10.445  13.846  22.919  1.00  0.00     0.062 A 
ATOM     17  C   UNL     1      10.533  12.453  23.028  1.00  0.00     0.158 A 
BRANCH  15  18
ATOM     18  O   UNL     1       9.922  10.411  24.273  1.00  0.00    -0.504 OA
ATOM     19  H   UNL     1       9.753   9.946  25.153  1.00  0.00     0.293 HD
ENDBRANCH  15  18
BRANCH  17  20
ATOM     20  O   UNL     1      11.273  11.768  22.062  1.00  0.00    -0.504 OA
ATOM     21  H   UNL     1      11.191  11.929  21.069  1.00  0.00     0.293 HD
ENDBRANCH  17  20
ENDBRANCH   1  12
BRANCH   2  22
ATOM     22  O   UNL     1       9.200  15.942  21.326  1.00  0.00    -0.502 OA
ATOM     23  H   UNL     1       8.331  15.464  21.124  1.00  0.00     0.293 HD
ENDBRANCH   2  22
BRANCH   6  24
ATOM     24  O   UNL     1       9.265  21.009  22.495  1.00  0.00    -0.507 OA
ATOM     25  H   UNL     1       8.318  21.272  22.249  1.00  0.00     0.293 HD
ENDBRANCH   6  24
BRANCH   8  26
ATOM     26  O   UNL     1      10.349  20.885  27.212  1.00  0.00    -0.508 OA
ATOM     27  H   UNL     1      10.994  21.665  27.256  1.00  0.00     0.293 HD
ENDBRANCH   8  26
TORSDOF 6
ENDMDL
MODEL 9
REMARK VINA RESULT:    -4.800      1.472      2.023
REMARK INTER + INTRA:          -5.368
REMARK INTER:                  -5.291
REMARK INTRA:                  -0.077
REMARK UNBOUND:                 0.414
REMARK SMILES O=c1c(O)c(-c2ccc(O)c(O)c2)oc2cc(O)cc(O)c12
REMARK SMILES IDX 5 1 3 2 2 3 1 4 22 5 20 6 19 7 17 8 16 9 15 10 14 11 6 12
REMARK SMILES IDX 7 13 8 14 9 15 13 16 11 17 10 18 12 20 4 22 21 24 18 26
REMARK H PARENT 10 19 12 21 4 23 21 25 18 27
REMARK Flexibility Score: inf
ROOT
ATOM      1  C   UNL     1       9.422  13.512  24.560  1.00  0.00     0.180 A 
ATOM      2  C   UNL     1       8.848  13.771  25.820  1.00  0.00     0.208 A 
ATOM      3  C   UNL     1       8.513  12.689  26.649  1.00  0.00     0.238 A 
ATOM      4  O   UNL     1       7.988  12.908  27.774  1.00  0.00    -0.285 OA
ATOM      5  C   UNL     1       8.773  11.373  26.215  1.00  0.00     0.111 A 
ATOM      6  C   UNL     1       8.469  10.228  26.990  1.00  0.00     0.134 A 
ATOM      7  C   UNL     1       8.767   8.951  26.492  1.00  0.00     0.093 A 
ATOM      8  C   UNL     1       9.364   8.797  25.236  1.00  0.00     0.123 A 
ATOM      9  C   UNL     1       9.665   9.924  24.468  1.00  0.00     0.094 A 
ATOM     10  C   UNL     1       9.375  11.204  24.946  1.00  0.00     0.146 A 
ATOM     11  O   UNL     1       9.667  12.257  24.191  1.00  0.00    -0.452 OA
ENDROOT
BRANCH   1  12
ATOM     12  C   UNL     1       9.786  14.598  23.623  1.00  0.00     0.025 A 
ATOM     13  C   UNL     1      10.664  15.627  24.000  1.00  0.00     0.016 A 
ATOM     14  C   UNL     1      10.972  16.654  23.106  1.00  0.00     0.051 A 
ATOM     15  C   UNL     1      10.404  16.684  21.828  1.00  0.00     0.157 A 
ATOM     16  C   UNL     1       9.197  14.638  22.349  1.00  0.00     0.062 A 
ATOM     17  C   UNL     1       9.501  15.663  21.445  1.00  0.00     0.158 A 
BRANCH  15  18
ATOM     18  O   UNL     1      10.758  17.736  20.981  1.00  0.00    -0.504 OA
ATOM     19  H   UNL     1      10.125  18.169  20.323  1.00  0.00     0.293 HD
ENDBRANCH  15  18
BRANCH  17  20
ATOM     20  O   UNL     1       8.888  15.631  20.191  1.00  0.00    -0.504 OA
ATOM     21  H   UNL     1       8.533  14.791  19.757  1.00  0.00     0.293 HD
ENDBRANCH  17  20
ENDBRANCH   1  12
BRANCH   2  22
ATOM     22  O   UNL     1       8.646  15.086  26.246  1.00  0.00    -0.502 OA
ATOM     23  H   UNL     1       9.332  15.816  26.098  1.00  0.00     0.293 HD
ENDBRANCH   2  22
BRANCH   6  24
ATOM     24  O   UNL     1       7.875  10.349  28.248  1.00  0.00    -0.507 OA
ATOM     25  H   UNL     1       7.613  11.250  28.630  1.00  0.00     0.293 HD
ENDBRANCH   6  24
BRANCH   8  26
ATOM     26  O   UNL     1       9.661   7.529  24.742  1.00  0.00    -0.508 OA
ATOM     27  H   UNL     1      10.581   7.303  24.381  1.00  0.00     0.293 HD
ENDBRANCH   8  26
TORSDOF 6
ENDMDL
