MODEL 1
REMARK VINA RESULT:    -5.244      0.000      0.000
REMARK INTER + INTRA:          -5.397
REMARK INTER:                  -5.397
REMARK INTRA:                   0.000
REMARK UNBOUND:                 0.000
REMARK SMILES O=c1ccc2ccc(O)cc2o1
REMARK SMILES IDX 6 1 7 2 8 3 10 4 11 5 5 6 4 7 3 8 2 9 1 10 12 11 9 12
REMARK H PARENT 9 13
REMARK Flexibility Score: inf
ROOT
ATOM      1  C   UNL     1      54.488 110.953  45.094  1.00  0.00     0.016 A 
ATOM      2  C   UNL     1      55.144 111.496  43.986  1.00  0.00     0.047 A 
ATOM      3  C   UNL     1      55.596 112.822  44.010  1.00  0.00     0.119 A 
ATOM      4  C   UNL     1      55.390 113.611  45.152  1.00  0.00     0.094 A 
ATOM      5  C   UNL     1      54.734 113.075  46.266  1.00  0.00     0.142 A 
ATOM      6  C   UNL     1      54.280 111.738  46.237  1.00  0.00     0.018 A 
ATOM      7  C   UNL     1      53.629 111.231  47.367  1.00  0.00     0.019 A 
ATOM      8  C   UNL     1      53.447 112.052  48.478  1.00  0.00     0.094 A 
ATOM      9  C   UNL     1      53.922 113.368  48.434  1.00  0.00     0.336 A 
ATOM     10  O   UNL     1      53.767 114.125  49.428  1.00  0.00    -0.246 OA
ATOM     11  O   UNL     1      54.539 113.825  47.348  1.00  0.00    -0.423 OA
ENDROOT
BRANCH   3  12
ATOM     12  O   UNL     1      56.247 113.345  42.896  1.00  0.00    -0.508 OA
ATOM     13  H   UNL     1      55.834 113.299  41.971  1.00  0.00     0.293 HD
ENDBRANCH   3  12
TORSDOF 1
ENDMDL
MODEL 2
REMARK VINA RESULT:    -5.170     10.441     11.354
REMARK INTER + INTRA:          -5.321
REMARK INTER:                  -5.321
REMARK INTRA:                   0.000
REMARK UNBOUND:                 0.000
REMARK SMILES O=c1ccc2ccc(O)cc2o1
REMARK SMILES IDX 6 1 7 2 8 3 10 4 11 5 5 6 4 7 3 8 2 9 1 10 12 11 9 12
REMARK H PARENT 9 13
REMARK Flexibility Score: inf
ROOT
ATOM      1  C   UNL     1      49.955 105.617  52.343  1.00  0.00     0.016 A 
ATOM      2  C   UNL     1      49.269 104.475  51.919  1.00  0.00     0.047 A 
ATOM      3  C   UNL     1      47.874 104.404  52.028  1.00  0.00     0.119 A 
ATOM      4  C   UNL     1      47.159 105.486  52.564  1.00  0.00     0.094 A 
ATOM      5  C   UNL     1      47.837 106.634  52.990  1.00  0.00     0.142 A 
ATOM      6  C   UNL     1      49.244 106.700  52.879  1.00  0.00     0.018 A 
ATOM      7  C   UNL     1      49.892 107.860  53.314  1.00  0.00     0.019 A 
ATOM      8  C   UNL     1      49.140 108.909  53.840  1.00  0.00     0.094 A 
ATOM      9  C   UNL     1      47.750 108.772  53.920  1.00  0.00     0.336 A 
ATOM     10  O   UNL     1      47.053 109.709  54.392  1.00  0.00    -0.246 OA
ATOM     11  O   UNL     1      47.157 107.658  53.499  1.00  0.00    -0.423 OA
ENDROOT
BRANCH   3  12
ATOM     12  O   UNL     1      47.210 103.258  51.601  1.00  0.00    -0.508 OA
ATOM     13  H   UNL     1      46.721 102.655  52.253  1.00  0.00     0.293 HD
ENDBRANCH   3  12
TORSDOF 1
ENDMDL
MODEL 3
REMARK VINA RESULT:    -5.100      7.168      8.584
REMARK INTER + INTRA:          -5.249
REMARK INTER:                  -5.249
REMARK INTRA:                   0.000
REMARK UNBOUND:                 0.000
REMARK SMILES O=c1ccc2ccc(O)cc2o1
REMARK SMILES IDX 6 1 7 2 8 3 10 4 11 5 5 6 4 7 3 8 2 9 1 10 12 11 9 12
REMARK H PARENT 9 13
REMARK Flexibility Score: inf
ROOT
ATOM      1  C   UNL     1      46.977 114.125  47.399  1.00  0.00     0.016 A 
ATOM      2  C   UNL     1      48.366 114.032  47.276  1.00  0.00     0.047 A 
ATOM      3  C   UNL     1      49.136 113.499  48.317  1.00  0.00     0.119 A 
ATOM      4  C   UNL     1      48.511 113.054  49.492  1.00  0.00     0.094 A 
ATOM      5  C   UNL     1      47.121 113.142  49.624  1.00  0.00     0.142 A 
ATOM      6  C   UNL     1      46.349 113.681  48.571  1.00  0.00     0.018 A 
ATOM      7  C   UNL     1      44.962 113.756  48.734  1.00  0.00     0.019 A 
ATOM      8  C   UNL     1      44.385 113.302  49.918  1.00  0.00     0.094 A 
ATOM      9  C   UNL     1      45.214 112.781  50.919  1.00  0.00     0.336 A 
ATOM     10  O   UNL     1      44.711 112.365  51.996  1.00  0.00    -0.246 OA
ATOM     11  O   UNL     1      46.531 112.720  50.739  1.00  0.00    -0.423 OA
ENDROOT
BRANCH   3  12
ATOM     12  O   UNL     1      50.519 113.416  48.175  1.00  0.00    -0.508 OA
ATOM     13  H   UNL     1      50.943 113.039  47.334  1.00  0.00     0.293 HD
ENDBRANCH   3  12
TORSDOF 1
ENDMDL
MODEL 4
REMARK VINA RESULT:    -5.090      3.193      3.963
REMARK INTER + INTRA:          -5.239
REMARK INTER:                  -5.239
REMARK INTRA:                   0.000
REMARK UNBOUND:                 0.000
REMARK SMILES O=c1ccc2ccc(O)cc2o1
REMARK SMILES IDX 6 1 7 2 8 3 10 4 11 5 5 6 4 7 3 8 2 9 1 10 12 11 9 12
REMARK H PARENT 9 13
REMARK Flexibility Score: inf
ROOT
ATOM      1  C   UNL     1      53.463 113.163  45.119  1.00  0.00     0.016 A 
ATOM      2  C   UNL     1      54.548 112.832  45.937  1.00  0.00     0.047 A 
ATOM      3  C   UNL     1      54.391 112.754  47.326  1.00  0.00     0.119 A 
ATOM      4  C   UNL     1      53.138 113.010  47.903  1.00  0.00     0.094 A 
ATOM      5  C   UNL     1      52.046 113.343  47.093  1.00  0.00     0.142 A 
ATOM      6  C   UNL     1      52.210 113.420  45.692  1.00  0.00     0.018 A 
ATOM      7  C   UNL     1      51.100 113.755  44.909  1.00  0.00     0.019 A 
ATOM      8  C   UNL     1      49.875 114.000  45.527  1.00  0.00     0.094 A 
ATOM      9  C   UNL     1      49.788 113.906  46.921  1.00  0.00     0.336 A 
ATOM     10  O   UNL     1      48.690 114.125  47.497  1.00  0.00    -0.246 OA
ATOM     11  O   UNL     1      50.859 113.586  47.643  1.00  0.00    -0.423 OA
ENDROOT
BRANCH   3  12
ATOM     12  O   UNL     1      55.483 112.423  48.123  1.00  0.00    -0.508 OA
ATOM     13  H   UNL     1      55.442 112.492  49.134  1.00  0.00     0.293 HD
ENDBRANCH   3  12
TORSDOF 1
ENDMDL
MODEL 5
REMARK VINA RESULT:    -4.963      2.963      3.461
REMARK INTER + INTRA:          -5.108
REMARK INTER:                  -5.108
REMARK INTRA:                   0.000
REMARK UNBOUND:                 0.000
REMARK SMILES O=c1ccc2ccc(O)cc2o1
REMARK SMILES IDX 6 1 7 2 8 3 10 4 11 5 5 6 4 7 3 8 2 9 1 10 12 11 9 12
REMARK H PARENT 9 13
REMARK Flexibility Score: inf
ROOT
ATOM      1  C   UNL     1      53.959 112.646  47.638  1.00  0.00     0.016 A 
ATOM      2  C   UNL     1      55.019 112.023  46.974  1.00  0.00     0.047 A 
ATOM      3  C   UNL     1      54.954 111.793  45.594  1.00  0.00     0.119 A 
ATOM      4  C   UNL     1      53.819 112.192  44.872  1.00  0.00     0.094 A 
ATOM      5  C   UNL     1      52.753 112.817  45.528  1.00  0.00     0.142 A 
ATOM      6  C   UNL     1      52.823 113.046  46.920  1.00  0.00     0.018 A 
ATOM      7  C   UNL     1      51.741 113.673  47.547  1.00  0.00     0.019 A 
ATOM      8  C   UNL     1      50.635 114.051  46.789  1.00  0.00     0.094 A 
ATOM      9  C   UNL     1      50.635 113.791  45.414  1.00  0.00     0.336 A 
ATOM     10  O   UNL     1      49.645 114.125  44.712  1.00  0.00    -0.246 OA
ATOM     11  O   UNL     1      51.677 113.193  44.841  1.00  0.00    -0.423 OA
ENDROOT
BRANCH   3  12
ATOM     12  O   UNL     1      56.020 111.170  44.951  1.00  0.00    -0.508 OA
ATOM     13  H   UNL     1      55.898 110.693  44.064  1.00  0.00     0.293 HD
ENDBRANCH   3  12
TORSDOF 1
ENDMDL
MODEL 6
REMARK VINA RESULT:    -4.930      1.385      2.184
REMARK INTER + INTRA:          -5.074
REMARK INTER:                  -5.074
REMARK INTRA:                   0.000
REMARK UNBOUND:                 0.000
REMARK SMILES O=c1ccc2ccc(O)cc2o1
REMARK SMILES IDX 6 1 7 2 8 3 10 4 11 5 5 6 4 7 3 8 2 9 1 10 12 11 9 12
REMARK H PARENT 9 13
REMARK Flexibility Score: inf
ROOT
ATOM      1  C   UNL     1      55.858 113.471  45.262  1.00  0.00     0.016 A 
ATOM      2  C   UNL     1      55.851 112.569  44.195  1.00  0.00     0.047 A 
ATOM      3  C   UNL     1      55.067 111.410  44.251  1.00  0.00     0.119 A 
ATOM      4  C   UNL     1      54.282 111.152  45.385  1.00  0.00     0.094 A 
ATOM      5  C   UNL     1      54.282 112.049  46.459  1.00  0.00     0.142 A 
ATOM      6  C   UNL     1      55.076 113.216  46.397  1.00  0.00     0.018 A 
ATOM      7  C   UNL     1      55.055 114.094  47.486  1.00  0.00     0.019 A 
ATOM      8  C   UNL     1      54.260 113.796  48.591  1.00  0.00     0.094 A 
ATOM      9  C   UNL     1      53.501 112.620  48.582  1.00  0.00     0.336 A 
ATOM     10  O   UNL     1      52.776 112.333  49.571  1.00  0.00    -0.246 OA
ATOM     11  O   UNL     1      53.538 111.802  47.533  1.00  0.00    -0.423 OA
ENDROOT
BRANCH   3  12
ATOM     12  O   UNL     1      55.074 110.523  43.178  1.00  0.00    -0.508 OA
ATOM     13  H   UNL     1      55.309 110.829  42.240  1.00  0.00     0.293 HD
ENDBRANCH   3  12
TORSDOF 1
ENDMDL
MODEL 7
REMARK VINA RESULT:    -4.845      7.317      9.615
REMARK INTER + INTRA:          -4.987
REMARK INTER:                  -4.987
REMARK INTRA:                   0.000
REMARK UNBOUND:                 0.000
REMARK SMILES O=c1ccc2ccc(O)cc2o1
REMARK SMILES IDX 6 1 7 2 8 3 10 4 11 5 5 6 4 7 3 8 2 9 1 10 12 11 9 12
REMARK H PARENT 9 13
REMARK Flexibility Score: inf
ROOT
ATOM      1  C   UNL     1      44.772 113.631  49.416  1.00  0.00     0.016 A 
ATOM      2  C   UNL     1      44.449 113.213  50.710  1.00  0.00     0.047 A 
ATOM      3  C   UNL     1      45.452 112.782  51.587  1.00  0.00     0.119 A 
ATOM      4  C   UNL     1      46.791 112.770  51.167  1.00  0.00     0.094 A 
ATOM      5  C   UNL     1      47.124 113.187  49.873  1.00  0.00     0.142 A 
ATOM      6  C   UNL     1      46.109 113.620  48.992  1.00  0.00     0.018 A 
ATOM      7  C   UNL     1      46.474 114.030  47.705  1.00  0.00     0.019 A 
ATOM      8  C   UNL     1      47.816 114.000  47.332  1.00  0.00     0.094 A 
ATOM      9  C   UNL     1      48.767 113.558  48.258  1.00  0.00     0.336 A 
ATOM     10  O   UNL     1      49.985 113.524  47.940  1.00  0.00    -0.246 OA
ATOM     11  O   UNL     1      48.394 113.173  49.477  1.00  0.00    -0.423 OA
ENDROOT
BRANCH   3  12
ATOM     12  O   UNL     1      45.109 112.369  52.872  1.00  0.00    -0.508 OA
ATOM     13  H   UNL     1      44.514 111.563  53.028  1.00  0.00     0.293 HD
ENDBRANCH   3  12
TORSDOF 1
ENDMDL
MODEL 8
REMARK VINA RESULT:    -4.728      1.878      4.603
REMARK INTER + INTRA:          -4.866
REMARK INTER:                  -4.866
REMARK INTRA:                   0.000
REMARK UNBOUND:                 0.000
REMARK SMILES O=c1ccc2ccc(O)cc2o1
REMARK SMILES IDX 6 1 7 2 8 3 10 4 11 5 5 6 4 7 3 8 2 9 1 10 12 11 9 12
REMARK H PARENT 9 13
REMARK Flexibility Score: inf
ROOT
ATOM      1  C   UNL     1      55.557 113.989  47.094  1.00  0.00     0.016 A 
ATOM      2  C   UNL     1      55.251 114.085  48.455  1.00  0.00     0.047 A 
ATOM      3  C   UNL     1      54.509 113.081  49.088  1.00  0.00     0.119 A 
ATOM      4  C   UNL     1      54.069 111.969  48.353  1.00  0.00     0.094 A 
ATOM      5  C   UNL     1      54.371 111.863  46.991  1.00  0.00     0.142 A 
ATOM      6  C   UNL     1      55.119 112.880  46.357  1.00  0.00     0.018 A 
ATOM      7  C   UNL     1      55.404 112.746  44.994  1.00  0.00     0.019 A 
ATOM      8  C   UNL     1      54.946 111.624  44.306  1.00  0.00     0.094 A 
ATOM      9  C   UNL     1      54.209 110.657  45.000  1.00  0.00     0.336 A 
ATOM     10  O   UNL     1      53.787 109.636  44.395  1.00  0.00    -0.246 OA
ATOM     11  O   UNL     1      53.952 110.808  46.297  1.00  0.00    -0.423 OA
ENDROOT
BRANCH   3  12
ATOM     12  O   UNL     1      54.215 113.196  50.443  1.00  0.00    -0.508 OA
ATOM     13  H   UNL     1      53.866 112.408  50.978  1.00  0.00     0.293 HD
ENDBRANCH   3  12
TORSDOF 1
ENDMDL
MODEL 9
REMARK VINA RESULT:    -4.564     10.345     11.482
REMARK INTER + INTRA:          -4.698
REMARK INTER:                  -4.698
REMARK INTRA:                   0.000
REMARK UNBOUND:                 0.000
REMARK SMILES O=c1ccc2ccc(O)cc2o1
REMARK SMILES IDX 6 1 7 2 8 3 10 4 11 5 5 6 4 7 3 8 2 9 1 10 12 11 9 12
REMARK H PARENT 9 13
REMARK Flexibility Score: inf
ROOT
ATOM      1  C   UNL     1      47.267 104.916  52.292  1.00  0.00     0.016 A 
ATOM      2  C   UNL     1      48.460 104.654  51.613  1.00  0.00     0.047 A 
ATOM      3  C   UNL     1      49.567 105.497  51.772  1.00  0.00     0.119 A 
ATOM      4  C   UNL     1      49.480 106.612  52.619  1.00  0.00     0.094 A 
ATOM      5  C   UNL     1      48.290 106.883  53.304  1.00  0.00     0.142 A 
ATOM      6  C   UNL     1      47.176 106.030  53.140  1.00  0.00     0.018 A 
ATOM      7  C   UNL     1      46.001 106.326  53.837  1.00  0.00     0.019 A 
ATOM      8  C   UNL     1      45.962 107.445  54.667  1.00  0.00     0.094 A 
ATOM      9  C   UNL     1      47.104 108.245  54.781  1.00  0.00     0.336 A 
ATOM     10  O   UNL     1      47.088 109.260  55.526  1.00  0.00    -0.246 OA
ATOM     11  O   UNL     1      48.210 107.941  54.107  1.00  0.00    -0.423 OA
ENDROOT
BRANCH   3  12
ATOM     12  O   UNL     1      50.746 105.218  51.086  1.00  0.00    -0.508 OA
ATOM     13  H   UNL     1      50.745 104.672  50.232  1.00  0.00     0.293 HD
ENDBRANCH   3  12
TORSDOF 1
ENDMDL
