MODEL 1
REMARK VINA RESULT:    -4.619      0.000      0.000
REMARK INTER + INTRA:          -5.841
REMARK INTER:                  -5.565
REMARK INTRA:                  -0.277
REMARK UNBOUND:                -0.277
REMARK SMILES O=c1c(O)c(-c2ccc(O)c(O)c2)oc2cc(O)cc(O)c12
REMARK SMILES IDX 5 1 3 2 2 3 1 4 22 5 20 6 19 7 17 8 16 9 15 10 14 11 6 12
REMARK SMILES IDX 7 13 8 14 9 15 13 16 11 17 10 18 12 20 4 22 21 24 18 26
REMARK H PARENT 10 19 12 21 4 23 21 25 18 27
REMARK Flexibility Score: inf
ROOT
ATOM      1  C   UNL     1     -30.958  27.887  32.242  1.00  0.00     0.180 A 
ATOM      2  C   UNL     1     -30.930  29.154  32.849  1.00  0.00     0.208 A 
ATOM      3  C   UNL     1     -32.041  29.576  33.597  1.00  0.00     0.238 A 
ATOM      4  O   UNL     1     -31.989  30.689  34.182  1.00  0.00    -0.285 OA
ATOM      5  C   UNL     1     -33.171  28.732  33.715  1.00  0.00     0.111 A 
ATOM      6  C   UNL     1     -34.368  29.073  34.416  1.00  0.00     0.134 A 
ATOM      7  C   UNL     1     -35.371  28.109  34.579  1.00  0.00     0.093 A 
ATOM      8  C   UNL     1     -35.248  26.839  34.011  1.00  0.00     0.123 A 
ATOM      9  C   UNL     1     -34.111  26.517  33.275  1.00  0.00     0.094 A 
ATOM     10  C   UNL     1     -33.077  27.444  33.126  1.00  0.00     0.146 A 
ATOM     11  O   UNL     1     -32.005  27.092  32.427  1.00  0.00    -0.452 OA
ENDROOT
BRANCH   1  12
ATOM     12  C   UNL     1     -29.835  27.384  31.418  1.00  0.00     0.025 A 
ATOM     13  C   UNL     1     -29.911  27.356  30.016  1.00  0.00     0.016 A 
ATOM     14  C   UNL     1     -28.849  26.854  29.261  1.00  0.00     0.051 A 
ATOM     15  C   UNL     1     -27.700  26.360  29.885  1.00  0.00     0.157 A 
ATOM     16  C   UNL     1     -28.692  26.868  32.047  1.00  0.00     0.062 A 
ATOM     17  C   UNL     1     -27.621  26.363  31.298  1.00  0.00     0.158 A 
BRANCH  15  18
ATOM     18  O   UNL     1     -26.672  25.877  29.073  1.00  0.00    -0.504 OA
ATOM     19  H   UNL     1     -25.708  25.806  29.365  1.00  0.00     0.293 HD
ENDBRANCH  15  18
BRANCH  17  20
ATOM     20  O   UNL     1     -26.511  25.877  31.993  1.00  0.00    -0.504 OA
ATOM     21  H   UNL     1     -25.885  26.457  32.533  1.00  0.00     0.293 HD
ENDBRANCH  17  20
ENDBRANCH   1  12
BRANCH   2  22
ATOM     22  O   UNL     1     -29.795  29.963  32.737  1.00  0.00    -0.502 OA
ATOM     23  H   UNL     1     -29.589  30.498  31.901  1.00  0.00     0.293 HD
ENDBRANCH   2  22
BRANCH   6  24
ATOM     24  O   UNL     1     -34.629  30.341  34.942  1.00  0.00    -0.507 OA
ATOM     25  H   UNL     1     -34.113  30.767  35.697  1.00  0.00     0.293 HD
ENDBRANCH   6  24
BRANCH   8  26
ATOM     26  O   UNL     1     -36.258  25.891  34.164  1.00  0.00    -0.508 OA
ATOM     27  H   UNL     1     -36.359  25.114  33.521  1.00  0.00     0.293 HD
ENDBRANCH   8  26
TORSDOF 6
ENDMDL
MODEL 2
REMARK VINA RESULT:    -4.561      1.300      1.853
REMARK INTER + INTRA:          -5.771
REMARK INTER:                  -5.467
REMARK INTRA:                  -0.303
REMARK UNBOUND:                -0.277
REMARK SMILES O=c1c(O)c(-c2ccc(O)c(O)c2)oc2cc(O)cc(O)c12
REMARK SMILES IDX 5 1 3 2 2 3 1 4 22 5 20 6 19 7 17 8 16 9 15 10 14 11 6 12
REMARK SMILES IDX 7 13 8 14 9 15 13 16 11 17 10 18 12 20 4 22 21 24 18 26
REMARK H PARENT 10 19 12 21 4 23 21 25 18 27
REMARK Flexibility Score: inf
ROOT
ATOM      1  C   UNL     1     -31.590  27.926  32.966  1.00  0.00     0.180 A 
ATOM      2  C   UNL     1     -31.914  29.293  32.920  1.00  0.00     0.208 A 
ATOM      3  C   UNL     1     -33.083  29.738  33.559  1.00  0.00     0.238 A 
ATOM      4  O   UNL     1     -33.341  30.969  33.561  1.00  0.00    -0.285 OA
ATOM      5  C   UNL     1     -33.920  28.807  34.221  1.00  0.00     0.111 A 
ATOM      6  C   UNL     1     -35.149  29.140  34.869  1.00  0.00     0.134 A 
ATOM      7  C   UNL     1     -35.828  28.161  35.605  1.00  0.00     0.093 A 
ATOM      8  C   UNL     1     -35.358  26.847  35.662  1.00  0.00     0.123 A 
ATOM      9  C   UNL     1     -34.192  26.499  34.984  1.00  0.00     0.094 A 
ATOM     10  C   UNL     1     -33.472  27.461  34.273  1.00  0.00     0.146 A 
ATOM     11  O   UNL     1     -32.360  27.090  33.651  1.00  0.00    -0.452 OA
ENDROOT
BRANCH   1  12
ATOM     12  C   UNL     1     -30.388  27.380  32.294  1.00  0.00     0.025 A 
ATOM     13  C   UNL     1     -29.188  27.175  32.995  1.00  0.00     0.016 A 
ATOM     14  C   UNL     1     -28.061  26.683  32.335  1.00  0.00     0.051 A 
ATOM     15  C   UNL     1     -28.101  26.399  30.966  1.00  0.00     0.157 A 
ATOM     16  C   UNL     1     -30.424  27.118  30.917  1.00  0.00     0.062 A 
ATOM     17  C   UNL     1     -29.298  26.623  30.246  1.00  0.00     0.158 A 
BRANCH  15  18
ATOM     18  O   UNL     1     -26.941  25.905  30.368  1.00  0.00    -0.504 OA
ATOM     19  H   UNL     1     -26.859  24.979  29.974  1.00  0.00     0.293 HD
ENDBRANCH  15  18
BRANCH  17  20
ATOM     20  O   UNL     1     -29.412  26.373  28.877  1.00  0.00    -0.504 OA
ATOM     21  H   UNL     1     -28.687  26.575  28.204  1.00  0.00     0.293 HD
ENDBRANCH  17  20
ENDBRANCH   1  12
BRANCH   2  22
ATOM     22  O   UNL     1     -31.063  30.198  32.279  1.00  0.00    -0.502 OA
ATOM     23  H   UNL     1     -31.207  30.494  31.321  1.00  0.00     0.293 HD
ENDBRANCH   2  22
BRANCH   6  24
ATOM     24  O   UNL     1     -35.752  30.399  34.797  1.00  0.00    -0.507 OA
ATOM     25  H   UNL     1     -36.038  30.851  33.943  1.00  0.00     0.293 HD
ENDBRANCH   6  24
BRANCH   8  26
ATOM     26  O   UNL     1     -36.050  25.876  36.383  1.00  0.00    -0.508 OA
ATOM     27  H   UNL     1     -37.063  25.853  36.406  1.00  0.00     0.293 HD
ENDBRANCH   8  26
TORSDOF 6
ENDMDL
MODEL 3
REMARK VINA RESULT:    -4.253     15.641     17.385
REMARK INTER + INTRA:          -5.400
REMARK INTER:                  -5.088
REMARK INTRA:                  -0.312
REMARK UNBOUND:                -0.277
REMARK SMILES O=c1c(O)c(-c2ccc(O)c(O)c2)oc2cc(O)cc(O)c12
REMARK SMILES IDX 5 1 3 2 2 3 1 4 22 5 20 6 19 7 17 8 16 9 15 10 14 11 6 12
REMARK SMILES IDX 7 13 8 14 9 15 13 16 11 17 10 18 12 20 4 22 21 24 18 26
REMARK H PARENT 10 19 12 21 4 23 21 25 18 27
REMARK Flexibility Score: inf
ROOT
ATOM      1  C   UNL     1     -35.866  42.821  37.557  1.00  0.00     0.180 A 
ATOM      2  C   UNL     1     -36.465  41.550  37.541  1.00  0.00     0.208 A 
ATOM      3  C   UNL     1     -36.954  41.011  38.742  1.00  0.00     0.238 A 
ATOM      4  O   UNL     1     -37.537  39.896  38.712  1.00  0.00    -0.285 OA
ATOM      5  C   UNL     1     -36.823  41.744  39.946  1.00  0.00     0.111 A 
ATOM      6  C   UNL     1     -37.247  41.279  41.228  1.00  0.00     0.134 A 
ATOM      7  C   UNL     1     -37.189  42.141  42.330  1.00  0.00     0.093 A 
ATOM      8  C   UNL     1     -36.660  43.429  42.208  1.00  0.00     0.123 A 
ATOM      9  C   UNL     1     -36.190  43.871  40.975  1.00  0.00     0.094 A 
ATOM     10  C   UNL     1     -36.269  43.047  39.850  1.00  0.00     0.146 A 
ATOM     11  O   UNL     1     -35.819  43.511  38.691  1.00  0.00    -0.452 OA
ENDROOT
BRANCH   1  12
ATOM     12  C   UNL     1     -35.306  43.443  36.335  1.00  0.00     0.025 A 
ATOM     13  C   UNL     1     -34.035  43.091  35.852  1.00  0.00     0.016 A 
ATOM     14  C   UNL     1     -33.518  43.709  34.713  1.00  0.00     0.051 A 
ATOM     15  C   UNL     1     -34.246  44.696  34.041  1.00  0.00     0.157 A 
ATOM     16  C   UNL     1     -36.029  44.449  35.678  1.00  0.00     0.062 A 
ATOM     17  C   UNL     1     -35.519  45.074  34.533  1.00  0.00     0.158 A 
BRANCH  15  18
ATOM     18  O   UNL     1     -33.674  45.272  32.905  1.00  0.00    -0.504 OA
ATOM     19  H   UNL     1     -33.916  46.187  32.553  1.00  0.00     0.293 HD
ENDBRANCH  15  18
BRANCH  17  20
ATOM     20  O   UNL     1     -36.300  46.059  33.924  1.00  0.00    -0.504 OA
ATOM     21  H   UNL     1     -37.223  45.894  33.549  1.00  0.00     0.293 HD
ENDBRANCH  17  20
ENDBRANCH   1  12
BRANCH   2  22
ATOM     22  O   UNL     1     -36.602  40.852  36.337  1.00  0.00    -0.502 OA
ATOM     23  H   UNL     1     -36.061  41.080  35.512  1.00  0.00     0.293 HD
ENDBRANCH   2  22
BRANCH   6  24
ATOM     24  O   UNL     1     -37.704  39.981  41.475  1.00  0.00    -0.507 OA
ATOM     25  H   UNL     1     -37.185  39.275  41.974  1.00  0.00     0.293 HD
ENDBRANCH   6  24
BRANCH   8  26
ATOM     26  O   UNL     1     -36.590  44.275  43.314  1.00  0.00    -0.508 OA
ATOM     27  H   UNL     1     -36.822  43.951  44.246  1.00  0.00     0.293 HD
ENDBRANCH   8  26
TORSDOF 6
ENDMDL
MODEL 4
REMARK VINA RESULT:    -4.241      4.422      7.485
REMARK INTER + INTRA:          -5.385
REMARK INTER:                  -5.083
REMARK INTRA:                  -0.303
REMARK UNBOUND:                -0.277
REMARK SMILES O=c1c(O)c(-c2ccc(O)c(O)c2)oc2cc(O)cc(O)c12
REMARK SMILES IDX 5 1 3 2 2 3 1 4 22 5 20 6 19 7 17 8 16 9 15 10 14 11 6 12
REMARK SMILES IDX 7 13 8 14 9 15 13 16 11 17 10 18 12 20 4 22 21 24 18 26
REMARK H PARENT 10 19 12 21 4 23 21 25 18 27
REMARK Flexibility Score: inf
ROOT
ATOM      1  C   UNL     1     -34.901  30.651  32.482  1.00  0.00     0.180 A 
ATOM      2  C   UNL     1     -35.845  31.636  32.143  1.00  0.00     0.208 A 
ATOM      3  C   UNL     1     -35.493  32.625  31.211  1.00  0.00     0.238 A 
ATOM      4  O   UNL     1     -36.359  33.472  30.871  1.00  0.00    -0.285 OA
ATOM      5  C   UNL     1     -34.196  32.626  30.643  1.00  0.00     0.111 A 
ATOM      6  C   UNL     1     -33.717  33.604  29.718  1.00  0.00     0.134 A 
ATOM      7  C   UNL     1     -32.463  33.433  29.120  1.00  0.00     0.093 A 
ATOM      8  C   UNL     1     -31.643  32.355  29.463  1.00  0.00     0.123 A 
ATOM      9  C   UNL     1     -32.076  31.429  30.408  1.00  0.00     0.094 A 
ATOM     10  C   UNL     1     -33.338  31.552  30.994  1.00  0.00     0.146 A 
ATOM     11  O   UNL     1     -33.717  30.641  31.882  1.00  0.00    -0.452 OA
ENDROOT
BRANCH   1  12
ATOM     12  C   UNL     1     -35.192  29.591  33.475  1.00  0.00     0.025 A 
ATOM     13  C   UNL     1     -35.149  29.849  34.854  1.00  0.00     0.016 A 
ATOM     14  C   UNL     1     -35.403  28.827  35.771  1.00  0.00     0.051 A 
ATOM     15  C   UNL     1     -35.689  27.530  35.335  1.00  0.00     0.157 A 
ATOM     16  C   UNL     1     -35.457  28.286  33.034  1.00  0.00     0.062 A 
ATOM     17  C   UNL     1     -35.713  27.254  33.947  1.00  0.00     0.158 A 
BRANCH  15  18
ATOM     18  O   UNL     1     -35.938  26.555  36.303  1.00  0.00    -0.504 OA
ATOM     19  H   UNL     1     -36.338  26.749  37.209  1.00  0.00     0.293 HD
ENDBRANCH  15  18
BRANCH  17  20
ATOM     20  O   UNL     1     -35.981  25.982  33.435  1.00  0.00    -0.504 OA
ATOM     21  H   UNL     1     -35.408  25.519  32.744  1.00  0.00     0.293 HD
ENDBRANCH  17  20
ENDBRANCH   1  12
BRANCH   2  22
ATOM     22  O   UNL     1     -37.127  31.603  32.700  1.00  0.00    -0.502 OA
ATOM     23  H   UNL     1     -37.285  31.595  33.701  1.00  0.00     0.293 HD
ENDBRANCH   2  22
BRANCH   6  24
ATOM     24  O   UNL     1     -34.418  34.764  29.377  1.00  0.00    -0.507 OA
ATOM     25  H   UNL     1     -34.070  35.487  28.766  1.00  0.00     0.293 HD
ENDBRANCH   6  24
BRANCH   8  26
ATOM     26  O   UNL     1     -30.389  32.201  28.875  1.00  0.00    -0.508 OA
ATOM     27  H   UNL     1     -29.998  32.911  28.267  1.00  0.00     0.293 HD
ENDBRANCH   8  26
TORSDOF 6
ENDMDL
MODEL 5
REMARK VINA RESULT:    -4.116      1.672      1.837
REMARK INTER + INTRA:          -5.235
REMARK INTER:                  -5.051
REMARK INTRA:                  -0.184
REMARK UNBOUND:                -0.277
REMARK SMILES O=c1c(O)c(-c2ccc(O)c(O)c2)oc2cc(O)cc(O)c12
REMARK SMILES IDX 5 1 3 2 2 3 1 4 22 5 20 6 19 7 17 8 16 9 15 10 14 11 6 12
REMARK SMILES IDX 7 13 8 14 9 15 13 16 11 17 10 18 12 20 4 22 21 24 18 26
REMARK H PARENT 10 19 12 21 4 23 21 25 18 27
REMARK Flexibility Score: inf
ROOT
ATOM      1  C   UNL     1     -31.698  27.872  33.193  1.00  0.00     0.180 A 
ATOM      2  C   UNL     1     -32.313  29.100  32.895  1.00  0.00     0.208 A 
ATOM      3  C   UNL     1     -33.435  29.499  33.640  1.00  0.00     0.238 A 
ATOM      4  O   UNL     1     -33.948  30.624  33.405  1.00  0.00    -0.285 OA
ATOM      5  C   UNL     1     -33.936  28.658  34.662  1.00  0.00     0.111 A 
ATOM      6  C   UNL     1     -35.090  28.943  35.453  1.00  0.00     0.134 A 
ATOM      7  C   UNL     1     -35.418  28.103  36.524  1.00  0.00     0.093 A 
ATOM      8  C   UNL     1     -34.672  26.952  36.790  1.00  0.00     0.123 A 
ATOM      9  C   UNL     1     -33.581  26.633  35.987  1.00  0.00     0.094 A 
ATOM     10  C   UNL     1     -33.207  27.471  34.935  1.00  0.00     0.146 A 
ATOM     11  O   UNL     1     -32.152  27.137  34.201  1.00  0.00    -0.452 OA
ENDROOT
BRANCH   1  12
ATOM     12  C   UNL     1     -30.528  27.373  32.434  1.00  0.00     0.025 A 
ATOM     13  C   UNL     1     -30.619  27.065  31.068  1.00  0.00     0.016 A 
ATOM     14  C   UNL     1     -29.509  26.572  30.380  1.00  0.00     0.051 A 
ATOM     15  C   UNL     1     -28.293  26.365  31.040  1.00  0.00     0.157 A 
ATOM     16  C   UNL     1     -29.317  27.145  33.104  1.00  0.00     0.062 A 
ATOM     17  C   UNL     1     -28.197  26.652  32.422  1.00  0.00     0.158 A 
BRANCH  15  18
ATOM     18  O   UNL     1     -27.220  25.875  30.294  1.00  0.00    -0.504 OA
ATOM     19  H   UNL     1     -26.602  26.456  29.745  1.00  0.00     0.293 HD
ENDBRANCH  15  18
BRANCH  17  20
ATOM     20  O   UNL     1     -27.020  26.462  33.152  1.00  0.00    -0.504 OA
ATOM     21  H   UNL     1     -26.292  27.155  33.239  1.00  0.00     0.293 HD
ENDBRANCH  17  20
ENDBRANCH   1  12
BRANCH   2  22
ATOM     22  O   UNL     1     -31.788  29.925  31.895  1.00  0.00    -0.502 OA
ATOM     23  H   UNL     1     -32.033  30.905  31.815  1.00  0.00     0.293 HD
ENDBRANCH   2  22
BRANCH   6  24
ATOM     24  O   UNL     1     -35.954  30.016  35.214  1.00  0.00    -0.507 OA
ATOM     25  H   UNL     1     -36.202  30.717  35.895  1.00  0.00     0.293 HD
ENDBRANCH   6  24
BRANCH   8  26
ATOM     26  O   UNL     1     -35.016  26.112  37.848  1.00  0.00    -0.508 OA
ATOM     27  H   UNL     1     -35.873  26.244  38.373  1.00  0.00     0.293 HD
ENDBRANCH   8  26
TORSDOF 6
ENDMDL
MODEL 6
REMARK VINA RESULT:    -3.996     15.608     17.123
REMARK INTER + INTRA:          -5.091
REMARK INTER:                  -4.803
REMARK INTRA:                  -0.288
REMARK UNBOUND:                -0.277
REMARK SMILES O=c1c(O)c(-c2ccc(O)c(O)c2)oc2cc(O)cc(O)c12
REMARK SMILES IDX 5 1 3 2 2 3 1 4 22 5 20 6 19 7 17 8 16 9 15 10 14 11 6 12
REMARK SMILES IDX 7 13 8 14 9 15 13 16 11 17 10 18 12 20 4 22 21 24 18 26
REMARK H PARENT 10 19 12 21 4 23 21 25 18 27
REMARK Flexibility Score: inf
ROOT
ATOM      1  C   UNL     1     -35.869  42.836  37.575  1.00  0.00     0.180 A 
ATOM      2  C   UNL     1     -36.473  41.567  37.541  1.00  0.00     0.208 A 
ATOM      3  C   UNL     1     -36.961  41.012  38.735  1.00  0.00     0.238 A 
ATOM      4  O   UNL     1     -37.549  39.901  38.690  1.00  0.00    -0.285 OA
ATOM      5  C   UNL     1     -36.825  41.727  39.950  1.00  0.00     0.111 A 
ATOM      6  C   UNL     1     -37.248  41.245  41.226  1.00  0.00     0.134 A 
ATOM      7  C   UNL     1     -37.184  42.090  42.340  1.00  0.00     0.093 A 
ATOM      8  C   UNL     1     -36.651  43.378  42.236  1.00  0.00     0.123 A 
ATOM      9  C   UNL     1     -36.181  43.835  41.009  1.00  0.00     0.094 A 
ATOM     10  C   UNL     1     -36.265  43.029  39.872  1.00  0.00     0.146 A 
ATOM     11  O   UNL     1     -35.816  43.508  38.719  1.00  0.00    -0.452 OA
ENDROOT
BRANCH   1  12
ATOM     12  C   UNL     1     -35.308  43.473  36.361  1.00  0.00     0.025 A 
ATOM     13  C   UNL     1     -36.029  44.442  35.645  1.00  0.00     0.016 A 
ATOM     14  C   UNL     1     -35.489  45.011  34.490  1.00  0.00     0.051 A 
ATOM     15  C   UNL     1     -34.233  44.617  34.018  1.00  0.00     0.157 A 
ATOM     16  C   UNL     1     -34.057  43.060  35.879  1.00  0.00     0.062 A 
ATOM     17  C   UNL     1     -33.508  43.625  34.721  1.00  0.00     0.158 A 
BRANCH  15  18
ATOM     18  O   UNL     1     -33.749  45.228  32.860  1.00  0.00    -0.504 OA
ATOM     19  H   UNL     1     -34.134  46.074  32.465  1.00  0.00     0.293 HD
ENDBRANCH  15  18
BRANCH  17  20
ATOM     20  O   UNL     1     -32.253  43.174  34.307  1.00  0.00    -0.504 OA
ATOM     21  H   UNL     1     -31.785  42.369  34.698  1.00  0.00     0.293 HD
ENDBRANCH  17  20
ENDBRANCH   1  12
BRANCH   2  22
ATOM     22  O   UNL     1     -36.615  40.888  36.327  1.00  0.00    -0.502 OA
ATOM     23  H   UNL     1     -37.506  40.528  36.006  1.00  0.00     0.293 HD
ENDBRANCH   2  22
BRANCH   6  24
ATOM     24  O   UNL     1     -37.711  39.945  41.454  1.00  0.00    -0.507 OA
ATOM     25  H   UNL     1     -37.893  39.552  42.365  1.00  0.00     0.293 HD
ENDBRANCH   6  24
BRANCH   8  26
ATOM     26  O   UNL     1     -36.575  44.207  43.354  1.00  0.00    -0.508 OA
ATOM     27  H   UNL     1     -35.684  44.490  43.745  1.00  0.00     0.293 HD
ENDBRANCH   8  26
TORSDOF 6
ENDMDL
MODEL 7
REMARK VINA RESULT:    -3.943      2.132      2.346
REMARK INTER + INTRA:          -5.026
REMARK INTER:                  -4.703
REMARK INTRA:                  -0.323
REMARK UNBOUND:                -0.277
REMARK SMILES O=c1c(O)c(-c2ccc(O)c(O)c2)oc2cc(O)cc(O)c12
REMARK SMILES IDX 5 1 3 2 2 3 1 4 22 5 20 6 19 7 17 8 16 9 15 10 14 11 6 12
REMARK SMILES IDX 7 13 8 14 9 15 13 16 11 17 10 18 12 20 4 22 21 24 18 26
REMARK H PARENT 10 19 12 21 4 23 21 25 18 27
REMARK Flexibility Score: inf
ROOT
ATOM      1  C   UNL     1     -30.682  27.346  32.944  1.00  0.00     0.180 A 
ATOM      2  C   UNL     1     -30.341  27.106  34.287  1.00  0.00     0.208 A 
ATOM      3  C   UNL     1     -31.358  27.093  35.256  1.00  0.00     0.238 A 
ATOM      4  O   UNL     1     -31.055  26.824  36.447  1.00  0.00    -0.285 OA
ATOM      5  C   UNL     1     -32.699  27.335  34.872  1.00  0.00     0.111 A 
ATOM      6  C   UNL     1     -33.804  27.384  35.775  1.00  0.00     0.134 A 
ATOM      7  C   UNL     1     -35.105  27.500  35.269  1.00  0.00     0.093 A 
ATOM      8  C   UNL     1     -35.334  27.636  33.897  1.00  0.00     0.123 A 
ATOM      9  C   UNL     1     -34.258  27.649  33.014  1.00  0.00     0.094 A 
ATOM     10  C   UNL     1     -32.952  27.497  33.485  1.00  0.00     0.146 A 
ATOM     11  O   UNL     1     -31.957  27.504  32.607  1.00  0.00    -0.452 OA
ENDROOT
BRANCH   1  12
ATOM     12  C   UNL     1     -29.662  27.400  31.871  1.00  0.00     0.025 A 
ATOM     13  C   UNL     1     -29.273  26.246  31.174  1.00  0.00     0.016 A 
ATOM     14  C   UNL     1     -28.292  26.318  30.184  1.00  0.00     0.051 A 
ATOM     15  C   UNL     1     -27.671  27.533  29.879  1.00  0.00     0.157 A 
ATOM     16  C   UNL     1     -29.026  28.617  31.584  1.00  0.00     0.062 A 
ATOM     17  C   UNL     1     -28.040  28.699  30.591  1.00  0.00     0.158 A 
BRANCH  15  18
ATOM     18  O   UNL     1     -26.701  27.538  28.875  1.00  0.00    -0.504 OA
ATOM     19  H   UNL     1     -26.905  27.433  27.892  1.00  0.00     0.293 HD
ENDBRANCH  15  18
BRANCH  17  20
ATOM     20  O   UNL     1     -27.459  29.946  30.351  1.00  0.00    -0.504 OA
ATOM     21  H   UNL     1     -27.774  30.807  30.774  1.00  0.00     0.293 HD
ENDBRANCH  17  20
ENDBRANCH   1  12
BRANCH   2  22
ATOM     22  O   UNL     1     -29.014  26.849  34.641  1.00  0.00    -0.502 OA
ATOM     23  H   UNL     1     -28.514  27.407  35.323  1.00  0.00     0.293 HD
ENDBRANCH   2  22
BRANCH   6  24
ATOM     24  O   UNL     1     -33.677  27.349  37.166  1.00  0.00    -0.507 OA
ATOM     25  H   UNL     1     -33.870  26.544  37.741  1.00  0.00     0.293 HD
ENDBRANCH   6  24
BRANCH   8  26
ATOM     26  O   UNL     1     -36.631  27.768  33.404  1.00  0.00    -0.508 OA
ATOM     27  H   UNL     1     -37.023  28.675  33.180  1.00  0.00     0.293 HD
ENDBRANCH   8  26
TORSDOF 6
ENDMDL
MODEL 8
REMARK VINA RESULT:    -3.923      2.737      4.210
REMARK INTER + INTRA:          -5.002
REMARK INTER:                  -4.669
REMARK INTRA:                  -0.333
REMARK UNBOUND:                -0.277
REMARK SMILES O=c1c(O)c(-c2ccc(O)c(O)c2)oc2cc(O)cc(O)c12
REMARK SMILES IDX 5 1 3 2 2 3 1 4 22 5 20 6 19 7 17 8 16 9 15 10 14 11 6 12
REMARK SMILES IDX 7 13 8 14 9 15 13 16 11 17 10 18 12 20 4 22 21 24 18 26
REMARK H PARENT 10 19 12 21 4 23 21 25 18 27
REMARK Flexibility Score: inf
ROOT
ATOM      1  C   UNL     1     -32.714  27.721  33.869  1.00  0.00     0.180 A 
ATOM      2  C   UNL     1     -34.089  27.647  33.587  1.00  0.00     0.208 A 
ATOM      3  C   UNL     1     -34.962  27.164  34.575  1.00  0.00     0.238 A 
ATOM      4  O   UNL     1     -36.197  27.150  34.336  1.00  0.00    -0.285 OA
ATOM      5  C   UNL     1     -34.447  26.746  35.825  1.00  0.00     0.111 A 
ATOM      6  C   UNL     1     -35.234  26.203  36.886  1.00  0.00     0.134 A 
ATOM      7  C   UNL     1     -34.639  25.946  38.127  1.00  0.00     0.093 A 
ATOM      8  C   UNL     1     -33.271  26.151  38.325  1.00  0.00     0.123 A 
ATOM      9  C   UNL     1     -32.483  26.624  37.279  1.00  0.00     0.094 A 
ATOM     10  C   UNL     1     -33.055  26.924  36.041  1.00  0.00     0.146 A 
ATOM     11  O   UNL     1     -32.270  27.384  35.074  1.00  0.00    -0.452 OA
ENDROOT
BRANCH   1  12
ATOM     12  C   UNL     1     -31.730  28.196  32.869  1.00  0.00     0.025 A 
ATOM     13  C   UNL     1     -31.114  27.310  31.970  1.00  0.00     0.016 A 
ATOM     14  C   UNL     1     -30.171  27.777  31.053  1.00  0.00     0.051 A 
ATOM     15  C   UNL     1     -29.813  29.129  31.022  1.00  0.00     0.157 A 
ATOM     16  C   UNL     1     -31.356  29.548  32.855  1.00  0.00     0.062 A 
ATOM     17  C   UNL     1     -30.411  30.026  31.938  1.00  0.00     0.158 A 
BRANCH  15  18
ATOM     18  O   UNL     1     -28.867  29.533  30.077  1.00  0.00    -0.504 OA
ATOM     19  H   UNL     1     -28.541  28.949  29.320  1.00  0.00     0.293 HD
ENDBRANCH  15  18
BRANCH  17  20
ATOM     20  O   UNL     1     -30.098  31.387  31.974  1.00  0.00    -0.504 OA
ATOM     21  H   UNL     1     -30.464  32.032  32.659  1.00  0.00     0.293 HD
ENDBRANCH  17  20
ENDBRANCH   1  12
BRANCH   2  22
ATOM     22  O   UNL     1     -34.578  28.084  32.352  1.00  0.00    -0.502 OA
ATOM     23  H   UNL     1     -35.478  27.793  31.990  1.00  0.00     0.293 HD
ENDBRANCH   2  22
BRANCH   6  24
ATOM     24  O   UNL     1     -36.588  25.876  36.764  1.00  0.00    -0.507 OA
ATOM     25  H   UNL     1     -37.023  25.538  35.919  1.00  0.00     0.293 HD
ENDBRANCH   6  24
BRANCH   8  26
ATOM     26  O   UNL     1     -32.683  25.877  39.558  1.00  0.00    -0.508 OA
ATOM     27  H   UNL     1     -31.837  25.323  39.631  1.00  0.00     0.293 HD
ENDBRANCH   8  26
TORSDOF 6
ENDMDL
