MODEL 1
REMARK VINA RESULT:     4.821      0.000      0.000
REMARK INTER + INTRA:           5.348
REMARK INTER:                   5.666
REMARK INTRA:                  -0.318
REMARK UNBOUND:                -0.318
REMARK SMILES O=c1cc(-c2ccc(O)c(O)c2)oc2cc(O)cc(O)c12
REMARK SMILES IDX 4 1 3 2 2 3 1 4 21 5 19 6 18 7 16 8 15 9 14 10 13 11 5 12
REMARK SMILES IDX 6 13 7 14 8 15 12 16 10 17 9 18 11 20 20 22 17 24
REMARK H PARENT 9 19 11 21 20 23 17 25
REMARK Flexibility Score: inf
ROOT
ATOM      1  C   UNL     1      -1.577  31.900   8.898  1.00  0.00     0.138 A 
ATOM      2  C   UNL     1      -0.312  31.920   8.294  1.00  0.00     0.100 A 
ATOM      3  C   UNL     1      -0.210  31.854   6.904  1.00  0.00     0.197 A 
ATOM      4  O   UNL     1       0.934  31.936   6.388  1.00  0.00    -0.289 OA
ATOM      5  C   UNL     1      -1.381  31.736   6.117  1.00  0.00     0.107 A 
ATOM      6  C   UNL     1      -1.396  31.619   4.695  1.00  0.00     0.134 A 
ATOM      7  C   UNL     1      -2.620  31.625   4.015  1.00  0.00     0.093 A 
ATOM      8  C   UNL     1      -3.829  31.682   4.708  1.00  0.00     0.123 A 
ATOM      9  C   UNL     1      -3.827  31.741   6.103  1.00  0.00     0.094 A 
ATOM     10  C   UNL     1      -2.621  31.773   6.807  1.00  0.00     0.146 A 
ATOM     11  O   UNL     1      -2.662  31.844   8.134  1.00  0.00    -0.456 OA
ENDROOT
BRANCH   1  12
ATOM     12  C   UNL     1      -1.743  31.968  10.372  1.00  0.00     0.021 A 
ATOM     13  C   UNL     1      -0.636  31.954  11.243  1.00  0.00     0.016 A 
ATOM     14  C   UNL     1      -0.821  32.008  12.627  1.00  0.00     0.051 A 
ATOM     15  C   UNL     1      -2.113  32.068  13.164  1.00  0.00     0.157 A 
ATOM     16  C   UNL     1      -3.037  32.014  10.923  1.00  0.00     0.062 A 
ATOM     17  C   UNL     1      -3.223  32.069  12.311  1.00  0.00     0.158 A 
BRANCH  15  18
ATOM     18  O   UNL     1      -2.302  32.123  14.544  1.00  0.00    -0.504 OA
ATOM     19  H   UNL     1      -1.543  31.940  15.190  1.00  0.00     0.293 HD
ENDBRANCH  15  18
BRANCH  17  20
ATOM     20  O   UNL     1      -4.506  32.124  12.850  1.00  0.00    -0.504 OA
ATOM     21  H   UNL     1      -5.073  31.289  12.958  1.00  0.00     0.293 HD
ENDBRANCH  17  20
ENDBRANCH   1  12
BRANCH   6  22
ATOM     22  O   UNL     1      -0.248  31.471   3.912  1.00  0.00    -0.507 OA
ATOM     23  H   UNL     1       0.322  30.639   3.873  1.00  0.00     0.293 HD
ENDBRANCH   6  22
BRANCH   8  24
ATOM     24  O   UNL     1      -5.028  31.670   3.999  1.00  0.00    -0.508 OA
ATOM     25  H   UNL     1      -5.124  32.150   3.111  1.00  0.00     0.293 HD
ENDBRANCH   8  24
TORSDOF 5
ENDMDL
MODEL 2
REMARK VINA RESULT:     5.186      1.213      2.671
REMARK INTER + INTRA:           5.777
REMARK INTER:                   6.072
REMARK INTRA:                  -0.294
REMARK UNBOUND:                -0.318
REMARK SMILES O=c1cc(-c2ccc(O)c(O)c2)oc2cc(O)cc(O)c12
REMARK SMILES IDX 4 1 3 2 2 3 1 4 21 5 19 6 18 7 16 8 15 9 14 10 13 11 5 12
REMARK SMILES IDX 6 13 7 14 8 15 12 16 10 17 9 18 11 20 20 22 17 24
REMARK H PARENT 9 19 11 21 20 23 17 25
REMARK Flexibility Score: inf
ROOT
ATOM      1  C   UNL     1      -1.740  32.012   8.898  1.00  0.00     0.138 A 
ATOM      2  C   UNL     1      -3.023  31.924   8.340  1.00  0.00     0.100 A 
ATOM      3  C   UNL     1      -3.171  31.889   6.953  1.00  0.00     0.197 A 
ATOM      4  O   UNL     1      -4.329  31.748   6.483  1.00  0.00    -0.289 OA
ATOM      5  C   UNL     1      -2.029  31.975   6.121  1.00  0.00     0.107 A 
ATOM      6  C   UNL     1      -2.063  31.991   4.694  1.00  0.00     0.134 A 
ATOM      7  C   UNL     1      -0.862  31.962   3.976  1.00  0.00     0.093 A 
ATOM      8  C   UNL     1       0.370  31.979   4.629  1.00  0.00     0.123 A 
ATOM      9  C   UNL     1       0.415  32.018   6.024  1.00  0.00     0.094 A 
ATOM     10  C   UNL     1      -0.766  32.012   6.769  1.00  0.00     0.146 A 
ATOM     11  O   UNL     1      -0.681  32.036   8.095  1.00  0.00    -0.456 OA
ENDROOT
BRANCH   1  12
ATOM     12  C   UNL     1      -1.525  32.052  10.367  1.00  0.00     0.021 A 
ATOM     13  C   UNL     1      -0.232  32.077  10.926  1.00  0.00     0.016 A 
ATOM     14  C   UNL     1      -0.060  32.103  12.312  1.00  0.00     0.051 A 
ATOM     15  C   UNL     1      -1.172  32.097  13.162  1.00  0.00     0.157 A 
ATOM     16  C   UNL     1      -2.636  32.031  11.230  1.00  0.00     0.062 A 
ATOM     17  C   UNL     1      -2.462  32.058  12.621  1.00  0.00     0.158 A 
BRANCH  15  18
ATOM     18  O   UNL     1      -1.004  32.124  14.546  1.00  0.00    -0.504 OA
ATOM     19  H   UNL     1      -1.726  32.484  15.160  1.00  0.00     0.293 HD
ENDBRANCH  15  18
BRANCH  17  20
ATOM     20  O   UNL     1      -3.567  32.047  13.470  1.00  0.00    -0.504 OA
ATOM     21  H   UNL     1      -4.213  32.828  13.510  1.00  0.00     0.293 HD
ENDBRANCH  17  20
ENDBRANCH   1  12
BRANCH   6  22
ATOM     22  O   UNL     1      -3.239  32.061   3.941  1.00  0.00    -0.507 OA
ATOM     23  H   UNL     1      -3.279  32.219   2.946  1.00  0.00     0.293 HD
ENDBRANCH   6  22
BRANCH   8  24
ATOM     24  O   UNL     1       1.545  31.965   3.881  1.00  0.00    -0.508 OA
ATOM     25  H   UNL     1       1.803  31.165   3.313  1.00  0.00     0.293 HD
ENDBRANCH   8  24
TORSDOF 5
ENDMDL
MODEL 3
REMARK VINA RESULT:     5.794     23.478     26.099
REMARK INTER + INTRA:           6.493
REMARK INTER:                   6.808
REMARK INTRA:                  -0.315
REMARK UNBOUND:                -0.318
REMARK SMILES O=c1cc(-c2ccc(O)c(O)c2)oc2cc(O)cc(O)c12
REMARK SMILES IDX 4 1 3 2 2 3 1 4 21 5 19 6 18 7 16 8 15 9 14 10 13 11 5 12
REMARK SMILES IDX 6 13 7 14 8 15 12 16 10 17 9 18 11 20 20 22 17 24
REMARK H PARENT 9 19 11 21 20 23 17 25
REMARK Flexibility Score: inf
ROOT
ATOM      1  C   UNL     1      10.951  13.486  20.298  1.00  0.00     0.138 A 
ATOM      2  C   UNL     1      11.244  12.720  21.435  1.00  0.00     0.100 A 
ATOM      3  C   UNL     1      12.308  13.089  22.259  1.00  0.00     0.197 A 
ATOM      4  O   UNL     1      12.508  12.419  23.305  1.00  0.00    -0.289 OA
ATOM      5  C   UNL     1      13.101  14.213  21.925  1.00  0.00     0.107 A 
ATOM      6  C   UNL     1      14.235  14.657  22.668  1.00  0.00     0.134 A 
ATOM      7  C   UNL     1      14.873  15.850  22.306  1.00  0.00     0.093 A 
ATOM      8  C   UNL     1      14.457  16.581  21.194  1.00  0.00     0.123 A 
ATOM      9  C   UNL     1      13.382  16.127  20.427  1.00  0.00     0.094 A 
ATOM     10  C   UNL     1      12.704  14.959  20.784  1.00  0.00     0.146 A 
ATOM     11  O   UNL     1      11.677  14.568  20.037  1.00  0.00    -0.456 OA
ENDROOT
BRANCH   1  12
ATOM     12  C   UNL     1       9.831  13.139  19.387  1.00  0.00     0.021 A 
ATOM     13  C   UNL     1       8.852  12.191  19.745  1.00  0.00     0.016 A 
ATOM     14  C   UNL     1       7.815  11.875  18.863  1.00  0.00     0.051 A 
ATOM     15  C   UNL     1       7.742  12.493  17.609  1.00  0.00     0.157 A 
ATOM     16  C   UNL     1       9.757  13.743  18.118  1.00  0.00     0.062 A 
ATOM     17  C   UNL     1       8.715  13.427  17.234  1.00  0.00     0.158 A 
BRANCH  15  18
ATOM     18  O   UNL     1       6.708  12.181  16.726  1.00  0.00    -0.504 OA
ATOM     19  H   UNL     1       5.807  12.642  16.784  1.00  0.00     0.293 HD
ENDBRANCH  15  18
BRANCH  17  20
ATOM     20  O   UNL     1       8.642  14.036  15.983  1.00  0.00    -0.504 OA
ATOM     21  H   UNL     1       9.064  13.614  15.162  1.00  0.00     0.293 HD
ENDBRANCH  17  20
ENDBRANCH   1  12
BRANCH   6  22
ATOM     22  O   UNL     1      14.786  13.957  23.746  1.00  0.00    -0.507 OA
ATOM     23  H   UNL     1      14.253  13.469  24.450  1.00  0.00     0.293 HD
ENDBRANCH   6  22
BRANCH   8  24
ATOM     24  O   UNL     1      15.125  17.755  20.855  1.00  0.00    -0.508 OA
ATOM     25  H   UNL     1      15.192  18.533  21.502  1.00  0.00     0.293 HD
ENDBRANCH   8  24
TORSDOF 5
ENDMDL
