MODEL 1
REMARK VINA RESULT:    -7.188      0.000      0.000
REMARK INTER + INTRA:          -8.345
REMARK INTER:                  -8.659
REMARK INTRA:                   0.314
REMARK UNBOUND:                 0.314
REMARK SMILES O=c1c(O)c(-c2ccc(O)c(O)c2)oc2cc(O)cc(O)c12
REMARK SMILES IDX 5 1 3 2 2 3 1 4 22 5 20 6 19 7 17 8 16 9 15 10 14 11 6 12
REMARK SMILES IDX 7 13 8 14 9 15 13 16 11 17 10 18 12 20 4 22 21 24 18 26
REMARK H PARENT 10 19 12 21 4 23 21 25 18 27
REMARK Flexibility Score: inf
ROOT
ATOM      1  C   UNL     1      -7.199  -6.063   9.072  1.00  0.00     0.180 A 
ATOM      2  C   UNL     1      -7.214  -7.468   9.092  1.00  0.00     0.208 A 
ATOM      3  C   UNL     1      -7.090  -8.133  10.323  1.00  0.00     0.238 A 
ATOM      4  O   UNL     1      -7.048  -9.392  10.328  1.00  0.00    -0.285 OA
ATOM      5  C   UNL     1      -6.971  -7.386  11.519  1.00  0.00     0.111 A 
ATOM      6  C   UNL     1      -6.880  -7.955  12.824  1.00  0.00     0.134 A 
ATOM      7  C   UNL     1      -6.633  -7.125  13.924  1.00  0.00     0.093 A 
ATOM      8  C   UNL     1      -6.540  -5.738  13.774  1.00  0.00     0.123 A 
ATOM      9  C   UNL     1      -6.686  -5.169  12.511  1.00  0.00     0.094 A 
ATOM     10  C   UNL     1      -6.896  -5.975  11.390  1.00  0.00     0.146 A 
ATOM     11  O   UNL     1      -7.021  -5.391  10.204  1.00  0.00    -0.452 OA
ENDROOT
BRANCH   1  12
ATOM     12  C   UNL     1      -7.349  -5.291   7.818  1.00  0.00     0.025 A 
ATOM     13  C   UNL     1      -7.990  -5.838   6.695  1.00  0.00     0.016 A 
ATOM     14  C   UNL     1      -8.141  -5.083   5.530  1.00  0.00     0.051 A 
ATOM     15  C   UNL     1      -7.670  -3.766   5.467  1.00  0.00     0.157 A 
ATOM     16  C   UNL     1      -6.896  -3.964   7.764  1.00  0.00     0.062 A 
ATOM     17  C   UNL     1      -7.043  -3.198   6.600  1.00  0.00     0.158 A 
BRANCH  15  18
ATOM     18  O   UNL     1      -7.850  -3.066   4.271  1.00  0.00    -0.504 OA
ATOM     19  H   UNL     1      -8.155  -2.106   4.221  1.00  0.00     0.293 HD
ENDBRANCH  15  18
BRANCH  17  20
ATOM     20  O   UNL     1      -6.557  -1.889   6.616  1.00  0.00    -0.504 OA
ATOM     21  H   UNL     1      -6.577  -1.270   5.819  1.00  0.00     0.293 HD
ENDBRANCH  17  20
ENDBRANCH   1  12
BRANCH   2  22
ATOM     22  O   UNL     1      -7.310  -8.187   7.897  1.00  0.00    -0.502 OA
ATOM     23  H   UNL     1      -7.384  -9.197   7.874  1.00  0.00     0.293 HD
ENDBRANCH   2  22
BRANCH   6  24
ATOM     24  O   UNL     1      -7.051  -9.316  13.097  1.00  0.00    -0.507 OA
ATOM     25  H   UNL     1      -6.310  -9.945  13.366  1.00  0.00     0.293 HD
ENDBRANCH   6  24
BRANCH   8  26
ATOM     26  O   UNL     1      -6.310  -4.918  14.876  1.00  0.00    -0.508 OA
ATOM     27  H   UNL     1      -6.505  -3.925  14.848  1.00  0.00     0.293 HD
ENDBRANCH   8  26
TORSDOF 6
ENDMDL
MODEL 2
REMARK VINA RESULT:    -7.112      2.319      3.164
REMARK INTER + INTRA:          -8.253
REMARK INTER:                  -8.026
REMARK INTRA:                  -0.228
REMARK UNBOUND:                 0.314
REMARK SMILES O=c1c(O)c(-c2ccc(O)c(O)c2)oc2cc(O)cc(O)c12
REMARK SMILES IDX 5 1 3 2 2 3 1 4 22 5 20 6 19 7 17 8 16 9 15 10 14 11 6 12
REMARK SMILES IDX 7 13 8 14 9 15 13 16 11 17 10 18 12 20 4 22 21 24 18 26
REMARK H PARENT 10 19 12 21 4 23 21 25 18 27
REMARK Flexibility Score: inf
ROOT
ATOM      1  C   UNL     1      -8.124  -5.830   9.017  1.00  0.00     0.180 A 
ATOM      2  C   UNL     1      -9.413  -5.553   9.506  1.00  0.00     0.208 A 
ATOM      3  C   UNL     1      -9.559  -5.135  10.839  1.00  0.00     0.238 A 
ATOM      4  O   UNL     1     -10.720  -4.942  11.287  1.00  0.00    -0.285 OA
ATOM      5  C   UNL     1      -8.416  -4.982  11.659  1.00  0.00     0.111 A 
ATOM      6  C   UNL     1      -8.444  -4.526  13.011  1.00  0.00     0.134 A 
ATOM      7  C   UNL     1      -7.267  -4.539  13.769  1.00  0.00     0.093 A 
ATOM      8  C   UNL     1      -6.050  -4.929  13.204  1.00  0.00     0.123 A 
ATOM      9  C   UNL     1      -6.003  -5.319  11.868  1.00  0.00     0.094 A 
ATOM     10  C   UNL     1      -7.167  -5.352  11.097  1.00  0.00     0.146 A 
ATOM     11  O   UNL     1      -7.079  -5.740   9.830  1.00  0.00    -0.452 OA
ENDROOT
BRANCH   1  12
ATOM     12  C   UNL     1      -7.887  -6.252   7.617  1.00  0.00     0.025 A 
ATOM     13  C   UNL     1      -7.544  -7.575   7.300  1.00  0.00     0.016 A 
ATOM     14  C   UNL     1      -7.348  -7.955   5.971  1.00  0.00     0.051 A 
ATOM     15  C   UNL     1      -7.506  -7.029   4.933  1.00  0.00     0.157 A 
ATOM     16  C   UNL     1      -8.067  -5.327   6.578  1.00  0.00     0.062 A 
ATOM     17  C   UNL     1      -7.873  -5.698   5.240  1.00  0.00     0.158 A 
BRANCH  15  18
ATOM     18  O   UNL     1      -7.292  -7.472   3.626  1.00  0.00    -0.504 OA
ATOM     19  H   UNL     1      -7.591  -8.372   3.280  1.00  0.00     0.293 HD
ENDBRANCH  15  18
BRANCH  17  20
ATOM     20  O   UNL     1      -8.057  -4.722   4.260  1.00  0.00    -0.504 OA
ATOM     21  H   UNL     1      -8.526  -3.842   4.420  1.00  0.00     0.293 HD
ENDBRANCH  17  20
ENDBRANCH   1  12
BRANCH   2  22
ATOM     22  O   UNL     1     -10.530  -5.732   8.686  1.00  0.00    -0.502 OA
ATOM     23  H   UNL     1     -11.370  -6.200   9.004  1.00  0.00     0.293 HD
ENDBRANCH   2  22
BRANCH   6  24
ATOM     24  O   UNL     1      -9.588  -4.028  13.644  1.00  0.00    -0.507 OA
ATOM     25  H   UNL     1     -10.177  -4.560  14.268  1.00  0.00     0.293 HD
ENDBRANCH   6  24
BRANCH   8  26
ATOM     26  O   UNL     1      -4.881  -4.923  13.961  1.00  0.00    -0.508 OA
ATOM     27  H   UNL     1      -4.684  -5.650  14.638  1.00  0.00     0.293 HD
ENDBRANCH   8  26
TORSDOF 6
ENDMDL
MODEL 3
REMARK VINA RESULT:    -7.077      4.122      4.953
REMARK INTER + INTRA:          -8.210
REMARK INTER:                  -7.880
REMARK INTRA:                  -0.331
REMARK UNBOUND:                 0.314
REMARK SMILES O=c1c(O)c(-c2ccc(O)c(O)c2)oc2cc(O)cc(O)c12
REMARK SMILES IDX 5 1 3 2 2 3 1 4 22 5 20 6 19 7 17 8 16 9 15 10 14 11 6 12
REMARK SMILES IDX 7 13 8 14 9 15 13 16 11 17 10 18 12 20 4 22 21 24 18 26
REMARK H PARENT 10 19 12 21 4 23 21 25 18 27
REMARK Flexibility Score: inf
ROOT
ATOM      1  C   UNL     1      -9.668  -5.363   9.296  1.00  0.00     0.180 A 
ATOM      2  C   UNL     1      -8.933  -5.089  10.462  1.00  0.00     0.208 A 
ATOM      3  C   UNL     1      -9.623  -4.746  11.637  1.00  0.00     0.238 A 
ATOM      4  O   UNL     1      -8.957  -4.449  12.663  1.00  0.00    -0.285 OA
ATOM      5  C   UNL     1     -11.037  -4.698  11.635  1.00  0.00     0.111 A 
ATOM      6  C   UNL     1     -11.840  -4.401  12.777  1.00  0.00     0.134 A 
ATOM      7  C   UNL     1     -13.224  -4.252  12.629  1.00  0.00     0.093 A 
ATOM      8  C   UNL     1     -13.842  -4.453  11.392  1.00  0.00     0.123 A 
ATOM      9  C   UNL     1     -13.073  -4.801  10.284  1.00  0.00     0.094 A 
ATOM     10  C   UNL     1     -11.686  -4.921  10.393  1.00  0.00     0.146 A 
ATOM     11  O   UNL     1     -10.991  -5.245   9.309  1.00  0.00    -0.452 OA
ENDROOT
BRANCH   1  12
ATOM     12  C   UNL     1      -9.013  -5.755   8.027  1.00  0.00     0.025 A 
ATOM     13  C   UNL     1      -8.773  -7.102   7.714  1.00  0.00     0.016 A 
ATOM     14  C   UNL     1      -8.176  -7.449   6.501  1.00  0.00     0.051 A 
ATOM     15  C   UNL     1      -7.821  -6.464   5.571  1.00  0.00     0.157 A 
ATOM     16  C   UNL     1      -8.679  -4.767   7.088  1.00  0.00     0.062 A 
ATOM     17  C   UNL     1      -8.079  -5.105   5.867  1.00  0.00     0.158 A 
BRANCH  15  18
ATOM     18  O   UNL     1      -7.224  -6.879   4.378  1.00  0.00    -0.504 OA
ATOM     19  H   UNL     1      -6.868  -7.809   4.220  1.00  0.00     0.293 HD
ENDBRANCH  15  18
BRANCH  17  20
ATOM     20  O   UNL     1      -7.763  -4.069   4.988  1.00  0.00    -0.504 OA
ATOM     21  H   UNL     1      -7.887  -4.120   3.987  1.00  0.00     0.293 HD
ENDBRANCH  17  20
ENDBRANCH   1  12
BRANCH   2  22
ATOM     22  O   UNL     1      -7.536  -5.121  10.437  1.00  0.00    -0.502 OA
ATOM     23  H   UNL     1      -7.005  -5.054   9.577  1.00  0.00     0.293 HD
ENDBRANCH   2  22
BRANCH   6  24
ATOM     24  O   UNL     1     -11.334  -4.272  14.074  1.00  0.00    -0.507 OA
ATOM     25  H   UNL     1     -10.466  -3.813  14.309  1.00  0.00     0.293 HD
ENDBRANCH   6  24
BRANCH   8  26
ATOM     26  O   UNL     1     -15.222  -4.318  11.257  1.00  0.00    -0.508 OA
ATOM     27  H   UNL     1     -15.629  -3.665  10.599  1.00  0.00     0.293 HD
ENDBRANCH   8  26
TORSDOF 6
ENDMDL
MODEL 4
REMARK VINA RESULT:    -7.060     13.012     14.935
REMARK INTER + INTRA:          -8.191
REMARK INTER:                  -7.985
REMARK INTRA:                  -0.206
REMARK UNBOUND:                 0.314
REMARK SMILES O=c1c(O)c(-c2ccc(O)c(O)c2)oc2cc(O)cc(O)c12
REMARK SMILES IDX 5 1 3 2 2 3 1 4 22 5 20 6 19 7 17 8 16 9 15 10 14 11 6 12
REMARK SMILES IDX 7 13 8 14 9 15 13 16 11 17 10 18 12 20 4 22 21 24 18 26
REMARK H PARENT 10 19 12 21 4 23 21 25 18 27
REMARK Flexibility Score: inf
ROOT
ATOM      1  C   UNL     1     -18.833  -4.011  16.926  1.00  0.00     0.180 A 
ATOM      2  C   UNL     1     -18.166  -3.238  15.960  1.00  0.00     0.208 A 
ATOM      3  C   UNL     1     -17.432  -3.890  14.956  1.00  0.00     0.238 A 
ATOM      4  O   UNL     1     -16.792  -3.192  14.126  1.00  0.00    -0.285 OA
ATOM      5  C   UNL     1     -17.387  -5.304  14.920  1.00  0.00     0.111 A 
ATOM      6  C   UNL     1     -16.707  -6.069  13.925  1.00  0.00     0.134 A 
ATOM      7  C   UNL     1     -16.619  -7.459  14.064  1.00  0.00     0.093 A 
ATOM      8  C   UNL     1     -17.243  -8.119  15.126  1.00  0.00     0.123 A 
ATOM      9  C   UNL     1     -17.959  -7.386  16.069  1.00  0.00     0.094 A 
ATOM     10  C   UNL     1     -18.033  -5.994  15.978  1.00  0.00     0.146 A 
ATOM     11  O   UNL     1     -18.718  -5.334  16.904  1.00  0.00    -0.452 OA
ENDROOT
BRANCH   1  12
ATOM     12  C   UNL     1     -19.647  -3.397  18.000  1.00  0.00     0.025 A 
ATOM     13  C   UNL     1     -19.221  -3.408  19.338  1.00  0.00     0.016 A 
ATOM     14  C   UNL     1     -19.994  -2.802  20.330  1.00  0.00     0.051 A 
ATOM     15  C   UNL     1     -21.197  -2.163  20.007  1.00  0.00     0.157 A 
ATOM     16  C   UNL     1     -20.842  -2.739  17.671  1.00  0.00     0.062 A 
ATOM     17  C   UNL     1     -21.625  -2.128  18.659  1.00  0.00     0.158 A 
BRANCH  15  18
ATOM     18  O   UNL     1     -21.924  -1.580  21.047  1.00  0.00    -0.504 OA
ATOM     19  H   UNL     1     -21.825  -1.837  22.018  1.00  0.00     0.293 HD
ENDBRANCH  15  18
BRANCH  17  20
ATOM     20  O   UNL     1     -22.807  -1.503  18.260  1.00  0.00    -0.504 OA
ATOM     21  H   UNL     1     -23.099  -0.591  18.579  1.00  0.00     0.293 HD
ENDBRANCH  17  20
ENDBRANCH   1  12
BRANCH   2  22
ATOM     22  O   UNL     1     -18.205  -1.843  16.025  1.00  0.00    -0.502 OA
ATOM     23  H   UNL     1     -17.565  -1.306  16.598  1.00  0.00     0.293 HD
ENDBRANCH   2  22
BRANCH   6  24
ATOM     24  O   UNL     1     -16.129  -5.519  12.777  1.00  0.00    -0.507 OA
ATOM     25  H   UNL     1     -16.638  -5.263  11.944  1.00  0.00     0.293 HD
ENDBRANCH   6  24
BRANCH   8  26
ATOM     26  O   UNL     1     -17.164  -9.505  15.247  1.00  0.00    -0.508 OA
ATOM     27  H   UNL     1     -17.134  -9.957  16.152  1.00  0.00     0.293 HD
ENDBRANCH   8  26
TORSDOF 6
ENDMDL
MODEL 5
REMARK VINA RESULT:    -7.009      4.072      4.347
REMARK INTER + INTRA:          -8.129
REMARK INTER:                  -7.814
REMARK INTRA:                  -0.315
REMARK UNBOUND:                 0.314
REMARK SMILES O=c1c(O)c(-c2ccc(O)c(O)c2)oc2cc(O)cc(O)c12
REMARK SMILES IDX 5 1 3 2 2 3 1 4 22 5 20 6 19 7 17 8 16 9 15 10 14 11 6 12
REMARK SMILES IDX 7 13 8 14 9 15 13 16 11 17 10 18 12 20 4 22 21 24 18 26
REMARK H PARENT 10 19 12 21 4 23 21 25 18 27
REMARK Flexibility Score: inf
ROOT
ATOM      1  C   UNL     1      -9.940  -5.776   8.645  1.00  0.00     0.180 A 
ATOM      2  C   UNL     1      -9.745  -7.157   8.820  1.00  0.00     0.208 A 
ATOM      3  C   UNL     1     -10.620  -7.867   9.658  1.00  0.00     0.238 A 
ATOM      4  O   UNL     1     -10.407  -9.093   9.854  1.00  0.00    -0.285 OA
ATOM      5  C   UNL     1     -11.688  -7.192  10.297  1.00  0.00     0.111 A 
ATOM      6  C   UNL     1     -12.658  -7.820  11.134  1.00  0.00     0.134 A 
ATOM      7  C   UNL     1     -13.592  -7.033  11.819  1.00  0.00     0.093 A 
ATOM      8  C   UNL     1     -13.633  -5.647  11.643  1.00  0.00     0.123 A 
ATOM      9  C   UNL     1     -12.728  -5.033  10.782  1.00  0.00     0.094 A 
ATOM     10  C   UNL     1     -11.761  -5.787  10.114  1.00  0.00     0.146 A 
ATOM     11  O   UNL     1     -10.912  -5.160   9.309  1.00  0.00    -0.452 OA
ENDROOT
BRANCH   1  12
ATOM     12  C   UNL     1      -9.075  -4.964   7.759  1.00  0.00     0.025 A 
ATOM     13  C   UNL     1      -9.271  -4.940   6.369  1.00  0.00     0.016 A 
ATOM     14  C   UNL     1      -8.458  -4.148   5.556  1.00  0.00     0.051 A 
ATOM     15  C   UNL     1      -7.446  -3.357   6.111  1.00  0.00     0.157 A 
ATOM     16  C   UNL     1      -8.076  -4.156   8.321  1.00  0.00     0.062 A 
ATOM     17  C   UNL     1      -7.254  -3.358   7.513  1.00  0.00     0.158 A 
BRANCH  15  18
ATOM     18  O   UNL     1      -6.665  -2.591   5.242  1.00  0.00    -0.504 OA
ATOM     19  H   UNL     1      -6.868  -2.472   4.260  1.00  0.00     0.293 HD
ENDBRANCH  15  18
BRANCH  17  20
ATOM     20  O   UNL     1      -6.273  -2.589   8.140  1.00  0.00    -0.504 OA
ATOM     21  H   UNL     1      -5.475  -2.975   8.623  1.00  0.00     0.293 HD
ENDBRANCH  17  20
ENDBRANCH   1  12
BRANCH   2  22
ATOM     22  O   UNL     1      -8.672  -7.800   8.198  1.00  0.00    -0.502 OA
ATOM     23  H   UNL     1      -8.223  -8.617   8.594  1.00  0.00     0.293 HD
ENDBRANCH   2  22
BRANCH   6  24
ATOM     24  O   UNL     1     -12.763  -9.204  11.306  1.00  0.00    -0.507 OA
ATOM     25  H   UNL     1     -12.706  -9.881  10.560  1.00  0.00     0.293 HD
ENDBRANCH   6  24
BRANCH   8  26
ATOM     26  O   UNL     1     -14.577  -4.874  12.316  1.00  0.00    -0.508 OA
ATOM     27  H   UNL     1     -14.306  -4.212  13.033  1.00  0.00     0.293 HD
ENDBRANCH   8  26
TORSDOF 6
ENDMDL
MODEL 6
REMARK VINA RESULT:    -7.005      3.631      4.614
REMARK INTER + INTRA:          -8.124
REMARK INTER:                  -7.843
REMARK INTRA:                  -0.281
REMARK UNBOUND:                 0.314
REMARK SMILES O=c1c(O)c(-c2ccc(O)c(O)c2)oc2cc(O)cc(O)c12
REMARK SMILES IDX 5 1 3 2 2 3 1 4 22 5 20 6 19 7 17 8 16 9 15 10 14 11 6 12
REMARK SMILES IDX 7 13 8 14 9 15 13 16 11 17 10 18 12 20 4 22 21 24 18 26
REMARK H PARENT 10 19 12 21 4 23 21 25 18 27
REMARK Flexibility Score: inf
ROOT
ATOM      1  C   UNL     1      -9.555  -6.984   9.253  1.00  0.00     0.180 A 
ATOM      2  C   UNL     1     -10.798  -7.601   9.477  1.00  0.00     0.208 A 
ATOM      3  C   UNL     1     -11.611  -7.135  10.523  1.00  0.00     0.238 A 
ATOM      4  O   UNL     1     -12.698  -7.727  10.753  1.00  0.00    -0.285 OA
ATOM      5  C   UNL     1     -11.180  -6.048  11.320  1.00  0.00     0.111 A 
ATOM      6  C   UNL     1     -11.940  -5.468  12.379  1.00  0.00     0.134 A 
ATOM      7  C   UNL     1     -11.359  -4.482  13.186  1.00  0.00     0.093 A 
ATOM      8  C   UNL     1     -10.070  -4.007  12.930  1.00  0.00     0.123 A 
ATOM      9  C   UNL     1      -9.343  -4.526  11.861  1.00  0.00     0.094 A 
ATOM     10  C   UNL     1      -9.881  -5.536  11.061  1.00  0.00     0.146 A 
ATOM     11  O   UNL     1      -9.150  -6.009  10.059  1.00  0.00    -0.452 OA
ENDROOT
BRANCH   1  12
ATOM     12  C   UNL     1      -8.654  -7.403   8.155  1.00  0.00     0.025 A 
ATOM     13  C   UNL     1      -8.537  -6.648   6.977  1.00  0.00     0.016 A 
ATOM     14  C   UNL     1      -7.663  -7.050   5.965  1.00  0.00     0.051 A 
ATOM     15  C   UNL     1      -6.881  -8.201   6.113  1.00  0.00     0.157 A 
ATOM     16  C   UNL     1      -7.855  -8.545   8.315  1.00  0.00     0.062 A 
ATOM     17  C   UNL     1      -6.975  -8.956   7.305  1.00  0.00     0.158 A 
BRANCH  15  18
ATOM     18  O   UNL     1      -6.030  -8.550   5.061  1.00  0.00    -0.504 OA
ATOM     19  H   UNL     1      -6.291  -9.164   4.305  1.00  0.00     0.293 HD
ENDBRANCH  15  18
BRANCH  17  20
ATOM     20  O   UNL     1      -6.220 -10.109   7.529  1.00  0.00    -0.504 OA
ATOM     21  H   UNL     1      -6.520 -11.039   7.273  1.00  0.00     0.293 HD
ENDBRANCH  17  20
ENDBRANCH   1  12
BRANCH   2  22
ATOM     22  O   UNL     1     -11.195  -8.687   8.692  1.00  0.00    -0.502 OA
ATOM     23  H   UNL     1     -10.576  -9.135   8.028  1.00  0.00     0.293 HD
ENDBRANCH   2  22
BRANCH   6  24
ATOM     24  O   UNL     1     -13.268  -5.803  12.662  1.00  0.00    -0.507 OA
ATOM     25  H   UNL     1     -14.024  -5.139  12.740  1.00  0.00     0.293 HD
ENDBRANCH   6  24
BRANCH   8  26
ATOM     26  O   UNL     1      -9.506  -3.014  13.728  1.00  0.00    -0.508 OA
ATOM     27  H   UNL     1      -9.992  -2.145  13.915  1.00  0.00     0.293 HD
ENDBRANCH   8  26
TORSDOF 6
ENDMDL
MODEL 7
REMARK VINA RESULT:    -6.877      4.012      6.613
REMARK INTER + INTRA:          -7.970
REMARK INTER:                  -7.657
REMARK INTRA:                  -0.313
REMARK UNBOUND:                 0.314
REMARK SMILES O=c1c(O)c(-c2ccc(O)c(O)c2)oc2cc(O)cc(O)c12
REMARK SMILES IDX 5 1 3 2 2 3 1 4 22 5 20 6 19 7 17 8 16 9 15 10 14 11 6 12
REMARK SMILES IDX 7 13 8 14 9 15 13 16 11 17 10 18 12 20 4 22 21 24 18 26
REMARK H PARENT 10 19 12 21 4 23 21 25 18 27
REMARK Flexibility Score: inf
ROOT
ATOM      1  C   UNL     1     -10.529  -5.590   9.444  1.00  0.00     0.180 A 
ATOM      2  C   UNL     1     -10.150  -6.929   9.648  1.00  0.00     0.208 A 
ATOM      3  C   UNL     1      -9.318  -7.553   8.705  1.00  0.00     0.238 A 
ATOM      4  O   UNL     1      -9.028  -8.767   8.865  1.00  0.00    -0.285 OA
ATOM      5  C   UNL     1      -8.860  -6.826   7.580  1.00  0.00     0.111 A 
ATOM      6  C   UNL     1      -7.980  -7.346   6.583  1.00  0.00     0.134 A 
ATOM      7  C   UNL     1      -7.698  -6.581   5.444  1.00  0.00     0.093 A 
ATOM      8  C   UNL     1      -8.211  -5.289   5.299  1.00  0.00     0.123 A 
ATOM      9  C   UNL     1      -9.022  -4.752   6.295  1.00  0.00     0.094 A 
ATOM     10  C   UNL     1      -9.351  -5.504   7.425  1.00  0.00     0.146 A 
ATOM     11  O   UNL     1     -10.135  -4.957   8.345  1.00  0.00    -0.452 OA
ENDROOT
BRANCH   1  12
ATOM     12  C   UNL     1     -11.383  -4.858  10.406  1.00  0.00     0.025 A 
ATOM     13  C   UNL     1     -12.783  -4.956  10.363  1.00  0.00     0.016 A 
ATOM     14  C   UNL     1     -13.567  -4.275  11.295  1.00  0.00     0.051 A 
ATOM     15  C   UNL     1     -12.974  -3.497  12.296  1.00  0.00     0.157 A 
ATOM     16  C   UNL     1     -10.785  -4.096  11.421  1.00  0.00     0.062 A 
ATOM     17  C   UNL     1     -11.563  -3.409  12.362  1.00  0.00     0.158 A 
BRANCH  15  18
ATOM     18  O   UNL     1     -13.815  -2.838  13.195  1.00  0.00    -0.504 OA
ATOM     19  H   UNL     1     -14.003  -1.847  13.168  1.00  0.00     0.293 HD
ENDBRANCH  15  18
BRANCH  17  20
ATOM     20  O   UNL     1     -10.900  -2.661  13.335  1.00  0.00    -0.504 OA
ATOM     21  H   UNL     1     -11.367  -2.099  14.032  1.00  0.00     0.293 HD
ENDBRANCH  17  20
ENDBRANCH   1  12
BRANCH   2  22
ATOM     22  O   UNL     1     -10.631  -7.635  10.754  1.00  0.00    -0.502 OA
ATOM     23  H   UNL     1     -10.280  -8.549  11.012  1.00  0.00     0.293 HD
ENDBRANCH   2  22
BRANCH   6  24
ATOM     24  O   UNL     1      -7.341  -8.586   6.675  1.00  0.00    -0.507 OA
ATOM     25  H   UNL     1      -7.751  -9.465   6.394  1.00  0.00     0.293 HD
ENDBRANCH   6  24
BRANCH   8  26
ATOM     26  O   UNL     1      -7.912  -4.529   4.170  1.00  0.00    -0.508 OA
ATOM     27  H   UNL     1      -8.431  -4.635   3.307  1.00  0.00     0.293 HD
ENDBRANCH   8  26
TORSDOF 6
ENDMDL
MODEL 8
REMARK VINA RESULT:    -6.764     15.422     17.478
REMARK INTER + INTRA:          -7.835
REMARK INTER:                  -7.636
REMARK INTRA:                  -0.198
REMARK UNBOUND:                 0.314
REMARK SMILES O=c1c(O)c(-c2ccc(O)c(O)c2)oc2cc(O)cc(O)c12
REMARK SMILES IDX 5 1 3 2 2 3 1 4 22 5 20 6 19 7 17 8 16 9 15 10 14 11 6 12
REMARK SMILES IDX 7 13 8 14 9 15 13 16 11 17 10 18 12 20 4 22 21 24 18 26
REMARK H PARENT 10 19 12 21 4 23 21 25 18 27
REMARK Flexibility Score: inf
ROOT
ATOM      1  C   UNL     1     -21.095  -2.212  17.488  1.00  0.00     0.180 A 
ATOM      2  C   UNL     1     -22.249  -1.875  16.760  1.00  0.00     0.208 A 
ATOM      3  C   UNL     1     -22.119  -1.514  15.408  1.00  0.00     0.238 A 
ATOM      4  O   UNL     1     -23.149  -1.161  14.777  1.00  0.00    -0.285 OA
ATOM      5  C   UNL     1     -20.843  -1.513  14.798  1.00  0.00     0.111 A 
ATOM      6  C   UNL     1     -20.600  -1.205  13.426  1.00  0.00     0.134 A 
ATOM      7  C   UNL     1     -19.283  -1.106  12.962  1.00  0.00     0.093 A 
ATOM      8  C   UNL     1     -18.200  -1.370  13.806  1.00  0.00     0.123 A 
ATOM      9  C   UNL     1     -18.429  -1.730  15.131  1.00  0.00     0.094 A 
ATOM     10  C   UNL     1     -19.731  -1.801  15.632  1.00  0.00     0.146 A 
ATOM     11  O   UNL     1     -19.904  -2.138  16.905  1.00  0.00    -0.452 OA
ENDROOT
BRANCH   1  12
ATOM     12  C   UNL     1     -21.153  -2.625  18.909  1.00  0.00     0.025 A 
ATOM     13  C   UNL     1     -20.838  -3.935  19.303  1.00  0.00     0.016 A 
ATOM     14  C   UNL     1     -20.877  -4.295  20.651  1.00  0.00     0.051 A 
ATOM     15  C   UNL     1     -21.216  -3.356  21.632  1.00  0.00     0.157 A 
ATOM     16  C   UNL     1     -21.472  -1.676  19.892  1.00  0.00     0.062 A 
ATOM     17  C   UNL     1     -21.514  -2.028  21.247  1.00  0.00     0.158 A 
BRANCH  15  18
ATOM     18  O   UNL     1     -21.240  -3.782  22.962  1.00  0.00    -0.504 OA
ATOM     19  H   UNL     1     -20.439  -3.760  23.575  1.00  0.00     0.293 HD
ENDBRANCH  15  18
BRANCH  17  20
ATOM     20  O   UNL     1     -21.851  -1.035  22.168  1.00  0.00    -0.504 OA
ATOM     21  H   UNL     1     -21.698  -1.111  23.163  1.00  0.00     0.293 HD
ENDBRANCH  17  20
ENDBRANCH   1  12
BRANCH   2  22
ATOM     22  O   UNL     1     -23.497  -1.861  17.387  1.00  0.00    -0.502 OA
ATOM     23  H   UNL     1     -23.692  -1.290  18.201  1.00  0.00     0.293 HD
ENDBRANCH   2  22
BRANCH   6  24
ATOM     24  O   UNL     1     -21.611  -1.014  12.478  1.00  0.00    -0.507 OA
ATOM     25  H   UNL     1     -22.494  -1.502  12.474  1.00  0.00     0.293 HD
ENDBRANCH   6  24
BRANCH   8  26
ATOM     26  O   UNL     1     -16.893  -1.286  13.331  1.00  0.00    -0.508 OA
ATOM     27  H   UNL     1     -16.620  -1.706  12.451  1.00  0.00     0.293 HD
ENDBRANCH   8  26
TORSDOF 6
ENDMDL
MODEL 9
REMARK VINA RESULT:    -6.639     13.507     14.714
REMARK INTER + INTRA:          -7.683
REMARK INTER:                  -7.394
REMARK INTRA:                  -0.290
REMARK UNBOUND:                 0.314
REMARK SMILES O=c1c(O)c(-c2ccc(O)c(O)c2)oc2cc(O)cc(O)c12
REMARK SMILES IDX 5 1 3 2 2 3 1 4 22 5 20 6 19 7 17 8 16 9 15 10 14 11 6 12
REMARK SMILES IDX 7 13 8 14 9 15 13 16 11 17 10 18 12 20 4 22 21 24 18 26
REMARK H PARENT 10 19 12 21 4 23 21 25 18 27
REMARK Flexibility Score: inf
ROOT
ATOM      1  C   UNL     1     -18.875  -3.328  16.322  1.00  0.00     0.180 A 
ATOM      2  C   UNL     1     -19.847  -2.439  15.831  1.00  0.00     0.208 A 
ATOM      3  C   UNL     1     -20.819  -1.939  16.714  1.00  0.00     0.238 A 
ATOM      4  O   UNL     1     -21.719  -1.187  16.257  1.00  0.00    -0.285 OA
ATOM      5  C   UNL     1     -20.796  -2.320  18.077  1.00  0.00     0.111 A 
ATOM      6  C   UNL     1     -21.707  -1.843  19.067  1.00  0.00     0.134 A 
ATOM      7  C   UNL     1     -21.673  -2.388  20.356  1.00  0.00     0.093 A 
ATOM      8  C   UNL     1     -20.718  -3.345  20.709  1.00  0.00     0.123 A 
ATOM      9  C   UNL     1     -19.788  -3.773  19.765  1.00  0.00     0.094 A 
ATOM     10  C   UNL     1     -19.820  -3.275  18.461  1.00  0.00     0.146 A 
ATOM     11  O   UNL     1     -18.920  -3.717  17.591  1.00  0.00    -0.452 OA
ENDROOT
BRANCH   1  12
ATOM     12  C   UNL     1     -17.805  -3.878  15.459  1.00  0.00     0.025 A 
ATOM     13  C   UNL     1     -17.897  -5.167  14.911  1.00  0.00     0.016 A 
ATOM     14  C   UNL     1     -16.886  -5.655  14.081  1.00  0.00     0.051 A 
ATOM     15  C   UNL     1     -15.773  -4.865  13.770  1.00  0.00     0.157 A 
ATOM     16  C   UNL     1     -16.701  -3.076  15.132  1.00  0.00     0.062 A 
ATOM     17  C   UNL     1     -15.681  -3.557  14.300  1.00  0.00     0.158 A 
BRANCH  15  18
ATOM     18  O   UNL     1     -14.796  -5.414  12.937  1.00  0.00    -0.504 OA
ATOM     19  H   UNL     1     -14.944  -5.633  11.963  1.00  0.00     0.293 HD
ENDBRANCH  15  18
BRANCH  17  20
ATOM     20  O   UNL     1     -14.607  -2.707  14.028  1.00  0.00    -0.504 OA
ATOM     21  H   UNL     1     -13.742  -2.706  14.548  1.00  0.00     0.293 HD
ENDBRANCH  17  20
ENDBRANCH   1  12
BRANCH   2  22
ATOM     22  O   UNL     1     -19.865  -2.093  14.478  1.00  0.00    -0.502 OA
ATOM     23  H   UNL     1     -20.532  -1.434  14.092  1.00  0.00     0.293 HD
ENDBRANCH   2  22
BRANCH   6  24
ATOM     24  O   UNL     1     -22.639  -0.824  18.845  1.00  0.00    -0.507 OA
ATOM     25  H   UNL     1     -23.385  -0.866  18.166  1.00  0.00     0.293 HD
ENDBRANCH   6  24
BRANCH   8  26
ATOM     26  O   UNL     1     -20.682  -3.870  21.999  1.00  0.00    -0.508 OA
ATOM     27  H   UNL     1     -21.442  -3.725  22.652  1.00  0.00     0.293 HD
ENDBRANCH   8  26
TORSDOF 6
ENDMDL
