MODEL 1
REMARK VINA RESULT:    57.021      0.000      0.000
REMARK INTER + INTRA:          85.307
REMARK INTER:                  82.022
REMARK INTRA:                   3.285
REMARK UNBOUND:                 3.285
REMARK SMILES O=c1c(O[C@H]2O[C@H](CO)[C@@H](O)[C@H](O)[C@@H]2O)c(-c2ccc(O)cc2)oc2cc(O)cc(O)c12
REMARK SMILES IDX 4 1 3 2 16 3 24 4 2 5 25 6 1 7 32 8 26 9 30 10 27 11 29 12
REMARK SMILES IDX 17 13 18 14 19 15 20 16 23 17 22 18 21 19 31 21 28 23 5 25
REMARK SMILES IDX 14 26 6 27 12 28 7 29 10 30 15 31 13 33 8 35 9 36 11 38
REMARK H PARENT 21 20 31 22 28 24 15 32 13 34 9 37 11 39
REMARK Flexibility Score: inf
ROOT
ATOM      1  O   UNL     1      -2.768  -0.344   0.843  1.00  0.00    -0.454 OA
ENDROOT
BRANCH   1   2
ATOM      2  C   UNL     1      -3.053   0.237   2.086  1.00  0.00     0.214 A 
ATOM      3  C   UNL     1      -2.094   0.270   3.117  1.00  0.00     0.180 A 
ATOM      4  O   UNL     1      -2.436   0.720   4.318  1.00  0.00    -0.452 OA
ATOM      5  C   UNL     1      -4.324   0.774   2.326  1.00  0.00     0.239 A 
ATOM      6  C   UNL     1      -3.639   1.205   4.603  1.00  0.00     0.146 A 
ATOM      7  O   UNL     1      -5.175   0.735   1.401  1.00  0.00    -0.285 OA
ATOM      8  C   UNL     1      -4.641   1.301   3.602  1.00  0.00     0.111 A 
ATOM      9  C   UNL     1      -3.899   1.618   5.912  1.00  0.00     0.094 A 
ATOM     10  C   UNL     1      -5.901   1.872   3.955  1.00  0.00     0.134 A 
ATOM     11  C   UNL     1      -5.150   2.121   6.259  1.00  0.00     0.123 A 
ATOM     12  C   UNL     1      -6.143   2.243   5.283  1.00  0.00     0.093 A 
BRANCH   3  13
ATOM     13  C   UNL     1      -0.701  -0.184   2.912  1.00  0.00     0.021 A 
ATOM     14  C   UNL     1      -0.033  -0.865   3.943  1.00  0.00     0.016 A 
ATOM     15  C   UNL     1       1.289  -1.286   3.771  1.00  0.00     0.047 A 
ATOM     16  C   UNL     1       1.963  -1.018   2.571  1.00  0.00     0.115 A 
ATOM     17  C   UNL     1      -0.011   0.103   1.721  1.00  0.00     0.016 A 
ATOM     18  C   UNL     1       1.309  -0.321   1.550  1.00  0.00     0.047 A 
BRANCH  16  19
ATOM     19  O   UNL     1       3.279  -1.435   2.387  1.00  0.00    -0.508 OA
ATOM     20  H   UNL     1       3.521  -2.140   1.701  1.00  0.00     0.293 HD
ENDBRANCH  16  19
ENDBRANCH   3  13
BRANCH  10  21
ATOM     21  O   UNL     1      -6.934   2.114   3.044  1.00  0.00    -0.507 OA
ATOM     22  H   UNL     1      -7.470   2.967   2.993  1.00  0.00     0.293 HD
ENDBRANCH  10  21
BRANCH  11  23
ATOM     23  O   UNL     1      -5.394   2.506   7.574  1.00  0.00    -0.508 OA
ATOM     24  H   UNL     1      -6.328   2.743   7.893  1.00  0.00     0.293 HD
ENDBRANCH  11  23
ENDBRANCH   1   2
BRANCH   1  25
ATOM     25  C   UNL     1      -3.073  -1.714   0.559  1.00  0.00     0.339 C 
ATOM     26  C   UNL     1      -4.109  -1.823  -0.583  1.00  0.00     0.214 C 
ATOM     27  O   UNL     1      -3.505  -2.391   1.731  1.00  0.00    -0.332 OA
ATOM     28  C   UNL     1      -5.511  -1.390  -0.108  1.00  0.00     0.180 C 
ATOM     29  C   UNL     1      -4.717  -1.845   2.232  1.00  0.00     0.179 C 
ATOM     30  C   UNL     1      -5.869  -2.055   1.227  1.00  0.00     0.177 C 
BRANCH  26  31
ATOM     31  O   UNL     1      -4.132  -3.122  -1.123  1.00  0.00    -0.384 OA
ATOM     32  H   UNL     1      -3.362  -3.214  -1.742  1.00  0.00     0.211 HD
ENDBRANCH  26  31
BRANCH  28  33
ATOM     33  O   UNL     1      -6.478  -1.722  -1.072  1.00  0.00    -0.387 OA
ATOM     34  H   UNL     1      -7.340  -1.816  -0.591  1.00  0.00     0.211 HD
ENDBRANCH  28  33
BRANCH  29  35
ATOM     35  C   UNL     1      -5.038  -2.517   3.577  1.00  0.00     0.191 C 
BRANCH  35  36
ATOM     36  O   UNL     1      -4.659  -1.688   4.642  1.00  0.00    -0.394 OA
ATOM     37  H   UNL     1      -4.249  -2.276   5.328  1.00  0.00     0.210 HD
ENDBRANCH  35  36
ENDBRANCH  29  35
BRANCH  30  38
ATOM     38  O   UNL     1      -7.046  -1.464   1.724  1.00  0.00    -0.387 OA
ATOM     39  H   UNL     1      -7.057  -1.596   2.708  1.00  0.00     0.211 HD
ENDBRANCH  30  38
ENDBRANCH   1  25
TORSDOF 11
ENDMDL
