MODEL 1
REMARK VINA RESULT:    -4.908      0.000      0.000
REMARK INTER + INTRA:          -8.869
REMARK INTER:                  -7.777
REMARK INTRA:                  -1.093
REMARK UNBOUND:                -1.093
REMARK SMILES CCCCCCCCCCCC(=O)[O-]
REMARK SMILES IDX 7 1 8 2 9 3 10 4 11 5 12 6 13 7 14 8 6 9 5 10 4 11 3 12 2 13
REMARK SMILES IDX 1 14
REMARK H PARENT
REMARK Flexibility Score: inf
ROOT
ATOM      1  C   UNL     1      12.430  28.487  61.415  1.00  0.00     0.000 C 
ENDROOT
BRANCH   1   2
ATOM      2  C   UNL     1      12.462  29.918  61.979  1.00  0.00     0.000 C 
BRANCH   2   3
ATOM      3  C   UNL     1      13.888  30.383  62.326  1.00  0.00     0.000 C 
BRANCH   3   4
ATOM      4  C   UNL     1      14.931  29.259  62.181  1.00  0.00     0.006 C 
BRANCH   4   5
ATOM      5  C   UNL     1      15.844  29.079  63.404  1.00  0.00     0.053 C 
BRANCH   5   6
ATOM      6  C   UNL     1      15.764  27.692  63.965  1.00  0.00     0.041 C 
ATOM      7  O   UNL     1      16.812  27.092  64.324  1.00  0.00    -0.550 OA
ATOM      8  O   UNL     1      14.529  27.076  64.121  1.00  0.00    -0.550 OA
ENDBRANCH   5   6
ENDBRANCH   4   5
ENDBRANCH   3   4
ENDBRANCH   2   3
ENDBRANCH   1   2
BRANCH   1   9
ATOM      9  C   UNL     1      11.738  28.406  60.045  1.00  0.00     0.000 C 
BRANCH   9  10
ATOM     10  C   UNL     1      11.585  29.800  59.424  1.00  0.00    -0.000 C 
BRANCH  10  11
ATOM     11  C   UNL     1      10.111  30.121  59.148  1.00  0.00    -0.000 C 
BRANCH  11  12
ATOM     12  C   UNL     1       9.194  29.049  59.750  1.00  0.00    -0.000 C 
BRANCH  12  13
ATOM     13  C   UNL     1       8.228  29.663  60.770  1.00  0.00    -0.003 C 
ATOM     14  C   UNL     1       8.746  29.488  62.195  1.00  0.00     0.004 C 
ENDBRANCH  12  13
ENDBRANCH  11  12
ENDBRANCH  10  11
ENDBRANCH   9  10
ENDBRANCH   1   9
TORSDOF 10
ENDMDL
MODEL 2
REMARK VINA RESULT:    -4.639      3.676      6.858
REMARK INTER + INTRA:          -8.444
REMARK INTER:                  -7.774
REMARK INTRA:                  -0.670
REMARK UNBOUND:                -1.093
REMARK SMILES CCCCCCCCCCCC(=O)[O-]
REMARK SMILES IDX 7 1 8 2 9 3 10 4 11 5 12 6 13 7 14 8 6 9 5 10 4 11 3 12 2 13
REMARK SMILES IDX 1 14
REMARK H PARENT
REMARK Flexibility Score: inf
ROOT
ATOM      1  C   UNL     1      13.555  30.026  61.807  1.00  0.00     0.000 C 
ENDROOT
BRANCH   1   2
ATOM      2  C   UNL     1      12.800  28.686  61.806  1.00  0.00     0.000 C 
BRANCH   2   3
ATOM      3  C   UNL     1      11.731  28.614  60.702  1.00  0.00     0.000 C 
BRANCH   3   4
ATOM      4  C   UNL     1      10.535  29.546  60.972  1.00  0.00     0.006 C 
BRANCH   4   5
ATOM      5  C   UNL     1       9.203  29.058  60.379  1.00  0.00     0.053 C 
BRANCH   5   6
ATOM      6  C   UNL     1       8.124  30.090  60.499  1.00  0.00     0.041 C 
ATOM      7  O   UNL     1       7.359  30.094  61.500  1.00  0.00    -0.550 OA
ATOM      8  O   UNL     1       7.984  31.066  59.521  1.00  0.00    -0.550 OA
ENDBRANCH   5   6
ENDBRANCH   4   5
ENDBRANCH   3   4
ENDBRANCH   2   3
ENDBRANCH   1   2
BRANCH   1   9
ATOM      9  C   UNL     1      14.809  30.002  60.917  1.00  0.00     0.000 C 
BRANCH   9  10
ATOM     10  C   UNL     1      15.966  29.283  61.621  1.00  0.00    -0.000 C 
BRANCH  10  11
ATOM     11  C   UNL     1      16.435  30.068  62.852  1.00  0.00    -0.000 C 
BRANCH  11  12
ATOM     12  C   UNL     1      16.198  29.267  64.138  1.00  0.00    -0.000 C 
BRANCH  12  13
ATOM     13  C   UNL     1      15.789  27.825  63.818  1.00  0.00    -0.003 C 
ATOM     14  C   UNL     1      16.858  26.834  64.271  1.00  0.00     0.004 C 
ENDBRANCH  12  13
ENDBRANCH  11  12
ENDBRANCH  10  11
ENDBRANCH   9  10
ENDBRANCH   1   9
TORSDOF 10
ENDMDL
MODEL 3
REMARK VINA RESULT:    -4.533      1.479      1.862
REMARK INTER + INTRA:          -8.276
REMARK INTER:                  -7.393
REMARK INTRA:                  -0.883
REMARK UNBOUND:                -1.093
REMARK SMILES CCCCCCCCCCCC(=O)[O-]
REMARK SMILES IDX 7 1 8 2 9 3 10 4 11 5 12 6 13 7 14 8 6 9 5 10 4 11 3 12 2 13
REMARK SMILES IDX 1 14
REMARK H PARENT
REMARK Flexibility Score: inf
ROOT
ATOM      1  C   UNL     1      12.952  30.045  60.785  1.00  0.00     0.000 C 
ENDROOT
BRANCH   1   2
ATOM      2  C   UNL     1      13.024  29.540  62.235  1.00  0.00     0.000 C 
BRANCH   2   3
ATOM      3  C   UNL     1      13.457  28.066  62.325  1.00  0.00     0.000 C 
BRANCH   3   4
ATOM      4  C   UNL     1      14.589  27.840  63.343  1.00  0.00     0.006 C 
BRANCH   4   5
ATOM      5  C   UNL     1      15.650  28.952  63.372  1.00  0.00     0.053 C 
BRANCH   5   6
ATOM      6  C   UNL     1      16.629  28.823  62.246  1.00  0.00     0.041 C 
ATOM      7  O   UNL     1      16.577  29.613  61.266  1.00  0.00    -0.550 OA
ATOM      8  O   UNL     1      17.619  27.850  62.294  1.00  0.00    -0.550 OA
ENDBRANCH   5   6
ENDBRANCH   4   5
ENDBRANCH   3   4
ENDBRANCH   2   3
ENDBRANCH   1   2
BRANCH   1   9
ATOM      9  C   UNL     1      11.891  29.308  59.952  1.00  0.00     0.000 C 
BRANCH   9  10
ATOM     10  C   UNL     1      11.341  30.212  58.841  1.00  0.00    -0.000 C 
BRANCH  10  11
ATOM     11  C   UNL     1       9.807  30.207  58.837  1.00  0.00    -0.000 C 
BRANCH  11  12
ATOM     12  C   UNL     1       9.258  29.079  59.717  1.00  0.00    -0.000 C 
BRANCH  12  13
ATOM     13  C   UNL     1       8.270  29.623  60.755  1.00  0.00    -0.003 C 
ATOM     14  C   UNL     1       8.816  29.467  62.172  1.00  0.00     0.004 C 
ENDBRANCH  12  13
ENDBRANCH  11  12
ENDBRANCH  10  11
ENDBRANCH   9  10
ENDBRANCH   1   9
TORSDOF 10
ENDMDL
MODEL 4
REMARK VINA RESULT:    -4.470      1.008      1.700
REMARK INTER + INTRA:          -8.176
REMARK INTER:                  -7.569
REMARK INTRA:                  -0.607
REMARK UNBOUND:                -1.093
REMARK SMILES CCCCCCCCCCCC(=O)[O-]
REMARK SMILES IDX 7 1 8 2 9 3 10 4 11 5 12 6 13 7 14 8 6 9 5 10 4 11 3 12 2 13
REMARK SMILES IDX 1 14
REMARK H PARENT
REMARK Flexibility Score: inf
ROOT
ATOM      1  C   UNL     1      13.788  29.997  61.358  1.00  0.00     0.000 C 
ENDROOT
BRANCH   1   2
ATOM      2  C   UNL     1      15.199  29.943  60.748  1.00  0.00     0.000 C 
BRANCH   2   3
ATOM      3  C   UNL     1      16.173  29.100  61.589  1.00  0.00     0.000 C 
BRANCH   3   4
ATOM      4  C   UNL     1      16.601  29.808  62.889  1.00  0.00     0.006 C 
BRANCH   4   5
ATOM      5  C   UNL     1      16.003  29.201  64.169  1.00  0.00     0.053 C 
BRANCH   5   6
ATOM      6  C   UNL     1      15.962  27.705  64.114  1.00  0.00     0.041 C 
ATOM      7  O   UNL     1      17.030  27.039  64.171  1.00  0.00    -0.550 OA
ATOM      8  O   UNL     1      14.742  27.046  64.032  1.00  0.00    -0.550 OA
ENDBRANCH   5   6
ENDBRANCH   4   5
ENDBRANCH   3   4
ENDBRANCH   2   3
ENDBRANCH   1   2
BRANCH   1   9
ATOM      9  C   UNL     1      13.162  28.604  61.530  1.00  0.00     0.000 C 
BRANCH   9  10
ATOM     10  C   UNL     1      11.852  28.490  60.739  1.00  0.00    -0.000 C 
BRANCH  10  11
ATOM     11  C   UNL     1      11.000  29.756  60.901  1.00  0.00    -0.000 C 
BRANCH  11  12
ATOM     12  C   UNL     1       9.793  29.729  59.956  1.00  0.00    -0.000 C 
BRANCH  12  13
ATOM     13  C   UNL     1       8.606  29.007  60.603  1.00  0.00    -0.003 C 
ATOM     14  C   UNL     1       7.660  29.997  61.279  1.00  0.00     0.004 C 
ENDBRANCH  12  13
ENDBRANCH  11  12
ENDBRANCH  10  11
ENDBRANCH   9  10
ENDBRANCH   1   9
TORSDOF 10
ENDMDL
MODEL 5
REMARK VINA RESULT:    -4.406      3.225      6.308
REMARK INTER + INTRA:          -8.075
REMARK INTER:                  -7.217
REMARK INTRA:                  -0.858
REMARK UNBOUND:                -1.093
REMARK SMILES CCCCCCCCCCCC(=O)[O-]
REMARK SMILES IDX 7 1 8 2 9 3 10 4 11 5 12 6 13 7 14 8 6 9 5 10 4 11 3 12 2 13
REMARK SMILES IDX 1 14
REMARK H PARENT
REMARK Flexibility Score: inf
ROOT
ATOM      1  C   UNL     1      16.029  30.363  60.006  1.00  0.00     0.000 C 
ENDROOT
BRANCH   1   2
ATOM      2  C   UNL     1      14.854  29.859  59.150  1.00  0.00     0.000 C 
BRANCH   2   3
ATOM      3  C   UNL     1      13.518  30.513  59.540  1.00  0.00     0.000 C 
BRANCH   3   4
ATOM      4  C   UNL     1      12.728  29.684  60.570  1.00  0.00     0.006 C 
BRANCH   4   5
ATOM      5  C   UNL     1      11.695  28.725  59.956  1.00  0.00     0.053 C 
BRANCH   5   6
ATOM      6  C   UNL     1      10.330  29.339  59.889  1.00  0.00     0.041 C 
ATOM      7  O   UNL     1      10.127  30.356  59.175  1.00  0.00    -0.550 OA
ATOM      8  O   UNL     1       9.276  28.768  60.590  1.00  0.00    -0.550 OA
ENDBRANCH   5   6
ENDBRANCH   4   5
ENDBRANCH   3   4
ENDBRANCH   2   3
ENDBRANCH   1   2
BRANCH   1   9
ATOM      9  C   UNL     1      16.395  29.394  61.141  1.00  0.00     0.000 C 
BRANCH   9  10
ATOM     10  C   UNL     1      16.849  30.160  62.390  1.00  0.00    -0.000 C 
BRANCH  10  11
ATOM     11  C   UNL     1      16.147  29.630  63.647  1.00  0.00    -0.000 C 
BRANCH  11  12
ATOM     12  C   UNL     1      15.098  28.571  63.285  1.00  0.00    -0.000 C 
BRANCH  12  13
ATOM     13  C   UNL     1      15.282  27.306  64.130  1.00  0.00    -0.003 C 
ATOM     14  C   UNL     1      16.758  26.943  64.268  1.00  0.00     0.004 C 
ENDBRANCH  12  13
ENDBRANCH  11  12
ENDBRANCH  10  11
ENDBRANCH   9  10
ENDBRANCH   1   9
TORSDOF 10
ENDMDL
MODEL 6
REMARK VINA RESULT:    -4.316      1.393      1.847
REMARK INTER + INTRA:          -7.932
REMARK INTER:                  -7.252
REMARK INTRA:                  -0.681
REMARK UNBOUND:                -1.093
REMARK SMILES CCCCCCCCCCCC(=O)[O-]
REMARK SMILES IDX 7 1 8 2 9 3 10 4 11 5 12 6 13 7 14 8 6 9 5 10 4 11 3 12 2 13
REMARK SMILES IDX 1 14
REMARK H PARENT
REMARK Flexibility Score: inf
ROOT
ATOM      1  C   UNL     1      13.613  31.158  59.245  1.00  0.00     0.000 C 
ENDROOT
BRANCH   1   2
ATOM      2  C   UNL     1      14.335  30.147  60.151  1.00  0.00     0.000 C 
BRANCH   2   3
ATOM      3  C   UNL     1      13.848  30.210  61.609  1.00  0.00     0.000 C 
BRANCH   3   4
ATOM      4  C   UNL     1      14.257  28.971  62.427  1.00  0.00     0.006 C 
BRANCH   4   5
ATOM      5  C   UNL     1      15.428  29.205  63.394  1.00  0.00     0.053 C 
BRANCH   5   6
ATOM      6  C   UNL     1      16.480  28.146  63.269  1.00  0.00     0.041 C 
ATOM      7  O   UNL     1      17.326  28.199  62.338  1.00  0.00    -0.550 OA
ATOM      8  O   UNL     1      16.544  27.117  64.199  1.00  0.00    -0.550 OA
ENDBRANCH   5   6
ENDBRANCH   4   5
ENDBRANCH   3   4
ENDBRANCH   2   3
ENDBRANCH   1   2
BRANCH   1   9
ATOM      9  C   UNL     1      12.625  30.487  58.277  1.00  0.00     0.000 C 
BRANCH   9  10
ATOM     10  C   UNL     1      11.202  30.502  58.849  1.00  0.00    -0.000 C 
BRANCH  10  11
ATOM     11  C   UNL     1      10.905  29.208  59.618  1.00  0.00    -0.000 C 
BRANCH  11  12
ATOM     12  C   UNL     1      10.037  29.490  60.850  1.00  0.00    -0.000 C 
BRANCH  12  13
ATOM     13  C   UNL     1       8.569  29.141  60.579  1.00  0.00    -0.003 C 
ATOM     14  C   UNL     1       7.632  30.014  61.409  1.00  0.00     0.004 C 
ENDBRANCH  12  13
ENDBRANCH  11  12
ENDBRANCH  10  11
ENDBRANCH   9  10
ENDBRANCH   1   9
TORSDOF 10
ENDMDL
MODEL 7
REMARK VINA RESULT:    -4.315      3.001      6.434
REMARK INTER + INTRA:          -7.930
REMARK INTER:                  -7.240
REMARK INTRA:                  -0.689
REMARK UNBOUND:                -1.093
REMARK SMILES CCCCCCCCCCCC(=O)[O-]
REMARK SMILES IDX 7 1 8 2 9 3 10 4 11 5 12 6 13 7 14 8 6 9 5 10 4 11 3 12 2 13
REMARK SMILES IDX 1 14
REMARK H PARENT
REMARK Flexibility Score: inf
ROOT
ATOM      1  C   UNL     1      13.127  29.772  59.571  1.00  0.00     0.000 C 
ENDROOT
BRANCH   1   2
ATOM      2  C   UNL     1      12.155  30.505  58.632  1.00  0.00     0.000 C 
BRANCH   2   3
ATOM      3  C   UNL     1      10.686  30.336  59.056  1.00  0.00     0.000 C 
BRANCH   3   4
ATOM      4  C   UNL     1      10.420  28.990  59.755  1.00  0.00     0.006 C 
BRANCH   4   5
ATOM      5  C   UNL     1       8.935  28.695  60.023  1.00  0.00     0.053 C 
BRANCH   5   6
ATOM      6  C   UNL     1       8.369  29.586  61.085  1.00  0.00     0.041 C 
ATOM      7  O   UNL     1       7.421  30.370  60.815  1.00  0.00    -0.550 OA
ATOM      8  O   UNL     1       8.867  29.527  62.380  1.00  0.00    -0.550 OA
ENDBRANCH   5   6
ENDBRANCH   4   5
ENDBRANCH   3   4
ENDBRANCH   2   3
ENDBRANCH   1   2
BRANCH   1   9
ATOM      9  C   UNL     1      13.504  30.608  60.805  1.00  0.00     0.000 C 
BRANCH   9  10
ATOM     10  C   UNL     1      13.270  29.814  62.097  1.00  0.00    -0.000 C 
BRANCH  10  11
ATOM     11  C   UNL     1      14.301  28.689  62.246  1.00  0.00    -0.000 C 
BRANCH  11  12
ATOM     12  C   UNL     1      15.729  29.246  62.226  1.00  0.00    -0.000 C 
BRANCH  12  13
ATOM     13  C   UNL     1      16.714  28.256  62.857  1.00  0.00    -0.003 C 
ATOM     14  C   UNL     1      16.153  27.666  64.148  1.00  0.00     0.004 C 
ENDBRANCH  12  13
ENDBRANCH  11  12
ENDBRANCH  10  11
ENDBRANCH   9  10
ENDBRANCH   1   9
TORSDOF 10
ENDMDL
MODEL 8
REMARK VINA RESULT:    -4.279      3.737      6.612
REMARK INTER + INTRA:          -7.873
REMARK INTER:                  -6.927
REMARK INTRA:                  -0.947
REMARK UNBOUND:                -1.093
REMARK SMILES CCCCCCCCCCCC(=O)[O-]
REMARK SMILES IDX 7 1 8 2 9 3 10 4 11 5 12 6 13 7 14 8 6 9 5 10 4 11 3 12 2 13
REMARK SMILES IDX 1 14
REMARK H PARENT
REMARK Flexibility Score: inf
ROOT
ATOM      1  C   UNL     1      12.883  27.958  61.726  1.00  0.00     0.000 C 
ENDROOT
BRANCH   1   2
ATOM      2  C   UNL     1      12.280  29.321  61.344  1.00  0.00     0.000 C 
BRANCH   2   3
ATOM      3  C   UNL     1      11.116  29.729  62.263  1.00  0.00     0.000 C 
BRANCH   3   4
ATOM      4  C   UNL     1       9.757  29.721  61.539  1.00  0.00     0.006 C 
BRANCH   4   5
ATOM      5  C   UNL     1       9.781  29.063  60.150  1.00  0.00     0.053 C 
BRANCH   5   6
ATOM      6  C   UNL     1       9.286  29.990  59.082  1.00  0.00     0.041 C 
ATOM      7  O   UNL     1       8.529  30.952  59.379  1.00  0.00    -0.550 OA
ATOM      8  O   UNL     1       9.688  29.811  57.765  1.00  0.00    -0.550 OA
ENDBRANCH   5   6
ENDBRANCH   4   5
ENDBRANCH   3   4
ENDBRANCH   2   3
ENDBRANCH   1   2
BRANCH   1   9
ATOM      9  C   UNL     1      13.517  27.961  63.126  1.00  0.00     0.000 C 
BRANCH   9  10
ATOM     10  C   UNL     1      15.046  27.875  63.035  1.00  0.00    -0.000 C 
BRANCH  10  11
ATOM     11  C   UNL     1      15.708  29.057  63.755  1.00  0.00    -0.000 C 
BRANCH  11  12
ATOM     12  C   UNL     1      16.234  30.087  62.750  1.00  0.00    -0.000 C 
BRANCH  12  13
ATOM     13  C   UNL     1      16.526  29.432  61.394  1.00  0.00    -0.003 C 
ATOM     14  C   UNL     1      15.758  30.124  60.271  1.00  0.00     0.004 C 
ENDBRANCH  12  13
ENDBRANCH  11  12
ENDBRANCH  10  11
ENDBRANCH   9  10
ENDBRANCH   1   9
TORSDOF 10
ENDMDL
MODEL 9
REMARK VINA RESULT:    -4.215      1.300      1.923
REMARK INTER + INTRA:          -7.772
REMARK INTER:                  -7.337
REMARK INTRA:                  -0.435
REMARK UNBOUND:                -1.093
REMARK SMILES CCCCCCCCCCCC(=O)[O-]
REMARK SMILES IDX 7 1 8 2 9 3 10 4 11 5 12 6 13 7 14 8 6 9 5 10 4 11 3 12 2 13
REMARK SMILES IDX 1 14
REMARK H PARENT
REMARK Flexibility Score: inf
ROOT
ATOM      1  C   UNL     1      11.703  29.404  61.331  1.00  0.00     0.000 C 
ENDROOT
BRANCH   1   2
ATOM      2  C   UNL     1      13.102  28.931  61.761  1.00  0.00     0.000 C 
BRANCH   2   3
ATOM      3  C   UNL     1      13.990  30.088  62.250  1.00  0.00     0.000 C 
BRANCH   3   4
ATOM      4  C   UNL     1      15.444  29.652  62.510  1.00  0.00     0.006 C 
BRANCH   4   5
ATOM      5  C   UNL     1      15.642  28.829  63.794  1.00  0.00     0.053 C 
BRANCH   5   6
ATOM      6  C   UNL     1      16.661  27.747  63.615  1.00  0.00     0.041 C 
ATOM      7  O   UNL     1      16.683  26.761  64.399  1.00  0.00    -0.550 OA
ATOM      8  O   UNL     1      17.566  27.811  62.564  1.00  0.00    -0.550 OA
ENDBRANCH   5   6
ENDBRANCH   4   5
ENDBRANCH   3   4
ENDBRANCH   2   3
ENDBRANCH   1   2
BRANCH   1   9
ATOM      9  C   UNL     1      11.227  28.743  60.028  1.00  0.00     0.000 C 
BRANCH   9  10
ATOM     10  C   UNL     1       9.859  29.292  59.602  1.00  0.00    -0.000 C 
BRANCH  10  11
ATOM     11  C   UNL     1       8.800  29.026  60.679  1.00  0.00    -0.000 C 
BRANCH  11  12
ATOM     12  C   UNL     1       7.807  30.190  60.772  1.00  0.00    -0.000 C 
BRANCH  12  13
ATOM     13  C   UNL     1       7.899  31.090  59.534  1.00  0.00    -0.003 C 
ATOM     14  C   UNL     1       6.774  32.122  59.517  1.00  0.00     0.004 C 
ENDBRANCH  12  13
ENDBRANCH  11  12
ENDBRANCH  10  11
ENDBRANCH   9  10
ENDBRANCH   1   9
TORSDOF 10
ENDMDL
