MODEL 1
REMARK VINA RESULT:    -5.327      0.000      0.000
REMARK INTER + INTRA:          -5.639
REMARK INTER:                  -5.639
REMARK INTRA:                   0.000
REMARK UNBOUND:                 0.000
REMARK SMILES O=c1ccc2cc(O)c(O)cc2o1
REMARK SMILES IDX 4 1 3 2 2 3 1 4 13 5 12 6 11 7 9 8 7 9 6 10 5 11 8 12 10 14
REMARK H PARENT 8 13 10 15
REMARK Flexibility Score: inf
ROOT
ATOM      1  C   UNL     1      10.249  -7.531  -9.658  1.00  0.00     0.019 A 
ATOM      2  C   UNL     1       9.467  -8.227 -10.579  1.00  0.00     0.094 A 
ATOM      3  C   UNL     1       8.080  -8.268 -10.396  1.00  0.00     0.336 A 
ATOM      4  O   UNL     1       7.357  -8.892 -11.216  1.00  0.00    -0.246 OA
ATOM      5  O   UNL     1       7.519  -7.652  -9.358  1.00  0.00    -0.423 OA
ATOM      6  C   UNL     1       8.229  -6.977  -8.458  1.00  0.00     0.142 A 
ATOM      7  C   UNL     1       7.584  -6.349  -7.387  1.00  0.00     0.098 A 
ATOM      8  C   UNL     1       8.327  -5.637  -6.435  1.00  0.00     0.161 A 
ATOM      9  C   UNL     1       9.723  -5.552  -6.554  1.00  0.00     0.158 A 
ATOM     10  C   UNL     1      10.374  -6.180  -7.624  1.00  0.00     0.062 A 
ATOM     11  C   UNL     1       9.633  -6.892  -8.577  1.00  0.00     0.022 A 
ENDROOT
BRANCH   9  12
ATOM     12  O   UNL     1      10.453  -4.842  -5.602  1.00  0.00    -0.504 OA
ATOM     13  H   UNL     1      11.384  -5.131  -5.326  1.00  0.00     0.293 HD
ENDBRANCH   9  12
BRANCH   8  14
ATOM     14  O   UNL     1       7.687  -5.010  -5.368  1.00  0.00    -0.504 OA
ATOM     15  H   UNL     1       6.984  -5.488  -4.816  1.00  0.00     0.293 HD
ENDBRANCH   8  14
TORSDOF 2
ENDMDL
MODEL 2
REMARK VINA RESULT:    -5.226      1.669      2.226
REMARK INTER + INTRA:          -5.531
REMARK INTER:                  -5.531
REMARK INTRA:                   0.000
REMARK UNBOUND:                 0.000
REMARK SMILES O=c1ccc2cc(O)c(O)cc2o1
REMARK SMILES IDX 4 1 3 2 2 3 1 4 13 5 12 6 11 7 9 8 7 9 6 10 5 11 8 12 10 14
REMARK H PARENT 8 13 10 15
REMARK Flexibility Score: inf
ROOT
ATOM      1  C   UNL     1       7.895  -9.125  -8.138  1.00  0.00     0.019 A 
ATOM      2  C   UNL     1       7.928  -8.937  -9.520  1.00  0.00     0.094 A 
ATOM      3  C   UNL     1       7.940  -7.632 -10.026  1.00  0.00     0.336 A 
ATOM      4  O   UNL     1       7.968  -7.441 -11.270  1.00  0.00    -0.246 OA
ATOM      5  O   UNL     1       7.921  -6.589  -9.200  1.00  0.00    -0.423 OA
ATOM      6  C   UNL     1       7.891  -6.725  -7.876  1.00  0.00     0.142 A 
ATOM      7  C   UNL     1       7.872  -5.591  -7.057  1.00  0.00     0.098 A 
ATOM      8  C   UNL     1       7.840  -5.729  -5.662  1.00  0.00     0.161 A 
ATOM      9  C   UNL     1       7.826  -7.006  -5.083  1.00  0.00     0.158 A 
ATOM     10  C   UNL     1       7.844  -8.146  -5.899  1.00  0.00     0.062 A 
ATOM     11  C   UNL     1       7.877  -8.011  -7.294  1.00  0.00     0.022 A 
ENDROOT
BRANCH   9  12
ATOM     12  O   UNL     1       7.794  -7.133  -3.696  1.00  0.00    -0.504 OA
ATOM     13  H   UNL     1       6.930  -7.035  -3.174  1.00  0.00     0.293 HD
ENDBRANCH   9  12
BRANCH   8  14
ATOM     14  O   UNL     1       7.822  -4.601  -4.844  1.00  0.00    -0.504 OA
ATOM     15  H   UNL     1       8.142  -4.637  -3.883  1.00  0.00     0.293 HD
ENDBRANCH   8  14
TORSDOF 2
ENDMDL
MODEL 3
REMARK VINA RESULT:    -5.217      1.991      2.520
REMARK INTER + INTRA:          -5.523
REMARK INTER:                  -5.523
REMARK INTRA:                   0.000
REMARK UNBOUND:                 0.000
REMARK SMILES O=c1ccc2cc(O)c(O)cc2o1
REMARK SMILES IDX 4 1 3 2 2 3 1 4 13 5 12 6 11 7 9 8 7 9 6 10 5 11 8 12 10 14
REMARK H PARENT 8 13 10 15
REMARK Flexibility Score: inf
ROOT
ATOM      1  C   UNL     1      11.097  -6.820  -8.350  1.00  0.00     0.019 A 
ATOM      2  C   UNL     1      11.605  -7.104  -9.618  1.00  0.00     0.094 A 
ATOM      3  C   UNL     1      10.828  -6.805 -10.743  1.00  0.00     0.336 A 
ATOM      4  O   UNL     1      11.269  -7.055 -11.895  1.00  0.00    -0.246 OA
ATOM      5  O   UNL     1       9.623  -6.259 -10.603  1.00  0.00    -0.423 OA
ATOM      6  C   UNL     1       9.101  -5.971  -9.412  1.00  0.00     0.142 A 
ATOM      7  C   UNL     1       7.829  -5.397  -9.326  1.00  0.00     0.098 A 
ATOM      8  C   UNL     1       7.275  -5.092  -8.075  1.00  0.00     0.161 A 
ATOM      9  C   UNL     1       7.996  -5.364  -6.903  1.00  0.00     0.158 A 
ATOM     10  C   UNL     1       9.272  -5.940  -6.983  1.00  0.00     0.062 A 
ATOM     11  C   UNL     1       9.828  -6.245  -8.233  1.00  0.00     0.022 A 
ENDROOT
BRANCH   9  12
ATOM     12  O   UNL     1       7.437  -5.058  -5.664  1.00  0.00    -0.504 OA
ATOM     13  H   UNL     1       8.005  -5.000  -4.826  1.00  0.00     0.293 HD
ENDBRANCH   9  12
BRANCH   8  14
ATOM     14  O   UNL     1       6.008  -4.519  -7.987  1.00  0.00    -0.504 OA
ATOM     15  H   UNL     1       5.619  -3.972  -8.746  1.00  0.00     0.293 HD
ENDBRANCH   8  14
TORSDOF 2
ENDMDL
MODEL 4
REMARK VINA RESULT:    -5.200      1.184      2.275
REMARK INTER + INTRA:          -5.504
REMARK INTER:                  -5.504
REMARK INTRA:                   0.000
REMARK UNBOUND:                 0.000
REMARK SMILES O=c1ccc2cc(O)c(O)cc2o1
REMARK SMILES IDX 4 1 3 2 2 3 1 4 13 5 12 6 11 7 9 8 7 9 6 10 5 11 8 12 10 14
REMARK H PARENT 8 13 10 15
REMARK Flexibility Score: inf
ROOT
ATOM      1  C   UNL     1       7.541  -7.704  -9.189  1.00  0.00     0.019 A 
ATOM      2  C   UNL     1       8.233  -8.369 -10.200  1.00  0.00     0.094 A 
ATOM      3  C   UNL     1       9.628  -8.271 -10.245  1.00  0.00     0.336 A 
ATOM      4  O   UNL     1      10.271  -8.864 -11.151  1.00  0.00    -0.246 OA
ATOM      5  O   UNL     1      10.282  -7.554  -9.335  1.00  0.00    -0.423 OA
ATOM      6  C   UNL     1       9.661  -6.905  -8.353  1.00  0.00     0.142 A 
ATOM      7  C   UNL     1      10.401  -6.166  -7.425  1.00  0.00     0.098 A 
ATOM      8  C   UNL     1       9.751  -5.480  -6.389  1.00  0.00     0.161 A 
ATOM      9  C   UNL     1       8.353  -5.533  -6.281  1.00  0.00     0.158 A 
ATOM     10  C   UNL     1       7.606  -6.271  -7.209  1.00  0.00     0.062 A 
ATOM     11  C   UNL     1       8.254  -6.958  -8.245  1.00  0.00     0.022 A 
ENDROOT
BRANCH   9  12
ATOM     12  O   UNL     1       7.716  -4.848  -5.248  1.00  0.00    -0.504 OA
ATOM     13  H   UNL     1       7.916  -5.050  -4.275  1.00  0.00     0.293 HD
ENDBRANCH   9  12
BRANCH   8  14
ATOM     14  O   UNL     1      10.487  -4.744  -5.462  1.00  0.00    -0.504 OA
ATOM     15  H   UNL     1      10.701  -5.112  -4.542  1.00  0.00     0.293 HD
ENDBRANCH   8  14
TORSDOF 2
ENDMDL
MODEL 5
REMARK VINA RESULT:    -5.154      1.605      2.100
REMARK INTER + INTRA:          -5.455
REMARK INTER:                  -5.455
REMARK INTRA:                   0.000
REMARK UNBOUND:                 0.000
REMARK SMILES O=c1ccc2cc(O)c(O)cc2o1
REMARK SMILES IDX 4 1 3 2 2 3 1 4 13 5 12 6 11 7 9 8 7 9 6 10 5 11 8 12 10 14
REMARK H PARENT 8 13 10 15
REMARK Flexibility Score: inf
ROOT
ATOM      1  C   UNL     1       8.634  -5.754  -8.789  1.00  0.00     0.019 A 
ATOM      2  C   UNL     1       8.552  -6.627  -9.874  1.00  0.00     0.094 A 
ATOM      3  C   UNL     1       8.171  -7.955  -9.648  1.00  0.00     0.336 A 
ATOM      4  O   UNL     1       8.092  -8.758 -10.615  1.00  0.00    -0.246 OA
ATOM      5  O   UNL     1       7.893  -8.376  -8.418  1.00  0.00    -0.423 OA
ATOM      6  C   UNL     1       7.958  -7.576  -7.356  1.00  0.00     0.142 A 
ATOM      7  C   UNL     1       7.654  -8.075  -6.085  1.00  0.00     0.098 A 
ATOM      8  C   UNL     1       7.721  -7.237  -4.963  1.00  0.00     0.161 A 
ATOM      9  C   UNL     1       8.095  -5.893  -5.112  1.00  0.00     0.158 A 
ATOM     10  C   UNL     1       8.403  -5.388  -6.383  1.00  0.00     0.062 A 
ATOM     11  C   UNL     1       8.335  -6.224  -7.506  1.00  0.00     0.022 A 
ENDROOT
BRANCH   9  12
ATOM     12  O   UNL     1       8.160  -5.068  -3.991  1.00  0.00    -0.504 OA
ATOM     13  H   UNL     1       8.504  -4.116  -4.052  1.00  0.00     0.293 HD
ENDBRANCH   9  12
BRANCH   8  14
ATOM     14  O   UNL     1       7.417  -7.731  -3.696  1.00  0.00    -0.504 OA
ATOM     15  H   UNL     1       6.485  -8.050  -3.460  1.00  0.00     0.293 HD
ENDBRANCH   8  14
TORSDOF 2
ENDMDL
MODEL 6
REMARK VINA RESULT:    -5.060      2.125      2.918
REMARK INTER + INTRA:          -5.356
REMARK INTER:                  -5.356
REMARK INTRA:                   0.000
REMARK UNBOUND:                 0.000
REMARK SMILES O=c1ccc2cc(O)c(O)cc2o1
REMARK SMILES IDX 4 1 3 2 2 3 1 4 13 5 12 6 11 7 9 8 7 9 6 10 5 11 8 12 10 14
REMARK H PARENT 8 13 10 15
REMARK Flexibility Score: inf
ROOT
ATOM      1  C   UNL     1       8.249  -6.754 -11.600  1.00  0.00     0.019 A 
ATOM      2  C   UNL     1       9.033  -7.425 -12.537  1.00  0.00     0.094 A 
ATOM      3  C   UNL     1      10.347  -7.771 -12.199  1.00  0.00     0.336 A 
ATOM      4  O   UNL     1      11.071  -8.376 -13.031  1.00  0.00    -0.246 OA
ATOM      5  O   UNL     1      10.837  -7.463 -11.001  1.00  0.00    -0.423 OA
ATOM      6  C   UNL     1      10.121  -6.824 -10.078  1.00  0.00     0.142 A 
ATOM      7  C   UNL     1      10.690  -6.526  -8.835  1.00  0.00     0.098 A 
ATOM      8  C   UNL     1       9.941  -5.853  -7.859  1.00  0.00     0.161 A 
ATOM      9  C   UNL     1       8.617  -5.475  -8.128  1.00  0.00     0.158 A 
ATOM     10  C   UNL     1       8.042  -5.770  -9.372  1.00  0.00     0.062 A 
ATOM     11  C   UNL     1       8.789  -6.443 -10.348  1.00  0.00     0.022 A 
ENDROOT
BRANCH   9  12
ATOM     12  O   UNL     1       7.880  -4.806  -7.152  1.00  0.00    -0.504 OA
ATOM     13  H   UNL     1       8.097  -3.852  -6.885  1.00  0.00     0.293 HD
ENDBRANCH   9  12
BRANCH   8  14
ATOM     14  O   UNL     1      10.504  -5.556  -6.620  1.00  0.00    -0.504 OA
ATOM     15  H   UNL     1      11.507  -5.464  -6.501  1.00  0.00     0.293 HD
ENDBRANCH   8  14
TORSDOF 2
ENDMDL
MODEL 7
REMARK VINA RESULT:    -5.041     16.201     17.077
REMARK INTER + INTRA:          -5.336
REMARK INTER:                  -5.336
REMARK INTRA:                   0.000
REMARK UNBOUND:                 0.000
REMARK SMILES O=c1ccc2cc(O)c(O)cc2o1
REMARK SMILES IDX 4 1 3 2 2 3 1 4 13 5 12 6 11 7 9 8 7 9 6 10 5 11 8 12 10 14
REMARK H PARENT 8 13 10 15
REMARK Flexibility Score: inf
ROOT
ATOM      1  C   UNL     1      11.513   7.203 -19.808  1.00  0.00     0.019 A 
ATOM      2  C   UNL     1      12.131   8.096 -18.933  1.00  0.00     0.094 A 
ATOM      3  C   UNL     1      12.826   7.591 -17.827  1.00  0.00     0.336 A 
ATOM      4  O   UNL     1      13.389   8.381 -17.025  1.00  0.00    -0.246 OA
ATOM      5  O   UNL     1      12.893   6.280 -17.616  1.00  0.00    -0.423 OA
ATOM      6  C   UNL     1      12.318   5.394 -18.427  1.00  0.00     0.142 A 
ATOM      7  C   UNL     1      12.423   4.026 -18.154  1.00  0.00     0.098 A 
ATOM      8  C   UNL     1      11.819   3.089 -19.005  1.00  0.00     0.161 A 
ATOM      9  C   UNL     1      11.107   3.521 -20.133  1.00  0.00     0.158 A 
ATOM     10  C   UNL     1      10.997   4.891 -20.410  1.00  0.00     0.062 A 
ATOM     11  C   UNL     1      11.601   5.829 -19.562  1.00  0.00     0.022 A 
ENDROOT
BRANCH   9  12
ATOM     12  O   UNL     1      10.510   2.582 -20.972  1.00  0.00    -0.504 OA
ATOM     13  H   UNL     1      10.975   2.247 -21.808  1.00  0.00     0.293 HD
ENDBRANCH   9  12
BRANCH   8  14
ATOM     14  O   UNL     1      11.923   1.725 -18.736  1.00  0.00    -0.504 OA
ATOM     15  H   UNL     1      12.814   1.293 -18.520  1.00  0.00     0.293 HD
ENDBRANCH   8  14
TORSDOF 2
ENDMDL
MODEL 8
REMARK VINA RESULT:    -4.961      2.053      5.133
REMARK INTER + INTRA:          -5.251
REMARK INTER:                  -5.251
REMARK INTRA:                   0.000
REMARK UNBOUND:                 0.000
REMARK SMILES O=c1ccc2cc(O)c(O)cc2o1
REMARK SMILES IDX 4 1 3 2 2 3 1 4 13 5 12 6 11 7 9 8 7 9 6 10 5 11 8 12 10 14
REMARK H PARENT 8 13 10 15
REMARK Flexibility Score: inf
ROOT
ATOM      1  C   UNL     1       8.613  -8.463  -8.651  1.00  0.00     0.019 A 
ATOM      2  C   UNL     1       9.240  -7.757  -7.625  1.00  0.00     0.094 A 
ATOM      3  C   UNL     1       9.616  -6.427  -7.848  1.00  0.00     0.336 A 
ATOM      4  O   UNL     1      10.184  -5.773  -6.935  1.00  0.00    -0.246 OA
ATOM      5  O   UNL     1       9.379  -5.849  -9.023  1.00  0.00    -0.423 OA
ATOM      6  C   UNL     1       8.783  -6.487 -10.027  1.00  0.00     0.142 A 
ATOM      7  C   UNL     1       8.559  -5.827 -11.240  1.00  0.00     0.098 A 
ATOM      8  C   UNL     1       7.932  -6.494 -12.302  1.00  0.00     0.161 A 
ATOM      9  C   UNL     1       7.526  -7.829 -12.150  1.00  0.00     0.158 A 
ATOM     10  C   UNL     1       7.749  -8.496 -10.937  1.00  0.00     0.062 A 
ATOM     11  C   UNL     1       8.375  -7.830  -9.875  1.00  0.00     0.022 A 
ENDROOT
BRANCH   9  12
ATOM     12  O   UNL     1       6.904  -8.484 -13.211  1.00  0.00    -0.504 OA
ATOM     13  H   UNL     1       5.901  -8.435 -13.350  1.00  0.00     0.293 HD
ENDBRANCH   9  12
BRANCH   8  14
ATOM     14  O   UNL     1       7.707  -5.839 -13.511  1.00  0.00    -0.504 OA
ATOM     15  H   UNL     1       8.398  -5.217 -13.914  1.00  0.00     0.293 HD
ENDBRANCH   8  14
TORSDOF 2
ENDMDL
MODEL 9
REMARK VINA RESULT:    -4.928     16.493     17.231
REMARK INTER + INTRA:          -5.216
REMARK INTER:                  -5.216
REMARK INTRA:                   0.000
REMARK UNBOUND:                 0.000
REMARK SMILES O=c1ccc2cc(O)c(O)cc2o1
REMARK SMILES IDX 4 1 3 2 2 3 1 4 13 5 12 6 11 7 9 8 7 9 6 10 5 11 8 12 10 14
REMARK H PARENT 8 13 10 15
REMARK Flexibility Score: inf
ROOT
ATOM      1  C   UNL     1      13.413   6.289 -17.598  1.00  0.00     0.019 A 
ATOM      2  C   UNL     1      13.375   7.660 -17.851  1.00  0.00     0.094 A 
ATOM      3  C   UNL     1      12.591   8.132 -18.911  1.00  0.00     0.336 A 
ATOM      4  O   UNL     1      12.545   9.366 -19.156  1.00  0.00    -0.246 OA
ATOM      5  O   UNL     1      11.894   7.285 -19.663  1.00  0.00    -0.423 OA
ATOM      6  C   UNL     1      11.903   5.970 -19.455  1.00  0.00     0.142 A 
ATOM      7  C   UNL     1      11.150   5.127 -20.278  1.00  0.00     0.098 A 
ATOM      8  C   UNL     1      11.155   3.741 -20.063  1.00  0.00     0.161 A 
ATOM      9  C   UNL     1      11.917   3.196 -19.020  1.00  0.00     0.158 A 
ATOM     10  C   UNL     1      12.675   4.036 -18.191  1.00  0.00     0.062 A 
ATOM     11  C   UNL     1      12.670   5.421 -18.404  1.00  0.00     0.022 A 
ENDROOT
BRANCH   9  12
ATOM     12  O   UNL     1      11.916   1.817 -18.814  1.00  0.00    -0.504 OA
ATOM     13  H   UNL     1      12.623   1.219 -19.227  1.00  0.00     0.293 HD
ENDBRANCH   9  12
BRANCH   8  14
ATOM     14  O   UNL     1      10.405   2.899 -20.882  1.00  0.00    -0.504 OA
ATOM     15  H   UNL     1      10.788   2.511 -21.737  1.00  0.00     0.293 HD
ENDBRANCH   8  14
TORSDOF 2
ENDMDL
