MODEL 1
REMARK VINA RESULT:    -5.504      0.000      0.000
REMARK INTER + INTRA:          -5.665
REMARK INTER:                  -5.665
REMARK INTRA:                   0.000
REMARK UNBOUND:                 0.000
REMARK SMILES O=c1ccc2ccc(O)cc2o1
REMARK SMILES IDX 6 1 7 2 8 3 10 4 11 5 5 6 4 7 3 8 2 9 1 10 12 11 9 12
REMARK H PARENT 9 13
REMARK Flexibility Score: inf
ROOT
ATOM      1  C   UNL     1      18.389   1.741 -25.390  1.00  0.00     0.016 A 
ATOM      2  C   UNL     1      17.306   2.555 -25.739  1.00  0.00     0.047 A 
ATOM      3  C   UNL     1      16.003   2.035 -25.745  1.00  0.00     0.119 A 
ATOM      4  C   UNL     1      15.784   0.696 -25.401  1.00  0.00     0.094 A 
ATOM      5  C   UNL     1      16.861  -0.126 -25.051  1.00  0.00     0.142 A 
ATOM      6  C   UNL     1      18.172   0.399 -25.045  1.00  0.00     0.018 A 
ATOM      7  C   UNL     1      19.228  -0.446 -24.691  1.00  0.00     0.019 A 
ATOM      8  C   UNL     1      18.960  -1.772 -24.356  1.00  0.00     0.094 A 
ATOM      9  C   UNL     1      17.635  -2.224 -24.383  1.00  0.00     0.336 A 
ATOM     10  O   UNL     1      17.373  -3.419 -24.084  1.00  0.00    -0.246 OA
ATOM     11  O   UNL     1      16.649  -1.398 -24.724  1.00  0.00    -0.423 OA
ENDROOT
BRANCH   3  12
ATOM     12  O   UNL     1      14.920   2.840 -26.091  1.00  0.00    -0.508 OA
ATOM     13  H   UNL     1      15.045   3.698 -26.615  1.00  0.00     0.293 HD
ENDBRANCH   3  12
TORSDOF 1
ENDMDL
MODEL 2
REMARK VINA RESULT:    -5.471      2.694      3.254
REMARK INTER + INTRA:          -5.631
REMARK INTER:                  -5.631
REMARK INTRA:                   0.000
REMARK UNBOUND:                 0.000
REMARK SMILES O=c1ccc2ccc(O)cc2o1
REMARK SMILES IDX 6 1 7 2 8 3 10 4 11 5 5 6 4 7 3 8 2 9 1 10 12 11 9 12
REMARK H PARENT 9 13
REMARK Flexibility Score: inf
ROOT
ATOM      1  C   UNL     1      16.749  -0.647 -24.614  1.00  0.00     0.016 A 
ATOM      2  C   UNL     1      15.932   0.119 -25.451  1.00  0.00     0.047 A 
ATOM      3  C   UNL     1      15.921   1.518 -25.343  1.00  0.00     0.119 A 
ATOM      4  C   UNL     1      16.731   2.151 -24.393  1.00  0.00     0.094 A 
ATOM      5  C   UNL     1      17.552   1.393 -23.551  1.00  0.00     0.142 A 
ATOM      6  C   UNL     1      17.562  -0.015 -23.662  1.00  0.00     0.018 A 
ATOM      7  C   UNL     1      18.393  -0.745 -22.807  1.00  0.00     0.019 A 
ATOM      8  C   UNL     1      19.182  -0.070 -21.878  1.00  0.00     0.094 A 
ATOM      9  C   UNL     1      19.121   1.328 -21.825  1.00  0.00     0.336 A 
ATOM     10  O   UNL     1      19.826   1.956 -20.991  1.00  0.00    -0.246 OA
ATOM     11  O   UNL     1      18.321   1.998 -22.650  1.00  0.00    -0.423 OA
ENDROOT
BRANCH   3  12
ATOM     12  O   UNL     1      15.108   2.288 -26.173  1.00  0.00    -0.508 OA
ATOM     13  H   UNL     1      14.097   2.233 -26.121  1.00  0.00     0.293 HD
ENDBRANCH   3  12
TORSDOF 1
ENDMDL
MODEL 3
REMARK VINA RESULT:    -5.369      2.290      4.300
REMARK INTER + INTRA:          -5.526
REMARK INTER:                  -5.526
REMARK INTRA:                   0.000
REMARK UNBOUND:                 0.000
REMARK SMILES O=c1ccc2ccc(O)cc2o1
REMARK SMILES IDX 6 1 7 2 8 3 10 4 11 5 5 6 4 7 3 8 2 9 1 10 12 11 9 12
REMARK H PARENT 9 13
REMARK Flexibility Score: inf
ROOT
ATOM      1  C   UNL     1      19.035  -1.630 -25.025  1.00  0.00     0.016 A 
ATOM      2  C   UNL     1      19.724  -2.089 -26.152  1.00  0.00     0.047 A 
ATOM      3  C   UNL     1      19.441  -1.556 -27.419  1.00  0.00     0.119 A 
ATOM      4  C   UNL     1      18.466  -0.562 -27.557  1.00  0.00     0.094 A 
ATOM      5  C   UNL     1      17.772  -0.096 -26.434  1.00  0.00     0.142 A 
ATOM      6  C   UNL     1      18.058  -0.633 -25.160  1.00  0.00     0.018 A 
ATOM      7  C   UNL     1      17.349  -0.148 -24.057  1.00  0.00     0.019 A 
ATOM      8  C   UNL     1      16.388   0.844 -24.244  1.00  0.00     0.094 A 
ATOM      9  C   UNL     1      16.157   1.330 -25.537  1.00  0.00     0.336 A 
ATOM     10  O   UNL     1      15.292   2.225 -25.726  1.00  0.00    -0.246 OA
ATOM     11  O   UNL     1      16.846   0.850 -26.569  1.00  0.00    -0.423 OA
ENDROOT
BRANCH   3  12
ATOM     12  O   UNL     1      20.122  -2.009 -28.547  1.00  0.00    -0.508 OA
ATOM     13  H   UNL     1      19.638  -2.478 -29.304  1.00  0.00     0.293 HD
ENDBRANCH   3  12
TORSDOF 1
ENDMDL
MODEL 4
REMARK VINA RESULT:    -5.318      2.029      2.193
REMARK INTER + INTRA:          -5.473
REMARK INTER:                  -5.473
REMARK INTRA:                   0.000
REMARK UNBOUND:                 0.000
REMARK SMILES O=c1ccc2ccc(O)cc2o1
REMARK SMILES IDX 6 1 7 2 8 3 10 4 11 5 5 6 4 7 3 8 2 9 1 10 12 11 9 12
REMARK H PARENT 9 13
REMARK Flexibility Score: inf
ROOT
ATOM      1  C   UNL     1      17.534   0.476 -23.923  1.00  0.00     0.016 A 
ATOM      2  C   UNL     1      16.534   1.405 -24.230  1.00  0.00     0.047 A 
ATOM      3  C   UNL     1      16.111   1.577 -25.557  1.00  0.00     0.119 A 
ATOM      4  C   UNL     1      16.692   0.817 -26.579  1.00  0.00     0.094 A 
ATOM      5  C   UNL     1      17.693  -0.115 -26.282  1.00  0.00     0.142 A 
ATOM      6  C   UNL     1      18.116  -0.287 -24.946  1.00  0.00     0.018 A 
ATOM      7  C   UNL     1      19.118  -1.226 -24.679  1.00  0.00     0.019 A 
ATOM      8  C   UNL     1      19.665  -1.959 -25.731  1.00  0.00     0.094 A 
ATOM      9  C   UNL     1      19.196  -1.735 -27.030  1.00  0.00     0.336 A 
ATOM     10  O   UNL     1      19.678  -2.388 -27.994  1.00  0.00    -0.246 OA
ATOM     11  O   UNL     1      18.242  -0.836 -27.256  1.00  0.00    -0.423 OA
ENDROOT
BRANCH   3  12
ATOM     12  O   UNL     1      15.116   2.500 -25.870  1.00  0.00    -0.508 OA
ATOM     13  H   UNL     1      15.277   3.498 -25.790  1.00  0.00     0.293 HD
ENDBRANCH   3  12
TORSDOF 1
ENDMDL
MODEL 5
REMARK VINA RESULT:    -5.310      2.527      3.218
REMARK INTER + INTRA:          -5.465
REMARK INTER:                  -5.465
REMARK INTRA:                   0.000
REMARK UNBOUND:                 0.000
REMARK SMILES O=c1ccc2ccc(O)cc2o1
REMARK SMILES IDX 6 1 7 2 8 3 10 4 11 5 5 6 4 7 3 8 2 9 1 10 12 11 9 12
REMARK H PARENT 9 13
REMARK Flexibility Score: inf
ROOT
ATOM      1  C   UNL     1      16.801   1.429 -25.809  1.00  0.00     0.016 A 
ATOM      2  C   UNL     1      16.482   1.292 -24.455  1.00  0.00     0.047 A 
ATOM      3  C   UNL     1      16.918   0.168 -23.736  1.00  0.00     0.119 A 
ATOM      4  C   UNL     1      17.673  -0.821 -24.376  1.00  0.00     0.094 A 
ATOM      5  C   UNL     1      17.997  -0.692 -25.732  1.00  0.00     0.142 A 
ATOM      6  C   UNL     1      17.559   0.440 -26.453  1.00  0.00     0.018 A 
ATOM      7  C   UNL     1      17.898   0.542 -27.806  1.00  0.00     0.019 A 
ATOM      8  C   UNL     1      18.653  -0.468 -28.399  1.00  0.00     0.094 A 
ATOM      9  C   UNL     1      19.053  -1.562 -27.622  1.00  0.00     0.336 A 
ATOM     10  O   UNL     1      19.735  -2.485 -28.140  1.00  0.00    -0.246 OA
ATOM     11  O   UNL     1      18.716  -1.633 -26.337  1.00  0.00    -0.423 OA
ENDROOT
BRANCH   3  12
ATOM     12  O   UNL     1      16.603   0.024 -22.386  1.00  0.00    -0.508 OA
ATOM     13  H   UNL     1      17.286  -0.317 -21.718  1.00  0.00     0.293 HD
ENDBRANCH   3  12
TORSDOF 1
ENDMDL
MODEL 6
REMARK VINA RESULT:    -5.252      7.308      8.269
REMARK INTER + INTRA:          -5.405
REMARK INTER:                  -5.405
REMARK INTRA:                   0.000
REMARK UNBOUND:                 0.000
REMARK SMILES O=c1ccc2ccc(O)cc2o1
REMARK SMILES IDX 6 1 7 2 8 3 10 4 11 5 5 6 4 7 3 8 2 9 1 10 12 11 9 12
REMARK H PARENT 9 13
REMARK Flexibility Score: inf
ROOT
ATOM      1  C   UNL     1      20.332  -0.705 -16.606  1.00  0.00     0.016 A 
ATOM      2  C   UNL     1      19.458  -0.392 -15.560  1.00  0.00     0.047 A 
ATOM      3  C   UNL     1      18.435   0.549 -15.751  1.00  0.00     0.119 A 
ATOM      4  C   UNL     1      18.287   1.178 -16.993  1.00  0.00     0.094 A 
ATOM      5  C   UNL     1      19.157   0.871 -18.046  1.00  0.00     0.142 A 
ATOM      6  C   UNL     1      20.186  -0.077 -17.851  1.00  0.00     0.018 A 
ATOM      7  C   UNL     1      21.040  -0.364 -18.921  1.00  0.00     0.019 A 
ATOM      8  C   UNL     1      20.853   0.288 -20.138  1.00  0.00     0.094 A 
ATOM      9  C   UNL     1      19.811   1.216 -20.259  1.00  0.00     0.336 A 
ATOM     10  O   UNL     1      19.627   1.815 -21.351  1.00  0.00    -0.246 OA
ATOM     11  O   UNL     1      19.014   1.470 -19.225  1.00  0.00    -0.423 OA
ENDROOT
BRANCH   3  12
ATOM     12  O   UNL     1      17.560   0.867 -14.714  1.00  0.00    -0.508 OA
ATOM     13  H   UNL     1      16.556   0.860 -14.849  1.00  0.00     0.293 HD
ENDBRANCH   3  12
TORSDOF 1
ENDMDL
MODEL 7
REMARK VINA RESULT:    -5.144      8.795     10.154
REMARK INTER + INTRA:          -5.294
REMARK INTER:                  -5.294
REMARK INTRA:                   0.000
REMARK UNBOUND:                 0.000
REMARK SMILES O=c1ccc2ccc(O)cc2o1
REMARK SMILES IDX 6 1 7 2 8 3 10 4 11 5 5 6 4 7 3 8 2 9 1 10 12 11 9 12
REMARK H PARENT 9 13
REMARK Flexibility Score: inf
ROOT
ATOM      1  C   UNL     1      21.302  -0.457 -17.542  1.00  0.00     0.016 A 
ATOM      2  C   UNL     1      22.052  -1.200 -16.625  1.00  0.00     0.047 A 
ATOM      3  C   UNL     1      21.634  -1.307 -15.290  1.00  0.00     0.119 A 
ATOM      4  C   UNL     1      20.462  -0.666 -14.872  1.00  0.00     0.094 A 
ATOM      5  C   UNL     1      19.704   0.080 -15.782  1.00  0.00     0.142 A 
ATOM      6  C   UNL     1      20.126   0.185 -17.126  1.00  0.00     0.018 A 
ATOM      7  C   UNL     1      19.349   0.937 -18.012  1.00  0.00     0.019 A 
ATOM      8  C   UNL     1      18.189   1.556 -17.549  1.00  0.00     0.094 A 
ATOM      9  C   UNL     1      17.832   1.407 -16.203  1.00  0.00     0.336 A 
ATOM     10  O   UNL     1      16.788   1.959 -15.766  1.00  0.00    -0.246 OA
ATOM     11  O   UNL     1      18.590   0.686 -15.381  1.00  0.00    -0.423 OA
ENDROOT
BRANCH   3  12
ATOM     12  O   UNL     1      22.377  -2.045 -14.371  1.00  0.00    -0.508 OA
ATOM     13  H   UNL     1      22.280  -1.897 -13.373  1.00  0.00     0.293 HD
ENDBRANCH   3  12
TORSDOF 1
ENDMDL
MODEL 8
REMARK VINA RESULT:    -5.114      2.710      4.350
REMARK INTER + INTRA:          -5.264
REMARK INTER:                  -5.264
REMARK INTRA:                   0.000
REMARK UNBOUND:                 0.000
REMARK SMILES O=c1ccc2ccc(O)cc2o1
REMARK SMILES IDX 6 1 7 2 8 3 10 4 11 5 5 6 4 7 3 8 2 9 1 10 12 11 9 12
REMARK H PARENT 9 13
REMARK Flexibility Score: inf
ROOT
ATOM      1  C   UNL     1      18.487  -0.484 -22.603  1.00  0.00     0.016 A 
ATOM      2  C   UNL     1      19.345   0.300 -21.825  1.00  0.00     0.047 A 
ATOM      3  C   UNL     1      19.332   1.698 -21.948  1.00  0.00     0.119 A 
ATOM      4  C   UNL     1      18.458   2.311 -22.853  1.00  0.00     0.094 A 
ATOM      5  C   UNL     1      17.597   1.535 -23.636  1.00  0.00     0.142 A 
ATOM      6  C   UNL     1      17.611   0.128 -23.511  1.00  0.00     0.018 A 
ATOM      7  C   UNL     1      16.738  -0.621 -24.306  1.00  0.00     0.019 A 
ATOM      8  C   UNL     1      15.887   0.035 -25.192  1.00  0.00     0.094 A 
ATOM      9  C   UNL     1      15.927   1.433 -25.263  1.00  0.00     0.336 A 
ATOM     10  O   UNL     1      15.166   2.043 -26.059  1.00  0.00    -0.246 OA
ATOM     11  O   UNL     1      16.767   2.121 -24.495  1.00  0.00    -0.423 OA
ENDROOT
BRANCH   3  12
ATOM     12  O   UNL     1      20.184   2.486 -21.177  1.00  0.00    -0.508 OA
ATOM     13  H   UNL     1      21.183   2.505 -21.345  1.00  0.00     0.293 HD
ENDBRANCH   3  12
TORSDOF 1
ENDMDL
MODEL 9
REMARK VINA RESULT:    -5.077      8.315      9.660
REMARK INTER + INTRA:          -5.225
REMARK INTER:                  -5.225
REMARK INTRA:                   0.000
REMARK UNBOUND:                 0.000
REMARK SMILES O=c1ccc2ccc(O)cc2o1
REMARK SMILES IDX 6 1 7 2 8 3 10 4 11 5 5 6 4 7 3 8 2 9 1 10 12 11 9 12
REMARK H PARENT 9 13
REMARK Flexibility Score: inf
ROOT
ATOM      1  C   UNL     1      20.771  -0.451 -18.728  1.00  0.00     0.016 A 
ATOM      2  C   UNL     1      20.299  -1.767 -18.724  1.00  0.00     0.047 A 
ATOM      3  C   UNL     1      19.773  -2.326 -17.550  1.00  0.00     0.119 A 
ATOM      4  C   UNL     1      19.718  -1.565 -16.377  1.00  0.00     0.094 A 
ATOM      5  C   UNL     1      20.188  -0.246 -16.371  1.00  0.00     0.142 A 
ATOM      6  C   UNL     1      20.717   0.315 -17.554  1.00  0.00     0.018 A 
ATOM      7  C   UNL     1      21.178   1.634 -17.518  1.00  0.00     0.019 A 
ATOM      8  C   UNL     1      21.103   2.353 -16.326  1.00  0.00     0.094 A 
ATOM      9  C   UNL     1      20.565   1.732 -15.192  1.00  0.00     0.336 A 
ATOM     10  O   UNL     1      20.489   2.364 -14.106  1.00  0.00    -0.246 OA
ATOM     11  O   UNL     1      20.134   0.475 -15.254  1.00  0.00    -0.423 OA
ENDROOT
BRANCH   3  12
ATOM     12  O   UNL     1      19.301  -3.638 -17.538  1.00  0.00    -0.508 OA
ATOM     13  H   UNL     1      19.911  -4.416 -17.313  1.00  0.00     0.293 HD
ENDBRANCH   3  12
TORSDOF 1
ENDMDL
