MODEL 1
REMARK VINA RESULT:    -3.817      0.000      0.000
REMARK INTER + INTRA:         -12.900
REMARK INTER:                  -8.727
REMARK INTRA:                  -4.173
REMARK UNBOUND:                -4.173
REMARK SMILES CCCCCCCCCCCCCCCCCCCCCCCC(=O)[O-]
REMARK SMILES IDX 13 1 14 2 15 3 16 4 17 5 18 6 19 7 20 8 21 9 22 10 23 11
REMARK SMILES IDX 24 12 25 13 26 14 12 15 11 16 10 17 9 18 8 19 7 20 6 21 5 22
REMARK SMILES IDX 4 23 3 24 2 25 1 26
REMARK H PARENT
REMARK Flexibility Score: inf
ROOT
ATOM      1  C   UNL     1     -22.053  29.604 -42.646  1.00  0.00     0.000 C 
ENDROOT
BRANCH   1   2
ATOM      2  C   UNL     1     -23.405  29.703 -41.921  1.00  0.00     0.000 C 
BRANCH   2   3
ATOM      3  C   UNL     1     -23.746  31.138 -41.487  1.00  0.00     0.000 C 
BRANCH   3   4
ATOM      4  C   UNL     1     -24.604  31.184 -40.212  1.00  0.00     0.000 C 
BRANCH   4   5
ATOM      5  C   UNL     1     -24.592  29.854 -39.441  1.00  0.00     0.000 C 
BRANCH   5   6
ATOM      6  C   UNL     1     -23.739  29.964 -38.169  1.00  0.00     0.000 C 
BRANCH   6   7
ATOM      7  C   UNL     1     -22.531  29.007 -38.170  1.00  0.00     0.000 C 
BRANCH   7   8
ATOM      8  C   UNL     1     -21.310  29.500 -38.968  1.00  0.00     0.000 C 
BRANCH   8   9
ATOM      9  C   UNL     1     -20.298  28.384 -39.264  1.00  0.00     0.000 C 
BRANCH   9  10
ATOM     10  C   UNL     1     -20.825  27.025 -38.779  1.00  0.00     0.006 C 
BRANCH  10  11
ATOM     11  C   UNL     1     -20.195  25.852 -39.544  1.00  0.00     0.053 C 
BRANCH  11  12
ATOM     12  C   UNL     1     -20.687  24.531 -39.038  1.00  0.00     0.041 C 
ATOM     13  O   UNL     1     -21.511  23.859 -39.714  1.00  0.00    -0.550 OA
ATOM     14  O   UNL     1     -20.211  24.026 -37.834  1.00  0.00    -0.550 OA
ENDBRANCH  11  12
ENDBRANCH  10  11
ENDBRANCH   9  10
ENDBRANCH   8   9
ENDBRANCH   7   8
ENDBRANCH   6   7
ENDBRANCH   5   6
ENDBRANCH   4   5
ENDBRANCH   3   4
ENDBRANCH   2   3
ENDBRANCH   1   2
BRANCH   1  15
ATOM     15  C   UNL     1     -21.181  30.870 -42.509  1.00  0.00     0.000 C 
BRANCH  15  16
ATOM     16  C   UNL     1     -19.693  30.533 -42.321  1.00  0.00     0.000 C 
BRANCH  16  17
ATOM     17  C   UNL     1     -18.761  31.496 -43.076  1.00  0.00     0.000 C 
BRANCH  17  18
ATOM     18  C   UNL     1     -17.735  32.202 -42.165  1.00  0.00    -0.000 C 
BRANCH  18  19
ATOM     19  C   UNL     1     -17.775  31.668 -40.720  1.00  0.00    -0.000 C 
BRANCH  19  20
ATOM     20  C   UNL     1     -18.065  32.779 -39.690  1.00  0.00    -0.000 C 
BRANCH  20  21
ATOM     21  C   UNL     1     -19.469  32.696 -39.066  1.00  0.00    -0.000 C 
BRANCH  21  22
ATOM     22  C   UNL     1     -20.550  33.362 -39.933  1.00  0.00    -0.000 C 
BRANCH  22  23
ATOM     23  C   UNL     1     -21.850  33.622 -39.143  1.00  0.00    -0.000 C 
BRANCH  23  24
ATOM     24  C   UNL     1     -21.845  33.011 -37.731  1.00  0.00    -0.000 C 
BRANCH  24  25
ATOM     25  C   UNL     1     -22.901  33.631 -36.807  1.00  0.00    -0.003 C 
ATOM     26  C   UNL     1     -24.244  33.768 -37.518  1.00  0.00     0.004 C 
ENDBRANCH  24  25
ENDBRANCH  23  24
ENDBRANCH  22  23
ENDBRANCH  21  22
ENDBRANCH  20  21
ENDBRANCH  19  20
ENDBRANCH  18  19
ENDBRANCH  17  18
ENDBRANCH  16  17
ENDBRANCH  15  16
ENDBRANCH   1  15
TORSDOF 22
ENDMDL
MODEL 2
REMARK VINA RESULT:    -3.816      3.177      5.962
REMARK INTER + INTRA:         -12.897
REMARK INTER:                  -9.085
REMARK INTRA:                  -3.812
REMARK UNBOUND:                -4.173
REMARK SMILES CCCCCCCCCCCCCCCCCCCCCCCC(=O)[O-]
REMARK SMILES IDX 13 1 14 2 15 3 16 4 17 5 18 6 19 7 20 8 21 9 22 10 23 11
REMARK SMILES IDX 24 12 25 13 26 14 12 15 11 16 10 17 9 18 8 19 7 20 6 21 5 22
REMARK SMILES IDX 4 23 3 24 2 25 1 26
REMARK H PARENT
REMARK Flexibility Score: inf
ROOT
ATOM      1  C   UNL     1     -19.023  31.561 -40.628  1.00  0.00     0.000 C 
ENDROOT
BRANCH   1   2
ATOM      2  C   UNL     1     -19.995  31.577 -41.819  1.00  0.00     0.000 C 
BRANCH   2   3
ATOM      3  C   UNL     1     -20.256  30.175 -42.395  1.00  0.00     0.000 C 
BRANCH   3   4
ATOM      4  C   UNL     1     -21.735  29.942 -42.741  1.00  0.00     0.000 C 
BRANCH   4   5
ATOM      5  C   UNL     1     -22.663  31.001 -42.124  1.00  0.00     0.000 C 
BRANCH   5   6
ATOM      6  C   UNL     1     -23.777  30.341 -41.299  1.00  0.00     0.000 C 
BRANCH   6   7
ATOM      7  C   UNL     1     -24.138  28.929 -41.796  1.00  0.00     0.000 C 
BRANCH   7   8
ATOM      8  C   UNL     1     -25.609  28.524 -41.593  1.00  0.00     0.000 C 
BRANCH   8   9
ATOM      9  C   UNL     1     -26.592  29.659 -41.914  1.00  0.00     0.000 C 
BRANCH   9  10
ATOM     10  C   UNL     1     -28.010  29.110 -42.133  1.00  0.00     0.006 C 
BRANCH  10  11
ATOM     11  C   UNL     1     -28.213  27.742 -41.466  1.00  0.00     0.053 C 
BRANCH  11  12
ATOM     12  C   UNL     1     -29.024  27.851 -40.211  1.00  0.00     0.041 C 
ATOM     13  O   UNL     1     -29.587  28.937 -39.912  1.00  0.00    -0.550 OA
ATOM     14  O   UNL     1     -29.185  26.743 -39.388  1.00  0.00    -0.550 OA
ENDBRANCH  11  12
ENDBRANCH  10  11
ENDBRANCH   9  10
ENDBRANCH   8   9
ENDBRANCH   7   8
ENDBRANCH   6   7
ENDBRANCH   5   6
ENDBRANCH   4   5
ENDBRANCH   3   4
ENDBRANCH   2   3
ENDBRANCH   1   2
BRANCH   1  15
ATOM     15  C   UNL     1     -19.317  32.648 -39.573  1.00  0.00     0.000 C 
BRANCH  15  16
ATOM     16  C   UNL     1     -20.673  33.334 -39.808  1.00  0.00     0.000 C 
BRANCH  16  17
ATOM     17  C   UNL     1     -21.123  34.195 -38.616  1.00  0.00     0.000 C 
BRANCH  17  18
ATOM     18  C   UNL     1     -22.649  34.182 -38.388  1.00  0.00    -0.000 C 
BRANCH  18  19
ATOM     19  C   UNL     1     -23.068  33.166 -37.309  1.00  0.00    -0.000 C 
BRANCH  19  20
ATOM     20  C   UNL     1     -21.905  32.799 -36.363  1.00  0.00    -0.000 C 
BRANCH  20  21
ATOM     21  C   UNL     1     -21.493  31.318 -36.430  1.00  0.00    -0.000 C 
BRANCH  21  22
ATOM     22  C   UNL     1     -22.366  30.496 -37.392  1.00  0.00    -0.000 C 
BRANCH  22  23
ATOM     23  C   UNL     1     -21.534  29.830 -38.508  1.00  0.00    -0.000 C 
BRANCH  23  24
ATOM     24  C   UNL     1     -21.951  28.379 -38.803  1.00  0.00    -0.000 C 
BRANCH  24  25
ATOM     25  C   UNL     1     -20.907  27.611 -39.623  1.00  0.00    -0.003 C 
ATOM     26  C   UNL     1     -19.500  28.140 -39.358  1.00  0.00     0.004 C 
ENDBRANCH  24  25
ENDBRANCH  23  24
ENDBRANCH  22  23
ENDBRANCH  21  22
ENDBRANCH  20  21
ENDBRANCH  19  20
ENDBRANCH  18  19
ENDBRANCH  17  18
ENDBRANCH  16  17
ENDBRANCH  15  16
ENDBRANCH   1  15
TORSDOF 22
ENDMDL
MODEL 3
REMARK VINA RESULT:    -3.753      3.137      6.763
REMARK INTER + INTRA:         -12.754
REMARK INTER:                  -9.561
REMARK INTRA:                  -3.192
REMARK UNBOUND:                -4.173
REMARK SMILES CCCCCCCCCCCCCCCCCCCCCCCC(=O)[O-]
REMARK SMILES IDX 13 1 14 2 15 3 16 4 17 5 18 6 19 7 20 8 21 9 22 10 23 11
REMARK SMILES IDX 24 12 25 13 26 14 12 15 11 16 10 17 9 18 8 19 7 20 6 21 5 22
REMARK SMILES IDX 4 23 3 24 2 25 1 26
REMARK H PARENT
REMARK Flexibility Score: inf
ROOT
ATOM      1  C   UNL     1     -22.977  28.870 -41.591  1.00  0.00     0.000 C 
ENDROOT
BRANCH   1   2
ATOM      2  C   UNL     1     -22.200  29.587 -42.708  1.00  0.00     0.000 C 
BRANCH   2   3
ATOM      3  C   UNL     1     -21.424  30.814 -42.203  1.00  0.00     0.000 C 
BRANCH   3   4
ATOM      4  C   UNL     1     -19.918  30.727 -42.499  1.00  0.00     0.000 C 
BRANCH   4   5
ATOM      5  C   UNL     1     -19.122  31.881 -41.870  1.00  0.00     0.000 C 
BRANCH   5   6
ATOM      6  C   UNL     1     -19.026  31.716 -40.347  1.00  0.00     0.000 C 
BRANCH   6   7
ATOM      7  C   UNL     1     -19.305  33.023 -39.581  1.00  0.00     0.000 C 
BRANCH   7   8
ATOM      8  C   UNL     1     -20.700  33.629 -39.816  1.00  0.00     0.000 C 
BRANCH   8   9
ATOM      9  C   UNL     1     -21.368  34.114 -38.520  1.00  0.00     0.000 C 
BRANCH   9  10
ATOM     10  C   UNL     1     -22.847  33.699 -38.480  1.00  0.00     0.006 C 
BRANCH  10  11
ATOM     11  C   UNL     1     -23.135  32.486 -39.376  1.00  0.00     0.053 C 
BRANCH  11  12
ATOM     12  C   UNL     1     -23.040  31.199 -38.616  1.00  0.00     0.041 C 
ATOM     13  O   UNL     1     -24.047  30.744 -38.011  1.00  0.00    -0.550 OA
ATOM     14  O   UNL     1     -21.849  30.485 -38.602  1.00  0.00    -0.550 OA
ENDBRANCH  11  12
ENDBRANCH  10  11
ENDBRANCH   9  10
ENDBRANCH   8   9
ENDBRANCH   7   8
ENDBRANCH   6   7
ENDBRANCH   5   6
ENDBRANCH   4   5
ENDBRANCH   3   4
ENDBRANCH   2   3
ENDBRANCH   1   2
BRANCH   1  15
ATOM     15  C   UNL     1     -24.484  28.714 -41.886  1.00  0.00     0.000 C 
BRANCH  15  16
ATOM     16  C   UNL     1     -25.287  29.962 -41.483  1.00  0.00     0.000 C 
BRANCH  16  17
ATOM     17  C   UNL     1     -26.794  29.815 -41.750  1.00  0.00     0.000 C 
BRANCH  17  18
ATOM     18  C   UNL     1     -27.253  28.350 -41.902  1.00  0.00    -0.000 C 
BRANCH  18  19
ATOM     19  C   UNL     1     -28.301  27.955 -40.844  1.00  0.00    -0.000 C 
BRANCH  19  20
ATOM     20  C   UNL     1     -27.809  28.212 -39.404  1.00  0.00    -0.000 C 
BRANCH  20  21
ATOM     21  C   UNL     1     -28.889  28.791 -38.474  1.00  0.00    -0.000 C 
BRANCH  21  22
ATOM     22  C   UNL     1     -28.916  30.328 -38.470  1.00  0.00    -0.000 C 
BRANCH  22  23
ATOM     23  C   UNL     1     -27.546  30.933 -38.099  1.00  0.00    -0.000 C 
BRANCH  23  24
ATOM     24  C   UNL     1     -27.218  32.228 -38.863  1.00  0.00    -0.000 C 
BRANCH  24  25
ATOM     25  C   UNL     1     -26.542  33.287 -37.983  1.00  0.00    -0.003 C 
ATOM     26  C   UNL     1     -27.575  34.128 -37.239  1.00  0.00     0.004 C 
ENDBRANCH  24  25
ENDBRANCH  23  24
ENDBRANCH  22  23
ENDBRANCH  21  22
ENDBRANCH  20  21
ENDBRANCH  19  20
ENDBRANCH  18  19
ENDBRANCH  17  18
ENDBRANCH  16  17
ENDBRANCH  15  16
ENDBRANCH   1  15
TORSDOF 22
ENDMDL
MODEL 4
REMARK VINA RESULT:    -3.749      6.594     10.583
REMARK INTER + INTRA:         -12.743
REMARK INTER:                  -7.949
REMARK INTRA:                  -4.794
REMARK UNBOUND:                -4.173
REMARK SMILES CCCCCCCCCCCCCCCCCCCCCCCC(=O)[O-]
REMARK SMILES IDX 13 1 14 2 15 3 16 4 17 5 18 6 19 7 20 8 21 9 22 10 23 11
REMARK SMILES IDX 24 12 25 13 26 14 12 15 11 16 10 17 9 18 8 19 7 20 6 21 5 22
REMARK SMILES IDX 4 23 3 24 2 25 1 26
REMARK H PARENT
REMARK Flexibility Score: inf
ROOT
ATOM      1  C   UNL     1     -29.285  31.371 -35.540  1.00  0.00     0.000 C 
ENDROOT
BRANCH   1   2
ATOM      2  C   UNL     1     -29.770  31.172 -36.986  1.00  0.00     0.000 C 
BRANCH   2   3
ATOM      3  C   UNL     1     -30.492  32.407 -37.549  1.00  0.00     0.000 C 
BRANCH   3   4
ATOM      4  C   UNL     1     -30.687  32.337 -39.072  1.00  0.00     0.000 C 
BRANCH   4   5
ATOM      5  C   UNL     1     -29.902  33.426 -39.821  1.00  0.00     0.000 C 
BRANCH   5   6
ATOM      6  C   UNL     1     -28.415  33.392 -39.440  1.00  0.00     0.000 C 
BRANCH   6   7
ATOM      7  C   UNL     1     -27.666  32.188 -40.042  1.00  0.00     0.000 C 
BRANCH   7   8
ATOM      8  C   UNL     1     -26.611  31.551 -39.120  1.00  0.00     0.000 C 
BRANCH   8   9
ATOM      9  C   UNL     1     -26.838  30.048 -38.900  1.00  0.00     0.000 C 
BRANCH   9  10
ATOM     10  C   UNL     1     -28.075  29.563 -39.671  1.00  0.00     0.006 C 
BRANCH  10  11
ATOM     11  C   UNL     1     -27.827  28.226 -40.385  1.00  0.00     0.053 C 
BRANCH  11  12
ATOM     12  C   UNL     1     -27.955  28.358 -41.872  1.00  0.00     0.041 C 
ATOM     13  O   UNL     1     -27.839  27.345 -42.611  1.00  0.00    -0.550 OA
ATOM     14  O   UNL     1     -28.233  29.595 -42.439  1.00  0.00    -0.550 OA
ENDBRANCH  11  12
ENDBRANCH  10  11
ENDBRANCH   9  10
ENDBRANCH   8   9
ENDBRANCH   7   8
ENDBRANCH   6   7
ENDBRANCH   5   6
ENDBRANCH   4   5
ENDBRANCH   3   4
ENDBRANCH   2   3
ENDBRANCH   1   2
BRANCH   1  15
ATOM     15  C   UNL     1     -30.426  31.396 -34.501  1.00  0.00     0.000 C 
BRANCH  15  16
ATOM     16  C   UNL     1     -30.827  29.983 -34.045  1.00  0.00     0.000 C 
BRANCH  16  17
ATOM     17  C   UNL     1     -32.277  29.625 -34.413  1.00  0.00     0.000 C 
BRANCH  17  18
ATOM     18  C   UNL     1     -33.002  30.732 -35.207  1.00  0.00    -0.000 C 
BRANCH  18  19
ATOM     19  C   UNL     1     -33.425  30.258 -36.611  1.00  0.00    -0.000 C 
BRANCH  19  20
ATOM     20  C   UNL     1     -32.976  28.812 -36.904  1.00  0.00    -0.000 C 
BRANCH  20  21
ATOM     21  C   UNL     1     -32.195  28.659 -38.221  1.00  0.00    -0.000 C 
BRANCH  21  22
ATOM     22  C   UNL     1     -30.821  27.997 -38.030  1.00  0.00    -0.000 C 
BRANCH  22  23
ATOM     23  C   UNL     1     -30.715  27.256 -36.680  1.00  0.00    -0.000 C 
BRANCH  23  24
ATOM     24  C   UNL     1     -29.508  26.306 -36.594  1.00  0.00    -0.000 C 
BRANCH  24  25
ATOM     25  C   UNL     1     -28.171  27.011 -36.854  1.00  0.00    -0.003 C 
ATOM     26  C   UNL     1     -27.823  27.969 -35.718  1.00  0.00     0.004 C 
ENDBRANCH  24  25
ENDBRANCH  23  24
ENDBRANCH  22  23
ENDBRANCH  21  22
ENDBRANCH  20  21
ENDBRANCH  19  20
ENDBRANCH  18  19
ENDBRANCH  17  18
ENDBRANCH  16  17
ENDBRANCH  15  16
ENDBRANCH   1  15
TORSDOF 22
ENDMDL
MODEL 5
REMARK VINA RESULT:    -3.747      2.913      5.326
REMARK INTER + INTRA:         -12.739
REMARK INTER:                  -8.355
REMARK INTRA:                  -4.384
REMARK UNBOUND:                -4.173
REMARK SMILES CCCCCCCCCCCCCCCCCCCCCCCC(=O)[O-]
REMARK SMILES IDX 13 1 14 2 15 3 16 4 17 5 18 6 19 7 20 8 21 9 22 10 23 11
REMARK SMILES IDX 24 12 25 13 26 14 12 15 11 16 10 17 9 18 8 19 7 20 6 21 5 22
REMARK SMILES IDX 4 23 3 24 2 25 1 26
REMARK H PARENT
REMARK Flexibility Score: inf
ROOT
ATOM      1  C   UNL     1     -20.077  32.519 -37.845  1.00  0.00     0.000 C 
ENDROOT
BRANCH   1   2
ATOM      2  C   UNL     1     -21.045  33.294 -38.754  1.00  0.00     0.000 C 
BRANCH   2   3
ATOM      3  C   UNL     1     -21.993  34.216 -37.969  1.00  0.00     0.000 C 
BRANCH   3   4
ATOM      4  C   UNL     1     -23.062  33.437 -37.186  1.00  0.00     0.000 C 
BRANCH   4   5
ATOM      5  C   UNL     1     -24.489  33.734 -37.675  1.00  0.00     0.000 C 
BRANCH   5   6
ATOM      6  C   UNL     1     -25.076  32.527 -38.421  1.00  0.00     0.000 C 
BRANCH   6   7
ATOM      7  C   UNL     1     -26.610  32.439 -38.310  1.00  0.00     0.000 C 
BRANCH   7   8
ATOM      8  C   UNL     1     -27.198  31.032 -38.520  1.00  0.00     0.000 C 
BRANCH   8   9
ATOM      9  C   UNL     1     -26.149  29.919 -38.388  1.00  0.00     0.000 C 
BRANCH   9  10
ATOM     10  C   UNL     1     -26.510  28.719 -39.277  1.00  0.00     0.006 C 
BRANCH  10  11
ATOM     11  C   UNL     1     -26.062  28.919 -40.732  1.00  0.00     0.053 C 
BRANCH  11  12
ATOM     12  C   UNL     1     -27.219  28.866 -41.682  1.00  0.00     0.041 C 
ATOM     13  O   UNL     1     -27.740  29.931 -42.108  1.00  0.00    -0.550 OA
ATOM     14  O   UNL     1     -27.703  27.640 -42.123  1.00  0.00    -0.550 OA
ENDBRANCH  11  12
ENDBRANCH  10  11
ENDBRANCH   9  10
ENDBRANCH   8   9
ENDBRANCH   7   8
ENDBRANCH   6   7
ENDBRANCH   5   6
ENDBRANCH   4   5
ENDBRANCH   3   4
ENDBRANCH   2   3
ENDBRANCH   1   2
BRANCH   1  15
ATOM     15  C   UNL     1     -18.868  31.919 -38.593  1.00  0.00     0.000 C 
BRANCH  15  16
ATOM     16  C   UNL     1     -19.112  30.460 -39.014  1.00  0.00     0.000 C 
BRANCH  16  17
ATOM     17  C   UNL     1     -18.717  30.185 -40.475  1.00  0.00     0.000 C 
BRANCH  17  18
ATOM     18  C   UNL     1     -18.766  31.439 -41.373  1.00  0.00    -0.000 C 
BRANCH  18  19
ATOM     19  C   UNL     1     -19.667  31.237 -42.605  1.00  0.00    -0.000 C 
BRANCH  19  20
ATOM     20  C   UNL     1     -20.824  30.253 -42.333  1.00  0.00    -0.000 C 
BRANCH  20  21
ATOM     21  C   UNL     1     -22.144  30.939 -41.941  1.00  0.00    -0.000 C 
BRANCH  21  22
ATOM     22  C   UNL     1     -22.661  30.502 -40.561  1.00  0.00    -0.000 C 
BRANCH  22  23
ATOM     23  C   UNL     1     -22.369  29.014 -40.275  1.00  0.00    -0.000 C 
BRANCH  23  24
ATOM     24  C   UNL     1     -22.257  28.685 -38.777  1.00  0.00    -0.000 C 
BRANCH  24  25
ATOM     25  C   UNL     1     -22.636  29.867 -37.875  1.00  0.00    -0.003 C 
ATOM     26  C   UNL     1     -22.112  29.668 -36.456  1.00  0.00     0.004 C 
ENDBRANCH  24  25
ENDBRANCH  23  24
ENDBRANCH  22  23
ENDBRANCH  21  22
ENDBRANCH  20  21
ENDBRANCH  19  20
ENDBRANCH  18  19
ENDBRANCH  17  18
ENDBRANCH  16  17
ENDBRANCH  15  16
ENDBRANCH   1  15
TORSDOF 22
ENDMDL
MODEL 6
REMARK VINA RESULT:    -3.735      3.175      5.565
REMARK INTER + INTRA:         -12.712
REMARK INTER:                  -8.714
REMARK INTRA:                  -3.998
REMARK UNBOUND:                -4.173
REMARK SMILES CCCCCCCCCCCCCCCCCCCCCCCC(=O)[O-]
REMARK SMILES IDX 13 1 14 2 15 3 16 4 17 5 18 6 19 7 20 8 21 9 22 10 23 11
REMARK SMILES IDX 24 12 25 13 26 14 12 15 11 16 10 17 9 18 8 19 7 20 6 21 5 22
REMARK SMILES IDX 4 23 3 24 2 25 1 26
REMARK H PARENT
REMARK Flexibility Score: inf
ROOT
ATOM      1  C   UNL     1     -21.131  30.698 -42.213  1.00  0.00     0.000 C 
ENDROOT
BRANCH   1   2
ATOM      2  C   UNL     1     -22.150  29.624 -42.629  1.00  0.00     0.000 C 
BRANCH   2   3
ATOM      3  C   UNL     1     -23.508  29.785 -41.925  1.00  0.00     0.000 C 
BRANCH   3   4
ATOM      4  C   UNL     1     -24.304  28.471 -41.866  1.00  0.00     0.000 C 
BRANCH   4   5
ATOM      5  C   UNL     1     -25.820  28.701 -41.764  1.00  0.00     0.000 C 
BRANCH   5   6
ATOM      6  C   UNL     1     -26.137  30.186 -41.535  1.00  0.00     0.000 C 
BRANCH   6   7
ATOM      7  C   UNL     1     -27.607  30.435 -41.151  1.00  0.00     0.000 C 
BRANCH   7   8
ATOM      8  C   UNL     1     -27.815  31.185 -39.822  1.00  0.00     0.000 C 
BRANCH   8   9
ATOM      9  C   UNL     1     -28.192  30.252 -38.661  1.00  0.00     0.000 C 
BRANCH   9  10
ATOM     10  C   UNL     1     -28.586  28.862 -39.183  1.00  0.00     0.006 C 
BRANCH  10  11
ATOM     11  C   UNL     1     -27.711  27.749 -38.588  1.00  0.00     0.053 C 
BRANCH  11  12
ATOM     12  C   UNL     1     -28.459  26.936 -37.576  1.00  0.00     0.041 C 
ATOM     13  O   UNL     1     -27.897  25.967 -37.001  1.00  0.00    -0.550 OA
ATOM     14  O   UNL     1     -29.766  27.268 -37.245  1.00  0.00    -0.550 OA
ENDBRANCH  11  12
ENDBRANCH  10  11
ENDBRANCH   9  10
ENDBRANCH   8   9
ENDBRANCH   7   8
ENDBRANCH   6   7
ENDBRANCH   5   6
ENDBRANCH   4   5
ENDBRANCH   3   4
ENDBRANCH   2   3
ENDBRANCH   1   2
BRANCH   1  15
ATOM     15  C   UNL     1     -21.650  31.655 -41.118  1.00  0.00     0.000 C 
BRANCH  15  16
ATOM     16  C   UNL     1     -20.563  32.001 -40.087  1.00  0.00     0.000 C 
BRANCH  16  17
ATOM     17  C   UNL     1     -20.561  33.488 -39.696  1.00  0.00     0.000 C 
BRANCH  17  18
ATOM     18  C   UNL     1     -20.803  33.730 -38.191  1.00  0.00    -0.000 C 
BRANCH  18  19
ATOM     19  C   UNL     1     -22.162  34.405 -37.922  1.00  0.00    -0.000 C 
BRANCH  19  20
ATOM     20  C   UNL     1     -23.172  33.447 -37.255  1.00  0.00    -0.000 C 
BRANCH  20  21
ATOM     21  C   UNL     1     -24.397  33.130 -38.130  1.00  0.00    -0.000 C 
BRANCH  21  22
ATOM     22  C   UNL     1     -24.433  31.668 -38.603  1.00  0.00    -0.000 C 
BRANCH  22  23
ATOM     23  C   UNL     1     -23.331  30.814 -37.940  1.00  0.00    -0.000 C 
BRANCH  23  24
ATOM     24  C   UNL     1     -23.421  29.317 -38.285  1.00  0.00    -0.000 C 
BRANCH  24  25
ATOM     25  C   UNL     1     -22.114  28.562 -38.017  1.00  0.00    -0.003 C 
ATOM     26  C   UNL     1     -21.386  28.239 -39.319  1.00  0.00     0.004 C 
ENDBRANCH  24  25
ENDBRANCH  23  24
ENDBRANCH  22  23
ENDBRANCH  21  22
ENDBRANCH  20  21
ENDBRANCH  19  20
ENDBRANCH  18  19
ENDBRANCH  17  18
ENDBRANCH  16  17
ENDBRANCH  15  16
ENDBRANCH   1  15
TORSDOF 22
ENDMDL
MODEL 7
REMARK VINA RESULT:    -3.716      2.832      5.969
REMARK INTER + INTRA:         -12.669
REMARK INTER:                  -8.460
REMARK INTRA:                  -4.209
REMARK UNBOUND:                -4.173
REMARK SMILES CCCCCCCCCCCCCCCCCCCCCCCC(=O)[O-]
REMARK SMILES IDX 13 1 14 2 15 3 16 4 17 5 18 6 19 7 20 8 21 9 22 10 23 11
REMARK SMILES IDX 24 12 25 13 26 14 12 15 11 16 10 17 9 18 8 19 7 20 6 21 5 22
REMARK SMILES IDX 4 23 3 24 2 25 1 26
REMARK H PARENT
REMARK Flexibility Score: inf
ROOT
ATOM      1  C   UNL     1     -19.109  32.647 -40.404  1.00  0.00     0.000 C 
ENDROOT
BRANCH   1   2
ATOM      2  C   UNL     1     -18.979  31.129 -40.198  1.00  0.00     0.000 C 
BRANCH   2   3
ATOM      3  C   UNL     1     -19.121  30.334 -41.506  1.00  0.00     0.000 C 
BRANCH   3   4
ATOM      4  C   UNL     1     -20.188  30.922 -42.443  1.00  0.00     0.000 C 
BRANCH   4   5
ATOM      5  C   UNL     1     -21.427  30.022 -42.570  1.00  0.00     0.000 C 
BRANCH   5   6
ATOM      6  C   UNL     1     -22.338  30.165 -41.342  1.00  0.00     0.000 C 
BRANCH   6   7
ATOM      7  C   UNL     1     -22.346  28.909 -40.449  1.00  0.00     0.000 C 
BRANCH   7   8
ATOM      8  C   UNL     1     -22.707  29.161 -38.974  1.00  0.00     0.000 C 
BRANCH   8   9
ATOM      9  C   UNL     1     -21.568  29.821 -38.183  1.00  0.00     0.000 C 
BRANCH   9  10
ATOM     10  C   UNL     1     -22.045  30.240 -36.784  1.00  0.00     0.006 C 
BRANCH  10  11
ATOM     11  C   UNL     1     -21.247  31.430 -36.231  1.00  0.00     0.053 C 
BRANCH  11  12
ATOM     12  C   UNL     1     -19.851  31.036 -35.857  1.00  0.00     0.041 C 
ATOM     13  O   UNL     1     -19.646  30.002 -35.167  1.00  0.00    -0.550 OA
ATOM     14  O   UNL     1     -18.772  31.794 -36.297  1.00  0.00    -0.550 OA
ENDBRANCH  11  12
ENDBRANCH  10  11
ENDBRANCH   9  10
ENDBRANCH   8   9
ENDBRANCH   7   8
ENDBRANCH   6   7
ENDBRANCH   5   6
ENDBRANCH   4   5
ENDBRANCH   3   4
ENDBRANCH   2   3
ENDBRANCH   1   2
BRANCH   1  15
ATOM     15  C   UNL     1     -19.816  33.373 -39.240  1.00  0.00     0.000 C 
BRANCH  15  16
ATOM     16  C   UNL     1     -21.342  33.417 -39.425  1.00  0.00     0.000 C 
BRANCH  16  17
ATOM     17  C   UNL     1     -22.062  34.158 -38.285  1.00  0.00     0.000 C 
BRANCH  17  18
ATOM     18  C   UNL     1     -23.534  33.732 -38.107  1.00  0.00    -0.000 C 
BRANCH  18  19
ATOM     19  C   UNL     1     -23.937  32.608 -39.080  1.00  0.00    -0.000 C 
BRANCH  19  20
ATOM     20  C   UNL     1     -25.171  31.821 -38.592  1.00  0.00    -0.000 C 
BRANCH  20  21
ATOM     21  C   UNL     1     -26.301  31.730 -39.632  1.00  0.00    -0.000 C 
BRANCH  21  22
ATOM     22  C   UNL     1     -25.946  30.831 -40.827  1.00  0.00    -0.000 C 
BRANCH  22  23
ATOM     23  C   UNL     1     -26.132  29.333 -40.504  1.00  0.00    -0.000 C 
BRANCH  23  24
ATOM     24  C   UNL     1     -26.033  28.421 -41.739  1.00  0.00    -0.000 C 
BRANCH  24  25
ATOM     25  C   UNL     1     -27.372  27.773 -42.113  1.00  0.00    -0.003 C 
ATOM     26  C   UNL     1     -28.375  27.879 -40.968  1.00  0.00     0.004 C 
ENDBRANCH  24  25
ENDBRANCH  23  24
ENDBRANCH  22  23
ENDBRANCH  21  22
ENDBRANCH  20  21
ENDBRANCH  19  20
ENDBRANCH  18  19
ENDBRANCH  17  18
ENDBRANCH  16  17
ENDBRANCH  15  16
ENDBRANCH   1  15
TORSDOF 22
ENDMDL
MODEL 8
REMARK VINA RESULT:    -3.706      3.477      5.606
REMARK INTER + INTRA:         -12.645
REMARK INTER:                  -8.639
REMARK INTRA:                  -4.007
REMARK UNBOUND:                -4.173
REMARK SMILES CCCCCCCCCCCCCCCCCCCCCCCC(=O)[O-]
REMARK SMILES IDX 13 1 14 2 15 3 16 4 17 5 18 6 19 7 20 8 21 9 22 10 23 11
REMARK SMILES IDX 24 12 25 13 26 14 12 15 11 16 10 17 9 18 8 19 7 20 6 21 5 22
REMARK SMILES IDX 4 23 3 24 2 25 1 26
REMARK H PARENT
REMARK Flexibility Score: inf
ROOT
ATOM      1  C   UNL     1     -20.493  30.279 -41.526  1.00  0.00     0.000 C 
ENDROOT
BRANCH   1   2
ATOM      2  C   UNL     1     -21.520  30.281 -42.671  1.00  0.00     0.000 C 
BRANCH   2   3
ATOM      3  C   UNL     1     -22.971  30.183 -42.171  1.00  0.00     0.000 C 
BRANCH   3   4
ATOM      4  C   UNL     1     -23.343  28.766 -41.706  1.00  0.00     0.000 C 
BRANCH   4   5
ATOM      5  C   UNL     1     -24.841  28.465 -41.865  1.00  0.00     0.000 C 
BRANCH   5   6
ATOM      6  C   UNL     1     -25.687  29.713 -41.575  1.00  0.00     0.000 C 
BRANCH   6   7
ATOM      7  C   UNL     1     -27.175  29.527 -41.925  1.00  0.00     0.000 C 
BRANCH   7   8
ATOM      8  C   UNL     1     -27.651  28.064 -41.990  1.00  0.00     0.000 C 
BRANCH   8   9
ATOM      9  C   UNL     1     -28.402  27.622 -40.725  1.00  0.00     0.000 C 
BRANCH   9  10
ATOM     10  C   UNL     1     -29.343  28.733 -40.232  1.00  0.00     0.006 C 
BRANCH  10  11
ATOM     11  C   UNL     1     -29.437  28.775 -38.700  1.00  0.00     0.053 C 
BRANCH  11  12
ATOM     12  C   UNL     1     -28.301  29.540 -38.094  1.00  0.00     0.041 C 
ATOM     13  O   UNL     1     -27.824  30.544 -38.687  1.00  0.00    -0.550 OA
ATOM     14  O   UNL     1     -27.789  29.164 -36.859  1.00  0.00    -0.550 OA
ENDBRANCH  11  12
ENDBRANCH  10  11
ENDBRANCH   9  10
ENDBRANCH   8   9
ENDBRANCH   7   8
ENDBRANCH   6   7
ENDBRANCH   5   6
ENDBRANCH   4   5
ENDBRANCH   3   4
ENDBRANCH   2   3
ENDBRANCH   1   2
BRANCH   1  15
ATOM     15  C   UNL     1     -19.825  31.650 -41.289  1.00  0.00     0.000 C 
BRANCH  15  16
ATOM     16  C   UNL     1     -19.034  31.690 -39.970  1.00  0.00     0.000 C 
BRANCH  16  17
ATOM     17  C   UNL     1     -19.475  32.835 -39.043  1.00  0.00     0.000 C 
BRANCH  17  18
ATOM     18  C   UNL     1     -20.714  33.600 -39.554  1.00  0.00    -0.000 C 
BRANCH  18  19
ATOM     19  C   UNL     1     -21.554  34.185 -38.403  1.00  0.00    -0.000 C 
BRANCH  19  20
ATOM     20  C   UNL     1     -23.041  33.786 -38.497  1.00  0.00    -0.000 C 
BRANCH  20  21
ATOM     21  C   UNL     1     -23.299  32.557 -39.386  1.00  0.00    -0.000 C 
BRANCH  21  22
ATOM     22  C   UNL     1     -24.352  31.603 -38.799  1.00  0.00    -0.000 C 
BRANCH  22  23
ATOM     23  C   UNL     1     -23.710  30.384 -38.104  1.00  0.00    -0.000 C 
BRANCH  23  24
ATOM     24  C   UNL     1     -22.250  30.135 -38.523  1.00  0.00    -0.000 C 
BRANCH  24  25
ATOM     25  C   UNL     1     -21.310  29.937 -37.328  1.00  0.00    -0.003 C 
ATOM     26  C   UNL     1     -21.413  31.101 -36.347  1.00  0.00     0.004 C 
ENDBRANCH  24  25
ENDBRANCH  23  24
ENDBRANCH  22  23
ENDBRANCH  21  22
ENDBRANCH  20  21
ENDBRANCH  19  20
ENDBRANCH  18  19
ENDBRANCH  17  18
ENDBRANCH  16  17
ENDBRANCH  15  16
ENDBRANCH   1  15
TORSDOF 22
ENDMDL
MODEL 9
REMARK VINA RESULT:    -3.688      2.938      5.847
REMARK INTER + INTRA:         -12.603
REMARK INTER:                  -8.232
REMARK INTRA:                  -4.371
REMARK UNBOUND:                -4.173
REMARK SMILES CCCCCCCCCCCCCCCCCCCCCCCC(=O)[O-]
REMARK SMILES IDX 13 1 14 2 15 3 16 4 17 5 18 6 19 7 20 8 21 9 22 10 23 11
REMARK SMILES IDX 24 12 25 13 26 14 12 15 11 16 10 17 9 18 8 19 7 20 6 21 5 22
REMARK SMILES IDX 4 23 3 24 2 25 1 26
REMARK H PARENT
REMARK Flexibility Score: inf
ROOT
ATOM      1  C   UNL     1     -24.957  31.560 -38.815  1.00  0.00     0.000 C 
ENDROOT
BRANCH   1   2
ATOM      2  C   UNL     1     -25.885  32.625 -38.207  1.00  0.00     0.000 C 
BRANCH   2   3
ATOM      3  C   UNL     1     -25.123  33.855 -37.687  1.00  0.00     0.000 C 
BRANCH   3   4
ATOM      4  C   UNL     1     -23.660  33.540 -37.334  1.00  0.00     0.000 C 
BRANCH   4   5
ATOM      5  C   UNL     1     -22.668  34.500 -38.008  1.00  0.00     0.000 C 
BRANCH   5   6
ATOM      6  C   UNL     1     -21.751  33.748 -38.984  1.00  0.00     0.000 C 
BRANCH   6   7
ATOM      7  C   UNL     1     -20.286  33.693 -38.513  1.00  0.00     0.000 C 
BRANCH   7   8
ATOM      8  C   UNL     1     -19.493  32.464 -38.994  1.00  0.00     0.000 C 
BRANCH   8   9
ATOM      9  C   UNL     1     -19.027  31.563 -37.842  1.00  0.00     0.000 C 
BRANCH   9  10
ATOM     10  C   UNL     1     -19.851  31.827 -36.573  1.00  0.00     0.006 C 
BRANCH  10  11
ATOM     11  C   UNL     1     -19.068  31.500 -35.293  1.00  0.00     0.053 C 
BRANCH  11  12
ATOM     12  C   UNL     1     -19.820  30.553 -34.409  1.00  0.00     0.041 C 
ATOM     13  O   UNL     1     -21.001  30.220 -34.695  1.00  0.00    -0.550 OA
ATOM     14  O   UNL     1     -19.207  30.014 -33.285  1.00  0.00    -0.550 OA
ENDBRANCH  11  12
ENDBRANCH  10  11
ENDBRANCH   9  10
ENDBRANCH   8   9
ENDBRANCH   7   8
ENDBRANCH   6   7
ENDBRANCH   5   6
ENDBRANCH   4   5
ENDBRANCH   3   4
ENDBRANCH   2   3
ENDBRANCH   1   2
BRANCH   1  15
ATOM     15  C   UNL     1     -25.249  30.127 -38.321  1.00  0.00     0.000 C 
BRANCH  15  16
ATOM     16  C   UNL     1     -23.975  29.400 -37.861  1.00  0.00     0.000 C 
BRANCH  16  17
ATOM     17  C   UNL     1     -22.686  30.122 -38.292  1.00  0.00     0.000 C 
BRANCH  17  18
ATOM     18  C   UNL     1     -21.612  29.175 -38.867  1.00  0.00    -0.000 C 
BRANCH  18  19
ATOM     19  C   UNL     1     -21.349  29.433 -40.362  1.00  0.00    -0.000 C 
BRANCH  19  20
ATOM     20  C   UNL     1     -22.088  30.683 -40.883  1.00  0.00    -0.000 C 
BRANCH  20  21
ATOM     21  C   UNL     1     -23.221  30.366 -41.875  1.00  0.00    -0.000 C 
BRANCH  21  22
ATOM     22  C   UNL     1     -23.475  28.858 -42.033  1.00  0.00    -0.000 C 
BRANCH  22  23
ATOM     23  C   UNL     1     -24.967  28.499 -41.874  1.00  0.00    -0.000 C 
BRANCH  23  24
ATOM     24  C   UNL     1     -25.898  29.724 -41.873  1.00  0.00    -0.000 C 
BRANCH  24  25
ATOM     25  C   UNL     1     -27.307  29.404 -41.358  1.00  0.00    -0.003 C 
ATOM     26  C   UNL     1     -28.133  30.676 -41.186  1.00  0.00     0.004 C 
ENDBRANCH  24  25
ENDBRANCH  23  24
ENDBRANCH  22  23
ENDBRANCH  21  22
ENDBRANCH  20  21
ENDBRANCH  19  20
ENDBRANCH  18  19
ENDBRANCH  17  18
ENDBRANCH  16  17
ENDBRANCH  15  16
ENDBRANCH   1  15
TORSDOF 22
ENDMDL
