MODEL 1
REMARK VINA RESULT:    -4.331      0.000      0.000
REMARK INTER + INTRA:          -8.022
REMARK INTER:                  -6.863
REMARK INTRA:                  -1.158
REMARK UNBOUND:                -1.158
REMARK SMILES CCCCCCCCCCCC(=O)[O-]
REMARK SMILES IDX 7 1 8 2 9 3 10 4 11 5 12 6 13 7 14 8 6 9 5 10 4 11 3 12 2 13
REMARK SMILES IDX 1 14
REMARK H PARENT
REMARK Flexibility Score: inf
ROOT
ATOM      1  C   UNL     1      29.593  18.188  10.558  1.00  0.00     0.000 C 
ENDROOT
BRANCH   1   2
ATOM      2  C   UNL     1      28.518  19.049   9.876  1.00  0.00     0.000 C 
BRANCH   2   3
ATOM      3  C   UNL     1      27.478  19.597  10.871  1.00  0.00     0.000 C 
BRANCH   3   4
ATOM      4  C   UNL     1      28.009  20.792  11.680  1.00  0.00     0.006 C 
BRANCH   4   5
ATOM      5  C   UNL     1      28.626  21.879  10.790  1.00  0.00     0.053 C 
BRANCH   5   6
ATOM      6  C   UNL     1      29.951  22.309  11.335  1.00  0.00     0.041 C 
ATOM      7  O   UNL     1      30.177  22.247  12.572  1.00  0.00    -0.550 OA
ATOM      8  O   UNL     1      30.954  22.731  10.473  1.00  0.00    -0.550 OA
ENDBRANCH   5   6
ENDBRANCH   4   5
ENDBRANCH   3   4
ENDBRANCH   2   3
ENDBRANCH   1   2
BRANCH   1   9
ATOM      9  C   UNL     1      31.015  18.534  10.079  1.00  0.00     0.000 C 
BRANCH   9  10
ATOM     10  C   UNL     1      31.876  19.159  11.189  1.00  0.00    -0.000 C 
BRANCH  10  11
ATOM     11  C   UNL     1      31.265  18.968  12.587  1.00  0.00    -0.000 C 
BRANCH  11  12
ATOM     12  C   UNL     1      32.266  19.270  13.715  1.00  0.00    -0.000 C 
BRANCH  12  13
ATOM     13  C   UNL     1      33.489  20.060  13.226  1.00  0.00    -0.003 C 
ATOM     14  C   UNL     1      33.870  21.152  14.221  1.00  0.00     0.004 C 
ENDBRANCH  12  13
ENDBRANCH  11  12
ENDBRANCH  10  11
ENDBRANCH   9  10
ENDBRANCH   1   9
TORSDOF 10
ENDMDL
MODEL 2
REMARK VINA RESULT:    -4.286      2.221      4.666
REMARK INTER + INTRA:          -7.950
REMARK INTER:                  -6.858
REMARK INTRA:                  -1.092
REMARK UNBOUND:                -1.158
REMARK SMILES CCCCCCCCCCCC(=O)[O-]
REMARK SMILES IDX 7 1 8 2 9 3 10 4 11 5 12 6 13 7 14 8 6 9 5 10 4 11 3 12 2 13
REMARK SMILES IDX 1 14
REMARK H PARENT
REMARK Flexibility Score: inf
ROOT
ATOM      1  C   UNL     1      31.417  18.660  11.260  1.00  0.00     0.000 C 
ENDROOT
BRANCH   1   2
ATOM      2  C   UNL     1      32.538  19.497  10.624  1.00  0.00     0.000 C 
BRANCH   2   3
ATOM      3  C   UNL     1      33.383  20.249  11.669  1.00  0.00     0.000 C 
BRANCH   3   4
ATOM      4  C   UNL     1      33.063  19.815  13.109  1.00  0.00     0.006 C 
BRANCH   4   5
ATOM      5  C   UNL     1      32.832  21.007  14.046  1.00  0.00     0.053 C 
BRANCH   5   6
ATOM      6  C   UNL     1      34.119  21.432  14.679  1.00  0.00     0.041 C 
ATOM      7  O   UNL     1      35.195  20.848  14.379  1.00  0.00    -0.550 OA
ATOM      8  O   UNL     1      34.142  22.504  15.561  1.00  0.00    -0.550 OA
ENDBRANCH   5   6
ENDBRANCH   4   5
ENDBRANCH   3   4
ENDBRANCH   2   3
ENDBRANCH   1   2
BRANCH   1   9
ATOM      9  C   UNL     1      30.516  17.987  10.210  1.00  0.00     0.000 C 
BRANCH   9  10
ATOM     10  C   UNL     1      29.150  18.680  10.072  1.00  0.00    -0.000 C 
BRANCH  10  11
ATOM     11  C   UNL     1      28.531  19.040  11.434  1.00  0.00    -0.000 C 
BRANCH  11  12
ATOM     12  C   UNL     1      27.912  20.447  11.447  1.00  0.00    -0.000 C 
BRANCH  12  13
ATOM     13  C   UNL     1      28.867  21.521  10.904  1.00  0.00    -0.003 C 
ATOM     14  C   UNL     1      29.854  21.970  11.977  1.00  0.00     0.004 C 
ENDBRANCH  12  13
ENDBRANCH  11  12
ENDBRANCH  10  11
ENDBRANCH   9  10
ENDBRANCH   1   9
TORSDOF 10
ENDMDL
MODEL 3
REMARK VINA RESULT:    -4.159      1.918      3.534
REMARK INTER + INTRA:          -7.748
REMARK INTER:                  -6.691
REMARK INTRA:                  -1.057
REMARK UNBOUND:                -1.158
REMARK SMILES CCCCCCCCCCCC(=O)[O-]
REMARK SMILES IDX 7 1 8 2 9 3 10 4 11 5 12 6 13 7 14 8 6 9 5 10 4 11 3 12 2 13
REMARK SMILES IDX 1 14
REMARK H PARENT
REMARK Flexibility Score: inf
ROOT
ATOM      1  C   UNL     1      33.216  19.952  11.663  1.00  0.00     0.000 C 
ENDROOT
BRANCH   1   2
ATOM      2  C   UNL     1      32.137  19.720  10.593  1.00  0.00     0.000 C 
BRANCH   2   3
ATOM      3  C   UNL     1      31.655  18.259  10.544  1.00  0.00     0.000 C 
BRANCH   3   4
ATOM      4  C   UNL     1      30.162  18.142  10.196  1.00  0.00     0.006 C 
BRANCH   4   5
ATOM      5  C   UNL     1      29.251  18.522  11.370  1.00  0.00     0.053 C 
BRANCH   5   6
ATOM      6  C   UNL     1      28.339  19.643  10.982  1.00  0.00     0.041 C 
ATOM      7  O   UNL     1      27.430  19.454  10.131  1.00  0.00    -0.550 OA
ATOM      8  O   UNL     1      28.459  20.883  11.597  1.00  0.00    -0.550 OA
ENDBRANCH   5   6
ENDBRANCH   4   5
ENDBRANCH   3   4
ENDBRANCH   2   3
ENDBRANCH   1   2
BRANCH   1   9
ATOM      9  C   UNL     1      32.696  19.695  13.089  1.00  0.00     0.000 C 
BRANCH   9  10
ATOM     10  C   UNL     1      31.520  20.613  13.464  1.00  0.00    -0.000 C 
BRANCH  10  11
ATOM     11  C   UNL     1      31.892  22.104  13.401  1.00  0.00    -0.000 C 
BRANCH  11  12
ATOM     12  C   UNL     1      32.468  22.625  14.728  1.00  0.00    -0.000 C 
BRANCH  12  13
ATOM     13  C   UNL     1      34.000  22.739  14.705  1.00  0.00    -0.003 C 
ATOM     14  C   UNL     1      34.645  21.630  15.532  1.00  0.00     0.004 C 
ENDBRANCH  12  13
ENDBRANCH  11  12
ENDBRANCH  10  11
ENDBRANCH   9  10
ENDBRANCH   1   9
TORSDOF 10
ENDMDL
MODEL 4
REMARK VINA RESULT:    -4.108      1.697      2.689
REMARK INTER + INTRA:          -7.668
REMARK INTER:                  -7.108
REMARK INTRA:                  -0.560
REMARK UNBOUND:                -1.158
REMARK SMILES CCCCCCCCCCCC(=O)[O-]
REMARK SMILES IDX 7 1 8 2 9 3 10 4 11 5 12 6 13 7 14 8 6 9 5 10 4 11 3 12 2 13
REMARK SMILES IDX 1 14
REMARK H PARENT
REMARK Flexibility Score: inf
ROOT
ATOM      1  C   UNL     1      32.291  18.647  10.333  1.00  0.00     0.000 C 
ENDROOT
BRANCH   1   2
ATOM      2  C   UNL     1      30.891  18.073  10.058  1.00  0.00     0.000 C 
BRANCH   2   3
ATOM      3  C   UNL     1      29.817  19.168   9.926  1.00  0.00     0.000 C 
BRANCH   3   4
ATOM      4  C   UNL     1      28.694  19.020  10.965  1.00  0.00     0.006 C 
BRANCH   4   5
ATOM      5  C   UNL     1      27.364  19.613  10.483  1.00  0.00     0.053 C 
BRANCH   5   6
ATOM      6  C   UNL     1      27.143  20.962  11.091  1.00  0.00     0.041 C 
ATOM      7  O   UNL     1      28.062  21.518  11.750  1.00  0.00    -0.550 OA
ATOM      8  O   UNL     1      25.942  21.630  10.890  1.00  0.00    -0.550 OA
ENDBRANCH   5   6
ENDBRANCH   4   5
ENDBRANCH   3   4
ENDBRANCH   2   3
ENDBRANCH   1   2
BRANCH   1   9
ATOM      9  C   UNL     1      32.287  19.696  11.460  1.00  0.00     0.000 C 
BRANCH   9  10
ATOM     10  C   UNL     1      32.029  19.075  12.843  1.00  0.00    -0.000 C 
BRANCH  10  11
ATOM     11  C   UNL     1      32.621  19.917  13.987  1.00  0.00    -0.000 C 
BRANCH  11  12
ATOM     12  C   UNL     1      33.057  21.316  13.525  1.00  0.00    -0.000 C 
BRANCH  12  13
ATOM     13  C   UNL     1      33.080  22.339  14.672  1.00  0.00    -0.003 C 
ATOM     14  C   UNL     1      34.351  22.200  15.504  1.00  0.00     0.004 C 
ENDBRANCH  12  13
ENDBRANCH  11  12
ENDBRANCH  10  11
ENDBRANCH   9  10
ENDBRANCH   1   9
TORSDOF 10
ENDMDL
MODEL 5
REMARK VINA RESULT:    -3.919     16.524     18.844
REMARK INTER + INTRA:          -7.368
REMARK INTER:                  -6.096
REMARK INTRA:                  -1.272
REMARK UNBOUND:                -1.158
REMARK SMILES CCCCCCCCCCCC(=O)[O-]
REMARK SMILES IDX 7 1 8 2 9 3 10 4 11 5 12 6 13 7 14 8 6 9 5 10 4 11 3 12 2 13
REMARK SMILES IDX 1 14
REMARK H PARENT
REMARK Flexibility Score: inf
ROOT
ATOM      1  C   UNL     1      45.580  15.234  20.633  1.00  0.00     0.000 C 
ENDROOT
BRANCH   1   2
ATOM      2  C   UNL     1      45.584  15.177  22.169  1.00  0.00     0.000 C 
BRANCH   2   3
ATOM      3  C   UNL     1      45.351  13.755  22.710  1.00  0.00     0.000 C 
BRANCH   3   4
ATOM      4  C   UNL     1      45.287  12.702  21.593  1.00  0.00     0.006 C 
BRANCH   4   5
ATOM      5  C   UNL     1      45.672  11.300  22.081  1.00  0.00     0.053 C 
BRANCH   5   6
ATOM      6  C   UNL     1      44.722  10.278  21.540  1.00  0.00     0.041 C 
ATOM      7  O   UNL     1      43.538  10.227  21.966  1.00  0.00    -0.550 OA
ATOM      8  O   UNL     1      45.128   9.416  20.529  1.00  0.00    -0.550 OA
ENDBRANCH   5   6
ENDBRANCH   4   5
ENDBRANCH   3   4
ENDBRANCH   2   3
ENDBRANCH   1   2
BRANCH   1   9
ATOM      9  C   UNL     1      44.362  15.991  20.074  1.00  0.00     0.000 C 
BRANCH   9  10
ATOM     10  C   UNL     1      43.568  16.722  21.170  1.00  0.00    -0.000 C 
BRANCH  10  11
ATOM     11  C   UNL     1      42.100  16.266  21.238  1.00  0.00    -0.000 C 
BRANCH  11  12
ATOM     12  C   UNL     1      41.778  15.506  22.535  1.00  0.00    -0.000 C 
BRANCH  12  13
ATOM     13  C   UNL     1      41.514  14.011  22.296  1.00  0.00    -0.003 C 
ATOM     14  C   UNL     1      41.726  13.206  23.575  1.00  0.00     0.004 C 
ENDBRANCH  12  13
ENDBRANCH  11  12
ENDBRANCH  10  11
ENDBRANCH   9  10
ENDBRANCH   1   9
TORSDOF 10
ENDMDL
MODEL 6
REMARK VINA RESULT:    -3.850      2.354      4.931
REMARK INTER + INTRA:          -7.259
REMARK INTER:                  -6.265
REMARK INTRA:                  -0.994
REMARK UNBOUND:                -1.158
REMARK SMILES CCCCCCCCCCCC(=O)[O-]
REMARK SMILES IDX 7 1 8 2 9 3 10 4 11 5 12 6 13 7 14 8 6 9 5 10 4 11 3 12 2 13
REMARK SMILES IDX 1 14
REMARK H PARENT
REMARK Flexibility Score: inf
ROOT
ATOM      1  C   UNL     1      31.847  19.540  12.241  1.00  0.00     0.000 C 
ENDROOT
BRANCH   1   2
ATOM      2  C   UNL     1      31.975  20.984  11.731  1.00  0.00     0.000 C 
BRANCH   2   3
ATOM      3  C   UNL     1      31.101  21.973  12.523  1.00  0.00     0.000 C 
BRANCH   3   4
ATOM      4  C   UNL     1      31.649  22.246  13.933  1.00  0.00     0.006 C 
BRANCH   4   5
ATOM      5  C   UNL     1      33.015  22.942  13.909  1.00  0.00     0.053 C 
BRANCH   5   6
ATOM      6  C   UNL     1      34.004  22.181  14.734  1.00  0.00     0.041 C 
ATOM      7  O   UNL     1      34.416  22.655  15.826  1.00  0.00    -0.550 OA
ATOM      8  O   UNL     1      34.434  20.926  14.324  1.00  0.00    -0.550 OA
ENDBRANCH   5   6
ENDBRANCH   4   5
ENDBRANCH   3   4
ENDBRANCH   2   3
ENDBRANCH   1   2
BRANCH   1   9
ATOM      9  C   UNL     1      30.480  18.915  11.907  1.00  0.00     0.000 C 
BRANCH   9  10
ATOM     10  C   UNL     1      30.108  19.068  10.423  1.00  0.00    -0.000 C 
BRANCH  10  11
ATOM     11  C   UNL     1      28.588  19.144  10.201  1.00  0.00    -0.000 C 
BRANCH  11  12
ATOM     12  C   UNL     1      27.814  19.407  11.503  1.00  0.00    -0.000 C 
BRANCH  12  13
ATOM     13  C   UNL     1      27.375  20.873  11.646  1.00  0.00    -0.003 C 
ATOM     14  C   UNL     1      26.646  21.352  10.393  1.00  0.00     0.004 C 
ENDBRANCH  12  13
ENDBRANCH  11  12
ENDBRANCH  10  11
ENDBRANCH   9  10
ENDBRANCH   1   9
TORSDOF 10
ENDMDL
MODEL 7
REMARK VINA RESULT:    -3.802     13.602     15.381
REMARK INTER + INTRA:          -7.184
REMARK INTER:                  -6.111
REMARK INTRA:                  -1.073
REMARK UNBOUND:                -1.158
REMARK SMILES CCCCCCCCCCCC(=O)[O-]
REMARK SMILES IDX 7 1 8 2 9 3 10 4 11 5 12 6 13 7 14 8 6 9 5 10 4 11 3 12 2 13
REMARK SMILES IDX 1 14
REMARK H PARENT
REMARK Flexibility Score: inf
ROOT
ATOM      1  C   UNL     1      29.788   5.274  10.179  1.00  0.00     0.000 C 
ENDROOT
BRANCH   1   2
ATOM      2  C   UNL     1      29.609   4.283  11.340  1.00  0.00     0.000 C 
BRANCH   2   3
ATOM      3  C   UNL     1      30.773   3.280  11.448  1.00  0.00     0.000 C 
BRANCH   3   4
ATOM      4  C   UNL     1      31.378   3.230  12.860  1.00  0.00     0.006 C 
BRANCH   4   5
ATOM      5  C   UNL     1      30.526   3.979  13.893  1.00  0.00     0.053 C 
BRANCH   5   6
ATOM      6  C   UNL     1      31.362   4.969  14.640  1.00  0.00     0.041 C 
ATOM      7  O   UNL     1      31.974   4.622  15.685  1.00  0.00    -0.550 OA
ATOM      8  O   UNL     1      31.508   6.263  14.156  1.00  0.00    -0.550 OA
ENDBRANCH   5   6
ENDBRANCH   4   5
ENDBRANCH   3   4
ENDBRANCH   2   3
ENDBRANCH   1   2
BRANCH   1   9
ATOM      9  C   UNL     1      30.359   6.627  10.641  1.00  0.00     0.000 C 
BRANCH   9  10
ATOM     10  C   UNL     1      29.296   7.737  10.673  1.00  0.00    -0.000 C 
BRANCH  10  11
ATOM     11  C   UNL     1      27.890   7.218  10.322  1.00  0.00    -0.000 C 
BRANCH  11  12
ATOM     12  C   UNL     1      27.033   6.949  11.569  1.00  0.00    -0.000 C 
BRANCH  12  13
ATOM     13  C   UNL     1      27.702   7.432  12.865  1.00  0.00    -0.003 C 
ATOM     14  C   UNL     1      27.701   6.334  13.925  1.00  0.00     0.004 C 
ENDBRANCH  12  13
ENDBRANCH  11  12
ENDBRANCH  10  11
ENDBRANCH   9  10
ENDBRANCH   1   9
TORSDOF 10
ENDMDL
MODEL 8
REMARK VINA RESULT:    -3.740     13.830     15.182
REMARK INTER + INTRA:          -7.084
REMARK INTER:                  -5.886
REMARK INTRA:                  -1.198
REMARK UNBOUND:                -1.158
REMARK SMILES CCCCCCCCCCCC(=O)[O-]
REMARK SMILES IDX 7 1 8 2 9 3 10 4 11 5 12 6 13 7 14 8 6 9 5 10 4 11 3 12 2 13
REMARK SMILES IDX 1 14
REMARK H PARENT
REMARK Flexibility Score: inf
ROOT
ATOM      1  C   UNL     1      29.835   4.160   9.994  1.00  0.00     0.000 C 
ENDROOT
BRANCH   1   2
ATOM      2  C   UNL     1      30.548   5.516   9.878  1.00  0.00     0.000 C 
BRANCH   2   3
ATOM      3  C   UNL     1      30.186   6.477  11.025  1.00  0.00     0.000 C 
BRANCH   3   4
ATOM      4  C   UNL     1      29.088   7.478  10.632  1.00  0.00     0.006 C 
BRANCH   4   5
ATOM      5  C   UNL     1      28.103   7.753  11.775  1.00  0.00     0.053 C 
BRANCH   5   6
ATOM      6  C   UNL     1      27.579   6.467  12.333  1.00  0.00     0.041 C 
ATOM      7  O   UNL     1      27.011   5.634  11.578  1.00  0.00    -0.550 OA
ATOM      8  O   UNL     1      27.762   6.165  13.676  1.00  0.00    -0.550 OA
ENDBRANCH   5   6
ENDBRANCH   4   5
ENDBRANCH   3   4
ENDBRANCH   2   3
ENDBRANCH   1   2
BRANCH   1   9
ATOM      9  C   UNL     1      30.474   3.247  11.056  1.00  0.00     0.000 C 
BRANCH   9  10
ATOM     10  C   UNL     1      29.519   2.939  12.222  1.00  0.00    -0.000 C 
BRANCH  10  11
ATOM     11  C   UNL     1      29.924   3.655  13.521  1.00  0.00    -0.000 C 
BRANCH  11  12
ATOM     12  C   UNL     1      31.443   3.862  13.633  1.00  0.00    -0.000 C 
BRANCH  12  13
ATOM     13  C   UNL     1      31.823   4.900  14.700  1.00  0.00    -0.003 C 
ATOM     14  C   UNL     1      31.225   6.266  14.373  1.00  0.00     0.004 C 
ENDBRANCH  12  13
ENDBRANCH  11  12
ENDBRANCH  10  11
ENDBRANCH   9  10
ENDBRANCH   1   9
TORSDOF 10
ENDMDL
