MODEL 1
REMARK VINA RESULT:    -6.909      0.000      0.000
REMARK INTER + INTRA:          -7.782
REMARK INTER:                  -7.515
REMARK INTRA:                  -0.267
REMARK UNBOUND:                -0.267
REMARK SMILES C[C@H]1[C@@H](C)CC[C@@]2(C(=O)[O-])CC[C@@]3(C)C(=CC[C@@H]4[C@@]5(C)CC[C@H](O)C(C)(C)[C@@H]5CC[C@@]43C)[C@@H]12
REMARK SMILES IDX 7 1 6 2 11 3 33 4 5 5 12 6 15 7 2 8 3 9 13 10 16 11 1 12
REMARK SMILES IDX 4 13 14 14 31 15 17 16 18 17 30 18 32 19 19 20 29 21 28 22
REMARK SMILES IDX 21 23 20 24 25 25 22 26 23 27 26 28 27 29 8 30 9 31 10 32
REMARK SMILES IDX 24 33
REMARK H PARENT 24 34
REMARK Flexibility Score: inf
ROOT
ATOM      1  C   UNL     1       5.448 -17.810 -37.233  1.00  0.00     0.017 C 
ATOM      2  C   UNL     1       3.900 -17.567 -37.124  1.00  0.00     0.014 C 
ATOM      3  C   UNL     1       5.894 -18.590 -35.947  1.00  0.00     0.014 C 
ATOM      4  C   UNL     1       5.886 -18.553 -38.575  1.00  0.00     0.030 C 
ATOM      5  C   UNL     1       3.139 -17.736 -38.439  1.00  0.00     0.004 C 
ATOM      6  C   UNL     1       7.337 -19.149 -35.964  1.00  0.00     0.013 C 
ATOM      7  C   UNL     1       7.293 -19.180 -38.439  1.00  0.00    -0.063 C 
ATOM      8  C   UNL     1       4.817 -19.330 -39.458  1.00  0.00    -0.003 C 
ATOM      9  C   UNL     1       3.339 -19.141 -39.021  1.00  0.00    -0.011 C 
ATOM     10  C   UNL     1       7.659 -20.036 -37.207  1.00  0.00    -0.006 C 
ATOM     11  C   UNL     1       8.278 -18.531 -39.087  1.00  0.00    -0.027 C 
ATOM     12  C   UNL     1       5.152 -20.770 -39.891  1.00  0.00     0.008 C 
ATOM     13  C   UNL     1       2.793 -20.236 -38.083  1.00  0.00     0.008 C 
ATOM     14  C   UNL     1       6.706 -21.269 -37.126  1.00  0.00     0.017 C 
ATOM     15  C   UNL     1       9.222 -20.543 -37.244  1.00  0.00    -0.020 C 
ATOM     16  C   UNL     1       9.531 -18.189 -38.361  1.00  0.00     0.032 C 
ATOM     17  C   UNL     1      10.243 -19.440 -37.820  1.00  0.00     0.006 C 
ATOM     18  C   UNL     1       9.347 -21.853 -38.092  1.00  0.00     0.008 C 
ATOM     19  C   UNL     1       9.658 -20.928 -35.788  1.00  0.00     0.012 C 
ATOM     20  C   UNL     1      11.398 -19.938 -38.814  1.00  0.00    -0.025 C 
ATOM     21  C   UNL     1      10.767 -22.396 -38.350  1.00  0.00     0.005 C 
ATOM     22  C   UNL     1      11.897 -21.340 -38.329  1.00  0.00     0.003 C 
ATOM     23  C   UNL     1      12.592 -18.929 -38.722  1.00  0.00     0.010 C 
ATOM     24  C   UNL     1      10.890 -19.973 -40.290  1.00  0.00     0.012 C 
ATOM     25  C   UNL     1      13.301 -21.869 -38.867  1.00  0.00    -0.006 C 
ATOM     26  C   UNL     1      13.876 -19.423 -39.388  1.00  0.00     0.033 C 
ATOM     27  C   UNL     1      14.359 -20.729 -38.742  1.00  0.00     0.120 C 
ATOM     28  C   UNL     1      13.769 -23.036 -37.952  1.00  0.00     0.014 C 
ATOM     29  C   UNL     1      13.298 -22.427 -40.324  1.00  0.00     0.014 C 
ENDROOT
BRANCH   1  30
ATOM     30  C   UNL     1       6.106 -16.420 -37.219  1.00  0.00     0.048 C 
ATOM     31  O   UNL     1       6.317 -15.772 -38.279  1.00  0.00    -0.550 OA
ATOM     32  O   UNL     1       6.470 -15.844 -36.006  1.00  0.00    -0.550 OA
ENDBRANCH   1  30
BRANCH  27  33
ATOM     33  O   UNL     1      15.578 -21.119 -39.325  1.00  0.00    -0.393 OA
ATOM     34  H   UNL     1      16.276 -21.036 -38.623  1.00  0.00     0.210 HD
ENDBRANCH  27  33
TORSDOF 2
ENDMDL
MODEL 2
REMARK VINA RESULT:    -6.859      2.632      4.455
REMARK INTER + INTRA:          -7.728
REMARK INTER:                  -7.461
REMARK INTRA:                  -0.266
REMARK UNBOUND:                -0.267
REMARK SMILES C[C@H]1[C@@H](C)CC[C@@]2(C(=O)[O-])CC[C@@]3(C)C(=CC[C@@H]4[C@@]5(C)CC[C@H](O)C(C)(C)[C@@H]5CC[C@@]43C)[C@@H]12
REMARK SMILES IDX 7 1 6 2 11 3 33 4 5 5 12 6 15 7 2 8 3 9 13 10 16 11 1 12
REMARK SMILES IDX 4 13 14 14 31 15 17 16 18 17 30 18 32 19 19 20 29 21 28 22
REMARK SMILES IDX 21 23 20 24 25 25 22 26 23 27 26 28 27 29 8 30 9 31 10 32
REMARK SMILES IDX 24 33
REMARK H PARENT 24 34
REMARK Flexibility Score: inf
ROOT
ATOM      1  C   UNL     1       4.021 -17.214 -38.754  1.00  0.00     0.017 C 
ATOM      2  C   UNL     1       3.162 -15.908 -38.600  1.00  0.00     0.014 C 
ATOM      3  C   UNL     1       5.283 -16.849 -39.612  1.00  0.00     0.014 C 
ATOM      4  C   UNL     1       4.409 -17.892 -37.363  1.00  0.00     0.030 C 
ATOM      5  C   UNL     1       2.544 -15.717 -37.216  1.00  0.00     0.004 C 
ATOM      6  C   UNL     1       6.389 -17.931 -39.677  1.00  0.00     0.013 C 
ATOM      7  C   UNL     1       5.605 -18.859 -37.521  1.00  0.00    -0.063 C 
ATOM      8  C   UNL     1       4.300 -17.074 -36.004  1.00  0.00    -0.003 C 
ATOM      9  C   UNL     1       3.621 -15.683 -36.125  1.00  0.00    -0.011 C 
ATOM     10  C   UNL     1       6.877 -18.424 -38.279  1.00  0.00    -0.006 C 
ATOM     11  C   UNL     1       5.295 -20.169 -37.483  1.00  0.00    -0.027 C 
ATOM     12  C   UNL     1       5.515 -17.087 -35.057  1.00  0.00     0.008 C 
ATOM     13  C   UNL     1       4.593 -14.500 -36.312  1.00  0.00     0.008 C 
ATOM     14  C   UNL     1       7.508 -17.185 -37.572  1.00  0.00     0.017 C 
ATOM     15  C   UNL     1       7.987 -19.632 -38.379  1.00  0.00    -0.020 C 
ATOM     16  C   UNL     1       5.800 -21.072 -38.552  1.00  0.00     0.032 C 
ATOM     17  C   UNL     1       7.336 -21.085 -38.617  1.00  0.00     0.006 C 
ATOM     18  C   UNL     1       8.866 -19.667 -37.085  1.00  0.00     0.008 C 
ATOM     19  C   UNL     1       8.968 -19.315 -39.560  1.00  0.00     0.012 C 
ATOM     20  C   UNL     1       7.950 -22.322 -37.802  1.00  0.00    -0.025 C 
ATOM     21  C   UNL     1       9.872 -20.828 -36.944  1.00  0.00     0.005 C 
ATOM     22  C   UNL     1       9.500 -22.126 -37.701  1.00  0.00     0.003 C 
ATOM     23  C   UNL     1       7.670 -23.631 -38.613  1.00  0.00     0.010 C 
ATOM     24  C   UNL     1       7.282 -22.454 -36.397  1.00  0.00     0.012 C 
ATOM     25  C   UNL     1      10.398 -23.388 -37.321  1.00  0.00    -0.006 C 
ATOM     26  C   UNL     1       8.443 -24.850 -38.111  1.00  0.00     0.033 C 
ATOM     27  C   UNL     1       9.956 -24.607 -38.189  1.00  0.00     0.120 C 
ATOM     28  C   UNL     1      11.874 -23.068 -37.691  1.00  0.00     0.014 C 
ATOM     29  C   UNL     1      10.397 -23.786 -35.813  1.00  0.00     0.014 C 
ENDROOT
BRANCH   1  30
ATOM     30  C   UNL     1       3.157 -18.210 -39.546  1.00  0.00     0.048 C 
ATOM     31  O   UNL     1       2.381 -19.021 -38.974  1.00  0.00    -0.550 OA
ATOM     32  O   UNL     1       3.214 -18.215 -40.937  1.00  0.00    -0.550 OA
ENDBRANCH   1  30
BRANCH  27  33
ATOM     33  O   UNL     1      10.641 -25.770 -37.792  1.00  0.00    -0.393 OA
ATOM     34  H   UNL     1      11.446 -25.478 -37.291  1.00  0.00     0.210 HD
ENDBRANCH  27  33
TORSDOF 2
ENDMDL
MODEL 3
REMARK VINA RESULT:    -6.693      1.937      3.672
REMARK INTER + INTRA:          -7.547
REMARK INTER:                  -7.287
REMARK INTRA:                  -0.259
REMARK UNBOUND:                -0.267
REMARK SMILES C[C@H]1[C@@H](C)CC[C@@]2(C(=O)[O-])CC[C@@]3(C)C(=CC[C@@H]4[C@@]5(C)CC[C@H](O)C(C)(C)[C@@H]5CC[C@@]43C)[C@@H]12
REMARK SMILES IDX 7 1 6 2 11 3 33 4 5 5 12 6 15 7 2 8 3 9 13 10 16 11 1 12
REMARK SMILES IDX 4 13 14 14 31 15 17 16 18 17 30 18 32 19 19 20 29 21 28 22
REMARK SMILES IDX 21 23 20 24 25 25 22 26 23 27 26 28 27 29 8 30 9 31 10 32
REMARK SMILES IDX 24 33
REMARK H PARENT 24 34
REMARK Flexibility Score: inf
ROOT
ATOM      1  C   UNL     1       4.309 -19.104 -38.609  1.00  0.00     0.017 C 
ATOM      2  C   UNL     1       2.921 -18.380 -38.478  1.00  0.00     0.014 C 
ATOM      3  C   UNL     1       4.932 -18.682 -39.986  1.00  0.00     0.014 C 
ATOM      4  C   UNL     1       5.294 -18.823 -37.386  1.00  0.00     0.030 C 
ATOM      5  C   UNL     1       2.612 -17.853 -37.078  1.00  0.00     0.004 C 
ATOM      6  C   UNL     1       6.411 -19.085 -40.208  1.00  0.00     0.013 C 
ATOM      7  C   UNL     1       6.760 -19.142 -37.758  1.00  0.00    -0.063 C 
ATOM      8  C   UNL     1       5.035 -17.604 -36.400  1.00  0.00    -0.003 C 
ATOM      9  C   UNL     1       3.685 -16.864 -36.606  1.00  0.00    -0.011 C 
ATOM     10  C   UNL     1       7.374 -18.615 -39.073  1.00  0.00    -0.006 C 
ATOM     11  C   UNL     1       7.256 -20.275 -37.226  1.00  0.00    -0.027 C 
ATOM     12  C   UNL     1       6.214 -16.660 -36.096  1.00  0.00     0.008 C 
ATOM     13  C   UNL     1       3.759 -15.618 -37.511  1.00  0.00     0.008 C 
ATOM     14  C   UNL     1       7.332 -17.056 -39.080  1.00  0.00     0.017 C 
ATOM     15  C   UNL     1       8.918 -19.131 -39.291  1.00  0.00    -0.020 C 
ATOM     16  C   UNL     1       7.941 -21.259 -38.107  1.00  0.00     0.032 C 
ATOM     17  C   UNL     1       9.164 -20.648 -38.812  1.00  0.00     0.006 C 
ATOM     18  C   UNL     1       9.916 -18.187 -38.540  1.00  0.00     0.008 C 
ATOM     19  C   UNL     1       9.276 -19.015 -40.812  1.00  0.00     0.012 C 
ATOM     20  C   UNL     1      10.522 -20.973 -38.023  1.00  0.00    -0.025 C 
ATOM     21  C   UNL     1      11.402 -18.599 -38.520  1.00  0.00     0.005 C 
ATOM     22  C   UNL     1      11.673 -20.117 -38.649  1.00  0.00     0.003 C 
ATOM     23  C   UNL     1      10.861 -22.487 -38.235  1.00  0.00     0.010 C 
ATOM     24  C   UNL     1      10.358 -20.709 -36.493  1.00  0.00     0.012 C 
ATOM     25  C   UNL     1      13.180 -20.543 -38.349  1.00  0.00    -0.006 C 
ATOM     26  C   UNL     1      12.270 -22.876 -37.789  1.00  0.00     0.033 C 
ATOM     27  C   UNL     1      13.328 -22.081 -38.566  1.00  0.00     0.120 C 
ATOM     28  C   UNL     1      14.103 -19.839 -39.384  1.00  0.00     0.014 C 
ATOM     29  C   UNL     1      13.722 -20.156 -36.939  1.00  0.00     0.014 C 
ENDROOT
BRANCH   1  30
ATOM     30  C   UNL     1       4.010 -20.612 -38.645  1.00  0.00     0.048 C 
ATOM     31  O   UNL     1       4.028 -21.320 -37.602  1.00  0.00    -0.550 OA
ATOM     32  O   UNL     1       3.693 -21.222 -39.855  1.00  0.00    -0.550 OA
ENDBRANCH   1  30
BRANCH  27  33
ATOM     33  O   UNL     1      14.612 -22.513 -38.189  1.00  0.00    -0.393 OA
ATOM     34  H   UNL     1      15.179 -21.702 -38.105  1.00  0.00     0.210 HD
ENDBRANCH  27  33
TORSDOF 2
ENDMDL
MODEL 4
REMARK VINA RESULT:    -6.520      2.553      7.732
REMARK INTER + INTRA:          -7.359
REMARK INTER:                  -7.386
REMARK INTRA:                   0.026
REMARK UNBOUND:                -0.267
REMARK SMILES C[C@H]1[C@@H](C)CC[C@@]2(C(=O)[O-])CC[C@@]3(C)C(=CC[C@@H]4[C@@]5(C)CC[C@H](O)C(C)(C)[C@@H]5CC[C@@]43C)[C@@H]12
REMARK SMILES IDX 7 1 6 2 11 3 33 4 5 5 12 6 15 7 2 8 3 9 13 10 16 11 1 12
REMARK SMILES IDX 4 13 14 14 31 15 17 16 18 17 30 18 32 19 19 20 29 21 28 22
REMARK SMILES IDX 21 23 20 24 25 25 22 26 23 27 26 28 27 29 8 30 9 31 10 32
REMARK SMILES IDX 24 33
REMARK H PARENT 24 34
REMARK Flexibility Score: inf
ROOT
ATOM      1  C   UNL     1       9.908 -22.280 -36.927  1.00  0.00     0.017 C 
ATOM      2  C   UNL     1      10.845 -23.533 -37.071  1.00  0.00     0.014 C 
ATOM      3  C   UNL     1      10.635 -21.068 -37.609  1.00  0.00     0.014 C 
ATOM      4  C   UNL     1       8.440 -22.511 -37.506  1.00  0.00     0.030 C 
ATOM      5  C   UNL     1      10.114 -24.838 -37.385  1.00  0.00     0.004 C 
ATOM      6  C   UNL     1       9.780 -19.792 -37.800  1.00  0.00     0.013 C 
ATOM      7  C   UNL     1       7.723 -21.168 -37.776  1.00  0.00    -0.063 C 
ATOM      8  C   UNL     1       8.139 -23.717 -38.497  1.00  0.00    -0.003 C 
ATOM      9  C   UNL     1       9.306 -24.723 -38.684  1.00  0.00    -0.011 C 
ATOM     10  C   UNL     1       8.433 -20.036 -38.549  1.00  0.00    -0.006 C 
ATOM     11  C   UNL     1       6.764 -20.838 -36.891  1.00  0.00    -0.027 C 
ATOM     12  C   UNL     1       7.380 -23.405 -39.801  1.00  0.00     0.008 C 
ATOM     13  C   UNL     1      10.210 -24.451 -39.902  1.00  0.00     0.008 C 
ATOM     14  C   UNL     1       8.810 -20.536 -39.978  1.00  0.00     0.017 C 
ATOM     15  C   UNL     1       7.509 -18.682 -38.660  1.00  0.00    -0.020 C 
ATOM     16  C   UNL     1       6.771 -19.485 -36.274  1.00  0.00     0.032 C 
ATOM     17  C   UNL     1       6.661 -18.370 -37.328  1.00  0.00     0.006 C 
ATOM     18  C   UNL     1       6.531 -18.792 -39.878  1.00  0.00     0.008 C 
ATOM     19  C   UNL     1       8.443 -17.461 -38.965  1.00  0.00     0.012 C 
ATOM     20  C   UNL     1       5.147 -17.872 -37.504  1.00  0.00    -0.025 C 
ATOM     21  C   UNL     1       5.490 -17.668 -40.053  1.00  0.00     0.005 C 
ATOM     22  C   UNL     1       5.079 -16.933 -38.755  1.00  0.00     0.003 C 
ATOM     23  C   UNL     1       4.755 -17.038 -36.238  1.00  0.00     0.010 C 
ATOM     24  C   UNL     1       4.169 -19.083 -37.623  1.00  0.00     0.012 C 
ATOM     25  C   UNL     1       3.813 -15.978 -38.913  1.00  0.00    -0.006 C 
ATOM     26  C   UNL     1       3.450 -16.257 -36.389  1.00  0.00     0.033 C 
ATOM     27  C   UNL     1       3.540 -15.263 -37.554  1.00  0.00     0.120 C 
ATOM     28  C   UNL     1       4.158 -14.876 -39.955  1.00  0.00     0.014 C 
ATOM     29  C   UNL     1       2.507 -16.667 -39.417  1.00  0.00     0.014 C 
ENDROOT
BRANCH   1  30
ATOM     30  C   UNL     1       9.789 -21.999 -35.420  1.00  0.00     0.048 C 
ATOM     31  O   UNL     1       9.758 -20.826 -34.961  1.00  0.00    -0.550 OA
ATOM     32  O   UNL     1       9.695 -23.063 -34.527  1.00  0.00    -0.550 OA
ENDBRANCH   1  30
BRANCH  27  33
ATOM     33  O   UNL     1       2.354 -14.508 -37.621  1.00  0.00    -0.393 OA
ATOM     34  H   UNL     1       2.286 -14.154 -38.546  1.00  0.00     0.210 HD
ENDBRANCH  27  33
TORSDOF 2
ENDMDL
MODEL 5
REMARK VINA RESULT:    -6.507      2.553      8.172
REMARK INTER + INTRA:          -7.345
REMARK INTER:                  -7.086
REMARK INTRA:                  -0.259
REMARK UNBOUND:                -0.267
REMARK SMILES C[C@H]1[C@@H](C)CC[C@@]2(C(=O)[O-])CC[C@@]3(C)C(=CC[C@@H]4[C@@]5(C)CC[C@H](O)C(C)(C)[C@@H]5CC[C@@]43C)[C@@H]12
REMARK SMILES IDX 7 1 6 2 11 3 33 4 5 5 12 6 15 7 2 8 3 9 13 10 16 11 1 12
REMARK SMILES IDX 4 13 14 14 31 15 17 16 18 17 30 18 32 19 19 20 29 21 28 22
REMARK SMILES IDX 21 23 20 24 25 25 22 26 23 27 26 28 27 29 8 30 9 31 10 32
REMARK SMILES IDX 24 33
REMARK H PARENT 24 34
REMARK Flexibility Score: inf
ROOT
ATOM      1  C   UNL     1      10.735 -21.639 -37.371  1.00  0.00     0.017 C 
ATOM      2  C   UNL     1      12.300 -21.659 -37.504  1.00  0.00     0.014 C 
ATOM      3  C   UNL     1      10.371 -20.603 -36.250  1.00  0.00     0.014 C 
ATOM      4  C   UNL     1       9.981 -21.338 -38.744  1.00  0.00     0.030 C 
ATOM      5  C   UNL     1      12.812 -21.758 -38.940  1.00  0.00     0.004 C 
ATOM      6  C   UNL     1       8.870 -20.243 -36.127  1.00  0.00     0.013 C 
ATOM      7  C   UNL     1       8.528 -20.868 -38.497  1.00  0.00    -0.063 C 
ATOM      8  C   UNL     1      10.760 -20.703 -39.975  1.00  0.00    -0.003 C 
ATOM      9  C   UNL     1      12.298 -20.593 -39.795  1.00  0.00    -0.011 C 
ATOM     10  C   UNL     1       8.221 -19.764 -37.463  1.00  0.00    -0.006 C 
ATOM     11  C   UNL     1       7.574 -21.777 -38.770  1.00  0.00    -0.027 C 
ATOM     12  C   UNL     1      10.132 -19.480 -40.670  1.00  0.00     0.008 C 
ATOM     13  C   UNL     1      12.796 -19.231 -39.271  1.00  0.00     0.008 C 
ATOM     14  C   UNL     1       8.961 -18.451 -37.864  1.00  0.00     0.017 C 
ATOM     15  C   UNL     1       6.609 -19.474 -37.322  1.00  0.00    -0.020 C 
ATOM     16  C   UNL     1       6.521 -22.060 -37.758  1.00  0.00     0.032 C 
ATOM     17  C   UNL     1       5.706 -20.803 -37.410  1.00  0.00     0.006 C 
ATOM     18  C   UNL     1       6.144 -18.461 -38.421  1.00  0.00     0.008 C 
ATOM     19  C   UNL     1       6.345 -18.770 -35.947  1.00  0.00     0.012 C 
ATOM     20  C   UNL     1       4.346 -20.728 -38.256  1.00  0.00    -0.025 C 
ATOM     21  C   UNL     1       4.631 -18.178 -38.528  1.00  0.00     0.005 C 
ATOM     22  C   UNL     1       3.705 -19.317 -38.037  1.00  0.00     0.003 C 
ATOM     23  C   UNL     1       3.361 -21.810 -37.698  1.00  0.00     0.010 C 
ATOM     24  C   UNL     1       4.609 -21.027 -39.766  1.00  0.00     0.012 C 
ATOM     25  C   UNL     1       2.168 -19.120 -38.410  1.00  0.00    -0.006 C 
ATOM     26  C   UNL     1       1.927 -21.666 -38.206  1.00  0.00     0.033 C 
ATOM     27  C   UNL     1       1.343 -20.302 -37.815  1.00  0.00     0.120 C 
ATOM     28  C   UNL     1       1.662 -17.815 -37.731  1.00  0.00     0.014 C 
ATOM     29  C   UNL     1       1.856 -18.974 -39.931  1.00  0.00     0.014 C 
ENDROOT
BRANCH   1  30
ATOM     30  C   UNL     1      10.322 -23.043 -36.897  1.00  0.00     0.048 C 
ATOM     31  O   UNL     1      10.136 -23.991 -37.706  1.00  0.00    -0.550 OA
ATOM     32  O   UNL     1      10.162 -23.290 -35.537  1.00  0.00    -0.550 OA
ENDBRANCH   1  30
BRANCH  27  33
ATOM     33  O   UNL     1       0.001 -20.229 -38.231  1.00  0.00    -0.393 OA
ATOM     34  H   UNL     1      -0.524 -19.881 -37.462  1.00  0.00     0.210 HD
ENDBRANCH  27  33
TORSDOF 2
ENDMDL
MODEL 6
REMARK VINA RESULT:    -6.339      2.893      8.094
REMARK INTER + INTRA:          -7.162
REMARK INTER:                  -6.913
REMARK INTRA:                  -0.249
REMARK UNBOUND:                -0.267
REMARK SMILES C[C@H]1[C@@H](C)CC[C@@]2(C(=O)[O-])CC[C@@]3(C)C(=CC[C@@H]4[C@@]5(C)CC[C@H](O)C(C)(C)[C@@H]5CC[C@@]43C)[C@@H]12
REMARK SMILES IDX 7 1 6 2 11 3 33 4 5 5 12 6 15 7 2 8 3 9 13 10 16 11 1 12
REMARK SMILES IDX 4 13 14 14 31 15 17 16 18 17 30 18 32 19 19 20 29 21 28 22
REMARK SMILES IDX 21 23 20 24 25 25 22 26 23 27 26 28 27 29 8 30 9 31 10 32
REMARK SMILES IDX 24 33
REMARK H PARENT 24 34
REMARK Flexibility Score: inf
ROOT
ATOM      1  C   UNL     1       8.834 -21.017 -37.372  1.00  0.00     0.017 C 
ATOM      2  C   UNL     1       9.566 -22.343 -37.789  1.00  0.00     0.014 C 
ATOM      3  C   UNL     1       9.399 -19.864 -38.273  1.00  0.00     0.014 C 
ATOM      4  C   UNL     1       7.243 -21.117 -37.441  1.00  0.00     0.030 C 
ATOM      5  C   UNL     1       8.667 -23.578 -37.827  1.00  0.00     0.004 C 
ATOM      6  C   UNL     1       8.638 -18.517 -38.200  1.00  0.00     0.013 C 
ATOM      7  C   UNL     1       6.592 -19.715 -37.488  1.00  0.00    -0.063 C 
ATOM      8  C   UNL     1       6.539 -22.283 -38.260  1.00  0.00    -0.003 C 
ATOM      9  C   UNL     1       7.495 -23.382 -38.796  1.00  0.00    -0.011 C 
ATOM     10  C   UNL     1       7.106 -18.639 -38.469  1.00  0.00    -0.006 C 
ATOM     11  C   UNL     1       6.002 -19.315 -36.347  1.00  0.00    -0.027 C 
ATOM     12  C   UNL     1       5.428 -21.894 -39.254  1.00  0.00     0.008 C 
ATOM     13  C   UNL     1       7.975 -23.175 -40.247  1.00  0.00     0.008 C 
ATOM     14  C   UNL     1       6.957 -19.155 -39.934  1.00  0.00     0.017 C 
ATOM     15  C   UNL     1       6.311 -17.211 -38.299  1.00  0.00    -0.020 C 
ATOM     16  C   UNL     1       6.321 -17.974 -35.788  1.00  0.00     0.032 C 
ATOM     17  C   UNL     1       5.969 -16.843 -36.770  1.00  0.00     0.006 C 
ATOM     18  C   UNL     1       4.986 -17.226 -39.133  1.00  0.00     0.008 C 
ATOM     19  C   UNL     1       7.194 -16.070 -38.911  1.00  0.00     0.012 C 
ATOM     20  C   UNL     1       4.526 -16.217 -36.456  1.00  0.00    -0.025 C 
ATOM     21  C   UNL     1       4.041 -16.016 -38.982  1.00  0.00     0.005 C 
ATOM     22  C   UNL     1       4.135 -15.263 -37.633  1.00  0.00     0.003 C 
ATOM     23  C   UNL     1       4.636 -15.366 -35.146  1.00  0.00     0.010 C 
ATOM     24  C   UNL     1       3.465 -17.340 -36.231  1.00  0.00     0.012 C 
ATOM     25  C   UNL     1       2.970 -14.203 -37.391  1.00  0.00    -0.006 C 
ATOM     26  C   UNL     1       3.422 -14.476 -34.880  1.00  0.00     0.033 C 
ATOM     27  C   UNL     1       3.212 -13.481 -36.029  1.00  0.00     0.120 C 
ATOM     28  C   UNL     1       3.050 -13.123 -38.507  1.00  0.00     0.014 C 
ATOM     29  C   UNL     1       1.519 -14.774 -37.433  1.00  0.00     0.014 C 
ENDROOT
BRANCH   1  30
ATOM     30  C   UNL     1       9.233 -20.743 -35.912  1.00  0.00     0.048 C 
ATOM     31  O   UNL     1       8.506 -21.097 -34.945  1.00  0.00    -0.550 OA
ATOM     32  O   UNL     1      10.435 -20.099 -35.637  1.00  0.00    -0.550 OA
ENDBRANCH   1  30
BRANCH  27  33
ATOM     33  O   UNL     1       2.136 -12.629 -35.722  1.00  0.00    -0.393 OA
ATOM     34  H   UNL     1       2.455 -11.996 -35.026  1.00  0.00     0.210 HD
ENDBRANCH  27  33
TORSDOF 2
ENDMDL
MODEL 7
REMARK VINA RESULT:    -6.233      2.988      5.075
REMARK INTER + INTRA:          -7.047
REMARK INTER:                  -7.059
REMARK INTRA:                   0.012
REMARK UNBOUND:                -0.267
REMARK SMILES C[C@H]1[C@@H](C)CC[C@@]2(C(=O)[O-])CC[C@@]3(C)C(=CC[C@@H]4[C@@]5(C)CC[C@H](O)C(C)(C)[C@@H]5CC[C@@]43C)[C@@H]12
REMARK SMILES IDX 7 1 6 2 11 3 33 4 5 5 12 6 15 7 2 8 3 9 13 10 16 11 1 12
REMARK SMILES IDX 4 13 14 14 31 15 17 16 18 17 30 18 32 19 19 20 29 21 28 22
REMARK SMILES IDX 21 23 20 24 25 25 22 26 23 27 26 28 27 29 8 30 9 31 10 32
REMARK SMILES IDX 24 33
REMARK H PARENT 24 34
REMARK Flexibility Score: inf
ROOT
ATOM      1  C   UNL     1       9.179 -20.356 -36.917  1.00  0.00     0.017 C 
ATOM      2  C   UNL     1       8.305 -20.879 -35.722  1.00  0.00     0.014 C 
ATOM      3  C   UNL     1      10.546 -19.866 -36.323  1.00  0.00     0.014 C 
ATOM      4  C   UNL     1       9.374 -21.426 -38.084  1.00  0.00     0.030 C 
ATOM      5  C   UNL     1       7.503 -22.143 -36.031  1.00  0.00     0.004 C 
ATOM      6  C   UNL     1      11.652 -19.540 -37.355  1.00  0.00     0.013 C 
ATOM      7  C   UNL     1      10.581 -21.069 -38.981  1.00  0.00    -0.063 C 
ATOM      8  C   UNL     1       9.079 -22.967 -37.828  1.00  0.00    -0.003 C 
ATOM      9  C   UNL     1       8.421 -23.294 -36.460  1.00  0.00    -0.011 C 
ATOM     10  C   UNL     1      11.945 -20.699 -38.359  1.00  0.00    -0.006 C 
ATOM     11  C   UNL     1      10.271 -20.571 -40.193  1.00  0.00    -0.027 C 
ATOM     12  C   UNL     1      10.153 -23.986 -38.254  1.00  0.00     0.008 C 
ATOM     13  C   UNL     1       9.408 -23.691 -35.343  1.00  0.00     0.008 C 
ATOM     14  C   UNL     1      12.471 -21.895 -37.507  1.00  0.00     0.017 C 
ATOM     15  C   UNL     1      13.059 -20.293 -39.496  1.00  0.00    -0.020 C 
ATOM     16  C   UNL     1      10.918 -19.314 -40.656  1.00  0.00     0.032 C 
ATOM     17  C   UNL     1      12.449 -19.445 -40.721  1.00  0.00     0.006 C 
ATOM     18  C   UNL     1      13.754 -21.580 -40.057  1.00  0.00     0.008 C 
ATOM     19  C   UNL     1      14.192 -19.454 -38.811  1.00  0.00     0.012 C 
ATOM     20  C   UNL     1      12.948 -19.805 -42.202  1.00  0.00    -0.025 C 
ATOM     21  C   UNL     1      14.732 -21.399 -41.235  1.00  0.00     0.005 C 
ATOM     22  C   UNL     1      14.469 -20.169 -42.136  1.00  0.00     0.003 C 
ATOM     23  C   UNL     1      12.782 -18.532 -43.098  1.00  0.00     0.010 C 
ATOM     24  C   UNL     1      12.094 -20.959 -42.815  1.00  0.00     0.012 C 
ATOM     25  C   UNL     1      15.308 -20.156 -43.491  1.00  0.00    -0.006 C 
ATOM     26  C   UNL     1      13.482 -18.632 -44.454  1.00  0.00     0.033 C 
ATOM     27  C   UNL     1      14.991 -18.845 -44.275  1.00  0.00     0.120 C 
ATOM     28  C   UNL     1      16.821 -20.125 -43.132  1.00  0.00     0.014 C 
ATOM     29  C   UNL     1      15.102 -21.389 -44.424  1.00  0.00     0.014 C 
ENDROOT
BRANCH   1  30
ATOM     30  C   UNL     1       8.433 -19.144 -37.501  1.00  0.00     0.048 C 
ATOM     31  O   UNL     1       9.039 -18.104 -37.874  1.00  0.00    -0.550 OA
ATOM     32  O   UNL     1       7.049 -19.191 -37.641  1.00  0.00    -0.550 OA
ENDBRANCH   1  30
BRANCH  27  33
ATOM     33  O   UNL     1      15.616 -18.858 -45.535  1.00  0.00    -0.393 OA
ATOM     34  H   UNL     1      15.713 -17.912 -45.822  1.00  0.00     0.210 HD
ENDBRANCH  27  33
TORSDOF 2
ENDMDL
MODEL 8
REMARK VINA RESULT:    -6.204      3.695      9.415
REMARK INTER + INTRA:          -7.015
REMARK INTER:                  -6.753
REMARK INTRA:                  -0.261
REMARK UNBOUND:                -0.267
REMARK SMILES C[C@H]1[C@@H](C)CC[C@@]2(C(=O)[O-])CC[C@@]3(C)C(=CC[C@@H]4[C@@]5(C)CC[C@H](O)C(C)(C)[C@@H]5CC[C@@]43C)[C@@H]12
REMARK SMILES IDX 7 1 6 2 11 3 33 4 5 5 12 6 15 7 2 8 3 9 13 10 16 11 1 12
REMARK SMILES IDX 4 13 14 14 31 15 17 16 18 17 30 18 32 19 19 20 29 21 28 22
REMARK SMILES IDX 21 23 20 24 25 25 22 26 23 27 26 28 27 29 8 30 9 31 10 32
REMARK SMILES IDX 24 33
REMARK H PARENT 24 34
REMARK Flexibility Score: inf
ROOT
ATOM      1  C   UNL     1       6.550 -19.736 -38.472  1.00  0.00     0.017 C 
ATOM      2  C   UNL     1       7.771 -20.451 -39.155  1.00  0.00     0.014 C 
ATOM      3  C   UNL     1       6.944 -19.456 -36.980  1.00  0.00     0.014 C 
ATOM      4  C   UNL     1       6.075 -18.416 -39.232  1.00  0.00     0.030 C 
ATOM      5  C   UNL     1       8.051 -19.995 -40.587  1.00  0.00     0.004 C 
ATOM      6  C   UNL     1       5.980 -18.536 -36.190  1.00  0.00     0.013 C 
ATOM      7  C   UNL     1       5.223 -17.512 -38.313  1.00  0.00    -0.063 C 
ATOM      8  C   UNL     1       7.024 -17.704 -40.290  1.00  0.00    -0.003 C 
ATOM      9  C   UNL     1       8.317 -18.486 -40.648  1.00  0.00    -0.011 C 
ATOM     10  C   UNL     1       5.699 -17.167 -36.885  1.00  0.00    -0.006 C 
ATOM     11  C   UNL     1       3.902 -17.513 -38.567  1.00  0.00    -0.027 C 
ATOM     12  C   UNL     1       7.241 -16.185 -40.153  1.00  0.00     0.008 C 
ATOM     13  C   UNL     1       9.564 -18.087 -39.834  1.00  0.00     0.008 C 
ATOM     14  C   UNL     1       7.067 -16.421 -36.956  1.00  0.00     0.017 C 
ATOM     15  C   UNL     1       4.607 -16.249 -36.069  1.00  0.00    -0.020 C 
ATOM     16  C   UNL     1       2.941 -17.732 -37.453  1.00  0.00     0.032 C 
ATOM     17  C   UNL     1       3.078 -16.661 -36.357  1.00  0.00     0.006 C 
ATOM     18  C   UNL     1       4.806 -14.736 -36.415  1.00  0.00     0.008 C 
ATOM     19  C   UNL     1       4.888 -16.382 -34.533  1.00  0.00     0.012 C 
ATOM     20  C   UNL     1       2.008 -15.481 -36.549  1.00  0.00    -0.025 C 
ATOM     21  C   UNL     1       3.776 -13.738 -35.845  1.00  0.00     0.005 C 
ATOM     22  C   UNL     1       2.371 -14.321 -35.562  1.00  0.00     0.003 C 
ATOM     23  C   UNL     1       0.595 -16.033 -36.163  1.00  0.00     0.010 C 
ATOM     24  C   UNL     1       1.966 -14.999 -38.033  1.00  0.00     0.012 C 
ATOM     25  C   UNL     1       1.258 -13.226 -35.242  1.00  0.00    -0.006 C 
ATOM     26  C   UNL     1      -0.476 -14.952 -36.017  1.00  0.00     0.033 C 
ATOM     27  C   UNL     1      -0.089 -13.946 -34.925  1.00  0.00     0.120 C 
ATOM     28  C   UNL     1       1.683 -12.454 -33.961  1.00  0.00     0.014 C 
ATOM     29  C   UNL     1       1.032 -12.151 -36.349  1.00  0.00     0.014 C 
ENDROOT
BRANCH   1  30
ATOM     30  C   UNL     1       5.389 -20.745 -38.495  1.00  0.00     0.048 C 
ATOM     31  O   UNL     1       5.150 -21.507 -37.521  1.00  0.00    -0.550 OA
ATOM     32  O   UNL     1       4.563 -20.816 -39.612  1.00  0.00    -0.550 OA
ENDBRANCH   1  30
BRANCH  27  33
ATOM     33  O   UNL     1      -1.125 -13.008 -34.762  1.00  0.00    -0.393 OA
ATOM     34  H   UNL     1      -1.268 -12.899 -33.785  1.00  0.00     0.210 HD
ENDBRANCH  27  33
TORSDOF 2
ENDMDL
MODEL 9
REMARK VINA RESULT:    -6.196      9.215     13.609
REMARK INTER + INTRA:          -7.006
REMARK INTER:                  -6.739
REMARK INTRA:                  -0.268
REMARK UNBOUND:                -0.267
REMARK SMILES C[C@H]1[C@@H](C)CC[C@@]2(C(=O)[O-])CC[C@@]3(C)C(=CC[C@@H]4[C@@]5(C)CC[C@H](O)C(C)(C)[C@@H]5CC[C@@]43C)[C@@H]12
REMARK SMILES IDX 7 1 6 2 11 3 33 4 5 5 12 6 15 7 2 8 3 9 13 10 16 11 1 12
REMARK SMILES IDX 4 13 14 14 31 15 17 16 18 17 30 18 32 19 19 20 29 21 28 22
REMARK SMILES IDX 21 23 20 24 25 25 22 26 23 27 26 28 27 29 8 30 9 31 10 32
REMARK SMILES IDX 24 33
REMARK H PARENT 24 34
REMARK Flexibility Score: inf
ROOT
ATOM      1  C   UNL     1      17.427 -17.075 -48.985  1.00  0.00     0.017 C 
ATOM      2  C   UNL     1      18.132 -18.203 -49.821  1.00  0.00     0.014 C 
ATOM      3  C   UNL     1      16.508 -16.266 -49.966  1.00  0.00     0.014 C 
ATOM      4  C   UNL     1      16.627 -17.623 -47.718  1.00  0.00     0.030 C 
ATOM      5  C   UNL     1      18.246 -19.546 -49.101  1.00  0.00     0.004 C 
ATOM      6  C   UNL     1      15.532 -15.264 -49.304  1.00  0.00     0.013 C 
ATOM      7  C   UNL     1      15.592 -16.590 -47.215  1.00  0.00    -0.063 C 
ATOM      8  C   UNL     1      16.244 -19.161 -47.605  1.00  0.00    -0.003 C 
ATOM      9  C   UNL     1      16.867 -20.078 -48.693  1.00  0.00    -0.011 C 
ATOM     10  C   UNL     1      14.628 -15.895 -48.199  1.00  0.00    -0.006 C 
ATOM     11  C   UNL     1      15.925 -15.948 -46.079  1.00  0.00    -0.027 C 
ATOM     12  C   UNL     1      14.785 -19.517 -47.261  1.00  0.00     0.008 C 
ATOM     13  C   UNL     1      15.965 -20.339 -49.916  1.00  0.00     0.008 C 
ATOM     14  C   UNL     1      13.747 -16.967 -48.913  1.00  0.00     0.017 C 
ATOM     15  C   UNL     1      13.665 -14.791 -47.454  1.00  0.00    -0.020 C 
ATOM     16  C   UNL     1      15.842 -14.464 -46.026  1.00  0.00     0.032 C 
ATOM     17  C   UNL     1      14.417 -13.957 -46.301  1.00  0.00     0.006 C 
ATOM     18  C   UNL     1      12.407 -15.495 -46.843  1.00  0.00     0.008 C 
ATOM     19  C   UNL     1      13.120 -13.792 -48.531  1.00  0.00     0.012 C 
ATOM     20  C   UNL     1      13.618 -13.676 -44.939  1.00  0.00    -0.025 C 
ATOM     21  C   UNL     1      11.461 -14.632 -45.984  1.00  0.00     0.005 C 
ATOM     22  C   UNL     1      12.116 -13.412 -45.293  1.00  0.00     0.003 C 
ATOM     23  C   UNL     1      14.205 -12.382 -44.283  1.00  0.00     0.010 C 
ATOM     24  C   UNL     1      13.786 -14.861 -43.937  1.00  0.00     0.012 C 
ATOM     25  C   UNL     1      11.196 -12.704 -44.201  1.00  0.00    -0.006 C 
ATOM     26  C   UNL     1      13.360 -11.827 -43.137  1.00  0.00     0.033 C 
ATOM     27  C   UNL     1      11.950 -11.466 -43.624  1.00  0.00     0.120 C 
ATOM     28  C   UNL     1       9.914 -12.176 -44.907  1.00  0.00     0.014 C 
ATOM     29  C   UNL     1      10.711 -13.617 -43.032  1.00  0.00     0.014 C 
ENDROOT
BRANCH   1  30
ATOM     30  C   UNL     1      18.545 -16.148 -48.479  1.00  0.00     0.048 C 
ATOM     31  O   UNL     1      19.125 -16.343 -47.377  1.00  0.00    -0.550 OA
ATOM     32  O   UNL     1      18.948 -15.067 -49.258  1.00  0.00    -0.550 OA
ENDBRANCH   1  30
BRANCH  27  33
ATOM     33  O   UNL     1      11.221 -10.890 -42.567  1.00  0.00    -0.393 OA
ATOM     34  H   UNL     1      10.928 -11.633 -41.977  1.00  0.00     0.210 HD
ENDBRANCH  27  33
TORSDOF 2
ENDMDL
