MODEL 1
REMARK VINA RESULT:    -4.416      0.000      0.000
REMARK INTER + INTRA:          -9.267
REMARK INTER:                  -7.514
REMARK INTRA:                  -1.753
REMARK UNBOUND:                -1.753
REMARK SMILES CCCCCCCCCCCCCC(=O)[O-]
REMARK SMILES IDX 8 1 9 2 10 3 11 4 12 5 13 6 14 7 15 8 16 9 7 10 6 11 5 12
REMARK SMILES IDX 4 13 3 14 2 15 1 16
REMARK H PARENT
REMARK Flexibility Score: inf
ROOT
ATOM      1  C   UNL     1      49.206  32.428  17.903  1.00  0.00     0.000 C 
ENDROOT
BRANCH   1   2
ATOM      2  C   UNL     1      49.047  33.685  17.022  1.00  0.00     0.000 C 
BRANCH   2   3
ATOM      3  C   UNL     1      47.580  33.977  16.673  1.00  0.00     0.000 C 
BRANCH   3   4
ATOM      4  C   UNL     1      47.338  33.858  15.164  1.00  0.00     0.000 C 
BRANCH   4   5
ATOM      5  C   UNL     1      48.666  33.877  14.392  1.00  0.00     0.006 C 
BRANCH   5   6
ATOM      6  C   UNL     1      48.691  32.847  13.255  1.00  0.00     0.053 C 
BRANCH   6   7
ATOM      7  C   UNL     1      48.871  33.498  11.918  1.00  0.00     0.041 C 
ATOM      8  O   UNL     1      47.870  33.762  11.202  1.00  0.00    -0.550 OA
ATOM      9  O   UNL     1      50.142  33.844  11.477  1.00  0.00    -0.550 OA
ENDBRANCH   6   7
ENDBRANCH   5   6
ENDBRANCH   4   5
ENDBRANCH   3   4
ENDBRANCH   2   3
ENDBRANCH   1   2
BRANCH   1  10
ATOM     10  C   UNL     1      47.877  31.709  18.206  1.00  0.00     0.000 C 
BRANCH  10  11
ATOM     11  C   UNL     1      47.734  30.309  17.580  1.00  0.00    -0.000 C 
BRANCH  11  12
ATOM     12  C   UNL     1      47.413  30.296  16.074  1.00  0.00    -0.000 C 
BRANCH  12  13
ATOM     13  C   UNL     1      48.400  29.443  15.260  1.00  0.00    -0.000 C 
BRANCH  13  14
ATOM     14  C   UNL     1      49.863  29.848  15.496  1.00  0.00    -0.000 C 
BRANCH  14  15
ATOM     15  C   UNL     1      50.759  28.652  15.854  1.00  0.00    -0.003 C 
ATOM     16  C   UNL     1      49.964  27.570  16.580  1.00  0.00     0.004 C 
ENDBRANCH  14  15
ENDBRANCH  13  14
ENDBRANCH  12  13
ENDBRANCH  11  12
ENDBRANCH  10  11
ENDBRANCH   1  10
TORSDOF 12
ENDMDL
MODEL 2
REMARK VINA RESULT:    -4.322      5.169      7.940
REMARK INTER + INTRA:          -9.107
REMARK INTER:                  -8.508
REMARK INTRA:                  -0.599
REMARK UNBOUND:                -1.753
REMARK SMILES CCCCCCCCCCCCCC(=O)[O-]
REMARK SMILES IDX 8 1 9 2 10 3 11 4 12 5 13 6 14 7 15 8 16 9 7 10 6 11 5 12
REMARK SMILES IDX 4 13 3 14 2 15 1 16
REMARK H PARENT
REMARK Flexibility Score: inf
ROOT
ATOM      1  C   UNL     1      46.527  35.771  12.502  1.00  0.00     0.000 C 
ENDROOT
BRANCH   1   2
ATOM      2  C   UNL     1      47.276  34.422  12.521  1.00  0.00     0.000 C 
BRANCH   2   3
ATOM      3  C   UNL     1      48.535  34.459  13.401  1.00  0.00     0.000 C 
BRANCH   3   4
ATOM      4  C   UNL     1      48.507  33.340  14.448  1.00  0.00     0.000 C 
BRANCH   4   5
ATOM      5  C   UNL     1      47.674  33.751  15.671  1.00  0.00     0.006 C 
BRANCH   5   6
ATOM      6  C   UNL     1      48.505  33.770  16.960  1.00  0.00     0.053 C 
BRANCH   6   7
ATOM      7  C   UNL     1      48.683  32.396  17.528  1.00  0.00     0.041 C 
ATOM      8  O   UNL     1      47.736  31.834  18.137  1.00  0.00    -0.550 OA
ATOM      9  O   UNL     1      49.886  31.722  17.356  1.00  0.00    -0.550 OA
ENDBRANCH   6   7
ENDBRANCH   5   6
ENDBRANCH   4   5
ENDBRANCH   3   4
ENDBRANCH   2   3
ENDBRANCH   1   2
BRANCH   1  10
ATOM     10  C   UNL     1      45.119  35.708  13.125  1.00  0.00     0.000 C 
BRANCH  10  11
ATOM     11  C   UNL     1      43.971  36.134  12.191  1.00  0.00    -0.000 C 
BRANCH  11  12
ATOM     12  C   UNL     1      42.642  36.465  12.896  1.00  0.00    -0.000 C 
BRANCH  12  13
ATOM     13  C   UNL     1      41.481  36.682  11.911  1.00  0.00    -0.000 C 
BRANCH  13  14
ATOM     14  C   UNL     1      41.584  35.781  10.671  1.00  0.00    -0.000 C 
BRANCH  14  15
ATOM     15  C   UNL     1      40.525  34.668  10.657  1.00  0.00    -0.003 C 
ATOM     16  C   UNL     1      39.678  34.702  11.927  1.00  0.00     0.004 C 
ENDBRANCH  14  15
ENDBRANCH  13  14
ENDBRANCH  12  13
ENDBRANCH  11  12
ENDBRANCH  10  11
ENDBRANCH   1  10
TORSDOF 12
ENDMDL
MODEL 3
REMARK VINA RESULT:    -4.279      4.453      7.612
REMARK INTER + INTRA:          -9.034
REMARK INTER:                  -8.311
REMARK INTRA:                  -0.723
REMARK UNBOUND:                -1.753
REMARK SMILES CCCCCCCCCCCCCC(=O)[O-]
REMARK SMILES IDX 8 1 9 2 10 3 11 4 12 5 13 6 14 7 15 8 16 9 7 10 6 11 5 12
REMARK SMILES IDX 4 13 3 14 2 15 1 16
REMARK H PARENT
REMARK Flexibility Score: inf
ROOT
ATOM      1  C   UNL     1      48.503  34.205  12.456  1.00  0.00     0.000 C 
ENDROOT
BRANCH   1   2
ATOM      2  C   UNL     1      48.891  34.512  13.918  1.00  0.00     0.000 C 
BRANCH   2   3
ATOM      3  C   UNL     1      48.271  33.520  14.912  1.00  0.00     0.000 C 
BRANCH   3   4
ATOM      4  C   UNL     1      48.144  34.144  16.307  1.00  0.00     0.000 C 
BRANCH   4   5
ATOM      5  C   UNL     1      48.764  33.232  17.376  1.00  0.00     0.006 C 
BRANCH   5   6
ATOM      6  C   UNL     1      48.984  31.803  16.864  1.00  0.00     0.053 C 
BRANCH   6   7
ATOM      7  C   UNL     1      48.031  30.833  17.494  1.00  0.00     0.041 C 
ATOM      8  O   UNL     1      47.526  31.082  18.620  1.00  0.00    -0.550 OA
ATOM      9  O   UNL     1      47.677  29.669  16.823  1.00  0.00    -0.550 OA
ENDBRANCH   6   7
ENDBRANCH   5   6
ENDBRANCH   4   5
ENDBRANCH   3   4
ENDBRANCH   2   3
ENDBRANCH   1   2
BRANCH   1  10
ATOM     10  C   UNL     1      47.000  34.374  12.163  1.00  0.00     0.000 C 
BRANCH  10  11
ATOM     11  C   UNL     1      46.401  35.729  12.584  1.00  0.00    -0.000 C 
BRANCH  11  12
ATOM     12  C   UNL     1      44.984  35.660  13.185  1.00  0.00    -0.000 C 
BRANCH  12  13
ATOM     13  C   UNL     1      43.893  36.105  12.196  1.00  0.00    -0.000 C 
BRANCH  13  14
ATOM     14  C   UNL     1      42.688  36.749  12.899  1.00  0.00    -0.000 C 
BRANCH  14  15
ATOM     15  C   UNL     1      41.918  37.717  11.988  1.00  0.00    -0.003 C 
ATOM     16  C   UNL     1      42.869  38.688  11.292  1.00  0.00     0.004 C 
ENDBRANCH  14  15
ENDBRANCH  13  14
ENDBRANCH  12  13
ENDBRANCH  11  12
ENDBRANCH  10  11
ENDBRANCH   1  10
TORSDOF 12
ENDMDL
MODEL 4
REMARK VINA RESULT:    -4.214      4.928      7.403
REMARK INTER + INTRA:          -8.923
REMARK INTER:                  -7.463
REMARK INTRA:                  -1.460
REMARK UNBOUND:                -1.753
REMARK SMILES CCCCCCCCCCCCCC(=O)[O-]
REMARK SMILES IDX 8 1 9 2 10 3 11 4 12 5 13 6 14 7 15 8 16 9 7 10 6 11 5 12
REMARK SMILES IDX 4 13 3 14 2 15 1 16
REMARK H PARENT
REMARK Flexibility Score: inf
ROOT
ATOM      1  C   UNL     1      48.220  25.552  19.922  1.00  0.00     0.000 C 
ENDROOT
BRANCH   1   2
ATOM      2  C   UNL     1      49.602  25.030  19.478  1.00  0.00     0.000 C 
BRANCH   2   3
ATOM      3  C   UNL     1      49.821  25.159  17.963  1.00  0.00     0.000 C 
BRANCH   3   4
ATOM      4  C   UNL     1      48.507  25.477  17.242  1.00  0.00     0.000 C 
BRANCH   4   5
ATOM      5  C   UNL     1      48.654  26.721  16.353  1.00  0.00     0.006 C 
BRANCH   5   6
ATOM      6  C   UNL     1      48.969  27.983  17.167  1.00  0.00     0.053 C 
BRANCH   6   7
ATOM      7  C   UNL     1      47.985  29.080  16.896  1.00  0.00     0.041 C 
ATOM      8  O   UNL     1      47.341  29.101  15.815  1.00  0.00    -0.550 OA
ATOM      9  O   UNL     1      47.757  30.062  17.853  1.00  0.00    -0.550 OA
ENDBRANCH   6   7
ENDBRANCH   5   6
ENDBRANCH   4   5
ENDBRANCH   3   4
ENDBRANCH   2   3
ENDBRANCH   1   2
BRANCH   1  10
ATOM     10  C   UNL     1      48.275  26.509  21.128  1.00  0.00     0.000 C 
BRANCH  10  11
ATOM     11  C   UNL     1      49.201  26.062  22.275  1.00  0.00    -0.000 C 
BRANCH  11  12
ATOM     12  C   UNL     1      50.034  27.187  22.919  1.00  0.00    -0.000 C 
BRANCH  12  13
ATOM     13  C   UNL     1      51.499  27.188  22.452  1.00  0.00    -0.000 C 
BRANCH  13  14
ATOM     14  C   UNL     1      52.086  25.772  22.351  1.00  0.00    -0.000 C 
BRANCH  14  15
ATOM     15  C   UNL     1      52.966  25.582  21.106  1.00  0.00    -0.003 C 
ATOM     16  C   UNL     1      52.831  26.768  20.154  1.00  0.00     0.004 C 
ENDBRANCH  14  15
ENDBRANCH  13  14
ENDBRANCH  12  13
ENDBRANCH  11  12
ENDBRANCH  10  11
ENDBRANCH   1  10
TORSDOF 12
ENDMDL
MODEL 5
REMARK VINA RESULT:    -4.209      8.332     10.736
REMARK INTER + INTRA:          -8.915
REMARK INTER:                  -7.478
REMARK INTRA:                  -1.437
REMARK UNBOUND:                -1.753
REMARK SMILES CCCCCCCCCCCCCC(=O)[O-]
REMARK SMILES IDX 8 1 9 2 10 3 11 4 12 5 13 6 14 7 15 8 16 9 7 10 6 11 5 12
REMARK SMILES IDX 4 13 3 14 2 15 1 16
REMARK H PARENT
REMARK Flexibility Score: inf
ROOT
ATOM      1  C   UNL     1      40.565  34.822  10.293  1.00  0.00     0.000 C 
ENDROOT
BRANCH   1   2
ATOM      2  C   UNL     1      39.883  34.597  11.659  1.00  0.00     0.000 C 
BRANCH   2   3
ATOM      3  C   UNL     1      39.034  35.800  12.098  1.00  0.00     0.000 C 
BRANCH   3   4
ATOM      4  C   UNL     1      39.621  36.460  13.351  1.00  0.00     0.000 C 
BRANCH   4   5
ATOM      5  C   UNL     1      39.018  37.855  13.572  1.00  0.00     0.006 C 
BRANCH   5   6
ATOM      6  C   UNL     1      39.982  38.796  14.306  1.00  0.00     0.053 C 
BRANCH   6   7
ATOM      7  C   UNL     1      39.621  40.235  14.100  1.00  0.00     0.041 C 
ATOM      8  O   UNL     1      40.521  41.091  13.895  1.00  0.00    -0.550 OA
ATOM      9  O   UNL     1      38.288  40.625  14.101  1.00  0.00    -0.550 OA
ENDBRANCH   6   7
ENDBRANCH   5   6
ENDBRANCH   4   5
ENDBRANCH   3   4
ENDBRANCH   2   3
ENDBRANCH   1   2
BRANCH   1  10
ATOM     10  C   UNL     1      40.684  36.306   9.895  1.00  0.00     0.000 C 
BRANCH  10  11
ATOM     11  C   UNL     1      42.110  36.886   9.951  1.00  0.00    -0.000 C 
BRANCH  11  12
ATOM     12  C   UNL     1      42.351  37.925  11.063  1.00  0.00    -0.000 C 
BRANCH  12  13
ATOM     13  C   UNL     1      42.833  37.293  12.379  1.00  0.00    -0.000 C 
BRANCH  13  14
ATOM     14  C   UNL     1      43.671  36.025  12.151  1.00  0.00    -0.000 C 
BRANCH  14  15
ATOM     15  C   UNL     1      44.758  35.832  13.218  1.00  0.00    -0.003 C 
ATOM     16  C   UNL     1      46.079  35.402  12.585  1.00  0.00     0.004 C 
ENDBRANCH  14  15
ENDBRANCH  13  14
ENDBRANCH  12  13
ENDBRANCH  11  12
ENDBRANCH  10  11
ENDBRANCH   1  10
TORSDOF 12
ENDMDL
MODEL 6
REMARK VINA RESULT:    -4.189     12.570     15.058
REMARK INTER + INTRA:          -8.881
REMARK INTER:                  -6.808
REMARK INTRA:                  -2.074
REMARK UNBOUND:                -1.753
REMARK SMILES CCCCCCCCCCCCCC(=O)[O-]
REMARK SMILES IDX 8 1 9 2 10 3 11 4 12 5 13 6 14 7 15 8 16 9 7 10 6 11 5 12
REMARK SMILES IDX 4 13 3 14 2 15 1 16
REMARK H PARENT
REMARK Flexibility Score: inf
ROOT
ATOM      1  C   UNL     1      37.210  38.900  23.832  1.00  0.00     0.000 C 
ENDROOT
BRANCH   1   2
ATOM      2  C   UNL     1      37.518  37.389  23.777  1.00  0.00     0.000 C 
BRANCH   2   3
ATOM      3  C   UNL     1      38.812  37.080  23.009  1.00  0.00     0.000 C 
BRANCH   3   4
ATOM      4  C   UNL     1      39.205  38.250  22.099  1.00  0.00     0.000 C 
BRANCH   4   5
ATOM      5  C   UNL     1      40.731  38.349  21.958  1.00  0.00     0.006 C 
BRANCH   5   6
ATOM      6  C   UNL     1      41.458  37.228  22.713  1.00  0.00     0.053 C 
BRANCH   6   7
ATOM      7  C   UNL     1      42.663  37.739  23.442  1.00  0.00     0.041 C 
ATOM      8  O   UNL     1      43.724  37.992  22.815  1.00  0.00    -0.550 OA
ATOM      9  O   UNL     1      42.602  37.967  24.812  1.00  0.00    -0.550 OA
ENDBRANCH   6   7
ENDBRANCH   5   6
ENDBRANCH   4   5
ENDBRANCH   3   4
ENDBRANCH   2   3
ENDBRANCH   1   2
BRANCH   1  10
ATOM     10  C   UNL     1      37.144  39.468  25.263  1.00  0.00     0.000 C 
BRANCH  10  11
ATOM     11  C   UNL     1      38.295  40.421  25.641  1.00  0.00    -0.000 C 
BRANCH  11  12
ATOM     12  C   UNL     1      39.704  39.923  25.269  1.00  0.00    -0.000 C 
BRANCH  12  13
ATOM     13  C   UNL     1      40.657  41.065  24.879  1.00  0.00    -0.000 C 
BRANCH  13  14
ATOM     14  C   UNL     1      39.943  42.198  24.125  1.00  0.00    -0.000 C 
BRANCH  14  15
ATOM     15  C   UNL     1      39.878  41.952  22.610  1.00  0.00    -0.003 C 
ATOM     16  C   UNL     1      38.433  41.938  22.118  1.00  0.00     0.004 C 
ENDBRANCH  14  15
ENDBRANCH  13  14
ENDBRANCH  12  13
ENDBRANCH  11  12
ENDBRANCH  10  11
ENDBRANCH   1  10
TORSDOF 12
ENDMDL
MODEL 7
REMARK VINA RESULT:    -4.177      3.387      5.813
REMARK INTER + INTRA:          -8.860
REMARK INTER:                  -7.673
REMARK INTRA:                  -1.186
REMARK UNBOUND:                -1.753
REMARK SMILES CCCCCCCCCCCCCC(=O)[O-]
REMARK SMILES IDX 8 1 9 2 10 3 11 4 12 5 13 6 14 7 15 8 16 9 7 10 6 11 5 12
REMARK SMILES IDX 4 13 3 14 2 15 1 16
REMARK H PARENT
REMARK Flexibility Score: inf
ROOT
ATOM      1  C   UNL     1      47.869  31.470  18.110  1.00  0.00     0.000 C 
ENDROOT
BRANCH   1   2
ATOM      2  C   UNL     1      47.724  30.095  17.425  1.00  0.00     0.000 C 
BRANCH   2   3
ATOM      3  C   UNL     1      47.384  30.214  15.931  1.00  0.00     0.000 C 
BRANCH   3   4
ATOM      4  C   UNL     1      48.334  29.364  15.081  1.00  0.00     0.000 C 
BRANCH   4   5
ATOM      5  C   UNL     1      49.062  28.323  15.945  1.00  0.00     0.006 C 
BRANCH   5   6
ATOM      6  C   UNL     1      49.661  27.187  15.105  1.00  0.00     0.053 C 
BRANCH   6   7
ATOM      7  C   UNL     1      48.775  25.979  15.091  1.00  0.00     0.041 C 
ATOM      8  O   UNL     1      49.158  24.919  14.530  1.00  0.00    -0.550 OA
ATOM      9  O   UNL     1      47.540  26.014  15.726  1.00  0.00    -0.550 OA
ENDBRANCH   6   7
ENDBRANCH   5   6
ENDBRANCH   4   5
ENDBRANCH   3   4
ENDBRANCH   2   3
ENDBRANCH   1   2
BRANCH   1  10
ATOM     10  C   UNL     1      49.164  32.217  17.737  1.00  0.00     0.000 C 
BRANCH  10  11
ATOM     11  C   UNL     1      48.958  33.583  17.056  1.00  0.00    -0.000 C 
BRANCH  11  12
ATOM     12  C   UNL     1      47.498  33.921  16.697  1.00  0.00    -0.000 C 
BRANCH  12  13
ATOM     13  C   UNL     1      47.255  33.981  15.180  1.00  0.00    -0.000 C 
BRANCH  13  14
ATOM     14  C   UNL     1      48.552  33.837  14.368  1.00  0.00    -0.000 C 
BRANCH  14  15
ATOM     15  C   UNL     1      48.386  34.271  12.904  1.00  0.00    -0.003 C 
ATOM     16  C   UNL     1      49.528  33.736  12.042  1.00  0.00     0.004 C 
ENDBRANCH  14  15
ENDBRANCH  13  14
ENDBRANCH  12  13
ENDBRANCH  11  12
ENDBRANCH  10  11
ENDBRANCH   1  10
TORSDOF 12
ENDMDL
MODEL 8
REMARK VINA RESULT:    -4.170     12.656     14.899
REMARK INTER + INTRA:          -8.849
REMARK INTER:                  -6.848
REMARK INTRA:                  -2.001
REMARK UNBOUND:                -1.753
REMARK SMILES CCCCCCCCCCCCCC(=O)[O-]
REMARK SMILES IDX 8 1 9 2 10 3 11 4 12 5 13 6 14 7 15 8 16 9 7 10 6 11 5 12
REMARK SMILES IDX 4 13 3 14 2 15 1 16
REMARK H PARENT
REMARK Flexibility Score: inf
ROOT
ATOM      1  C   UNL     1      38.401  36.940  23.029  1.00  0.00     0.000 C 
ENDROOT
BRANCH   1   2
ATOM      2  C   UNL     1      37.439  37.751  23.922  1.00  0.00     0.000 C 
BRANCH   2   3
ATOM      3  C   UNL     1      37.823  39.236  24.004  1.00  0.00     0.000 C 
BRANCH   3   4
ATOM      4  C   UNL     1      38.629  39.527  25.275  1.00  0.00     0.000 C 
BRANCH   4   5
ATOM      5  C   UNL     1      39.280  40.916  25.207  1.00  0.00     0.006 C 
BRANCH   5   6
ATOM      6  C   UNL     1      40.678  40.934  25.840  1.00  0.00     0.053 C 
BRANCH   6   7
ATOM      7  C   UNL     1      41.445  42.164  25.460  1.00  0.00     0.041 C 
ATOM      8  O   UNL     1      41.444  42.568  24.269  1.00  0.00    -0.550 OA
ATOM      9  O   UNL     1      42.134  42.882  26.430  1.00  0.00    -0.550 OA
ENDBRANCH   6   7
ENDBRANCH   5   6
ENDBRANCH   4   5
ENDBRANCH   3   4
ENDBRANCH   2   3
ENDBRANCH   1   2
BRANCH   1  10
ATOM     10  C   UNL     1      39.529  36.237  23.808  1.00  0.00     0.000 C 
BRANCH  10  11
ATOM     11  C   UNL     1      40.852  37.021  23.891  1.00  0.00    -0.000 C 
BRANCH  11  12
ATOM     12  C   UNL     1      41.781  36.868  22.671  1.00  0.00    -0.000 C 
BRANCH  12  13
ATOM     13  C   UNL     1      41.746  38.090  21.738  1.00  0.00    -0.000 C 
BRANCH  13  14
ATOM     14  C   UNL     1      41.544  39.409  22.500  1.00  0.00    -0.000 C 
BRANCH  14  15
ATOM     15  C   UNL     1      40.554  40.352  21.800  1.00  0.00    -0.003 C 
ATOM     16  C   UNL     1      39.690  39.594  20.796  1.00  0.00     0.004 C 
ENDBRANCH  14  15
ENDBRANCH  13  14
ENDBRANCH  12  13
ENDBRANCH  11  12
ENDBRANCH  10  11
ENDBRANCH   1  10
TORSDOF 12
ENDMDL
MODEL 9
REMARK VINA RESULT:    -4.146     12.120     14.732
REMARK INTER + INTRA:          -8.808
REMARK INTER:                  -7.145
REMARK INTRA:                  -1.663
REMARK UNBOUND:                -1.753
REMARK SMILES CCCCCCCCCCCCCC(=O)[O-]
REMARK SMILES IDX 8 1 9 2 10 3 11 4 12 5 13 6 14 7 15 8 16 9 7 10 6 11 5 12
REMARK SMILES IDX 4 13 3 14 2 15 1 16
REMARK H PARENT
REMARK Flexibility Score: inf
ROOT
ATOM      1  C   UNL     1      37.712  38.962  22.881  1.00  0.00     0.000 C 
ENDROOT
BRANCH   1   2
ATOM      2  C   UNL     1      38.300  38.020  23.953  1.00  0.00     0.000 C 
BRANCH   2   3
ATOM      3  C   UNL     1      38.647  36.633  23.391  1.00  0.00     0.000 C 
BRANCH   3   4
ATOM      4  C   UNL     1      39.893  36.059  24.075  1.00  0.00     0.000 C 
BRANCH   4   5
ATOM      5  C   UNL     1      41.055  37.062  24.034  1.00  0.00     0.006 C 
BRANCH   5   6
ATOM      6  C   UNL     1      41.573  37.294  22.609  1.00  0.00     0.053 C 
BRANCH   6   7
ATOM      7  C   UNL     1      42.689  38.293  22.577  1.00  0.00     0.041 C 
ATOM      8  O   UNL     1      43.873  37.928  22.800  1.00  0.00    -0.550 OA
ATOM      9  O   UNL     1      42.425  39.622  22.269  1.00  0.00    -0.550 OA
ENDBRANCH   6   7
ENDBRANCH   5   6
ENDBRANCH   4   5
ENDBRANCH   3   4
ENDBRANCH   2   3
ENDBRANCH   1   2
BRANCH   1  10
ATOM     10  C   UNL     1      38.501  38.966  21.558  1.00  0.00     0.000 C 
BRANCH  10  11
ATOM     11  C   UNL     1      39.226  40.286  21.234  1.00  0.00    -0.000 C 
BRANCH  11  12
ATOM     12  C   UNL     1      38.591  41.549  21.846  1.00  0.00    -0.000 C 
BRANCH  12  13
ATOM     13  C   UNL     1      39.506  42.242  22.869  1.00  0.00    -0.000 C 
BRANCH  13  14
ATOM     14  C   UNL     1      38.877  42.314  24.269  1.00  0.00    -0.000 C 
BRANCH  14  15
ATOM     15  C   UNL     1      39.880  41.992  25.387  1.00  0.00    -0.003 C 
ATOM     16  C   UNL     1      40.641  40.703  25.086  1.00  0.00     0.004 C 
ENDBRANCH  14  15
ENDBRANCH  13  14
ENDBRANCH  12  13
ENDBRANCH  11  12
ENDBRANCH  10  11
ENDBRANCH   1  10
TORSDOF 12
ENDMDL
