MODEL 1
REMARK VINA RESULT:    -6.484      0.000      0.000
REMARK INTER + INTRA:          -7.910
REMARK INTER:                  -7.621
REMARK INTRA:                  -0.289
REMARK UNBOUND:                -0.289
REMARK SMILES O=c1c(O)c(-c2ccc(O)cc2)oc2cc(O)cc(O)c12
REMARK SMILES IDX 5 1 3 2 2 3 1 4 21 5 19 6 18 7 16 8 15 9 14 10 13 11 6 12
REMARK SMILES IDX 7 13 8 14 9 15 12 16 11 17 10 18 4 20 20 22 17 24
REMARK H PARENT 10 19 4 21 20 23 17 25
REMARK Flexibility Score: inf
ROOT
ATOM      1  C   UNL     1       7.237  15.631  21.741  1.00  0.00     0.180 A 
ATOM      2  C   UNL     1       8.431  15.555  21.005  1.00  0.00     0.208 A 
ATOM      3  C   UNL     1       8.918  16.712  20.375  1.00  0.00     0.238 A 
ATOM      4  O   UNL     1       9.959  16.625  19.671  1.00  0.00    -0.285 OA
ATOM      5  C   UNL     1       8.214  17.933  20.503  1.00  0.00     0.111 A 
ATOM      6  C   UNL     1       8.636  19.176  19.941  1.00  0.00     0.134 A 
ATOM      7  C   UNL     1       7.794  20.292  20.021  1.00  0.00     0.093 A 
ATOM      8  C   UNL     1       6.573  20.227  20.699  1.00  0.00     0.123 A 
ATOM      9  C   UNL     1       6.181  19.034  21.302  1.00  0.00     0.094 A 
ATOM     10  C   UNL     1       6.983  17.894  21.209  1.00  0.00     0.146 A 
ATOM     11  O   UNL     1       6.565  16.776  21.788  1.00  0.00    -0.452 OA
ENDROOT
BRANCH   1  12
ATOM     12  C   UNL     1       6.675  14.462  22.453  1.00  0.00     0.021 A 
ATOM     13  C   UNL     1       7.074  14.198  23.775  1.00  0.00     0.016 A 
ATOM     14  C   UNL     1       6.571  13.085  24.458  1.00  0.00     0.047 A 
ATOM     15  C   UNL     1       5.677  12.217  23.826  1.00  0.00     0.115 A 
ATOM     16  C   UNL     1       5.789  13.572  21.817  1.00  0.00     0.016 A 
ATOM     17  C   UNL     1       5.289  12.461  22.502  1.00  0.00     0.047 A 
BRANCH  15  18
ATOM     18  O   UNL     1       5.184  11.114  24.519  1.00  0.00    -0.508 OA
ATOM     19  H   UNL     1       5.436  10.938  25.485  1.00  0.00     0.293 HD
ENDBRANCH  15  18
ENDBRANCH   1  12
BRANCH   2  20
ATOM     20  O   UNL     1       9.100  14.336  20.872  1.00  0.00    -0.502 OA
ATOM     21  H   UNL     1       8.876  13.527  21.440  1.00  0.00     0.293 HD
ENDBRANCH   2  20
BRANCH   6  22
ATOM     22  O   UNL     1       9.874  19.371  19.323  1.00  0.00    -0.507 OA
ATOM     23  H   UNL     1      10.601  19.979  19.671  1.00  0.00     0.293 HD
ENDBRANCH   6  22
BRANCH   8  24
ATOM     24  O   UNL     1       5.750  21.346  20.787  1.00  0.00    -0.508 OA
ATOM     25  H   UNL     1       4.831  21.364  20.360  1.00  0.00     0.293 HD
ENDBRANCH   8  24
TORSDOF 5
ENDMDL
MODEL 2
REMARK VINA RESULT:    -6.466      0.337      1.107
REMARK INTER + INTRA:          -7.890
REMARK INTER:                  -7.590
REMARK INTRA:                  -0.300
REMARK UNBOUND:                -0.289
REMARK SMILES O=c1c(O)c(-c2ccc(O)cc2)oc2cc(O)cc(O)c12
REMARK SMILES IDX 5 1 3 2 2 3 1 4 21 5 19 6 18 7 16 8 15 9 14 10 13 11 6 12
REMARK SMILES IDX 7 13 8 14 9 15 12 16 11 17 10 18 4 20 20 22 17 24
REMARK H PARENT 10 19 4 21 20 23 17 25
REMARK Flexibility Score: inf
ROOT
ATOM      1  C   UNL     1       7.318  15.641  21.697  1.00  0.00     0.180 A 
ATOM      2  C   UNL     1       8.570  15.634  21.061  1.00  0.00     0.208 A 
ATOM      3  C   UNL     1       8.986  16.781  20.364  1.00  0.00     0.238 A 
ATOM      4  O   UNL     1      10.084  16.750  19.750  1.00  0.00    -0.285 OA
ATOM      5  C   UNL     1       8.152  17.924  20.327  1.00  0.00     0.111 A 
ATOM      6  C   UNL     1       8.489  19.153  19.685  1.00  0.00     0.134 A 
ATOM      7  C   UNL     1       7.534  20.173  19.600  1.00  0.00     0.093 A 
ATOM      8  C   UNL     1       6.274  20.032  20.190  1.00  0.00     0.123 A 
ATOM      9  C   UNL     1       5.957  18.859  20.870  1.00  0.00     0.094 A 
ATOM     10  C   UNL     1       6.877  17.810  20.941  1.00  0.00     0.146 A 
ATOM     11  O   UNL     1       6.530  16.705  21.590  1.00  0.00    -0.452 OA
ENDROOT
BRANCH   1  12
ATOM     12  C   UNL     1       6.821  14.481  22.472  1.00  0.00     0.021 A 
ATOM     13  C   UNL     1       5.986  13.538  21.848  1.00  0.00     0.016 A 
ATOM     14  C   UNL     1       5.488  12.447  22.568  1.00  0.00     0.047 A 
ATOM     15  C   UNL     1       5.806  12.292  23.920  1.00  0.00     0.115 A 
ATOM     16  C   UNL     1       7.121  14.330  23.839  1.00  0.00     0.016 A 
ATOM     17  C   UNL     1       6.621  13.238  24.556  1.00  0.00     0.047 A 
BRANCH  15  18
ATOM     18  O   UNL     1       5.303  11.200  24.624  1.00  0.00    -0.508 OA
ATOM     19  H   UNL     1       5.886  10.663  25.256  1.00  0.00     0.293 HD
ENDBRANCH  15  18
ENDBRANCH   1  12
BRANCH   2  20
ATOM     20  O   UNL     1       9.368  14.489  21.091  1.00  0.00    -0.502 OA
ATOM     21  H   UNL     1      10.175  14.401  21.698  1.00  0.00     0.293 HD
ENDBRANCH   2  20
BRANCH   6  22
ATOM     22  O   UNL     1       9.748  19.431  19.144  1.00  0.00    -0.507 OA
ATOM     23  H   UNL     1       9.919  19.672  18.179  1.00  0.00     0.293 HD
ENDBRANCH   6  22
BRANCH   8  24
ATOM     24  O   UNL     1       5.336  21.058  20.114  1.00  0.00    -0.508 OA
ATOM     25  H   UNL     1       4.348  20.866  19.992  1.00  0.00     0.293 HD
ENDBRANCH   8  24
TORSDOF 5
ENDMDL
MODEL 3
REMARK VINA RESULT:    -5.132      1.977      6.382
REMARK INTER + INTRA:          -6.321
REMARK INTER:                  -6.020
REMARK INTRA:                  -0.301
REMARK UNBOUND:                -0.289
REMARK SMILES O=c1c(O)c(-c2ccc(O)cc2)oc2cc(O)cc(O)c12
REMARK SMILES IDX 5 1 3 2 2 3 1 4 21 5 19 6 18 7 16 8 15 9 14 10 13 11 6 12
REMARK SMILES IDX 7 13 8 14 9 15 12 16 11 17 10 18 4 20 20 22 17 24
REMARK H PARENT 10 19 4 21 20 23 17 25
REMARK Flexibility Score: inf
ROOT
ATOM      1  C   UNL     1       8.258  17.950  21.206  1.00  0.00     0.180 A 
ATOM      2  C   UNL     1       8.958  17.378  20.132  1.00  0.00     0.208 A 
ATOM      3  C   UNL     1       8.722  16.033  19.804  1.00  0.00     0.238 A 
ATOM      4  O   UNL     1       9.392  15.510  18.875  1.00  0.00    -0.285 OA
ATOM      5  C   UNL     1       7.776  15.283  20.543  1.00  0.00     0.111 A 
ATOM      6  C   UNL     1       7.427  13.926  20.273  1.00  0.00     0.134 A 
ATOM      7  C   UNL     1       6.576  13.243  21.150  1.00  0.00     0.093 A 
ATOM      8  C   UNL     1       6.008  13.890  22.252  1.00  0.00     0.123 A 
ATOM      9  C   UNL     1       6.295  15.231  22.490  1.00  0.00     0.094 A 
ATOM     10  C   UNL     1       7.170  15.929  21.653  1.00  0.00     0.146 A 
ATOM     11  O   UNL     1       7.425  17.203  21.922  1.00  0.00    -0.452 OA
ENDROOT
BRANCH   1  12
ATOM     12  C   UNL     1       8.434  19.368  21.597  1.00  0.00     0.021 A 
ATOM     13  C   UNL     1       9.361  19.700  22.600  1.00  0.00     0.016 A 
ATOM     14  C   UNL     1       9.527  21.030  22.999  1.00  0.00     0.047 A 
ATOM     15  C   UNL     1       8.760  22.041  22.413  1.00  0.00     0.115 A 
ATOM     16  C   UNL     1       7.651  20.388  21.025  1.00  0.00     0.016 A 
ATOM     17  C   UNL     1       7.819  21.717  21.427  1.00  0.00     0.047 A 
BRANCH  15  18
ATOM     18  O   UNL     1       8.936  23.362  22.820  1.00  0.00    -0.508 OA
ATOM     19  H   UNL     1       8.179  23.895  23.232  1.00  0.00     0.293 HD
ENDBRANCH  15  18
ENDBRANCH   1  12
BRANCH   2  20
ATOM     20  O   UNL     1       9.904  18.129  19.429  1.00  0.00    -0.502 OA
ATOM     21  H   UNL     1      10.289  18.994  19.787  1.00  0.00     0.293 HD
ENDBRANCH   2  20
BRANCH   6  22
ATOM     22  O   UNL     1       7.866  13.217  19.151  1.00  0.00    -0.507 OA
ATOM     23  H   UNL     1       8.001  13.616  18.235  1.00  0.00     0.293 HD
ENDBRANCH   6  22
BRANCH   8  24
ATOM     24  O   UNL     1       5.149  13.208  23.110  1.00  0.00    -0.508 OA
ATOM     25  H   UNL     1       5.488  12.754  23.951  1.00  0.00     0.293 HD
ENDBRANCH   8  24
TORSDOF 5
ENDMDL
MODEL 4
REMARK VINA RESULT:    -4.958      2.208      3.456
REMARK INTER + INTRA:          -6.116
REMARK INTER:                  -5.883
REMARK INTRA:                  -0.233
REMARK UNBOUND:                -0.289
REMARK SMILES O=c1c(O)c(-c2ccc(O)cc2)oc2cc(O)cc(O)c12
REMARK SMILES IDX 5 1 3 2 2 3 1 4 21 5 19 6 18 7 16 8 15 9 14 10 13 11 6 12
REMARK SMILES IDX 7 13 8 14 9 15 12 16 11 17 10 18 4 20 20 22 17 24
REMARK H PARENT 10 19 4 21 20 23 17 25
REMARK Flexibility Score: inf
ROOT
ATOM      1  C   UNL     1       7.658  17.696  21.034  1.00  0.00     0.180 A 
ATOM      2  C   UNL     1       6.947  18.404  20.051  1.00  0.00     0.208 A 
ATOM      3  C   UNL     1       7.359  19.705  19.717  1.00  0.00     0.238 A 
ATOM      4  O   UNL     1       6.685  20.355  18.875  1.00  0.00    -0.285 OA
ATOM      5  C   UNL     1       8.485  20.274  20.359  1.00  0.00     0.111 A 
ATOM      6  C   UNL     1       9.014  21.568  20.070  1.00  0.00     0.134 A 
ATOM      7  C   UNL     1      10.052  22.081  20.858  1.00  0.00     0.093 A 
ATOM      8  C   UNL     1      10.624  21.319  21.882  1.00  0.00     0.123 A 
ATOM      9  C   UNL     1      10.153  20.033  22.131  1.00  0.00     0.094 A 
ATOM     10  C   UNL     1       9.095  19.507  21.386  1.00  0.00     0.146 A 
ATOM     11  O   UNL     1       8.670  18.281  21.664  1.00  0.00    -0.452 OA
ENDROOT
BRANCH   1  12
ATOM     12  C   UNL     1       7.301  16.312  21.422  1.00  0.00     0.021 A 
ATOM     13  C   UNL     1       8.058  15.237  20.926  1.00  0.00     0.016 A 
ATOM     14  C   UNL     1       7.723  13.921  21.263  1.00  0.00     0.047 A 
ATOM     15  C   UNL     1       6.623  13.663  22.085  1.00  0.00     0.115 A 
ATOM     16  C   UNL     1       6.182  16.044  22.233  1.00  0.00     0.016 A 
ATOM     17  C   UNL     1       5.850  14.727  22.567  1.00  0.00     0.047 A 
BRANCH  15  18
ATOM     18  O   UNL     1       6.302  12.347  22.412  1.00  0.00    -0.508 OA
ATOM     19  H   UNL     1       5.563  12.130  23.071  1.00  0.00     0.293 HD
ENDBRANCH  15  18
ENDBRANCH   1  12
BRANCH   2  20
ATOM     20  O   UNL     1       5.825  17.833  19.445  1.00  0.00    -0.502 OA
ATOM     21  H   UNL     1       5.466  16.924  19.711  1.00  0.00     0.293 HD
ENDBRANCH   2  20
BRANCH   6  22
ATOM     22  O   UNL     1       8.578  22.371  19.013  1.00  0.00    -0.507 OA
ATOM     23  H   UNL     1       8.099  23.253  19.121  1.00  0.00     0.293 HD
ENDBRANCH   6  22
BRANCH   8  24
ATOM     24  O   UNL     1      11.666  21.831  22.650  1.00  0.00    -0.508 OA
ATOM     25  H   UNL     1      11.515  22.166  23.594  1.00  0.00     0.293 HD
ENDBRANCH   8  24
TORSDOF 5
ENDMDL
MODEL 5
REMARK VINA RESULT:    -4.868      2.774      4.776
REMARK INTER + INTRA:          -6.011
REMARK INTER:                  -5.711
REMARK INTRA:                  -0.300
REMARK UNBOUND:                -0.289
REMARK SMILES O=c1c(O)c(-c2ccc(O)cc2)oc2cc(O)cc(O)c12
REMARK SMILES IDX 5 1 3 2 2 3 1 4 21 5 19 6 18 7 16 8 15 9 14 10 13 11 6 12
REMARK SMILES IDX 7 13 8 14 9 15 12 16 11 17 10 18 4 20 20 22 17 24
REMARK H PARENT 10 19 4 21 20 23 17 25
REMARK Flexibility Score: inf
ROOT
ATOM      1  C   UNL     1       7.921  18.507  21.333  1.00  0.00     0.180 A 
ATOM      2  C   UNL     1       6.791  19.121  21.898  1.00  0.00     0.208 A 
ATOM      3  C   UNL     1       6.907  20.424  22.406  1.00  0.00     0.238 A 
ATOM      4  O   UNL     1       5.905  20.949  22.960  1.00  0.00    -0.285 OA
ATOM      5  C   UNL     1       8.147  21.103  22.329  1.00  0.00     0.111 A 
ATOM      6  C   UNL     1       8.368  22.441  22.775  1.00  0.00     0.134 A 
ATOM      7  C   UNL     1       9.667  22.965  22.769  1.00  0.00     0.093 A 
ATOM      8  C   UNL     1      10.741  22.223  22.271  1.00  0.00     0.123 A 
ATOM      9  C   UNL     1      10.524  20.939  21.777  1.00  0.00     0.094 A 
ATOM     10  C   UNL     1       9.246  20.375  21.804  1.00  0.00     0.146 A 
ATOM     11  O   UNL     1       9.086  19.144  21.334  1.00  0.00    -0.452 OA
ENDROOT
BRANCH   1  12
ATOM     12  C   UNL     1       7.871  17.145  20.754  1.00  0.00     0.021 A 
ATOM     13  C   UNL     1       8.234  16.042  21.546  1.00  0.00     0.016 A 
ATOM     14  C   UNL     1       8.215  14.749  21.011  1.00  0.00     0.047 A 
ATOM     15  C   UNL     1       7.849  14.545  19.678  1.00  0.00     0.115 A 
ATOM     16  C   UNL     1       7.524  16.934  19.407  1.00  0.00     0.016 A 
ATOM     17  C   UNL     1       7.507  15.640  18.875  1.00  0.00     0.047 A 
BRANCH  15  18
ATOM     18  O   UNL     1       7.835  13.252  19.159  1.00  0.00    -0.508 OA
ATOM     19  H   UNL     1       8.312  12.488  19.625  1.00  0.00     0.293 HD
ENDBRANCH  15  18
ENDBRANCH   1  12
BRANCH   2  20
ATOM     20  O   UNL     1       5.582  18.425  21.985  1.00  0.00    -0.502 OA
ATOM     21  H   UNL     1       4.715  18.790  21.607  1.00  0.00     0.293 HD
ENDBRANCH   2  20
BRANCH   6  22
ATOM     22  O   UNL     1       7.351  23.298  23.206  1.00  0.00    -0.507 OA
ATOM     23  H   UNL     1       7.149  23.510  24.171  1.00  0.00     0.293 HD
ENDBRANCH   6  22
BRANCH   8  24
ATOM     24  O   UNL     1      12.026  22.758  22.253  1.00  0.00    -0.508 OA
ATOM     25  H   UNL     1      12.474  23.093  23.098  1.00  0.00     0.293 HD
ENDBRANCH   8  24
TORSDOF 5
ENDMDL
MODEL 6
REMARK VINA RESULT:    -4.762      3.046      4.763
REMARK INTER + INTRA:          -5.886
REMARK INTER:                  -5.872
REMARK INTRA:                  -0.014
REMARK UNBOUND:                -0.289
REMARK SMILES O=c1c(O)c(-c2ccc(O)cc2)oc2cc(O)cc(O)c12
REMARK SMILES IDX 5 1 3 2 2 3 1 4 21 5 19 6 18 7 16 8 15 9 14 10 13 11 6 12
REMARK SMILES IDX 7 13 8 14 9 15 12 16 11 17 10 18 4 20 20 22 17 24
REMARK H PARENT 10 19 4 21 20 23 17 25
REMARK Flexibility Score: inf
ROOT
ATOM      1  C   UNL     1       8.861  19.124  21.219  1.00  0.00     0.180 A 
ATOM      2  C   UNL     1       9.259  19.984  20.183  1.00  0.00     0.208 A 
ATOM      3  C   UNL     1       9.499  21.337  20.475  1.00  0.00     0.238 A 
ATOM      4  O   UNL     1       9.803  22.115  19.533  1.00  0.00    -0.285 OA
ATOM      5  C   UNL     1       9.353  21.807  21.802  1.00  0.00     0.111 A 
ATOM      6  C   UNL     1       9.609  23.148  22.220  1.00  0.00     0.134 A 
ATOM      7  C   UNL     1       9.306  23.533  23.532  1.00  0.00     0.093 A 
ATOM      8  C   UNL     1       8.818  22.608  24.460  1.00  0.00     0.123 A 
ATOM      9  C   UNL     1       8.622  21.283  24.077  1.00  0.00     0.094 A 
ATOM     10  C   UNL     1       8.881  20.877  22.765  1.00  0.00     0.146 A 
ATOM     11  O   UNL     1       8.670  19.608  22.441  1.00  0.00    -0.452 OA
ENDROOT
BRANCH   1  12
ATOM     12  C   UNL     1       8.614  17.681  20.994  1.00  0.00     0.021 A 
ATOM     13  C   UNL     1       7.431  17.097  21.479  1.00  0.00     0.016 A 
ATOM     14  C   UNL     1       7.189  15.731  21.297  1.00  0.00     0.047 A 
ATOM     15  C   UNL     1       8.130  14.932  20.642  1.00  0.00     0.115 A 
ATOM     16  C   UNL     1       9.566  16.866  20.354  1.00  0.00     0.016 A 
ATOM     17  C   UNL     1       9.321  15.501  20.174  1.00  0.00     0.047 A 
BRANCH  15  18
ATOM     18  O   UNL     1       7.875  13.573  20.467  1.00  0.00    -0.508 OA
ATOM     19  H   UNL     1       7.745  13.173  19.545  1.00  0.00     0.293 HD
ENDBRANCH  15  18
ENDBRANCH   1  12
BRANCH   2  20
ATOM     20  O   UNL     1       9.376  19.505  18.876  1.00  0.00    -0.502 OA
ATOM     21  H   UNL     1       9.195  20.085  18.064  1.00  0.00     0.293 HD
ENDBRANCH   2  20
BRANCH   6  22
ATOM     22  O   UNL     1      10.180  24.125  21.400  1.00  0.00    -0.507 OA
ATOM     23  H   UNL     1      10.092  25.120  21.543  1.00  0.00     0.293 HD
ENDBRANCH   6  22
BRANCH   8  24
ATOM     24  O   UNL     1       8.535  22.995  25.767  1.00  0.00    -0.508 OA
ATOM     25  H   UNL     1       8.428  23.970  26.020  1.00  0.00     0.293 HD
ENDBRANCH   8  24
TORSDOF 5
ENDMDL
MODEL 7
REMARK VINA RESULT:    -4.761      4.452      7.133
REMARK INTER + INTRA:          -5.885
REMARK INTER:                  -5.874
REMARK INTRA:                  -0.012
REMARK UNBOUND:                -0.289
REMARK SMILES O=c1c(O)c(-c2ccc(O)cc2)oc2cc(O)cc(O)c12
REMARK SMILES IDX 5 1 3 2 2 3 1 4 21 5 19 6 18 7 16 8 15 9 14 10 13 11 6 12
REMARK SMILES IDX 7 13 8 14 9 15 12 16 11 17 10 18 4 20 20 22 17 24
REMARK H PARENT 10 19 4 21 20 23 17 25
REMARK Flexibility Score: inf
ROOT
ATOM      1  C   UNL     1       8.122  21.621  23.828  1.00  0.00     0.180 A 
ATOM      2  C   UNL     1       8.561  22.657  22.987  1.00  0.00     0.208 A 
ATOM      3  C   UNL     1       8.993  22.343  21.688  1.00  0.00     0.238 A 
ATOM      4  O   UNL     1       9.437  23.268  20.959  1.00  0.00    -0.285 OA
ATOM      5  C   UNL     1       8.966  21.000  21.241  1.00  0.00     0.111 A 
ATOM      6  C   UNL     1       9.342  20.573  19.933  1.00  0.00     0.134 A 
ATOM      7  C   UNL     1       9.399  19.204  19.642  1.00  0.00     0.093 A 
ATOM      8  C   UNL     1       9.030  18.250  20.594  1.00  0.00     0.123 A 
ATOM      9  C   UNL     1       8.604  18.660  21.855  1.00  0.00     0.094 A 
ATOM     10  C   UNL     1       8.571  20.017  22.186  1.00  0.00     0.146 A 
ATOM     11  O   UNL     1       8.169  20.363  23.402  1.00  0.00    -0.452 OA
ENDROOT
BRANCH   1  12
ATOM     12  C   UNL     1       7.627  21.875  25.200  1.00  0.00     0.021 A 
ATOM     13  C   UNL     1       8.459  22.529  26.125  1.00  0.00     0.016 A 
ATOM     14  C   UNL     1       8.020  22.759  27.433  1.00  0.00     0.047 A 
ATOM     15  C   UNL     1       6.753  22.327  27.836  1.00  0.00     0.115 A 
ATOM     16  C   UNL     1       6.361  21.425  25.618  1.00  0.00     0.016 A 
ATOM     17  C   UNL     1       5.925  21.656  26.927  1.00  0.00     0.047 A 
BRANCH  15  18
ATOM     18  O   UNL     1       6.328  22.564  29.142  1.00  0.00    -0.508 OA
ATOM     19  H   UNL     1       6.883  23.112  29.789  1.00  0.00     0.293 HD
ENDBRANCH  15  18
ENDBRANCH   1  12
BRANCH   2  20
ATOM     20  O   UNL     1       8.602  23.973  23.454  1.00  0.00    -0.502 OA
ATOM     21  H   UNL     1       8.288  24.232  24.382  1.00  0.00     0.293 HD
ENDBRANCH   2  20
BRANCH   6  22
ATOM     22  O   UNL     1       9.641  21.446  18.883  1.00  0.00    -0.507 OA
ATOM     23  H   UNL     1      10.052  21.170  18.004  1.00  0.00     0.293 HD
ENDBRANCH   6  22
BRANCH   8  24
ATOM     24  O   UNL     1       9.075  16.891  20.292  1.00  0.00    -0.508 OA
ATOM     25  H   UNL     1       8.907  16.551  19.352  1.00  0.00     0.293 HD
ENDBRANCH   8  24
TORSDOF 5
ENDMDL
MODEL 8
REMARK VINA RESULT:    -4.657      2.834      7.096
REMARK INTER + INTRA:          -5.762
REMARK INTER:                  -5.464
REMARK INTRA:                  -0.298
REMARK UNBOUND:                -0.289
REMARK SMILES O=c1c(O)c(-c2ccc(O)cc2)oc2cc(O)cc(O)c12
REMARK SMILES IDX 5 1 3 2 2 3 1 4 21 5 19 6 18 7 16 8 15 9 14 10 13 11 6 12
REMARK SMILES IDX 7 13 8 14 9 15 12 16 11 17 10 18 4 20 20 22 17 24
REMARK H PARENT 10 19 4 21 20 23 17 25
REMARK Flexibility Score: inf
ROOT
ATOM      1  C   UNL     1       8.276  19.559  21.149  1.00  0.00     0.180 A 
ATOM      2  C   UNL     1       7.199  19.786  20.277  1.00  0.00     0.208 A 
ATOM      3  C   UNL     1       6.523  18.684  19.728  1.00  0.00     0.238 A 
ATOM      4  O   UNL     1       5.595  18.894  18.904  1.00  0.00    -0.285 OA
ATOM      5  C   UNL     1       6.923  17.370  20.071  1.00  0.00     0.111 A 
ATOM      6  C   UNL     1       6.285  16.181  19.606  1.00  0.00     0.134 A 
ATOM      7  C   UNL     1       6.846  14.934  19.906  1.00  0.00     0.093 A 
ATOM      8  C   UNL     1       7.985  14.830  20.709  1.00  0.00     0.123 A 
ATOM      9  C   UNL     1       8.580  15.982  21.217  1.00  0.00     0.094 A 
ATOM     10  C   UNL     1       8.065  17.243  20.905  1.00  0.00     0.146 A 
ATOM     11  O   UNL     1       8.669  18.315  21.401  1.00  0.00    -0.452 OA
ENDROOT
BRANCH   1  12
ATOM     12  C   UNL     1       9.021  20.669  21.788  1.00  0.00     0.021 A 
ATOM     13  C   UNL     1      10.185  21.164  21.175  1.00  0.00     0.016 A 
ATOM     14  C   UNL     1      10.916  22.196  21.773  1.00  0.00     0.047 A 
ATOM     15  C   UNL     1      10.501  22.735  22.994  1.00  0.00     0.115 A 
ATOM     16  C   UNL     1       8.621  21.202  23.027  1.00  0.00     0.016 A 
ATOM     17  C   UNL     1       9.354  22.234  23.622  1.00  0.00     0.047 A 
BRANCH  15  18
ATOM     18  O   UNL     1      11.238  23.764  23.577  1.00  0.00    -0.508 OA
ATOM     19  H   UNL     1      12.249  23.721  23.643  1.00  0.00     0.293 HD
ENDBRANCH  15  18
ENDBRANCH   1  12
BRANCH   2  20
ATOM     20  O   UNL     1       6.834  21.090  19.933  1.00  0.00    -0.502 OA
ATOM     21  H   UNL     1       6.392  21.724  20.589  1.00  0.00     0.293 HD
ENDBRANCH   2  20
BRANCH   6  22
ATOM     22  O   UNL     1       5.094  16.170  18.875  1.00  0.00    -0.507 OA
ATOM     23  H   UNL     1       4.487  15.370  18.775  1.00  0.00     0.293 HD
ENDBRANCH   6  22
BRANCH   8  24
ATOM     24  O   UNL     1       8.527  13.584  21.015  1.00  0.00    -0.508 OA
ATOM     25  H   UNL     1       9.527  13.422  20.999  1.00  0.00     0.293 HD
ENDBRANCH   8  24
TORSDOF 5
ENDMDL
MODEL 9
REMARK VINA RESULT:    -4.402      2.126      6.705
REMARK INTER + INTRA:          -5.463
REMARK INTER:                  -5.194
REMARK INTRA:                  -0.269
REMARK UNBOUND:                -0.289
REMARK SMILES O=c1c(O)c(-c2ccc(O)cc2)oc2cc(O)cc(O)c12
REMARK SMILES IDX 5 1 3 2 2 3 1 4 21 5 19 6 18 7 16 8 15 9 14 10 13 11 6 12
REMARK SMILES IDX 7 13 8 14 9 15 12 16 11 17 10 18 4 20 20 22 17 24
REMARK H PARENT 10 19 4 21 20 23 17 25
REMARK Flexibility Score: inf
ROOT
ATOM      1  C   UNL     1       7.745  17.410  21.186  1.00  0.00     0.180 A 
ATOM      2  C   UNL     1       7.082  17.040  20.004  1.00  0.00     0.208 A 
ATOM      3  C   UNL     1       6.418  15.803  19.955  1.00  0.00     0.238 A 
ATOM      4  O   UNL     1       5.873  15.453  18.875  1.00  0.00    -0.285 OA
ATOM      5  C   UNL     1       6.412  14.961  21.092  1.00  0.00     0.111 A 
ATOM      6  C   UNL     1       5.737  13.705  21.167  1.00  0.00     0.134 A 
ATOM      7  C   UNL     1       5.907  12.896  22.298  1.00  0.00     0.093 A 
ATOM      8  C   UNL     1       6.675  13.327  23.383  1.00  0.00     0.123 A 
ATOM      9  C   UNL     1       7.288  14.577  23.344  1.00  0.00     0.094 A 
ATOM     10  C   UNL     1       7.167  15.391  22.215  1.00  0.00     0.146 A 
ATOM     11  O   UNL     1       7.776  16.570  22.214  1.00  0.00    -0.452 OA
ENDROOT
BRANCH   1  12
ATOM     12  C   UNL     1       8.446  18.707  21.324  1.00  0.00     0.021 A 
ATOM     13  C   UNL     1       7.778  19.796  21.909  1.00  0.00     0.016 A 
ATOM     14  C   UNL     1       8.413  21.037  22.029  1.00  0.00     0.047 A 
ATOM     15  C   UNL     1       9.716  21.208  21.553  1.00  0.00     0.115 A 
ATOM     16  C   UNL     1       9.750  18.892  20.828  1.00  0.00     0.016 A 
ATOM     17  C   UNL     1      10.382  20.134  20.948  1.00  0.00     0.047 A 
BRANCH  15  18
ATOM     18  O   UNL     1      10.337  22.448  21.679  1.00  0.00    -0.508 OA
ATOM     19  H   UNL     1      11.130  22.584  22.297  1.00  0.00     0.293 HD
ENDBRANCH  15  18
ENDBRANCH   1  12
BRANCH   2  20
ATOM     20  O   UNL     1       7.119  17.875  18.885  1.00  0.00    -0.502 OA
ATOM     21  H   UNL     1       6.493  17.760  18.097  1.00  0.00     0.293 HD
ENDBRANCH   2  20
BRANCH   6  22
ATOM     22  O   UNL     1       4.875  13.223  20.179  1.00  0.00    -0.507 OA
ATOM     23  H   UNL     1       4.616  13.728  19.345  1.00  0.00     0.293 HD
ENDBRANCH   6  22
BRANCH   8  24
ATOM     24  O   UNL     1       6.826  12.523  24.510  1.00  0.00    -0.508 OA
ATOM     25  H   UNL     1       6.858  12.917  25.443  1.00  0.00     0.293 HD
ENDBRANCH   8  24
TORSDOF 5
ENDMDL
