MODEL 1
REMARK VINA RESULT:    -4.515      0.000      0.000
REMARK INTER + INTRA:          -8.653
REMARK INTER:                  -7.682
REMARK INTRA:                  -0.972
REMARK UNBOUND:                -0.972
REMARK SMILES CCCCCCCCCCCCCC(=O)[O-]
REMARK SMILES IDX 8 1 9 2 10 3 11 4 12 5 13 6 14 7 15 8 16 9 7 10 6 11 5 12
REMARK SMILES IDX 4 13 3 14 2 15 1 16
REMARK H PARENT
REMARK Flexibility Score: inf
ROOT
ATOM      1  C   UNL     1      23.507   8.595  16.880  1.00  0.00     0.000 C 
ENDROOT
BRANCH   1   2
ATOM      2  C   UNL     1      22.115   8.599  17.535  1.00  0.00     0.000 C 
BRANCH   2   3
ATOM      3  C   UNL     1      21.608  10.018  17.852  1.00  0.00     0.000 C 
BRANCH   3   4
ATOM      4  C   UNL     1      20.682  10.633  16.786  1.00  0.00     0.000 C 
BRANCH   4   5
ATOM      5  C   UNL     1      21.394  11.394  15.652  1.00  0.00     0.006 C 
BRANCH   5   6
ATOM      6  C   UNL     1      21.485  10.607  14.332  1.00  0.00     0.053 C 
BRANCH   6   7
ATOM      7  C   UNL     1      20.599  11.175  13.264  1.00  0.00     0.041 C 
ATOM      8  O   UNL     1      19.945  10.409  12.509  1.00  0.00    -0.550 OA
ATOM      9  O   UNL     1      20.521  12.550  13.083  1.00  0.00    -0.550 OA
ENDBRANCH   6   7
ENDBRANCH   5   6
ENDBRANCH   4   5
ENDBRANCH   3   4
ENDBRANCH   2   3
ENDBRANCH   1   2
BRANCH   1  10
ATOM     10  C   UNL     1      23.817   7.271  16.165  1.00  0.00     0.000 C 
BRANCH  10  11
ATOM     11  C   UNL     1      23.305   7.248  14.716  1.00  0.00    -0.000 C 
BRANCH  11  12
ATOM     12  C   UNL     1      23.019   5.814  14.257  1.00  0.00    -0.000 C 
BRANCH  12  13
ATOM     13  C   UNL     1      23.511   4.795  15.295  1.00  0.00    -0.000 C 
BRANCH  13  14
ATOM     14  C   UNL     1      24.232   3.591  14.659  1.00  0.00    -0.000 C 
BRANCH  14  15
ATOM     15  C   UNL     1      25.247   3.953  13.560  1.00  0.00    -0.003 C 
ATOM     16  C   UNL     1      25.655   2.753  12.705  1.00  0.00     0.004 C 
ENDBRANCH  14  15
ENDBRANCH  13  14
ENDBRANCH  12  13
ENDBRANCH  11  12
ENDBRANCH  10  11
ENDBRANCH   1  10
TORSDOF 12
ENDMDL
MODEL 2
REMARK VINA RESULT:    -4.509      1.123      1.926
REMARK INTER + INTRA:          -8.644
REMARK INTER:                  -7.229
REMARK INTRA:                  -1.415
REMARK UNBOUND:                -0.972
REMARK SMILES CCCCCCCCCCCCCC(=O)[O-]
REMARK SMILES IDX 8 1 9 2 10 3 11 4 12 5 13 6 14 7 15 8 16 9 7 10 6 11 5 12
REMARK SMILES IDX 4 13 3 14 2 15 1 16
REMARK H PARENT
REMARK Flexibility Score: inf
ROOT
ATOM      1  C   UNL     1      23.055   8.863  17.692  1.00  0.00     0.000 C 
ENDROOT
BRANCH   1   2
ATOM      2  C   UNL     1      21.552   8.978  18.001  1.00  0.00     0.000 C 
BRANCH   2   3
ATOM      3  C   UNL     1      21.036  10.427  17.930  1.00  0.00     0.000 C 
BRANCH   3   4
ATOM      4  C   UNL     1      20.440  10.840  16.571  1.00  0.00     0.000 C 
BRANCH   4   5
ATOM      5  C   UNL     1      21.414  11.549  15.611  1.00  0.00     0.006 C 
BRANCH   5   6
ATOM      6  C   UNL     1      21.589  10.835  14.258  1.00  0.00     0.053 C 
BRANCH   6   7
ATOM      7  C   UNL     1      20.844  11.516  13.151  1.00  0.00     0.041 C 
ATOM      8  O   UNL     1      21.040  12.737  12.910  1.00  0.00    -0.550 OA
ATOM      9  O   UNL     1      19.907  10.811  12.405  1.00  0.00    -0.550 OA
ENDBRANCH   6   7
ENDBRANCH   5   6
ENDBRANCH   4   5
ENDBRANCH   3   4
ENDBRANCH   2   3
ENDBRANCH   1   2
BRANCH   1  10
ATOM     10  C   UNL     1      23.341   7.954  16.487  1.00  0.00     0.000 C 
BRANCH  10  11
ATOM     11  C   UNL     1      24.371   8.562  15.522  1.00  0.00    -0.000 C 
BRANCH  11  12
ATOM     12  C   UNL     1      24.416   7.781  14.203  1.00  0.00    -0.000 C 
BRANCH  12  13
ATOM     13  C   UNL     1      22.998   7.466  13.701  1.00  0.00    -0.000 C 
BRANCH  13  14
ATOM     14  C   UNL     1      22.771   5.964  13.449  1.00  0.00    -0.000 C 
BRANCH  14  15
ATOM     15  C   UNL     1      23.895   5.046  13.963  1.00  0.00    -0.003 C 
ATOM     16  C   UNL     1      23.552   4.366  15.289  1.00  0.00     0.004 C 
ENDBRANCH  14  15
ENDBRANCH  13  14
ENDBRANCH  12  13
ENDBRANCH  11  12
ENDBRANCH  10  11
ENDBRANCH   1  10
TORSDOF 12
ENDMDL
MODEL 3
REMARK VINA RESULT:    -4.509      3.959      7.505
REMARK INTER + INTRA:          -8.644
REMARK INTER:                  -7.563
REMARK INTRA:                  -1.082
REMARK UNBOUND:                -0.972
REMARK SMILES CCCCCCCCCCCCCC(=O)[O-]
REMARK SMILES IDX 8 1 9 2 10 3 11 4 12 5 13 6 14 7 15 8 16 9 7 10 6 11 5 12
REMARK SMILES IDX 4 13 3 14 2 15 1 16
REMARK H PARENT
REMARK Flexibility Score: inf
ROOT
ATOM      1  C   UNL     1      23.791   7.309  15.899  1.00  0.00     0.000 C 
ENDROOT
BRANCH   1   2
ATOM      2  C   UNL     1      23.447   7.200  14.403  1.00  0.00     0.000 C 
BRANCH   2   3
ATOM      3  C   UNL     1      23.162   5.754  13.959  1.00  0.00     0.000 C 
BRANCH   3   4
ATOM      4  C   UNL     1      23.347   4.687  15.055  1.00  0.00     0.000 C 
BRANCH   4   5
ATOM      5  C   UNL     1      24.273   3.513  14.683  1.00  0.00     0.006 C 
BRANCH   5   6
ATOM      6  C   UNL     1      25.261   3.831  13.547  1.00  0.00     0.053 C 
BRANCH   6   7
ATOM      7  C   UNL     1      26.030   2.624  13.102  1.00  0.00     0.041 C 
ATOM      8  O   UNL     1      26.815   2.043  13.897  1.00  0.00    -0.550 OA
ATOM      9  O   UNL     1      25.905   2.159  11.799  1.00  0.00    -0.550 OA
ENDBRANCH   6   7
ENDBRANCH   5   6
ENDBRANCH   4   5
ENDBRANCH   3   4
ENDBRANCH   2   3
ENDBRANCH   1   2
BRANCH   1  10
ATOM     10  C   UNL     1      24.189   8.734  16.311  1.00  0.00     0.000 C 
BRANCH  10  11
ATOM     11  C   UNL     1      23.609   9.139  17.675  1.00  0.00    -0.000 C 
BRANCH  11  12
ATOM     12  C   UNL     1      22.142   8.710  17.797  1.00  0.00    -0.000 C 
BRANCH  12  13
ATOM     13  C   UNL     1      21.267   9.875  18.284  1.00  0.00    -0.000 C 
BRANCH  13  14
ATOM     14  C   UNL     1      21.299  11.087  17.334  1.00  0.00    -0.000 C 
BRANCH  14  15
ATOM     15  C   UNL     1      20.791  10.805  15.909  1.00  0.00    -0.003 C 
ATOM     16  C   UNL     1      21.794  11.203  14.827  1.00  0.00     0.004 C 
ENDBRANCH  14  15
ENDBRANCH  13  14
ENDBRANCH  12  13
ENDBRANCH  11  12
ENDBRANCH  10  11
ENDBRANCH   1  10
TORSDOF 12
ENDMDL
MODEL 4
REMARK VINA RESULT:    -4.390      4.188      5.664
REMARK INTER + INTRA:          -8.442
REMARK INTER:                  -7.100
REMARK INTRA:                  -1.343
REMARK UNBOUND:                -0.972
REMARK SMILES CCCCCCCCCCCCCC(=O)[O-]
REMARK SMILES IDX 8 1 9 2 10 3 11 4 12 5 13 6 14 7 15 8 16 9 7 10 6 11 5 12
REMARK SMILES IDX 4 13 3 14 2 15 1 16
REMARK H PARENT
REMARK Flexibility Score: inf
ROOT
ATOM      1  C   UNL     1      25.966   7.583  14.496  1.00  0.00     0.000 C 
ENDROOT
BRANCH   1   2
ATOM      2  C   UNL     1      27.031   6.478  14.386  1.00  0.00     0.000 C 
BRANCH   2   3
ATOM      3  C   UNL     1      27.893   6.603  13.117  1.00  0.00     0.000 C 
BRANCH   3   4
ATOM      4  C   UNL     1      29.013   7.658  13.191  1.00  0.00     0.000 C 
BRANCH   4   5
ATOM      5  C   UNL     1      29.078   8.637  12.003  1.00  0.00     0.006 C 
BRANCH   5   6
ATOM      6  C   UNL     1      27.787   9.450  11.791  1.00  0.00     0.053 C 
BRANCH   6   7
ATOM      7  C   UNL     1      27.738  10.680  12.645  1.00  0.00     0.041 C 
ATOM      8  O   UNL     1      26.947  10.743  13.622  1.00  0.00    -0.550 OA
ATOM      9  O   UNL     1      28.543  11.771  12.341  1.00  0.00    -0.550 OA
ENDBRANCH   6   7
ENDBRANCH   5   6
ENDBRANCH   4   5
ENDBRANCH   3   4
ENDBRANCH   2   3
ENDBRANCH   1   2
BRANCH   1  10
ATOM     10  C   UNL     1      24.764   7.160  15.355  1.00  0.00     0.000 C 
BRANCH  10  11
ATOM     11  C   UNL     1      23.443   7.180  14.571  1.00  0.00    -0.000 C 
BRANCH  11  12
ATOM     12  C   UNL     1      23.081   5.778  14.066  1.00  0.00    -0.000 C 
BRANCH  12  13
ATOM     13  C   UNL     1      23.250   4.732  15.178  1.00  0.00    -0.000 C 
BRANCH  13  14
ATOM     14  C   UNL     1      24.256   3.625  14.812  1.00  0.00    -0.000 C 
BRANCH  14  15
ATOM     15  C   UNL     1      24.866   3.746  13.404  1.00  0.00    -0.003 C 
ATOM     16  C   UNL     1      25.924   2.681  13.117  1.00  0.00     0.004 C 
ENDBRANCH  14  15
ENDBRANCH  13  14
ENDBRANCH  12  13
ENDBRANCH  11  12
ENDBRANCH  10  11
ENDBRANCH   1  10
TORSDOF 12
ENDMDL
MODEL 5
REMARK VINA RESULT:    -4.335      4.483      6.773
REMARK INTER + INTRA:          -8.347
REMARK INTER:                  -7.026
REMARK INTRA:                  -1.321
REMARK UNBOUND:                -0.972
REMARK SMILES CCCCCCCCCCCCCC(=O)[O-]
REMARK SMILES IDX 8 1 9 2 10 3 11 4 12 5 13 6 14 7 15 8 16 9 7 10 6 11 5 12
REMARK SMILES IDX 4 13 3 14 2 15 1 16
REMARK H PARENT
REMARK Flexibility Score: inf
ROOT
ATOM      1  C   UNL     1      23.339   7.491  15.811  1.00  0.00     0.000 C 
ENDROOT
BRANCH   1   2
ATOM      2  C   UNL     1      23.218   7.422  14.279  1.00  0.00     0.000 C 
BRANCH   2   3
ATOM      3  C   UNL     1      22.880   6.009  13.770  1.00  0.00     0.000 C 
BRANCH   3   4
ATOM      4  C   UNL     1      23.395   4.857  14.653  1.00  0.00     0.000 C 
BRANCH   4   5
ATOM      5  C   UNL     1      24.871   4.471  14.440  1.00  0.00     0.006 C 
BRANCH   5   6
ATOM      6  C   UNL     1      25.076   3.290  13.474  1.00  0.00     0.053 C 
BRANCH   6   7
ATOM      7  C   UNL     1      26.480   3.211  12.955  1.00  0.00     0.041 C 
ATOM      8  O   UNL     1      27.277   4.170  13.133  1.00  0.00    -0.550 OA
ATOM      9  O   UNL     1      26.898   2.092  12.247  1.00  0.00    -0.550 OA
ENDBRANCH   6   7
ENDBRANCH   5   6
ENDBRANCH   4   5
ENDBRANCH   3   4
ENDBRANCH   2   3
ENDBRANCH   1   2
BRANCH   1  10
ATOM     10  C   UNL     1      24.591   8.255  16.269  1.00  0.00     0.000 C 
BRANCH  10  11
ATOM     11  C   UNL     1      25.854   7.380  16.253  1.00  0.00    -0.000 C 
BRANCH  11  12
ATOM     12  C   UNL     1      26.961   8.027  15.412  1.00  0.00    -0.000 C 
BRANCH  12  13
ATOM     13  C   UNL     1      26.710   7.810  13.912  1.00  0.00    -0.000 C 
BRANCH  13  14
ATOM     14  C   UNL     1      26.437   9.122  13.154  1.00  0.00    -0.000 C 
BRANCH  14  15
ATOM     15  C   UNL     1      27.380   9.391  11.967  1.00  0.00    -0.003 C 
ATOM     16  C   UNL     1      28.513   8.370  11.861  1.00  0.00     0.004 C 
ENDBRANCH  14  15
ENDBRANCH  13  14
ENDBRANCH  12  13
ENDBRANCH  11  12
ENDBRANCH  10  11
ENDBRANCH   1  10
TORSDOF 12
ENDMDL
MODEL 6
REMARK VINA RESULT:    -4.288      8.805     10.656
REMARK INTER + INTRA:          -8.269
REMARK INTER:                  -7.169
REMARK INTRA:                  -1.099
REMARK UNBOUND:                -0.972
REMARK SMILES CCCCCCCCCCCCCC(=O)[O-]
REMARK SMILES IDX 8 1 9 2 10 3 11 4 12 5 13 6 14 7 15 8 16 9 7 10 6 11 5 12
REMARK SMILES IDX 4 13 3 14 2 15 1 16
REMARK H PARENT
REMARK Flexibility Score: inf
ROOT
ATOM      1  C   UNL     1      19.695   7.206   2.483  1.00  0.00     0.000 C 
ENDROOT
BRANCH   1   2
ATOM      2  C   UNL     1      18.292   7.136   3.113  1.00  0.00     0.000 C 
BRANCH   2   3
ATOM      3  C   UNL     1      18.184   7.940   4.421  1.00  0.00     0.000 C 
BRANCH   3   4
ATOM      4  C   UNL     1      17.965   7.094   5.690  1.00  0.00     0.000 C 
BRANCH   4   5
ATOM      5  C   UNL     1      17.787   7.893   6.994  1.00  0.00     0.006 C 
BRANCH   5   6
ATOM      6  C   UNL     1      16.411   8.570   7.130  1.00  0.00     0.053 C 
BRANCH   6   7
ATOM      7  C   UNL     1      15.843   8.442   8.511  1.00  0.00     0.041 C 
ATOM      8  O   UNL     1      16.436   8.962   9.492  1.00  0.00    -0.550 OA
ATOM      9  O   UNL     1      14.675   7.718   8.719  1.00  0.00    -0.550 OA
ENDBRANCH   6   7
ENDBRANCH   5   6
ENDBRANCH   4   5
ENDBRANCH   3   4
ENDBRANCH   2   3
ENDBRANCH   1   2
BRANCH   1  10
ATOM     10  C   UNL     1      20.761   6.508   3.341  1.00  0.00     0.000 C 
BRANCH  10  11
ATOM     11  C   UNL     1      20.532   4.993   3.449  1.00  0.00    -0.000 C 
BRANCH  11  12
ATOM     12  C   UNL     1      21.055   4.451   4.785  1.00  0.00    -0.000 C 
BRANCH  12  13
ATOM     13  C   UNL     1      21.393   5.599   5.749  1.00  0.00    -0.000 C 
BRANCH  13  14
ATOM     14  C   UNL     1      22.746   5.405   6.460  1.00  0.00    -0.000 C 
BRANCH  14  15
ATOM     15  C   UNL     1      23.974   5.435   5.532  1.00  0.00    -0.003 C 
ATOM     16  C   UNL     1      25.188   4.720   6.124  1.00  0.00     0.004 C 
ENDBRANCH  14  15
ENDBRANCH  13  14
ENDBRANCH  12  13
ENDBRANCH  11  12
ENDBRANCH  10  11
ENDBRANCH   1  10
TORSDOF 12
ENDMDL
MODEL 7
REMARK VINA RESULT:    -4.270      5.232      7.251
REMARK INTER + INTRA:          -8.237
REMARK INTER:                  -7.200
REMARK INTRA:                  -1.037
REMARK UNBOUND:                -0.972
REMARK SMILES CCCCCCCCCCCCCC(=O)[O-]
REMARK SMILES IDX 8 1 9 2 10 3 11 4 12 5 13 6 14 7 15 8 16 9 7 10 6 11 5 12
REMARK SMILES IDX 4 13 3 14 2 15 1 16
REMARK H PARENT
REMARK Flexibility Score: inf
ROOT
ATOM      1  C   UNL     1      24.932   7.518  15.844  1.00  0.00     0.000 C 
ENDROOT
BRANCH   1   2
ATOM      2  C   UNL     1      23.472   7.086  15.620  1.00  0.00     0.000 C 
BRANCH   2   3
ATOM      3  C   UNL     1      23.333   5.987  14.551  1.00  0.00     0.000 C 
BRANCH   3   4
ATOM      4  C   UNL     1      23.219   4.553  15.102  1.00  0.00     0.000 C 
BRANCH   4   5
ATOM      5  C   UNL     1      24.409   3.627  14.784  1.00  0.00     0.006 C 
BRANCH   5   6
ATOM      6  C   UNL     1      25.031   3.862  13.396  1.00  0.00     0.053 C 
BRANCH   6   7
ATOM      7  C   UNL     1      25.923   2.736  12.969  1.00  0.00     0.041 C 
ATOM      8  O   UNL     1      26.026   2.434  11.751  1.00  0.00    -0.550 OA
ATOM      9  O   UNL     1      26.614   1.996  13.921  1.00  0.00    -0.550 OA
ENDBRANCH   6   7
ENDBRANCH   5   6
ENDBRANCH   4   5
ENDBRANCH   3   4
ENDBRANCH   2   3
ENDBRANCH   1   2
BRANCH   1  10
ATOM     10  C   UNL     1      25.684   7.760  14.526  1.00  0.00     0.000 C 
BRANCH  10  11
ATOM     11  C   UNL     1      27.127   7.234  14.566  1.00  0.00    -0.000 C 
BRANCH  11  12
ATOM     12  C   UNL     1      27.816   7.415  13.208  1.00  0.00    -0.000 C 
BRANCH  12  13
ATOM     13  C   UNL     1      27.323   8.691  12.508  1.00  0.00    -0.000 C 
BRANCH  13  14
ATOM     14  C   UNL     1      28.455   9.465  11.806  1.00  0.00    -0.000 C 
BRANCH  14  15
ATOM     15  C   UNL     1      29.875   8.968  12.132  1.00  0.00    -0.003 C 
ATOM     16  C   UNL     1      30.759  10.050  12.752  1.00  0.00     0.004 C 
ENDBRANCH  14  15
ENDBRANCH  13  14
ENDBRANCH  12  13
ENDBRANCH  11  12
ENDBRANCH  10  11
ENDBRANCH   1  10
TORSDOF 12
ENDMDL
MODEL 8
REMARK VINA RESULT:    -4.223      9.687     12.295
REMARK INTER + INTRA:          -8.156
REMARK INTER:                  -6.925
REMARK INTRA:                  -1.232
REMARK UNBOUND:                -0.972
REMARK SMILES CCCCCCCCCCCCCC(=O)[O-]
REMARK SMILES IDX 8 1 9 2 10 3 11 4 12 5 13 6 14 7 15 8 16 9 7 10 6 11 5 12
REMARK SMILES IDX 4 13 3 14 2 15 1 16
REMARK H PARENT
REMARK Flexibility Score: inf
ROOT
ATOM      1  C   UNL     1      20.729   4.738   4.313  1.00  0.00     0.000 C 
ENDROOT
BRANCH   1   2
ATOM      2  C   UNL     1      21.523   5.753   5.154  1.00  0.00     0.000 C 
BRANCH   2   3
ATOM      3  C   UNL     1      23.037   5.471   5.158  1.00  0.00     0.000 C 
BRANCH   3   4
ATOM      4  C   UNL     1      23.626   5.094   6.530  1.00  0.00     0.000 C 
BRANCH   4   5
ATOM      5  C   UNL     1      24.436   3.784   6.564  1.00  0.00     0.006 C 
BRANCH   5   6
ATOM      6  C   UNL     1      25.898   3.964   7.011  1.00  0.00     0.053 C 
BRANCH   6   7
ATOM      7  C   UNL     1      26.471   2.716   7.611  1.00  0.00     0.041 C 
ATOM      8  O   UNL     1      27.046   1.867   6.881  1.00  0.00    -0.550 OA
ATOM      9  O   UNL     1      26.341   2.475   8.974  1.00  0.00    -0.550 OA
ENDBRANCH   6   7
ENDBRANCH   5   6
ENDBRANCH   4   5
ENDBRANCH   3   4
ENDBRANCH   2   3
ENDBRANCH   1   2
BRANCH   1  10
ATOM     10  C   UNL     1      20.056   5.383   3.092  1.00  0.00     0.000 C 
BRANCH  10  11
ATOM     11  C   UNL     1      20.298   6.899   3.017  1.00  0.00    -0.000 C 
BRANCH  11  12
ATOM     12  C   UNL     1      18.994   7.650   2.725  1.00  0.00    -0.000 C 
BRANCH  12  13
ATOM     13  C   UNL     1      17.913   7.298   3.758  1.00  0.00    -0.000 C 
BRANCH  13  14
ATOM     14  C   UNL     1      18.120   8.009   5.109  1.00  0.00    -0.000 C 
BRANCH  14  15
ATOM     15  C   UNL     1      18.199   7.072   6.327  1.00  0.00    -0.003 C 
ATOM     16  C   UNL     1      17.587   5.696   6.064  1.00  0.00     0.004 C 
ENDBRANCH  14  15
ENDBRANCH  13  14
ENDBRANCH  12  13
ENDBRANCH  11  12
ENDBRANCH  10  11
ENDBRANCH   1  10
TORSDOF 12
ENDMDL
MODEL 9
REMARK VINA RESULT:    -4.162      3.108      6.331
REMARK INTER + INTRA:          -8.054
REMARK INTER:                  -6.251
REMARK INTRA:                  -1.803
REMARK UNBOUND:                -0.972
REMARK SMILES CCCCCCCCCCCCCC(=O)[O-]
REMARK SMILES IDX 8 1 9 2 10 3 11 4 12 5 13 6 14 7 15 8 16 9 7 10 6 11 5 12
REMARK SMILES IDX 4 13 3 14 2 15 1 16
REMARK H PARENT
REMARK Flexibility Score: inf
ROOT
ATOM      1  C   UNL     1      22.864   8.002  16.990  1.00  0.00     0.000 C 
ENDROOT
BRANCH   1   2
ATOM      2  C   UNL     1      24.215   8.486  16.435  1.00  0.00     0.000 C 
BRANCH   2   3
ATOM      3  C   UNL     1      24.143   8.881  14.949  1.00  0.00     0.000 C 
BRANCH   3   4
ATOM      4  C   UNL     1      22.921   8.334  14.188  1.00  0.00     0.000 C 
BRANCH   4   5
ATOM      5  C   UNL     1      23.178   7.066  13.351  1.00  0.00     0.006 C 
BRANCH   5   6
ATOM      6  C   UNL     1      22.797   5.757  14.066  1.00  0.00     0.053 C 
BRANCH   6   7
ATOM      7  C   UNL     1      23.996   4.998  14.548  1.00  0.00     0.041 C 
ATOM      8  O   UNL     1      23.854   3.887  15.123  1.00  0.00    -0.550 OA
ATOM      9  O   UNL     1      25.268   5.533  14.391  1.00  0.00    -0.550 OA
ENDBRANCH   6   7
ENDBRANCH   5   6
ENDBRANCH   4   5
ENDBRANCH   3   4
ENDBRANCH   2   3
ENDBRANCH   1   2
BRANCH   1  10
ATOM     10  C   UNL     1      22.428   8.781  18.241  1.00  0.00     0.000 C 
BRANCH  10  11
ATOM     11  C   UNL     1      22.011  10.225  17.922  1.00  0.00    -0.000 C 
BRANCH  11  12
ATOM     12  C   UNL     1      20.788  10.253  16.998  1.00  0.00    -0.000 C 
BRANCH  12  13
ATOM     13  C   UNL     1      20.739  11.559  16.190  1.00  0.00    -0.000 C 
BRANCH  13  14
ATOM     14  C   UNL     1      22.033  11.825  15.400  1.00  0.00    -0.000 C 
BRANCH  14  15
ATOM     15  C   UNL     1      21.851  11.922  13.875  1.00  0.00    -0.003 C 
ATOM     16  C   UNL     1      20.649  11.127  13.365  1.00  0.00     0.004 C 
ENDBRANCH  14  15
ENDBRANCH  13  14
ENDBRANCH  12  13
ENDBRANCH  11  12
ENDBRANCH  10  11
ENDBRANCH   1  10
TORSDOF 12
ENDMDL
