MODEL 1
REMARK VINA RESULT:    -2.372      0.000      0.000
REMARK INTER + INTRA:          -6.398
REMARK INTER:                  -4.314
REMARK INTRA:                  -2.084
REMARK UNBOUND:                -2.084
REMARK SMILES CCCCCCCCCCCCCCCC(=O)[O-]
REMARK SMILES IDX 9 1 10 2 11 3 12 4 13 5 14 6 15 7 16 8 17 9 18 10 8 11 7 12
REMARK SMILES IDX 6 13 5 14 4 15 3 16 2 17 1 18
REMARK H PARENT
REMARK Flexibility Score: inf
ROOT
ATOM      1  C   UNL     1      -7.128  -5.628  -7.309  1.00  0.00     0.000 C 
ENDROOT
BRANCH   1   2
ATOM      2  C   UNL     1      -6.750  -6.158  -8.704  1.00  0.00     0.000 C 
BRANCH   2   3
ATOM      3  C   UNL     1      -5.297  -5.835  -9.083  1.00  0.00     0.000 C 
BRANCH   3   4
ATOM      4  C   UNL     1      -4.587  -7.014  -9.766  1.00  0.00     0.000 C 
BRANCH   4   5
ATOM      5  C   UNL     1      -5.509  -8.239  -9.842  1.00  0.00     0.000 C 
BRANCH   5   6
ATOM      6  C   UNL     1      -4.860  -9.512  -9.268  1.00  0.00     0.006 C 
BRANCH   6   7
ATOM      7  C   UNL     1      -3.435  -9.309  -8.731  1.00  0.00     0.053 C 
BRANCH   7   8
ATOM      8  C   UNL     1      -3.320  -9.685  -7.285  1.00  0.00     0.041 C 
ATOM      9  O   UNL     1      -2.188  -9.889  -6.772  1.00  0.00    -0.550 OA
ATOM     10  O   UNL     1      -4.465  -9.843  -6.515  1.00  0.00    -0.550 OA
ENDBRANCH   7   8
ENDBRANCH   6   7
ENDBRANCH   5   6
ENDBRANCH   4   5
ENDBRANCH   3   4
ENDBRANCH   2   3
ENDBRANCH   1   2
BRANCH   1  11
ATOM     11  C   UNL     1      -8.643  -5.425  -7.144  1.00  0.00     0.000 C 
BRANCH  11  12
ATOM     12  C   UNL     1      -9.401  -5.535  -8.475  1.00  0.00    -0.000 C 
BRANCH  12  13
ATOM     13  C   UNL     1     -10.124  -6.882  -8.585  1.00  0.00    -0.000 C 
BRANCH  13  14
ATOM     14  C   UNL     1      -9.888  -7.522  -9.961  1.00  0.00    -0.000 C 
BRANCH  14  15
ATOM     15  C   UNL     1      -9.389  -8.975  -9.868  1.00  0.00    -0.000 C 
BRANCH  15  16
ATOM     16  C   UNL     1      -9.460  -9.602  -8.460  1.00  0.00    -0.000 C 
BRANCH  16  17
ATOM     17  C   UNL     1      -8.099  -9.977  -7.848  1.00  0.00    -0.003 C 
ATOM     18  C   UNL     1      -7.814  -9.249  -6.536  1.00  0.00     0.004 C 
ENDBRANCH  16  17
ENDBRANCH  15  16
ENDBRANCH  14  15
ENDBRANCH  13  14
ENDBRANCH  12  13
ENDBRANCH  11  12
ENDBRANCH   1  11
TORSDOF 14
ENDMDL
MODEL 2
REMARK VINA RESULT:    -1.694     22.299     24.083
REMARK INTER + INTRA:          -5.164
REMARK INTER:                  -4.168
REMARK INTRA:                  -0.997
REMARK UNBOUND:                -2.084
REMARK SMILES CCCCCCCCCCCCCCCC(=O)[O-]
REMARK SMILES IDX 9 1 10 2 11 3 12 4 13 5 14 6 15 7 16 8 17 9 18 10 8 11 7 12
REMARK SMILES IDX 6 13 5 14 4 15 3 16 2 17 1 18
REMARK H PARENT
REMARK Flexibility Score: inf
ROOT
ATOM      1  C   UNL     1       8.591   4.867   1.086  1.00  0.00     0.000 C 
ENDROOT
BRANCH   1   2
ATOM      2  C   UNL     1       8.721   6.368   1.400  1.00  0.00     0.000 C 
BRANCH   2   3
ATOM      3  C   UNL     1      10.118   6.744   1.917  1.00  0.00     0.000 C 
BRANCH   3   4
ATOM      4  C   UNL     1      10.125   7.073   3.417  1.00  0.00     0.000 C 
BRANCH   4   5
ATOM      5  C   UNL     1       9.831   8.560   3.654  1.00  0.00     0.000 C 
BRANCH   5   6
ATOM      6  C   UNL     1       8.916   8.803   4.869  1.00  0.00     0.006 C 
BRANCH   6   7
ATOM      7  C   UNL     1       7.871   7.701   5.104  1.00  0.00     0.053 C 
BRANCH   7   8
ATOM      8  C   UNL     1       6.506   8.112   4.641  1.00  0.00     0.041 C 
ATOM      9  O   UNL     1       6.061   9.257   4.920  1.00  0.00    -0.550 OA
ATOM     10  O   UNL     1       5.715   7.219   3.929  1.00  0.00    -0.550 OA
ENDBRANCH   7   8
ENDBRANCH   6   7
ENDBRANCH   5   6
ENDBRANCH   4   5
ENDBRANCH   3   4
ENDBRANCH   2   3
ENDBRANCH   1   2
BRANCH   1  11
ATOM     11  C   UNL     1       9.942   4.134   1.138  1.00  0.00     0.000 C 
BRANCH  11  12
ATOM     12  C   UNL     1      10.125   3.323   2.430  1.00  0.00    -0.000 C 
BRANCH  12  13
ATOM     13  C   UNL     1      10.065   1.817   2.146  1.00  0.00    -0.000 C 
BRANCH  13  14
ATOM     14  C   UNL     1       9.920   1.018   3.450  1.00  0.00    -0.000 C 
BRANCH  14  15
ATOM     15  C   UNL     1       9.940   1.909   4.704  1.00  0.00    -0.000 C 
BRANCH  15  16
ATOM     16  C   UNL     1       9.172   1.348   5.918  1.00  0.00    -0.000 C 
BRANCH  16  17
ATOM     17  C   UNL     1       8.070   0.331   5.575  1.00  0.00    -0.003 C 
ATOM     18  C   UNL     1       7.424  -0.289   6.812  1.00  0.00     0.004 C 
ENDBRANCH  16  17
ENDBRANCH  15  16
ENDBRANCH  14  15
ENDBRANCH  13  14
ENDBRANCH  12  13
ENDBRANCH  11  12
ENDBRANCH   1  11
TORSDOF 14
ENDMDL
MODEL 3
REMARK VINA RESULT:    -0.926     22.464     24.538
REMARK INTER + INTRA:          -3.768
REMARK INTER:                  -5.099
REMARK INTRA:                   1.331
REMARK UNBOUND:                -2.084
REMARK SMILES CCCCCCCCCCCCCCCC(=O)[O-]
REMARK SMILES IDX 9 1 10 2 11 3 12 4 13 5 14 6 15 7 16 8 17 9 18 10 8 11 7 12
REMARK SMILES IDX 6 13 5 14 4 15 3 16 2 17 1 18
REMARK H PARENT
REMARK Flexibility Score: inf
ROOT
ATOM      1  C   UNL     1       6.607   6.364   3.277  1.00  0.00     0.000 C 
ENDROOT
BRANCH   1   2
ATOM      2  C   UNL     1       7.310   5.751   2.052  1.00  0.00     0.000 C 
BRANCH   2   3
ATOM      3  C   UNL     1       8.790   6.150   1.962  1.00  0.00     0.000 C 
BRANCH   3   4
ATOM      4  C   UNL     1       9.739   4.971   2.226  1.00  0.00     0.000 C 
BRANCH   4   5
ATOM      5  C   UNL     1      10.065   4.853   3.721  1.00  0.00     0.000 C 
BRANCH   5   6
ATOM      6  C   UNL     1      10.090   3.395   4.214  1.00  0.00     0.006 C 
BRANCH   6   7
ATOM      7  C   UNL     1       9.833   2.350   3.116  1.00  0.00     0.053 C 
BRANCH   7   8
ATOM      8  C   UNL     1       9.823   0.954   3.660  1.00  0.00     0.041 C 
ATOM      9  O   UNL     1       9.945   0.755   4.897  1.00  0.00    -0.550 OA
ATOM     10  O   UNL     1       9.713  -0.128   2.795  1.00  0.00    -0.550 OA
ENDBRANCH   7   8
ENDBRANCH   6   7
ENDBRANCH   5   6
ENDBRANCH   4   5
ENDBRANCH   3   4
ENDBRANCH   2   3
ENDBRANCH   1   2
BRANCH   1  11
ATOM     11  C   UNL     1       7.565   7.176   4.163  1.00  0.00     0.000 C 
BRANCH  11  12
ATOM     12  C   UNL     1       7.836   6.498   5.515  1.00  0.00    -0.000 C 
BRANCH  12  13
ATOM     13  C   UNL     1       9.257   6.801   6.006  1.00  0.00    -0.000 C 
BRANCH  13  14
ATOM     14  C   UNL     1       9.998   7.713   5.016  1.00  0.00    -0.000 C 
BRANCH  14  15
ATOM     15  C   UNL     1       9.244   9.023   4.731  1.00  0.00    -0.000 C 
BRANCH  15  16
ATOM     16  C   UNL     1      10.080  10.124   4.045  1.00  0.00    -0.000 C 
BRANCH  16  17
ATOM     17  C   UNL     1      10.125  10.042   2.510  1.00  0.00    -0.003 C 
ATOM     18  C   UNL     1       9.993   8.613   1.985  1.00  0.00     0.004 C 
ENDBRANCH  16  17
ENDBRANCH  15  16
ENDBRANCH  14  15
ENDBRANCH  13  14
ENDBRANCH  12  13
ENDBRANCH  11  12
ENDBRANCH   1  11
TORSDOF 14
ENDMDL
MODEL 4
REMARK VINA RESULT:    -0.660     22.301     24.424
REMARK INTER + INTRA:          -3.285
REMARK INTER:                  -2.690
REMARK INTRA:                  -0.594
REMARK UNBOUND:                -2.084
REMARK SMILES CCCCCCCCCCCCCCCC(=O)[O-]
REMARK SMILES IDX 9 1 10 2 11 3 12 4 13 5 14 6 15 7 16 8 17 9 18 10 8 11 7 12
REMARK SMILES IDX 6 13 5 14 4 15 3 16 2 17 1 18
REMARK H PARENT
REMARK Flexibility Score: inf
ROOT
ATOM      1  C   UNL     1       8.336   5.772   2.100  1.00  0.00     0.000 C 
ENDROOT
BRANCH   1   2
ATOM      2  C   UNL     1       8.766   6.597   0.873  1.00  0.00     0.000 C 
BRANCH   2   3
ATOM      3  C   UNL     1      10.125   7.285   1.073  1.00  0.00     0.000 C 
BRANCH   3   4
ATOM      4  C   UNL     1       9.992   8.790   1.351  1.00  0.00     0.000 C 
BRANCH   4   5
ATOM      5  C   UNL     1       9.193   9.041   2.637  1.00  0.00     0.000 C 
BRANCH   5   6
ATOM      6  C   UNL     1       9.976   8.671   3.910  1.00  0.00     0.006 C 
BRANCH   6   7
ATOM      7  C   UNL     1       9.149   7.920   4.965  1.00  0.00     0.053 C 
BRANCH   7   8
ATOM      8  C   UNL     1       7.704   8.317   4.935  1.00  0.00     0.041 C 
ATOM      9  O   UNL     1       7.359   9.477   5.281  1.00  0.00    -0.550 OA
ATOM     10  O   UNL     1       6.737   7.394   4.557  1.00  0.00    -0.550 OA
ENDBRANCH   7   8
ENDBRANCH   6   7
ENDBRANCH   5   6
ENDBRANCH   4   5
ENDBRANCH   3   4
ENDBRANCH   2   3
ENDBRANCH   1   2
BRANCH   1  11
ATOM     11  C   UNL     1       9.532   5.302   2.944  1.00  0.00     0.000 C 
BRANCH  11  12
ATOM     12  C   UNL     1       9.127   4.896   4.369  1.00  0.00    -0.000 C 
BRANCH  12  13
ATOM     13  C   UNL     1      10.125   3.893   4.959  1.00  0.00    -0.000 C 
BRANCH  13  14
ATOM     14  C   UNL     1      10.117   2.578   4.165  1.00  0.00    -0.000 C 
BRANCH  14  15
ATOM     15  C   UNL     1       9.754   1.359   5.030  1.00  0.00    -0.000 C 
BRANCH  15  16
ATOM     16  C   UNL     1       9.768   0.004   4.292  1.00  0.00    -0.000 C 
BRANCH  16  17
ATOM     17  C   UNL     1       9.991   0.096   2.772  1.00  0.00    -0.003 C 
ATOM     18  C   UNL     1      10.125  -1.271   2.105  1.00  0.00     0.004 C 
ENDBRANCH  16  17
ENDBRANCH  15  16
ENDBRANCH  14  15
ENDBRANCH  13  14
ENDBRANCH  12  13
ENDBRANCH  11  12
ENDBRANCH   1  11
TORSDOF 14
ENDMDL
MODEL 5
REMARK VINA RESULT:    -0.171     21.376     23.436
REMARK INTER + INTRA:          -2.395
REMARK INTER:                  -0.769
REMARK INTRA:                  -1.627
REMARK UNBOUND:                -2.084
REMARK SMILES CCCCCCCCCCCCCCCC(=O)[O-]
REMARK SMILES IDX 9 1 10 2 11 3 12 4 13 5 14 6 15 7 16 8 17 9 18 10 8 11 7 12
REMARK SMILES IDX 6 13 5 14 4 15 3 16 2 17 1 18
REMARK H PARENT
REMARK Flexibility Score: inf
ROOT
ATOM      1  C   UNL     1       8.653   4.836   0.586  1.00  0.00     0.000 C 
ENDROOT
BRANCH   1   2
ATOM      2  C   UNL     1       9.793   4.174   1.381  1.00  0.00     0.000 C 
BRANCH   2   3
ATOM      3  C   UNL     1      10.092   4.902   2.700  1.00  0.00     0.000 C 
BRANCH   3   4
ATOM      4  C   UNL     1      10.120   3.952   3.907  1.00  0.00     0.000 C 
BRANCH   4   5
ATOM      5  C   UNL     1       9.209   2.739   3.672  1.00  0.00     0.000 C 
BRANCH   5   6
ATOM      6  C   UNL     1       9.372   1.651   4.750  1.00  0.00     0.006 C 
BRANCH   6   7
ATOM      7  C   UNL     1      10.112   0.392   4.272  1.00  0.00     0.053 C 
BRANCH   7   8
ATOM      8  C   UNL     1       9.223  -0.513   3.474  1.00  0.00     0.041 C 
ATOM      9  O   UNL     1       9.684  -1.145   2.487  1.00  0.00    -0.550 OA
ATOM     10  O   UNL     1       7.878  -0.633   3.802  1.00  0.00    -0.550 OA
ENDBRANCH   7   8
ENDBRANCH   6   7
ENDBRANCH   5   6
ENDBRANCH   4   5
ENDBRANCH   3   4
ENDBRANCH   2   3
ENDBRANCH   1   2
BRANCH   1  11
ATOM     11  C   UNL     1       8.006   6.005   1.345  1.00  0.00     0.000 C 
BRANCH  11  12
ATOM     12  C   UNL     1       6.608   5.660   1.881  1.00  0.00    -0.000 C 
BRANCH  12  13
ATOM     13  C   UNL     1       6.551   5.815   3.406  1.00  0.00    -0.000 C 
BRANCH  13  14
ATOM     14  C   UNL     1       6.731   7.284   3.816  1.00  0.00    -0.000 C 
BRANCH  14  15
ATOM     15  C   UNL     1       7.419   7.444   5.183  1.00  0.00    -0.000 C 
BRANCH  15  16
ATOM     16  C   UNL     1       8.932   7.734   5.126  1.00  0.00    -0.000 C 
BRANCH  16  17
ATOM     17  C   UNL     1       9.325   8.968   4.296  1.00  0.00    -0.003 C 
ATOM     18  C   UNL     1      10.001  10.056   5.129  1.00  0.00     0.004 C 
ENDBRANCH  16  17
ENDBRANCH  15  16
ENDBRANCH  14  15
ENDBRANCH  13  14
ENDBRANCH  12  13
ENDBRANCH  11  12
ENDBRANCH   1  11
TORSDOF 14
ENDMDL
