MODEL 1
REMARK VINA RESULT:    -4.228      0.000      0.000
REMARK INTER + INTRA:         -10.493
REMARK INTER:                  -7.936
REMARK INTRA:                  -2.557
REMARK UNBOUND:                -2.557
REMARK SMILES CCCCCCCCC=CCCCCCCCC(=O)[O-]
REMARK SMILES IDX 10 1 9 2 11 3 12 4 13 5 14 6 15 7 16 8 17 9 18 10 19 11
REMARK SMILES IDX 20 12 8 13 7 14 6 15 5 16 4 17 3 18 2 19 1 20
REMARK H PARENT
REMARK Flexibility Score: inf
ROOT
ATOM      1  C   UNL     1      10.770  55.923  92.226  1.00  0.00    -0.031 C 
ATOM      2  C   UNL     1      10.764  57.052  91.503  1.00  0.00    -0.031 C 
ENDROOT
BRANCH   1   3
ATOM      3  C   UNL     1      11.070  54.587  91.603  1.00  0.00     0.027 C 
BRANCH   3   4
ATOM      4  C   UNL     1      10.087  53.511  92.091  1.00  0.00     0.004 C 
BRANCH   4   5
ATOM      5  C   UNL     1       8.682  54.076  92.360  1.00  0.00     0.000 C 
BRANCH   5   6
ATOM      6  C   UNL     1       7.569  53.133  91.874  1.00  0.00     0.000 C 
BRANCH   6   7
ATOM      7  C   UNL     1       7.817  52.596  90.452  1.00  0.00     0.000 C 
BRANCH   7   8
ATOM      8  C   UNL     1       7.619  51.078  90.285  1.00  0.00     0.006 C 
BRANCH   8   9
ATOM      9  C   UNL     1       7.865  50.296  91.583  1.00  0.00     0.053 C 
BRANCH   9  10
ATOM     10  C   UNL     1       9.126  49.496  91.481  1.00  0.00     0.041 C 
ATOM     11  O   UNL     1      10.245  50.062  91.599  1.00  0.00    -0.550 OA
ATOM     12  O   UNL     1       9.068  48.134  91.215  1.00  0.00    -0.550 OA
ENDBRANCH   9  10
ENDBRANCH   8   9
ENDBRANCH   7   8
ENDBRANCH   6   7
ENDBRANCH   5   6
ENDBRANCH   4   5
ENDBRANCH   3   4
ENDBRANCH   1   3
BRANCH   2  13
ATOM     13  C   UNL     1      10.450  58.384  92.127  1.00  0.00     0.027 C 
BRANCH  13  14
ATOM     14  C   UNL     1       9.100  58.919  91.626  1.00  0.00     0.004 C 
BRANCH  14  15
ATOM     15  C   UNL     1       7.967  58.691  92.639  1.00  0.00     0.000 C 
BRANCH  15  16
ATOM     16  C   UNL     1       7.056  57.516  92.245  1.00  0.00     0.000 C 
BRANCH  16  17
ATOM     17  C   UNL     1       6.592  57.598  90.782  1.00  0.00    -0.000 C 
BRANCH  17  18
ATOM     18  C   UNL     1       6.762  56.263  90.036  1.00  0.00    -0.000 C 
BRANCH  18  19
ATOM     19  C   UNL     1       8.090  56.182  89.269  1.00  0.00    -0.003 C 
ATOM     20  C   UNL     1       7.899  55.814  87.797  1.00  0.00     0.004 C 
ENDBRANCH  18  19
ENDBRANCH  17  18
ENDBRANCH  16  17
ENDBRANCH  15  16
ENDBRANCH  14  15
ENDBRANCH  13  14
ENDBRANCH   2  13
TORSDOF 15
ENDMDL
MODEL 2
REMARK VINA RESULT:    -4.063      1.735      2.132
REMARK INTER + INTRA:         -10.183
REMARK INTER:                  -8.074
REMARK INTRA:                  -2.110
REMARK UNBOUND:                -2.557
REMARK SMILES CCCCCCCCC=CCCCCCCCC(=O)[O-]
REMARK SMILES IDX 10 1 9 2 11 3 12 4 13 5 14 6 15 7 16 8 17 9 18 10 19 11
REMARK SMILES IDX 20 12 8 13 7 14 6 15 5 16 4 17 3 18 2 19 1 20
REMARK H PARENT
REMARK Flexibility Score: inf
ROOT
ATOM      1  C   UNL     1      11.054  56.119  92.014  1.00  0.00    -0.031 C 
ATOM      2  C   UNL     1      10.037  56.908  91.638  1.00  0.00    -0.031 C 
ENDROOT
BRANCH   1   3
ATOM      3  C   UNL     1      11.000  54.626  91.843  1.00  0.00     0.027 C 
BRANCH   3   4
ATOM      4  C   UNL     1       9.881  54.007  92.696  1.00  0.00     0.004 C 
BRANCH   4   5
ATOM      5  C   UNL     1       9.311  52.721  92.074  1.00  0.00     0.000 C 
BRANCH   5   6
ATOM      6  C   UNL     1      10.250  51.516  92.257  1.00  0.00     0.000 C 
BRANCH   6   7
ATOM      7  C   UNL     1       9.608  50.185  91.824  1.00  0.00     0.000 C 
BRANCH   7   8
ATOM      8  C   UNL     1       8.080  50.228  91.639  1.00  0.00     0.006 C 
BRANCH   8   9
ATOM      9  C   UNL     1       7.616  49.559  90.338  1.00  0.00     0.053 C 
BRANCH   9  10
ATOM     10  C   UNL     1       6.686  50.461  89.589  1.00  0.00     0.041 C 
ATOM     11  O   UNL     1       6.582  51.673  89.914  1.00  0.00    -0.550 OA
ATOM     12  O   UNL     1       5.903  49.955  88.558  1.00  0.00    -0.550 OA
ENDBRANCH   9  10
ENDBRANCH   8   9
ENDBRANCH   7   8
ENDBRANCH   6   7
ENDBRANCH   5   6
ENDBRANCH   4   5
ENDBRANCH   3   4
ENDBRANCH   1   3
BRANCH   2  13
ATOM     13  C   UNL     1      10.089  58.400  91.824  1.00  0.00     0.027 C 
BRANCH  13  14
ATOM     14  C   UNL     1       8.695  59.022  91.655  1.00  0.00     0.004 C 
BRANCH  14  15
ATOM     15  C   UNL     1       7.598  58.195  92.343  1.00  0.00     0.000 C 
BRANCH  15  16
ATOM     16  C   UNL     1       6.609  57.580  91.337  1.00  0.00     0.000 C 
BRANCH  16  17
ATOM     17  C   UNL     1       6.124  56.187  91.767  1.00  0.00    -0.000 C 
BRANCH  17  18
ATOM     18  C   UNL     1       6.796  55.056  90.968  1.00  0.00    -0.000 C 
BRANCH  18  19
ATOM     19  C   UNL     1       7.163  55.484  89.539  1.00  0.00    -0.003 C 
ATOM     20  C   UNL     1       8.525  54.949  89.094  1.00  0.00     0.004 C 
ENDBRANCH  18  19
ENDBRANCH  17  18
ENDBRANCH  16  17
ENDBRANCH  15  16
ENDBRANCH  14  15
ENDBRANCH  13  14
ENDBRANCH   2  13
TORSDOF 15
ENDMDL
MODEL 3
REMARK VINA RESULT:    -4.004      1.521      2.302
REMARK INTER + INTRA:         -10.072
REMARK INTER:                  -7.611
REMARK INTRA:                  -2.461
REMARK UNBOUND:                -2.557
REMARK SMILES CCCCCCCCC=CCCCCCCCC(=O)[O-]
REMARK SMILES IDX 10 1 9 2 11 3 12 4 13 5 14 6 15 7 16 8 17 9 18 10 19 11
REMARK SMILES IDX 20 12 8 13 7 14 6 15 5 16 4 17 3 18 2 19 1 20
REMARK H PARENT
REMARK Flexibility Score: inf
ROOT
ATOM      1  C   UNL     1       9.990  57.110  91.607  1.00  0.00    -0.031 C 
ATOM      2  C   UNL     1       9.874  58.439  91.739  1.00  0.00    -0.031 C 
ENDROOT
BRANCH   1   3
ATOM      3  C   UNL     1      11.314  56.458  91.316  1.00  0.00     0.027 C 
BRANCH   3   4
ATOM      4  C   UNL     1      11.229  54.931  91.468  1.00  0.00     0.004 C 
BRANCH   4   5
ATOM      5  C   UNL     1      10.487  54.508  92.747  1.00  0.00     0.000 C 
BRANCH   5   6
ATOM      6  C   UNL     1       9.350  53.512  92.462  1.00  0.00     0.000 C 
BRANCH   6   7
ATOM      7  C   UNL     1       8.006  54.205  92.166  1.00  0.00     0.000 C 
BRANCH   7   8
ATOM      8  C   UNL     1       7.166  53.548  91.056  1.00  0.00     0.006 C 
BRANCH   8   9
ATOM      9  C   UNL     1       7.879  52.366  90.384  1.00  0.00     0.053 C 
BRANCH   9  10
ATOM     10  C   UNL     1       7.066  51.117  90.522  1.00  0.00     0.041 C 
ATOM     11  O   UNL     1       6.683  50.734  91.659  1.00  0.00    -0.550 OA
ATOM     12  O   UNL     1       6.765  50.354  89.401  1.00  0.00    -0.550 OA
ENDBRANCH   9  10
ENDBRANCH   8   9
ENDBRANCH   7   8
ENDBRANCH   6   7
ENDBRANCH   5   6
ENDBRANCH   4   5
ENDBRANCH   3   4
ENDBRANCH   1   3
BRANCH   2  13
ATOM     13  C   UNL     1       8.546  59.089  92.016  1.00  0.00     0.027 C 
BRANCH  13  14
ATOM     14  C   UNL     1       7.493  58.041  92.404  1.00  0.00     0.004 C 
BRANCH  14  15
ATOM     15  C   UNL     1       6.568  57.677  91.233  1.00  0.00     0.000 C 
BRANCH  15  16
ATOM     16  C   UNL     1       6.647  58.699  90.085  1.00  0.00     0.000 C 
BRANCH  16  17
ATOM     17  C   UNL     1       7.056  58.054  88.752  1.00  0.00    -0.000 C 
BRANCH  17  18
ATOM     18  C   UNL     1       7.667  56.654  88.938  1.00  0.00    -0.000 C 
BRANCH  18  19
ATOM     19  C   UNL     1       7.311  55.699  87.790  1.00  0.00    -0.003 C 
ATOM     20  C   UNL     1       5.865  55.206  87.859  1.00  0.00     0.004 C 
ENDBRANCH  18  19
ENDBRANCH  17  18
ENDBRANCH  16  17
ENDBRANCH  15  16
ENDBRANCH  14  15
ENDBRANCH  13  14
ENDBRANCH   2  13
TORSDOF 15
ENDMDL
MODEL 4
REMARK VINA RESULT:    -3.997      1.425      3.133
REMARK INTER + INTRA:         -10.060
REMARK INTER:                  -7.732
REMARK INTRA:                  -2.328
REMARK UNBOUND:                -2.557
REMARK SMILES CCCCCCCCC=CCCCCCCCC(=O)[O-]
REMARK SMILES IDX 10 1 9 2 11 3 12 4 13 5 14 6 15 7 16 8 17 9 18 10 19 11
REMARK SMILES IDX 20 12 8 13 7 14 6 15 5 16 4 17 3 18 2 19 1 20
REMARK H PARENT
REMARK Flexibility Score: inf
ROOT
ATOM      1  C   UNL     1       8.251  54.119  90.873  1.00  0.00    -0.031 C 
ATOM      2  C   UNL     1       8.697  54.156  92.137  1.00  0.00    -0.031 C 
ENDROOT
BRANCH   1   3
ATOM      3  C   UNL     1       6.867  53.633  90.538  1.00  0.00     0.027 C 
BRANCH   3   4
ATOM      4  C   UNL     1       6.032  53.410  91.808  1.00  0.00     0.004 C 
BRANCH   4   5
ATOM      5  C   UNL     1       5.669  51.930  92.020  1.00  0.00     0.000 C 
BRANCH   5   6
ATOM      6  C   UNL     1       5.384  51.202  90.696  1.00  0.00     0.000 C 
BRANCH   6   7
ATOM      7  C   UNL     1       6.182  49.894  90.547  1.00  0.00     0.000 C 
BRANCH   7   8
ATOM      8  C   UNL     1       7.699  50.074  90.357  1.00  0.00     0.006 C 
BRANCH   8   9
ATOM      9  C   UNL     1       8.529  49.220  91.326  1.00  0.00     0.053 C 
BRANCH   9  10
ATOM     10  C   UNL     1       9.892  49.811  91.508  1.00  0.00     0.041 C 
ATOM     11  O   UNL     1      10.026  50.931  92.069  1.00  0.00    -0.550 OA
ATOM     12  O   UNL     1      11.011  49.145  91.024  1.00  0.00    -0.550 OA
ENDBRANCH   9  10
ENDBRANCH   8   9
ENDBRANCH   7   8
ENDBRANCH   6   7
ENDBRANCH   5   6
ENDBRANCH   4   5
ENDBRANCH   3   4
ENDBRANCH   1   3
BRANCH   2  13
ATOM     13  C   UNL     1      10.086  54.629  92.467  1.00  0.00     0.027 C 
BRANCH  13  14
ATOM     14  C   UNL     1      10.557  55.690  91.461  1.00  0.00     0.004 C 
BRANCH  14  15
ATOM     15  C   UNL     1      11.215  56.897  92.148  1.00  0.00     0.000 C 
BRANCH  15  16
ATOM     16  C   UNL     1      10.395  58.188  91.974  1.00  0.00     0.000 C 
BRANCH  16  17
ATOM     17  C   UNL     1       9.033  57.934  91.311  1.00  0.00    -0.000 C 
BRANCH  17  18
ATOM     18  C   UNL     1       7.855  58.203  92.264  1.00  0.00    -0.000 C 
BRANCH  18  19
ATOM     19  C   UNL     1       6.679  57.243  92.032  1.00  0.00    -0.003 C 
ATOM     20  C   UNL     1       6.151  57.292  90.597  1.00  0.00     0.004 C 
ENDBRANCH  18  19
ENDBRANCH  17  18
ENDBRANCH  16  17
ENDBRANCH  15  16
ENDBRANCH  14  15
ENDBRANCH  13  14
ENDBRANCH   2  13
TORSDOF 15
ENDMDL
MODEL 5
REMARK VINA RESULT:    -3.991      3.743      6.884
REMARK INTER + INTRA:         -10.048
REMARK INTER:                  -7.827
REMARK INTRA:                  -2.221
REMARK UNBOUND:                -2.557
REMARK SMILES CCCCCCCCC=CCCCCCCCC(=O)[O-]
REMARK SMILES IDX 10 1 9 2 11 3 12 4 13 5 14 6 15 7 16 8 17 9 18 10 19 11
REMARK SMILES IDX 20 12 8 13 7 14 6 15 5 16 4 17 3 18 2 19 1 20
REMARK H PARENT
REMARK Flexibility Score: inf
ROOT
ATOM      1  C   UNL     1       8.910  54.123  92.299  1.00  0.00    -0.031 C 
ATOM      2  C   UNL     1       8.455  54.186  91.039  1.00  0.00    -0.031 C 
ENDROOT
BRANCH   1   3
ATOM      3  C   UNL     1      10.370  54.281  92.621  1.00  0.00     0.027 C 
BRANCH   3   4
ATOM      4  C   UNL     1      11.142  54.878  91.433  1.00  0.00     0.004 C 
BRANCH   4   5
ATOM      5  C   UNL     1      11.972  56.109  91.832  1.00  0.00     0.000 C 
BRANCH   5   6
ATOM      6  C   UNL     1      11.091  57.296  92.259  1.00  0.00     0.000 C 
BRANCH   6   7
ATOM      7  C   UNL     1      10.080  57.712  91.175  1.00  0.00     0.000 C 
BRANCH   7   8
ATOM      8  C   UNL     1       8.612  57.760  91.637  1.00  0.00     0.006 C 
BRANCH   8   9
ATOM      9  C   UNL     1       8.215  59.118  92.231  1.00  0.00     0.053 C 
BRANCH   9  10
ATOM     10  C   UNL     1       7.527  59.958  91.201  1.00  0.00     0.041 C 
ATOM     11  O   UNL     1       6.966  59.415  90.213  1.00  0.00    -0.550 OA
ATOM     12  O   UNL     1       7.539  61.344  91.310  1.00  0.00    -0.550 OA
ENDBRANCH   9  10
ENDBRANCH   8   9
ENDBRANCH   7   8
ENDBRANCH   6   7
ENDBRANCH   5   6
ENDBRANCH   4   5
ENDBRANCH   3   4
ENDBRANCH   1   3
BRANCH   2  13
ATOM     13  C   UNL     1       6.996  54.013  90.719  1.00  0.00     0.027 C 
BRANCH  13  14
ATOM     14  C   UNL     1       6.150  54.016  92.001  1.00  0.00     0.004 C 
BRANCH  14  15
ATOM     15  C   UNL     1       5.496  52.653  92.274  1.00  0.00     0.000 C 
BRANCH  15  16
ATOM     16  C   UNL     1       5.684  51.668  91.107  1.00  0.00     0.000 C 
BRANCH  16  17
ATOM     17  C   UNL     1       6.536  50.450  91.497  1.00  0.00    -0.000 C 
BRANCH  17  18
ATOM     18  C   UNL     1       7.870  50.395  90.731  1.00  0.00    -0.000 C 
BRANCH  18  19
ATOM     19  C   UNL     1       9.088  50.447  91.666  1.00  0.00    -0.003 C 
ATOM     20  C   UNL     1      10.201  49.489  91.239  1.00  0.00     0.004 C 
ENDBRANCH  18  19
ENDBRANCH  17  18
ENDBRANCH  16  17
ENDBRANCH  15  16
ENDBRANCH  14  15
ENDBRANCH  13  14
ENDBRANCH   2  13
TORSDOF 15
ENDMDL
MODEL 6
REMARK VINA RESULT:    -3.978      3.807      6.273
REMARK INTER + INTRA:         -10.023
REMARK INTER:                  -7.205
REMARK INTRA:                  -2.817
REMARK UNBOUND:                -2.557
REMARK SMILES CCCCCCCCC=CCCCCCCCC(=O)[O-]
REMARK SMILES IDX 10 1 9 2 11 3 12 4 13 5 14 6 15 7 16 8 17 9 18 10 19 11
REMARK SMILES IDX 20 12 8 13 7 14 6 15 5 16 4 17 3 18 2 19 1 20
REMARK H PARENT
REMARK Flexibility Score: inf
ROOT
ATOM      1  C   UNL     1       9.589  57.314  91.624  1.00  0.00    -0.031 C 
ATOM      2  C   UNL     1      10.874  57.049  91.904  1.00  0.00    -0.031 C 
ENDROOT
BRANCH   1   3
ATOM      3  C   UNL     1       9.055  58.720  91.621  1.00  0.00     0.027 C 
BRANCH   3   4
ATOM      4  C   UNL     1       7.531  58.738  91.814  1.00  0.00     0.004 C 
BRANCH   4   5
ATOM      5  C   UNL     1       6.946  57.328  92.003  1.00  0.00     0.000 C 
BRANCH   5   6
ATOM      6  C   UNL     1       5.876  56.993  90.950  1.00  0.00     0.000 C 
BRANCH   6   7
ATOM      7  C   UNL     1       5.320  58.242  90.242  1.00  0.00     0.000 C 
BRANCH   7   8
ATOM      8  C   UNL     1       5.460  58.238  88.709  1.00  0.00     0.006 C 
BRANCH   8   9
ATOM      9  C   UNL     1       6.602  59.135  88.209  1.00  0.00     0.053 C 
BRANCH   9  10
ATOM     10  C   UNL     1       6.731  59.038  86.722  1.00  0.00     0.041 C 
ATOM     11  O   UNL     1       6.956  60.072  86.038  1.00  0.00    -0.550 OA
ATOM     12  O   UNL     1       6.564  57.814  86.085  1.00  0.00    -0.550 OA
ENDBRANCH   9  10
ENDBRANCH   8   9
ENDBRANCH   7   8
ENDBRANCH   6   7
ENDBRANCH   5   6
ENDBRANCH   4   5
ENDBRANCH   3   4
ENDBRANCH   1   3
BRANCH   2  13
ATOM     13  C   UNL     1      11.401  55.640  91.920  1.00  0.00     0.027 C 
BRANCH  13  14
ATOM     14  C   UNL     1      10.492  54.725  92.753  1.00  0.00     0.004 C 
BRANCH  14  15
ATOM     15  C   UNL     1      10.546  53.263  92.284  1.00  0.00     0.000 C 
BRANCH  15  16
ATOM     16  C   UNL     1       9.153  52.705  91.940  1.00  0.00     0.000 C 
BRANCH  16  17
ATOM     17  C   UNL     1       8.133  53.816  91.644  1.00  0.00    -0.000 C 
BRANCH  17  18
ATOM     18  C   UNL     1       7.780  53.906  90.149  1.00  0.00    -0.000 C 
BRANCH  18  19
ATOM     19  C   UNL     1       8.830  54.685  89.342  1.00  0.00    -0.003 C 
ATOM     20  C   UNL     1       8.207  55.742  88.429  1.00  0.00     0.004 C 
ENDBRANCH  18  19
ENDBRANCH  17  18
ENDBRANCH  16  17
ENDBRANCH  15  16
ENDBRANCH  14  15
ENDBRANCH  13  14
ENDBRANCH   2  13
TORSDOF 15
ENDMDL
MODEL 7
REMARK VINA RESULT:    -3.973      3.196      5.608
REMARK INTER + INTRA:         -10.014
REMARK INTER:                  -7.537
REMARK INTRA:                  -2.477
REMARK UNBOUND:                -2.557
REMARK SMILES CCCCCCCCC=CCCCCCCCC(=O)[O-]
REMARK SMILES IDX 10 1 9 2 11 3 12 4 13 5 14 6 15 7 16 8 17 9 18 10 19 11
REMARK SMILES IDX 20 12 8 13 7 14 6 15 5 16 4 17 3 18 2 19 1 20
REMARK H PARENT
REMARK Flexibility Score: inf
ROOT
ATOM      1  C   UNL     1       9.276  58.601  92.362  1.00  0.00    -0.031 C 
ATOM      2  C   UNL     1      10.065  57.869  91.561  1.00  0.00    -0.031 C 
ENDROOT
BRANCH   1   3
ATOM      3  C   UNL     1       8.091  59.358  91.827  1.00  0.00     0.027 C 
BRANCH   3   4
ATOM      4  C   UNL     1       7.119  58.423  91.091  1.00  0.00     0.004 C 
BRANCH   4   5
ATOM      5  C   UNL     1       6.650  59.004  89.746  1.00  0.00     0.000 C 
BRANCH   5   6
ATOM      6  C   UNL     1       6.949  58.064  88.566  1.00  0.00     0.000 C 
BRANCH   6   7
ATOM      7  C   UNL     1       7.725  56.802  88.987  1.00  0.00     0.000 C 
BRANCH   7   8
ATOM      8  C   UNL     1       7.907  55.750  87.879  1.00  0.00     0.006 C 
BRANCH   8   9
ATOM      9  C   UNL     1       7.472  56.254  86.496  1.00  0.00     0.053 C 
BRANCH   9  10
ATOM     10  C   UNL     1       6.290  55.480  86.004  1.00  0.00     0.041 C 
ATOM     11  O   UNL     1       5.544  54.877  86.821  1.00  0.00    -0.550 OA
ATOM     12  O   UNL     1       6.034  55.389  84.641  1.00  0.00    -0.550 OA
ENDBRANCH   9  10
ENDBRANCH   8   9
ENDBRANCH   7   8
ENDBRANCH   6   7
ENDBRANCH   5   6
ENDBRANCH   4   5
ENDBRANCH   3   4
ENDBRANCH   1   3
BRANCH   2  13
ATOM     13  C   UNL     1      11.257  57.125  92.098  1.00  0.00     0.027 C 
BRANCH  13  14
ATOM     14  C   UNL     1      11.710  56.035  91.116  1.00  0.00     0.004 C 
BRANCH  14  15
ATOM     15  C   UNL     1      10.603  55.010  90.826  1.00  0.00     0.000 C 
BRANCH  15  16
ATOM     16  C   UNL     1      10.519  53.917  91.906  1.00  0.00     0.000 C 
BRANCH  16  17
ATOM     17  C   UNL     1       9.249  54.036  92.764  1.00  0.00    -0.000 C 
BRANCH  17  18
ATOM     18  C   UNL     1       8.103  54.746  92.024  1.00  0.00    -0.000 C 
BRANCH  18  19
ATOM     19  C   UNL     1       7.128  53.759  91.364  1.00  0.00    -0.003 C 
ATOM     20  C   UNL     1       5.801  54.411  90.974  1.00  0.00     0.004 C 
ENDBRANCH  18  19
ENDBRANCH  17  18
ENDBRANCH  16  17
ENDBRANCH  15  16
ENDBRANCH  14  15
ENDBRANCH  13  14
ENDBRANCH   2  13
TORSDOF 15
ENDMDL
MODEL 8
REMARK VINA RESULT:    -3.949      2.591      6.001
REMARK INTER + INTRA:          -9.969
REMARK INTER:                  -7.298
REMARK INTRA:                  -2.671
REMARK UNBOUND:                -2.557
REMARK SMILES CCCCCCCCC=CCCCCCCCC(=O)[O-]
REMARK SMILES IDX 10 1 9 2 11 3 12 4 13 5 14 6 15 7 16 8 17 9 18 10 19 11
REMARK SMILES IDX 20 12 8 13 7 14 6 15 5 16 4 17 3 18 2 19 1 20
REMARK H PARENT
REMARK Flexibility Score: inf
ROOT
ATOM      1  C   UNL     1       9.733  54.638  92.414  1.00  0.00    -0.031 C 
ATOM      2  C   UNL     1       8.620  54.429  91.696  1.00  0.00    -0.031 C 
ENDROOT
BRANCH   1   3
ATOM      3  C   UNL     1      11.009  55.112  91.773  1.00  0.00     0.027 C 
BRANCH   3   4
ATOM      4  C   UNL     1      10.808  56.459  91.061  1.00  0.00     0.004 C 
BRANCH   4   5
ATOM      5  C   UNL     1      10.549  57.611  92.045  1.00  0.00     0.000 C 
BRANCH   5   6
ATOM      6  C   UNL     1       9.408  58.532  91.581  1.00  0.00     0.000 C 
BRANCH   6   7
ATOM      7  C   UNL     1       8.030  58.090  92.106  1.00  0.00     0.000 C 
BRANCH   7   8
ATOM      8  C   UNL     1       7.015  57.692  91.018  1.00  0.00     0.006 C 
BRANCH   8   9
ATOM      9  C   UNL     1       7.596  57.770  89.600  1.00  0.00     0.053 C 
BRANCH   9  10
ATOM     10  C   UNL     1       7.324  56.503  88.852  1.00  0.00     0.041 C 
ATOM     11  O   UNL     1       6.138  56.120  88.666  1.00  0.00    -0.550 OA
ATOM     12  O   UNL     1       8.379  55.722  88.396  1.00  0.00    -0.550 OA
ENDBRANCH   9  10
ENDBRANCH   8   9
ENDBRANCH   7   8
ENDBRANCH   6   7
ENDBRANCH   5   6
ENDBRANCH   4   5
ENDBRANCH   3   4
ENDBRANCH   1   3
BRANCH   2  13
ATOM     13  C   UNL     1       7.350  53.941  92.338  1.00  0.00     0.027 C 
BRANCH  13  14
ATOM     14  C   UNL     1       6.172  54.026  91.357  1.00  0.00     0.004 C 
BRANCH  14  15
ATOM     15  C   UNL     1       6.049  52.771  90.479  1.00  0.00     0.000 C 
BRANCH  15  16
ATOM     16  C   UNL     1       5.667  51.522  91.293  1.00  0.00     0.000 C 
BRANCH  16  17
ATOM     17  C   UNL     1       6.448  50.274  90.854  1.00  0.00    -0.000 C 
BRANCH  17  18
ATOM     18  C   UNL     1       7.922  50.583  90.536  1.00  0.00    -0.000 C 
BRANCH  18  19
ATOM     19  C   UNL     1       8.886  49.981  91.569  1.00  0.00    -0.003 C 
ATOM     20  C   UNL     1       9.893  51.002  92.102  1.00  0.00     0.004 C 
ENDBRANCH  18  19
ENDBRANCH  17  18
ENDBRANCH  16  17
ENDBRANCH  15  16
ENDBRANCH  14  15
ENDBRANCH  13  14
ENDBRANCH   2  13
TORSDOF 15
ENDMDL
MODEL 9
REMARK VINA RESULT:    -3.933      2.916      5.776
REMARK INTER + INTRA:          -9.939
REMARK INTER:                  -7.405
REMARK INTRA:                  -2.534
REMARK UNBOUND:                -2.557
REMARK SMILES CCCCCCCCC=CCCCCCCCC(=O)[O-]
REMARK SMILES IDX 10 1 9 2 11 3 12 4 13 5 14 6 15 7 16 8 17 9 18 10 19 11
REMARK SMILES IDX 20 12 8 13 7 14 6 15 5 16 4 17 3 18 2 19 1 20
REMARK H PARENT
REMARK Flexibility Score: inf
ROOT
ATOM      1  C   UNL     1       9.945  56.912  91.896  1.00  0.00    -0.031 C 
ATOM      2  C   UNL     1      10.352  56.043  90.959  1.00  0.00    -0.031 C 
ENDROOT
BRANCH   1   3
ATOM      3  C   UNL     1       9.975  58.397  91.663  1.00  0.00     0.027 C 
BRANCH   3   4
ATOM      4  C   UNL     1       8.592  59.026  91.894  1.00  0.00     0.004 C 
BRANCH   4   5
ATOM      5  C   UNL     1       7.497  57.970  92.120  1.00  0.00     0.000 C 
BRANCH   5   6
ATOM      6  C   UNL     1       6.473  57.933  90.973  1.00  0.00     0.000 C 
BRANCH   6   7
ATOM      7  C   UNL     1       6.706  56.764  89.999  1.00  0.00     0.000 C 
BRANCH   7   8
ATOM      8  C   UNL     1       7.559  57.104  88.763  1.00  0.00     0.006 C 
BRANCH   8   9
ATOM      9  C   UNL     1       7.839  55.885  87.874  1.00  0.00     0.053 C 
BRANCH   9  10
ATOM     10  C   UNL     1       6.875  55.838  86.731  1.00  0.00     0.041 C 
ATOM     11  O   UNL     1       5.853  55.105  86.795  1.00  0.00    -0.550 OA
ATOM     12  O   UNL     1       7.125  56.572  85.577  1.00  0.00    -0.550 OA
ENDBRANCH   9  10
ENDBRANCH   8   9
ENDBRANCH   7   8
ENDBRANCH   6   7
ENDBRANCH   5   6
ENDBRANCH   4   5
ENDBRANCH   3   4
ENDBRANCH   1   3
BRANCH   2  13
ATOM     13  C   UNL     1      10.334  54.558  91.202  1.00  0.00     0.027 C 
BRANCH  13  14
ATOM     14  C   UNL     1       9.427  54.208  92.391  1.00  0.00     0.004 C 
BRANCH  14  15
ATOM     15  C   UNL     1       7.955  54.052  91.978  1.00  0.00     0.000 C 
BRANCH  15  16
ATOM     16  C   UNL     1       7.795  53.259  90.669  1.00  0.00     0.000 C 
BRANCH  16  17
ATOM     17  C   UNL     1       6.684  52.201  90.756  1.00  0.00    -0.000 C 
BRANCH  17  18
ATOM     18  C   UNL     1       7.133  50.937  91.510  1.00  0.00    -0.000 C 
BRANCH  18  19
ATOM     19  C   UNL     1       8.271  50.197  90.791  1.00  0.00    -0.003 C 
ATOM     20  C   UNL     1       9.553  50.134  91.623  1.00  0.00     0.004 C 
ENDBRANCH  18  19
ENDBRANCH  17  18
ENDBRANCH  16  17
ENDBRANCH  15  16
ENDBRANCH  14  15
ENDBRANCH  13  14
ENDBRANCH   2  13
TORSDOF 15
ENDMDL
