MODEL 1
REMARK VINA RESULT:    -6.056      0.000      0.000
REMARK INTER + INTRA:          -7.638
REMARK INTER:                  -7.295
REMARK INTRA:                  -0.342
REMARK UNBOUND:                -0.342
REMARK SMILES Oc1cc(O)c2cc(O)c(-c3ccc(O)c(O)c3)[o+]c2c1
REMARK SMILES IDX 10 1 19 2 20 3 21 4 2 5 3 6 4 7 6 8 7 9 8 10 11 11 12 12
REMARK SMILES IDX 13 13 14 14 18 15 16 16 15 17 17 19 9 21 1 23 5 25
REMARK H PARENT 15 18 17 20 9 22 1 24 5 26
REMARK Flexibility Score: inf
ROOT
ATOM      1  C   UNL     1     110.291 103.909 100.690  1.00  0.00     0.402 A 
ATOM      2  O   UNL     1     110.262 102.962 101.624  1.00  0.00    -0.202 OA
ATOM      3  C   UNL     1     109.418 102.975 102.650  1.00  0.00     0.368 A 
ATOM      4  C   UNL     1     109.462 101.932 103.579  1.00  0.00     0.162 A 
ATOM      5  C   UNL     1     108.586 101.918 104.666  1.00  0.00     0.128 A 
ATOM      6  C   UNL     1     107.658 102.954 104.824  1.00  0.00     0.093 A 
ATOM      7  C   UNL     1     107.594 104.009 103.908  1.00  0.00     0.136 A 
ATOM      8  C   UNL     1     108.485 104.029 102.803  1.00  0.00     0.125 A 
ATOM      9  C   UNL     1     108.502 105.053 101.842  1.00  0.00     0.078 A 
ATOM     10  C   UNL     1     109.413 105.005 100.784  1.00  0.00     0.223 A 
ENDROOT
BRANCH   1  11
ATOM     11  C   UNL     1     111.272 103.777  99.588  1.00  0.00     0.087 A 
ATOM     12  C   UNL     1     112.614 104.113  99.815  1.00  0.00     0.022 A 
ATOM     13  C   UNL     1     113.558 103.978  98.797  1.00  0.00     0.051 A 
ATOM     14  C   UNL     1     113.188 103.491  97.538  1.00  0.00     0.157 A 
ATOM     15  C   UNL     1     110.900 103.267  98.333  1.00  0.00     0.068 A 
ATOM     16  C   UNL     1     111.841 103.124  97.306  1.00  0.00     0.158 A 
BRANCH  14  17
ATOM     17  O   UNL     1     114.179 103.387  96.561  1.00  0.00    -0.504 OA
ATOM     18  H   UNL     1     114.178 102.692  95.828  1.00  0.00     0.293 HD
ENDBRANCH  14  17
BRANCH  16  19
ATOM     19  O   UNL     1     111.401 102.612  96.083  1.00  0.00    -0.504 OA
ATOM     20  H   UNL     1     112.016 102.259  95.364  1.00  0.00     0.293 HD
ENDBRANCH  16  19
ENDBRANCH   1  11
BRANCH  10  21
ATOM     21  O   UNL     1     109.464 106.046  99.857  1.00  0.00    -0.500 OA
ATOM     22  H   UNL     1     110.210 106.116  99.175  1.00  0.00     0.294 HD
ENDBRANCH  10  21
BRANCH   5  23
ATOM     23  O   UNL     1     108.644 100.869 105.581  1.00  0.00    -0.507 OA
ATOM     24  H   UNL     1     108.770 101.037 106.572  1.00  0.00     0.293 HD
ENDBRANCH   5  23
BRANCH   7  25
ATOM     25  O   UNL     1     106.637 105.003 104.136  1.00  0.00    -0.507 OA
ATOM     26  H   UNL     1     106.391 105.722 103.471  1.00  0.00     0.293 HD
ENDBRANCH   7  25
TORSDOF 6
ENDMDL
MODEL 2
REMARK VINA RESULT:    -6.020      3.652      6.156
REMARK INTER + INTRA:          -7.595
REMARK INTER:                  -7.679
REMARK INTRA:                   0.084
REMARK UNBOUND:                -0.342
REMARK SMILES Oc1cc(O)c2cc(O)c(-c3ccc(O)c(O)c3)[o+]c2c1
REMARK SMILES IDX 10 1 19 2 20 3 21 4 2 5 3 6 4 7 6 8 7 9 8 10 11 11 12 12
REMARK SMILES IDX 13 13 14 14 18 15 16 16 15 17 17 19 9 21 1 23 5 25
REMARK H PARENT 15 18 17 20 9 22 1 24 5 26
REMARK Flexibility Score: inf
ROOT
ATOM      1  C   UNL     1     110.314 103.138  97.288  1.00  0.00     0.402 A 
ATOM      2  O   UNL     1     111.457 103.771  97.036  1.00  0.00    -0.202 OA
ATOM      3  C   UNL     1     112.165 104.398  97.968  1.00  0.00     0.368 A 
ATOM      4  C   UNL     1     113.356 105.032  97.605  1.00  0.00     0.162 A 
ATOM      5  C   UNL     1     114.123 105.697  98.564  1.00  0.00     0.128 A 
ATOM      6  C   UNL     1     113.696 105.727  99.897  1.00  0.00     0.093 A 
ATOM      7  C   UNL     1     112.507 105.100 100.286  1.00  0.00     0.136 A 
ATOM      8  C   UNL     1     111.723 104.425  99.313  1.00  0.00     0.125 A 
ATOM      9  C   UNL     1     110.511 103.780  99.610  1.00  0.00     0.078 A 
ATOM     10  C   UNL     1     109.792 103.141  98.595  1.00  0.00     0.223 A 
ENDROOT
BRANCH   1  11
ATOM     11  C   UNL     1     109.622 102.467  96.164  1.00  0.00     0.087 A 
ATOM     12  C   UNL     1     108.240 102.637  96.006  1.00  0.00     0.022 A 
ATOM     13  C   UNL     1     107.570 102.029  94.943  1.00  0.00     0.051 A 
ATOM     14  C   UNL     1     108.267 101.252  94.010  1.00  0.00     0.157 A 
ATOM     15  C   UNL     1     110.329 101.707  95.218  1.00  0.00     0.068 A 
ATOM     16  C   UNL     1     109.667 101.095  94.145  1.00  0.00     0.158 A 
BRANCH  14  17
ATOM     17  O   UNL     1     107.537 100.666  92.974  1.00  0.00    -0.504 OA
ATOM     18  H   UNL     1     106.529 100.618  92.951  1.00  0.00     0.293 HD
ENDBRANCH  14  17
BRANCH  16  19
ATOM     19  O   UNL     1     110.431 100.353  93.243  1.00  0.00    -0.504 OA
ATOM     20  H   UNL     1     111.012 100.762  92.524  1.00  0.00     0.293 HD
ENDBRANCH  16  19
ENDBRANCH   1  11
BRANCH  10  21
ATOM     21  O   UNL     1     108.565 102.543  98.879  1.00  0.00    -0.500 OA
ATOM     22  H   UNL     1     107.856 103.016  99.427  1.00  0.00     0.294 HD
ENDBRANCH  10  21
BRANCH   5  23
ATOM     23  O   UNL     1     115.308 106.322  98.184  1.00  0.00    -0.507 OA
ATOM     24  H   UNL     1     116.203 105.855  98.262  1.00  0.00     0.293 HD
ENDBRANCH   5  23
BRANCH   7  25
ATOM     25  O   UNL     1     112.152 105.173 101.636  1.00  0.00    -0.507 OA
ATOM     26  H   UNL     1     112.763 105.504 102.370  1.00  0.00     0.293 HD
ENDBRANCH   7  25
TORSDOF 6
ENDMDL
MODEL 3
REMARK VINA RESULT:    -5.860     11.917     14.293
REMARK INTER + INTRA:          -7.401
REMARK INTER:                  -7.063
REMARK INTRA:                  -0.338
REMARK UNBOUND:                -0.342
REMARK SMILES Oc1cc(O)c2cc(O)c(-c3ccc(O)c(O)c3)[o+]c2c1
REMARK SMILES IDX 10 1 19 2 20 3 21 4 2 5 3 6 4 7 6 8 7 9 8 10 11 11 12 12
REMARK SMILES IDX 13 13 14 14 18 15 16 16 15 17 17 19 9 21 1 23 5 25
REMARK H PARENT 15 18 17 20 9 22 1 24 5 26
REMARK Flexibility Score: inf
ROOT
ATOM      1  C   UNL     1     110.745 113.155  93.068  1.00  0.00     0.402 A 
ATOM      2  O   UNL     1     111.342 113.139  91.879  1.00  0.00    -0.202 OA
ATOM      3  C   UNL     1     112.629 112.856  91.713  1.00  0.00     0.368 A 
ATOM      4  C   UNL     1     113.166 112.861  90.423  1.00  0.00     0.162 A 
ATOM      5  C   UNL     1     114.515 112.566  90.218  1.00  0.00     0.128 A 
ATOM      6  C   UNL     1     115.334 112.262  91.311  1.00  0.00     0.093 A 
ATOM      7  C   UNL     1     114.821 112.250  92.614  1.00  0.00     0.136 A 
ATOM      8  C   UNL     1     113.451 112.553  92.826  1.00  0.00     0.125 A 
ATOM      9  C   UNL     1     112.854 112.578  94.097  1.00  0.00     0.078 A 
ATOM     10  C   UNL     1     111.497 112.890  94.228  1.00  0.00     0.223 A 
ENDROOT
BRANCH   1  11
ATOM     11  C   UNL     1     109.300 113.474  93.122  1.00  0.00     0.087 A 
ATOM     12  C   UNL     1     108.894 114.798  93.340  1.00  0.00     0.022 A 
ATOM     13  C   UNL     1     107.538 115.125  93.376  1.00  0.00     0.051 A 
ATOM     14  C   UNL     1     106.561 114.142  93.180  1.00  0.00     0.157 A 
ATOM     15  C   UNL     1     108.323 112.489  92.903  1.00  0.00     0.068 A 
ATOM     16  C   UNL     1     106.959 112.807  92.932  1.00  0.00     0.158 A 
BRANCH  14  17
ATOM     17  O   UNL     1     105.221 114.533  93.234  1.00  0.00    -0.504 OA
ATOM     18  H   UNL     1     104.666 114.759  92.422  1.00  0.00     0.293 HD
ENDBRANCH  14  17
BRANCH  16  19
ATOM     19  O   UNL     1     106.043 111.778  92.708  1.00  0.00    -0.504 OA
ATOM     20  H   UNL     1     105.041 111.895  92.745  1.00  0.00     0.293 HD
ENDBRANCH  16  19
ENDBRANCH   1  11
BRANCH  10  21
ATOM     21  O   UNL     1     110.915 112.963  95.493  1.00  0.00    -0.500 OA
ATOM     22  H   UNL     1     111.454 112.808  96.337  1.00  0.00     0.294 HD
ENDBRANCH  10  21
BRANCH   5  23
ATOM     23  O   UNL     1     115.031 112.576  88.924  1.00  0.00    -0.507 OA
ATOM     24  H   UNL     1     115.966 112.243  88.724  1.00  0.00     0.293 HD
ENDBRANCH   5  23
BRANCH   7  25
ATOM     25  O   UNL     1     115.704 111.934  93.650  1.00  0.00    -0.507 OA
ATOM     26  H   UNL     1     115.553 111.197  94.324  1.00  0.00     0.293 HD
ENDBRANCH   7  25
TORSDOF 6
ENDMDL
MODEL 4
REMARK VINA RESULT:    -5.859      5.631      7.351
REMARK INTER + INTRA:          -7.400
REMARK INTER:                  -7.175
REMARK INTRA:                  -0.225
REMARK UNBOUND:                -0.342
REMARK SMILES Oc1cc(O)c2cc(O)c(-c3ccc(O)c(O)c3)[o+]c2c1
REMARK SMILES IDX 10 1 19 2 20 3 21 4 2 5 3 6 4 7 6 8 7 9 8 10 11 11 12 12
REMARK SMILES IDX 13 13 14 14 18 15 16 16 15 17 17 19 9 21 1 23 5 25
REMARK H PARENT 15 18 17 20 9 22 1 24 5 26
REMARK Flexibility Score: inf
ROOT
ATOM      1  C   UNL     1     106.729 104.187  96.503  1.00  0.00     0.402 A 
ATOM      2  O   UNL     1     106.762 105.360  95.876  1.00  0.00    -0.202 OA
ATOM      3  C   UNL     1     106.100 106.432  96.298  1.00  0.00     0.368 A 
ATOM      4  C   UNL     1     106.201 107.622  95.573  1.00  0.00     0.162 A 
ATOM      5  C   UNL     1     105.519 108.765  95.994  1.00  0.00     0.128 A 
ATOM      6  C   UNL     1     104.729 108.718  97.149  1.00  0.00     0.093 A 
ATOM      7  C   UNL     1     104.612 107.537  97.892  1.00  0.00     0.136 A 
ATOM      8  C   UNL     1     105.302 106.373  97.466  1.00  0.00     0.125 A 
ATOM      9  C   UNL     1     105.232 105.143  98.141  1.00  0.00     0.078 A 
ATOM     10  C   UNL     1     105.937 104.038  97.657  1.00  0.00     0.223 A 
ENDROOT
BRANCH   1  11
ATOM     11  C   UNL     1     107.519 103.068  95.939  1.00  0.00     0.087 A 
ATOM     12  C   UNL     1     108.602 102.555  96.666  1.00  0.00     0.022 A 
ATOM     13  C   UNL     1     109.349 101.489  96.162  1.00  0.00     0.051 A 
ATOM     14  C   UNL     1     109.023 100.905  94.933  1.00  0.00     0.157 A 
ATOM     15  C   UNL     1     107.174 102.471  94.715  1.00  0.00     0.068 A 
ATOM     16  C   UNL     1     107.915 101.398  94.203  1.00  0.00     0.158 A 
BRANCH  14  17
ATOM     17  O   UNL     1     109.814  99.846  94.483  1.00  0.00    -0.504 OA
ATOM     18  H   UNL     1     109.586  98.873  94.622  1.00  0.00     0.293 HD
ENDBRANCH  14  17
BRANCH  16  19
ATOM     19  O   UNL     1     107.517 100.854  92.981  1.00  0.00    -0.504 OA
ATOM     20  H   UNL     1     108.150 100.431  92.317  1.00  0.00     0.293 HD
ENDBRANCH  16  19
ENDBRANCH   1  11
BRANCH  10  21
ATOM     21  O   UNL     1     105.829 102.804  98.299  1.00  0.00    -0.500 OA
ATOM     22  H   UNL     1     106.327 102.605  99.159  1.00  0.00     0.294 HD
ENDBRANCH  10  21
BRANCH   5  23
ATOM     23  O   UNL     1     105.632 109.942  95.259  1.00  0.00    -0.507 OA
ATOM     24  H   UNL     1     106.488 110.484  95.254  1.00  0.00     0.293 HD
ENDBRANCH   5  23
BRANCH   7  25
ATOM     25  O   UNL     1     103.807 107.574  99.035  1.00  0.00    -0.507 OA
ATOM     26  H   UNL     1     103.855 106.904  99.789  1.00  0.00     0.293 HD
ENDBRANCH   7  25
TORSDOF 6
ENDMDL
MODEL 5
REMARK VINA RESULT:    -5.848      8.555     10.989
REMARK INTER + INTRA:          -7.387
REMARK INTER:                  -7.114
REMARK INTRA:                  -0.272
REMARK UNBOUND:                -0.342
REMARK SMILES Oc1cc(O)c2cc(O)c(-c3ccc(O)c(O)c3)[o+]c2c1
REMARK SMILES IDX 10 1 19 2 20 3 21 4 2 5 3 6 4 7 6 8 7 9 8 10 11 11 12 12
REMARK SMILES IDX 13 13 14 14 18 15 16 16 15 17 17 19 9 21 1 23 5 25
REMARK H PARENT 15 18 17 20 9 22 1 24 5 26
REMARK Flexibility Score: inf
ROOT
ATOM      1  C   UNL     1     105.829 109.461  95.495  1.00  0.00     0.402 A 
ATOM      2  O   UNL     1     106.694 110.092  94.706  1.00  0.00    -0.202 OA
ATOM      3  C   UNL     1     106.546 111.356  94.325  1.00  0.00     0.368 A 
ATOM      4  C   UNL     1     107.512 111.934  93.497  1.00  0.00     0.162 A 
ATOM      5  C   UNL     1     107.384 113.261  93.082  1.00  0.00     0.128 A 
ATOM      6  C   UNL     1     106.282 114.017  93.500  1.00  0.00     0.093 A 
ATOM      7  C   UNL     1     105.301 113.461  94.329  1.00  0.00     0.136 A 
ATOM      8  C   UNL     1     105.427 112.112  94.750  1.00  0.00     0.125 A 
ATOM      9  C   UNL     1     104.486 111.468  95.571  1.00  0.00     0.078 A 
ATOM     10  C   UNL     1     104.675 110.133  95.940  1.00  0.00     0.223 A 
ENDROOT
BRANCH   1  11
ATOM     11  C   UNL     1     106.111 108.053  95.859  1.00  0.00     0.087 A 
ATOM     12  C   UNL     1     106.489 107.743  97.172  1.00  0.00     0.022 A 
ATOM     13  C   UNL     1     106.741 106.421  97.542  1.00  0.00     0.051 A 
ATOM     14  C   UNL     1     106.606 105.382  96.614  1.00  0.00     0.157 A 
ATOM     15  C   UNL     1     105.952 107.011  94.931  1.00  0.00     0.068 A 
ATOM     16  C   UNL     1     106.198 105.680  95.292  1.00  0.00     0.158 A 
BRANCH  14  17
ATOM     17  O   UNL     1     106.879 104.082  97.046  1.00  0.00    -0.504 OA
ATOM     18  H   UNL     1     106.192 103.343  97.078  1.00  0.00     0.293 HD
ENDBRANCH  14  17
BRANCH  16  19
ATOM     19  O   UNL     1     106.021 104.695  94.319  1.00  0.00    -0.504 OA
ATOM     20  H   UNL     1     105.973 103.706  94.517  1.00  0.00     0.293 HD
ENDBRANCH  16  19
ENDBRANCH   1  11
BRANCH  10  21
ATOM     21  O   UNL     1     103.717 109.479  96.714  1.00  0.00    -0.500 OA
ATOM     22  H   UNL     1     103.367 108.561  96.465  1.00  0.00     0.294 HD
ENDBRANCH  10  21
BRANCH   5  23
ATOM     23  O   UNL     1     108.357 113.820  92.257  1.00  0.00    -0.507 OA
ATOM     24  H   UNL     1     108.967 113.242  91.691  1.00  0.00     0.293 HD
ENDBRANCH   5  23
BRANCH   7  25
ATOM     25  O   UNL     1     104.234 114.283  94.704  1.00  0.00    -0.507 OA
ATOM     26  H   UNL     1     103.357 113.947  95.073  1.00  0.00     0.293 HD
ENDBRANCH   7  25
TORSDOF 6
ENDMDL
MODEL 6
REMARK VINA RESULT:    -5.839      5.249      6.219
REMARK INTER + INTRA:          -7.377
REMARK INTER:                  -7.538
REMARK INTRA:                   0.161
REMARK UNBOUND:                -0.342
REMARK SMILES Oc1cc(O)c2cc(O)c(-c3ccc(O)c(O)c3)[o+]c2c1
REMARK SMILES IDX 10 1 19 2 20 3 21 4 2 5 3 6 4 7 6 8 7 9 8 10 11 11 12 12
REMARK SMILES IDX 13 13 14 14 18 15 16 16 15 17 17 19 9 21 1 23 5 25
REMARK H PARENT 15 18 17 20 9 22 1 24 5 26
REMARK Flexibility Score: inf
ROOT
ATOM      1  C   UNL     1     107.078 103.634  96.792  1.00  0.00     0.402 A 
ATOM      2  O   UNL     1     105.768 103.411  96.851  1.00  0.00    -0.202 OA
ATOM      3  C   UNL     1     104.931 104.162  97.558  1.00  0.00     0.368 A 
ATOM      4  C   UNL     1     103.569 103.849  97.554  1.00  0.00     0.162 A 
ATOM      5  C   UNL     1     102.665 104.622  98.286  1.00  0.00     0.128 A 
ATOM      6  C   UNL     1     103.127 105.717  99.026  1.00  0.00     0.093 A 
ATOM      7  C   UNL     1     104.486 106.050  99.047  1.00  0.00     0.136 A 
ATOM      8  C   UNL     1     105.408 105.265  98.307  1.00  0.00     0.125 A 
ATOM      9  C   UNL     1     106.789 105.518  98.279  1.00  0.00     0.078 A 
ATOM     10  C   UNL     1     107.636 104.696  97.529  1.00  0.00     0.223 A 
ENDROOT
BRANCH   1  11
ATOM     11  C   UNL     1     107.906 102.732  95.959  1.00  0.00     0.087 A 
ATOM     12  C   UNL     1     109.165 102.326  96.425  1.00  0.00     0.022 A 
ATOM     13  C   UNL     1     109.954 101.461  95.665  1.00  0.00     0.051 A 
ATOM     14  C   UNL     1     109.498 100.973  94.435  1.00  0.00     0.157 A 
ATOM     15  C   UNL     1     107.436 102.227  94.736  1.00  0.00     0.068 A 
ATOM     16  C   UNL     1     108.218 101.355  93.968  1.00  0.00     0.158 A 
BRANCH  14  17
ATOM     17  O   UNL     1     110.338 100.116  93.721  1.00  0.00    -0.504 OA
ATOM     18  H   UNL     1     110.404 100.101  92.713  1.00  0.00     0.293 HD
ENDBRANCH  14  17
BRANCH  16  19
ATOM     19  O   UNL     1     107.688 100.893  92.762  1.00  0.00    -0.504 OA
ATOM     20  H   UNL     1     107.185 100.023  92.662  1.00  0.00     0.293 HD
ENDBRANCH  16  19
ENDBRANCH   1  11
BRANCH  10  21
ATOM     21  O   UNL     1     109.013 104.916  97.541  1.00  0.00    -0.500 OA
ATOM     22  H   UNL     1     109.420 105.722  98.000  1.00  0.00     0.294 HD
ENDBRANCH  10  21
BRANCH   5  23
ATOM     23  O   UNL     1     101.311 104.296  98.269  1.00  0.00    -0.507 OA
ATOM     24  H   UNL     1     100.714 104.471  99.068  1.00  0.00     0.293 HD
ENDBRANCH   5  23
BRANCH   7  25
ATOM     25  O   UNL     1     104.865 107.159  99.809  1.00  0.00    -0.507 OA
ATOM     26  H   UNL     1     105.684 107.722  99.629  1.00  0.00     0.293 HD
ENDBRANCH   7  25
TORSDOF 6
ENDMDL
MODEL 7
REMARK VINA RESULT:    -5.839      5.379      8.081
REMARK INTER + INTRA:          -7.376
REMARK INTER:                  -7.047
REMARK INTRA:                  -0.329
REMARK UNBOUND:                -0.342
REMARK SMILES Oc1cc(O)c2cc(O)c(-c3ccc(O)c(O)c3)[o+]c2c1
REMARK SMILES IDX 10 1 19 2 20 3 21 4 2 5 3 6 4 7 6 8 7 9 8 10 11 11 12 12
REMARK SMILES IDX 13 13 14 14 18 15 16 16 15 17 17 19 9 21 1 23 5 25
REMARK H PARENT 15 18 17 20 9 22 1 24 5 26
REMARK Flexibility Score: inf
ROOT
ATOM      1  C   UNL     1     106.137 103.472  97.121  1.00  0.00     0.402 A 
ATOM      2  O   UNL     1     106.760 102.561  97.864  1.00  0.00    -0.202 OA
ATOM      3  C   UNL     1     107.595 101.658  97.363  1.00  0.00     0.368 A 
ATOM      4  C   UNL     1     108.205 100.743  98.226  1.00  0.00     0.162 A 
ATOM      5  C   UNL     1     109.088  99.784  97.728  1.00  0.00     0.128 A 
ATOM      6  C   UNL     1     109.366  99.739  96.356  1.00  0.00     0.093 A 
ATOM      7  C   UNL     1     108.768 100.644  95.472  1.00  0.00     0.136 A 
ATOM      8  C   UNL     1     107.867 101.618  95.974  1.00  0.00     0.125 A 
ATOM      9  C   UNL     1     107.212 102.557  95.159  1.00  0.00     0.078 A 
ATOM     10  C   UNL     1     106.333 103.484  95.727  1.00  0.00     0.223 A 
ENDROOT
BRANCH   1  11
ATOM     11  C   UNL     1     105.238 104.434  97.799  1.00  0.00     0.087 A 
ATOM     12  C   UNL     1     103.862 104.171  97.853  1.00  0.00     0.022 A 
ATOM     13  C   UNL     1     102.999 105.055  98.502  1.00  0.00     0.051 A 
ATOM     14  C   UNL     1     103.492 106.207  99.124  1.00  0.00     0.157 A 
ATOM     15  C   UNL     1     105.740 105.578  98.441  1.00  0.00     0.068 A 
ATOM     16  C   UNL     1     104.882 106.469  99.099  1.00  0.00     0.158 A 
BRANCH  14  17
ATOM     17  O   UNL     1     102.575 107.053  99.752  1.00  0.00    -0.504 OA
ATOM     18  H   UNL     1     101.578 106.892  99.767  1.00  0.00     0.293 HD
ENDBRANCH  14  17
BRANCH  16  19
ATOM     19  O   UNL     1     105.449 107.587  99.714  1.00  0.00    -0.504 OA
ATOM     20  H   UNL     1     105.243 108.541  99.454  1.00  0.00     0.293 HD
ENDBRANCH  16  19
ENDBRANCH   1  11
BRANCH  10  21
ATOM     21  O   UNL     1     105.644 104.384  94.913  1.00  0.00    -0.500 OA
ATOM     22  H   UNL     1     106.028 105.292  94.680  1.00  0.00     0.294 HD
ENDBRANCH  10  21
BRANCH   5  23
ATOM     23  O   UNL     1     109.687  98.881  98.604  1.00  0.00    -0.507 OA
ATOM     24  H   UNL     1     109.885  97.927  98.327  1.00  0.00     0.293 HD
ENDBRANCH   5  23
BRANCH   7  25
ATOM     25  O   UNL     1     109.099 100.534  94.118  1.00  0.00    -0.507 OA
ATOM     26  H   UNL     1     109.998 100.781  93.729  1.00  0.00     0.293 HD
ENDBRANCH   7  25
TORSDOF 6
ENDMDL
MODEL 8
REMARK VINA RESULT:    -5.829      8.880     11.491
REMARK INTER + INTRA:          -7.364
REMARK INTER:                  -7.509
REMARK INTRA:                   0.145
REMARK UNBOUND:                -0.342
REMARK SMILES Oc1cc(O)c2cc(O)c(-c3ccc(O)c(O)c3)[o+]c2c1
REMARK SMILES IDX 10 1 19 2 20 3 21 4 2 5 3 6 4 7 6 8 7 9 8 10 11 11 12 12
REMARK SMILES IDX 13 13 14 14 18 15 16 16 15 17 17 19 9 21 1 23 5 25
REMARK H PARENT 15 18 17 20 9 22 1 24 5 26
REMARK Flexibility Score: inf
ROOT
ATOM      1  C   UNL     1     105.458 109.976  95.798  1.00  0.00     0.402 A 
ATOM      2  O   UNL     1     104.539 110.870  96.154  1.00  0.00    -0.202 OA
ATOM      3  C   UNL     1     104.455 112.083  95.618  1.00  0.00     0.368 A 
ATOM      4  C   UNL     1     103.451 112.951  96.056  1.00  0.00     0.162 A 
ATOM      5  C   UNL     1     103.337 114.230  95.510  1.00  0.00     0.128 A 
ATOM      6  C   UNL     1     104.231 114.645  94.516  1.00  0.00     0.093 A 
ATOM      7  C   UNL     1     105.245 113.794  94.060  1.00  0.00     0.136 A 
ATOM      8  C   UNL     1     105.366 112.494  94.616  1.00  0.00     0.125 A 
ATOM      9  C   UNL     1     106.359 111.579  94.229  1.00  0.00     0.078 A 
ATOM     10  C   UNL     1     106.418 110.316  94.826  1.00  0.00     0.223 A 
ENDROOT
BRANCH   1  11
ATOM     11  C   UNL     1     105.443 108.653  96.462  1.00  0.00     0.087 A 
ATOM     12  C   UNL     1     105.756 107.505  95.720  1.00  0.00     0.022 A 
ATOM     13  C   UNL     1     105.766 106.250  96.330  1.00  0.00     0.051 A 
ATOM     14  C   UNL     1     105.479 106.116  97.693  1.00  0.00     0.157 A 
ATOM     15  C   UNL     1     105.176 108.525  97.835  1.00  0.00     0.068 A 
ATOM     16  C   UNL     1     105.187 107.271  98.457  1.00  0.00     0.158 A 
BRANCH  14  17
ATOM     17  O   UNL     1     105.500 104.832  98.241  1.00  0.00    -0.504 OA
ATOM     18  H   UNL     1     105.065 104.586  99.119  1.00  0.00     0.293 HD
ENDBRANCH  14  17
BRANCH  16  19
ATOM     19  O   UNL     1     104.911 107.217  99.825  1.00  0.00    -0.504 OA
ATOM     20  H   UNL     1     105.206 107.919 100.489  1.00  0.00     0.293 HD
ENDBRANCH  16  19
ENDBRANCH   1  11
BRANCH  10  21
ATOM     21  O   UNL     1     107.434 109.425  94.478  1.00  0.00    -0.500 OA
ATOM     22  H   UNL     1     107.310 108.422  94.549  1.00  0.00     0.294 HD
ENDBRANCH  10  21
BRANCH   5  23
ATOM     23  O   UNL     1     102.330 115.081  95.959  1.00  0.00    -0.507 OA
ATOM     24  H   UNL     1     101.401 115.063  95.556  1.00  0.00     0.293 HD
ENDBRANCH   5  23
BRANCH   7  25
ATOM     25  O   UNL     1     106.095 114.283  93.064  1.00  0.00    -0.507 OA
ATOM     26  H   UNL     1     106.160 115.254  92.794  1.00  0.00     0.293 HD
ENDBRANCH   7  25
TORSDOF 6
ENDMDL
MODEL 9
REMARK VINA RESULT:    -5.820      8.581     11.363
REMARK INTER + INTRA:          -7.354
REMARK INTER:                  -7.207
REMARK INTRA:                  -0.147
REMARK UNBOUND:                -0.342
REMARK SMILES Oc1cc(O)c2cc(O)c(-c3ccc(O)c(O)c3)[o+]c2c1
REMARK SMILES IDX 10 1 19 2 20 3 21 4 2 5 3 6 4 7 6 8 7 9 8 10 11 11 12 12
REMARK SMILES IDX 13 13 14 14 18 15 16 16 15 17 17 19 9 21 1 23 5 25
REMARK H PARENT 15 18 17 20 9 22 1 24 5 26
REMARK Flexibility Score: inf
ROOT
ATOM      1  C   UNL     1     105.544 109.859  95.755  1.00  0.00     0.402 A 
ATOM      2  O   UNL     1     106.654 110.236  95.126  1.00  0.00    -0.202 OA
ATOM      3  C   UNL     1     106.772 111.394  94.485  1.00  0.00     0.368 A 
ATOM      4  C   UNL     1     107.981 111.703  93.856  1.00  0.00     0.162 A 
ATOM      5  C   UNL     1     108.134 112.913  93.177  1.00  0.00     0.128 A 
ATOM      6  C   UNL     1     107.071 113.822  93.127  1.00  0.00     0.093 A 
ATOM      7  C   UNL     1     105.850 113.536  93.748  1.00  0.00     0.136 A 
ATOM      8  C   UNL     1     105.689 112.306  94.437  1.00  0.00     0.125 A 
ATOM      9  C   UNL     1     104.497 111.929  95.078  1.00  0.00     0.078 A 
ATOM     10  C   UNL     1     104.413 110.697  95.732  1.00  0.00     0.223 A 
ENDROOT
BRANCH   1  11
ATOM     11  C   UNL     1     105.540 108.548  96.443  1.00  0.00     0.087 A 
ATOM     12  C   UNL     1     105.889 107.393  95.729  1.00  0.00     0.022 A 
ATOM     13  C   UNL     1     105.910 106.150  96.363  1.00  0.00     0.051 A 
ATOM     14  C   UNL     1     105.599 106.036  97.723  1.00  0.00     0.157 A 
ATOM     15  C   UNL     1     105.249 108.441  97.814  1.00  0.00     0.068 A 
ATOM     16  C   UNL     1     105.271 107.199  98.460  1.00  0.00     0.158 A 
BRANCH  14  17
ATOM     17  O   UNL     1     105.632 104.762  98.295  1.00  0.00    -0.504 OA
ATOM     18  H   UNL     1     106.457 104.350  98.706  1.00  0.00     0.293 HD
ENDBRANCH  14  17
BRANCH  16  19
ATOM     19  O   UNL     1     104.970 107.166  99.823  1.00  0.00    -0.504 OA
ATOM     20  H   UNL     1     104.132 107.560 100.226  1.00  0.00     0.293 HD
ENDBRANCH  16  19
ENDBRANCH   1  11
BRANCH  10  21
ATOM     21  O   UNL     1     103.215 110.301  96.326  1.00  0.00    -0.500 OA
ATOM     22  H   UNL     1     102.672 110.933  96.903  1.00  0.00     0.294 HD
ENDBRANCH  10  21
BRANCH   5  23
ATOM     23  O   UNL     1     109.347 113.204  92.557  1.00  0.00    -0.507 OA
ATOM     24  H   UNL     1     109.520 112.958  91.590  1.00  0.00     0.293 HD
ENDBRANCH   5  23
BRANCH   7  25
ATOM     25  O   UNL     1     104.839 114.498  93.654  1.00  0.00    -0.507 OA
ATOM     26  H   UNL     1     104.845 115.269  93.003  1.00  0.00     0.293 HD
ENDBRANCH   7  25
TORSDOF 6
ENDMDL
