MODEL 1
REMARK VINA RESULT:     0.557      0.000      0.000
REMARK INTER + INTRA:           1.847
REMARK INTER:                   0.883
REMARK INTRA:                   0.963
REMARK UNBOUND:                 0.963
REMARK SMILES CCCCCCCCCCCC(=O)[O-]
REMARK SMILES IDX 7 1 8 2 9 3 10 4 11 5 12 6 13 7 14 8 6 9 5 10 4 11 3 12 2 13
REMARK SMILES IDX 1 14
REMARK H PARENT
REMARK Flexibility Score: inf
ROOT
ATOM      1  C   UNL     1      10.358  15.001  -0.794  1.00  0.00     0.000 C 
ENDROOT
BRANCH   1   2
ATOM      2  C   UNL     1       8.893  14.765  -0.392  1.00  0.00     0.000 C 
BRANCH   2   3
ATOM      3  C   UNL     1       8.743  13.671   0.680  1.00  0.00     0.000 C 
BRANCH   3   4
ATOM      4  C   UNL     1       8.459  14.248   2.076  1.00  0.00     0.006 C 
BRANCH   4   5
ATOM      5  C   UNL     1       7.166  15.073   2.125  1.00  0.00     0.053 C 
BRANCH   5   6
ATOM      6  C   UNL     1       7.477  16.535   2.080  1.00  0.00     0.041 C 
ATOM      7  O   UNL     1       6.546  17.383   2.114  1.00  0.00    -0.550 OA
ATOM      8  O   UNL     1       8.792  16.963   1.949  1.00  0.00    -0.550 OA
ENDBRANCH   5   6
ENDBRANCH   4   5
ENDBRANCH   3   4
ENDBRANCH   2   3
ENDBRANCH   1   2
BRANCH   1   9
ATOM      9  C   UNL     1      11.055  13.714  -1.266  1.00  0.00     0.000 C 
BRANCH   9  10
ATOM     10  C   UNL     1      12.321  13.395  -0.452  1.00  0.00    -0.000 C 
BRANCH  10  11
ATOM     11  C   UNL     1      12.006  12.889   0.964  1.00  0.00    -0.000 C 
BRANCH  11  12
ATOM     12  C   UNL     1      12.319  13.969   2.011  1.00  0.00    -0.000 C 
BRANCH  12  13
ATOM     13  C   UNL     1      11.316  15.133   1.977  1.00  0.00    -0.003 C 
ATOM     14  C   UNL     1      11.998  16.501   1.937  1.00  0.00     0.004 C 
ENDBRANCH  12  13
ENDBRANCH  11  12
ENDBRANCH  10  11
ENDBRANCH   9  10
ENDBRANCH   1   9
TORSDOF 10
ENDMDL
MODEL 2
REMARK VINA RESULT:     1.191      1.623      4.493
REMARK INTER + INTRA:           2.850
REMARK INTER:                   2.324
REMARK INTRA:                   0.526
REMARK UNBOUND:                 0.963
REMARK SMILES CCCCCCCCCCCC(=O)[O-]
REMARK SMILES IDX 7 1 8 2 9 3 10 4 11 5 12 6 13 7 14 8 6 9 5 10 4 11 3 12 2 13
REMARK SMILES IDX 1 14
REMARK H PARENT
REMARK Flexibility Score: inf
ROOT
ATOM      1  C   UNL     1      10.351  14.236  -0.942  1.00  0.00     0.000 C 
ENDROOT
BRANCH   1   2
ATOM      2  C   UNL     1      10.989  12.964  -0.362  1.00  0.00     0.000 C 
BRANCH   2   3
ATOM      3  C   UNL     1      12.050  13.271   0.710  1.00  0.00     0.000 C 
BRANCH   3   4
ATOM      4  C   UNL     1      11.512  14.179   1.828  1.00  0.00     0.006 C 
BRANCH   4   5
ATOM      5  C   UNL     1      12.409  15.396   2.087  1.00  0.00     0.053 C 
BRANCH   5   6
ATOM      6  C   UNL     1      11.641  16.664   1.883  1.00  0.00     0.041 C 
ATOM      7  O   UNL     1      12.179  17.776   2.124  1.00  0.00    -0.550 OA
ATOM      8  O   UNL     1      10.315  16.615   1.474  1.00  0.00    -0.550 OA
ENDBRANCH   5   6
ENDBRANCH   4   5
ENDBRANCH   3   4
ENDBRANCH   2   3
ENDBRANCH   1   2
BRANCH   1   9
ATOM      9  C   UNL     1       9.070  14.648  -0.195  1.00  0.00     0.000 C 
BRANCH   9  10
ATOM     10  C   UNL     1       8.667  13.634   0.890  1.00  0.00    -0.000 C 
BRANCH  10  11
ATOM     11  C   UNL     1       8.042  14.302   2.124  1.00  0.00    -0.000 C 
BRANCH  11  12
ATOM     12  C   UNL     1       6.545  14.567   1.903  1.00  0.00    -0.000 C 
BRANCH  12  13
ATOM     13  C   UNL     1       5.793  13.324   1.403  1.00  0.00    -0.003 C 
ATOM     14  C   UNL     1       4.464  13.667   0.728  1.00  0.00     0.004 C 
ENDBRANCH  12  13
ENDBRANCH  11  12
ENDBRANCH  10  11
ENDBRANCH   9  10
ENDBRANCH   1   9
TORSDOF 10
ENDMDL
MODEL 3
REMARK VINA RESULT:     3.032      2.587      4.925
REMARK INTER + INTRA:           5.767
REMARK INTER:                   5.021
REMARK INTRA:                   0.747
REMARK UNBOUND:                 0.963
REMARK SMILES CCCCCCCCCCCC(=O)[O-]
REMARK SMILES IDX 7 1 8 2 9 3 10 4 11 5 12 6 13 7 14 8 6 9 5 10 4 11 3 12 2 13
REMARK SMILES IDX 1 14
REMARK H PARENT
REMARK Flexibility Score: inf
ROOT
ATOM      1  C   UNL     1       8.577  17.826   1.248  1.00  0.00     0.000 C 
ENDROOT
BRANCH   1   2
ATOM      2  C   UNL     1       9.879  17.064   0.955  1.00  0.00     0.000 C 
BRANCH   2   3
ATOM      3  C   UNL     1      10.892  17.162   2.109  1.00  0.00     0.000 C 
BRANCH   3   4
ATOM      4  C   UNL     1      11.935  16.033   2.075  1.00  0.00     0.006 C 
BRANCH   4   5
ATOM      5  C   UNL     1      11.301  14.638   2.122  1.00  0.00     0.053 C 
BRANCH   5   6
ATOM      6  C   UNL     1      12.247  13.615   1.578  1.00  0.00     0.041 C 
ATOM      7  O   UNL     1      13.378  13.451   2.108  1.00  0.00    -0.550 OA
ATOM      8  O   UNL     1      11.901  12.876   0.454  1.00  0.00    -0.550 OA
ENDBRANCH   5   6
ENDBRANCH   4   5
ENDBRANCH   3   4
ENDBRANCH   2   3
ENDBRANCH   1   2
BRANCH   1   9
ATOM      9  C   UNL     1       7.468  16.911   1.797  1.00  0.00     0.000 C 
BRANCH   9  10
ATOM     10  C   UNL     1       7.975  15.495   2.119  1.00  0.00    -0.000 C 
BRANCH  10  11
ATOM     11  C   UNL     1       7.116  14.396   1.477  1.00  0.00    -0.000 C 
BRANCH  11  12
ATOM     12  C   UNL     1       7.918  13.626   0.416  1.00  0.00    -0.000 C 
BRANCH  12  13
ATOM     13  C   UNL     1       9.153  14.401  -0.068  1.00  0.00    -0.003 C 
ATOM     14  C   UNL     1       9.886  13.694  -1.209  1.00  0.00     0.004 C 
ENDBRANCH  12  13
ENDBRANCH  11  12
ENDBRANCH  10  11
ENDBRANCH   9  10
ENDBRANCH   1   9
TORSDOF 10
ENDMDL
MODEL 4
REMARK VINA RESULT:     3.422     15.678     17.122
REMARK INTER + INTRA:           6.385
REMARK INTER:                   7.125
REMARK INTRA:                  -0.740
REMARK UNBOUND:                 0.963
REMARK SMILES CCCCCCCCCCCC(=O)[O-]
REMARK SMILES IDX 7 1 8 2 9 3 10 4 11 5 12 6 13 7 14 8 6 9 5 10 4 11 3 12 2 13
REMARK SMILES IDX 1 14
REMARK H PARENT
REMARK Flexibility Score: inf
ROOT
ATOM      1  C   UNL     1      18.466  17.717 -11.097  1.00  0.00     0.000 C 
ENDROOT
BRANCH   1   2
ATOM      2  C   UNL     1      18.204  17.100 -12.480  1.00  0.00     0.000 C 
BRANCH   2   3
ATOM      3  C   UNL     1      16.832  16.410 -12.568  1.00  0.00     0.000 C 
BRANCH   3   4
ATOM      4  C   UNL     1      16.905  15.039 -13.259  1.00  0.00     0.006 C 
BRANCH   4   5
ATOM      5  C   UNL     1      18.265  14.779 -13.920  1.00  0.00     0.053 C 
BRANCH   5   6
ATOM      6  C   UNL     1      19.093  13.866 -13.072  1.00  0.00     0.041 C 
ATOM      7  O   UNL     1      18.563  12.875 -12.503  1.00  0.00    -0.550 OA
ATOM      8  O   UNL     1      20.439  14.139 -12.867  1.00  0.00    -0.550 OA
ENDBRANCH   5   6
ENDBRANCH   4   5
ENDBRANCH   3   4
ENDBRANCH   2   3
ENDBRANCH   1   2
BRANCH   1   9
ATOM      9  C   UNL     1      18.090  19.208 -11.034  1.00  0.00     0.000 C 
BRANCH   9  10
ATOM     10  C   UNL     1      18.333  19.936 -12.367  1.00  0.00    -0.000 C 
BRANCH  10  11
ATOM     11  C   UNL     1      19.134  21.236 -12.197  1.00  0.00    -0.000 C 
BRANCH  11  12
ATOM     12  C   UNL     1      20.642  20.946 -12.149  1.00  0.00    -0.000 C 
BRANCH  12  13
ATOM     13  C   UNL     1      21.010  19.619 -12.829  1.00  0.00    -0.003 C 
ATOM     14  C   UNL     1      21.900  18.734 -11.956  1.00  0.00     0.004 C 
ENDBRANCH  12  13
ENDBRANCH  11  12
ENDBRANCH  10  11
ENDBRANCH   9  10
ENDBRANCH   1   9
TORSDOF 10
ENDMDL
