MODEL 1
REMARK VINA RESULT:    -4.773      0.000      0.000
REMARK INTER + INTRA:         -10.026
REMARK INTER:                  -8.121
REMARK INTRA:                  -1.904
REMARK UNBOUND:                -1.904
REMARK SMILES CCCCCCCCCCCCCC(=O)[O-]
REMARK SMILES IDX 8 1 9 2 10 3 11 4 12 5 13 6 14 7 15 8 16 9 7 10 6 11 5 12
REMARK SMILES IDX 4 13 3 14 2 15 1 16
REMARK H PARENT
REMARK Flexibility Score: inf
ROOT
ATOM      1  C   UNL     1      29.543  30.615  15.778  1.00  0.00     0.000 C 
ENDROOT
BRANCH   1   2
ATOM      2  C   UNL     1      29.433  29.276  15.038  1.00  0.00     0.000 C 
BRANCH   2   3
ATOM      3  C   UNL     1      29.843  29.427  13.566  1.00  0.00     0.000 C 
BRANCH   3   4
ATOM      4  C   UNL     1      29.589  30.841  13.019  1.00  0.00     0.000 C 
BRANCH   4   5
ATOM      5  C   UNL     1      30.302  31.095  11.679  1.00  0.00     0.006 C 
BRANCH   5   6
ATOM      6  C   UNL     1      31.809  30.819  11.765  1.00  0.00     0.053 C 
BRANCH   6   7
ATOM      7  C   UNL     1      32.277  29.939  10.646  1.00  0.00     0.041 C 
ATOM      8  O   UNL     1      32.720  30.445   9.583  1.00  0.00    -0.550 OA
ATOM      9  O   UNL     1      32.250  28.557  10.791  1.00  0.00    -0.550 OA
ENDBRANCH   6   7
ENDBRANCH   5   6
ENDBRANCH   4   5
ENDBRANCH   3   4
ENDBRANCH   2   3
ENDBRANCH   1   2
BRANCH   1  10
ATOM     10  C   UNL     1      30.256  30.440  17.127  1.00  0.00     0.000 C 
BRANCH  10  11
ATOM     11  C   UNL     1      31.458  31.386  17.301  1.00  0.00    -0.000 C 
BRANCH  11  12
ATOM     12  C   UNL     1      31.819  32.227  16.061  1.00  0.00    -0.000 C 
BRANCH  12  13
ATOM     13  C   UNL     1      32.914  31.579  15.197  1.00  0.00    -0.000 C 
BRANCH  13  14
ATOM     14  C   UNL     1      33.450  30.265  15.795  1.00  0.00    -0.000 C 
BRANCH  14  15
ATOM     15  C   UNL     1      33.280  29.024  14.900  1.00  0.00    -0.003 C 
ATOM     16  C   UNL     1      33.229  27.717  15.689  1.00  0.00     0.004 C 
ENDBRANCH  14  15
ENDBRANCH  13  14
ENDBRANCH  12  13
ENDBRANCH  11  12
ENDBRANCH  10  11
ENDBRANCH   1  10
TORSDOF 12
ENDMDL
MODEL 2
REMARK VINA RESULT:    -4.765      2.006      3.691
REMARK INTER + INTRA:         -10.012
REMARK INTER:                  -8.210
REMARK INTRA:                  -1.802
REMARK UNBOUND:                -1.904
REMARK SMILES CCCCCCCCCCCCCC(=O)[O-]
REMARK SMILES IDX 8 1 9 2 10 3 11 4 12 5 13 6 14 7 15 8 16 9 7 10 6 11 5 12
REMARK SMILES IDX 4 13 3 14 2 15 1 16
REMARK H PARENT
REMARK Flexibility Score: inf
ROOT
ATOM      1  C   UNL     1      31.915  32.127  16.042  1.00  0.00     0.000 C 
ENDROOT
BRANCH   1   2
ATOM      2  C   UNL     1      32.978  31.319  15.287  1.00  0.00     0.000 C 
BRANCH   2   3
ATOM      3  C   UNL     1      33.446  30.116  16.120  1.00  0.00     0.000 C 
BRANCH   3   4
ATOM      4  C   UNL     1      33.539  28.822  15.295  1.00  0.00     0.000 C 
BRANCH   4   5
ATOM      5  C   UNL     1      33.112  29.022  13.831  1.00  0.00     0.006 C 
BRANCH   5   6
ATOM      6  C   UNL     1      33.362  27.771  12.979  1.00  0.00     0.053 C 
BRANCH   6   7
ATOM      7  C   UNL     1      34.772  27.716  12.473  1.00  0.00     0.041 C 
ATOM      8  O   UNL     1      35.117  28.407  11.480  1.00  0.00    -0.550 OA
ATOM      9  O   UNL     1      35.711  26.921  13.119  1.00  0.00    -0.550 OA
ENDBRANCH   6   7
ENDBRANCH   5   6
ENDBRANCH   4   5
ENDBRANCH   3   4
ENDBRANCH   2   3
ENDBRANCH   1   2
BRANCH   1  10
ATOM     10  C   UNL     1      31.432  31.372  17.289  1.00  0.00     0.000 C 
BRANCH  10  11
ATOM     11  C   UNL     1      30.196  30.494  17.021  1.00  0.00    -0.000 C 
BRANCH  11  12
ATOM     12  C   UNL     1      29.493  30.742  15.673  1.00  0.00    -0.000 C 
BRANCH  12  13
ATOM     13  C   UNL     1      29.448  29.489  14.781  1.00  0.00    -0.000 C 
BRANCH  13  14
ATOM     14  C   UNL     1      29.916  28.217  15.513  1.00  0.00    -0.000 C 
BRANCH  14  15
ATOM     15  C   UNL     1      30.083  26.975  14.619  1.00  0.00    -0.003 C 
ATOM     16  C   UNL     1      30.751  25.803  15.337  1.00  0.00     0.004 C 
ENDBRANCH  14  15
ENDBRANCH  13  14
ENDBRANCH  12  13
ENDBRANCH  11  12
ENDBRANCH  10  11
ENDBRANCH   1  10
TORSDOF 12
ENDMDL
MODEL 3
REMARK VINA RESULT:    -4.700      1.583      3.121
REMARK INTER + INTRA:          -9.901
REMARK INTER:                  -7.906
REMARK INTRA:                  -1.996
REMARK UNBOUND:                -1.904
REMARK SMILES CCCCCCCCCCCCCC(=O)[O-]
REMARK SMILES IDX 8 1 9 2 10 3 11 4 12 5 13 6 14 7 15 8 16 9 7 10 6 11 5 12
REMARK SMILES IDX 4 13 3 14 2 15 1 16
REMARK H PARENT
REMARK Flexibility Score: inf
ROOT
ATOM      1  C   UNL     1      31.822  32.095  16.304  1.00  0.00     0.000 C 
ENDROOT
BRANCH   1   2
ATOM      2  C   UNL     1      31.265  31.115  17.345  1.00  0.00     0.000 C 
BRANCH   2   3
ATOM      3  C   UNL     1      30.174  30.225  16.732  1.00  0.00     0.000 C 
BRANCH   3   4
ATOM      4  C   UNL     1      29.267  30.986  15.751  1.00  0.00     0.000 C 
BRANCH   4   5
ATOM      5  C   UNL     1      29.182  30.304  14.374  1.00  0.00     0.006 C 
BRANCH   5   6
ATOM      6  C   UNL     1      29.641  31.231  13.241  1.00  0.00     0.053 C 
BRANCH   6   7
ATOM      7  C   UNL     1      29.674  30.521  11.921  1.00  0.00     0.041 C 
ATOM      8  O   UNL     1      29.949  31.152  10.868  1.00  0.00    -0.550 OA
ATOM      9  O   UNL     1      29.429  29.155  11.861  1.00  0.00    -0.550 OA
ENDBRANCH   6   7
ENDBRANCH   5   6
ENDBRANCH   4   5
ENDBRANCH   3   4
ENDBRANCH   2   3
ENDBRANCH   1   2
BRANCH   1  10
ATOM     10  C   UNL     1      32.904  31.427  15.443  1.00  0.00     0.000 C 
BRANCH  10  11
ATOM     11  C   UNL     1      33.493  30.161  16.090  1.00  0.00    -0.000 C 
BRANCH  11  12
ATOM     12  C   UNL     1      33.637  28.948  15.151  1.00  0.00    -0.000 C 
BRANCH  12  13
ATOM     13  C   UNL     1      32.546  28.897  14.068  1.00  0.00    -0.000 C 
BRANCH  13  14
ATOM     14  C   UNL     1      31.743  27.582  14.089  1.00  0.00    -0.000 C 
BRANCH  14  15
ATOM     15  C   UNL     1      31.480  27.001  15.490  1.00  0.00    -0.003 C 
ATOM     16  C   UNL     1      29.999  26.739  15.763  1.00  0.00     0.004 C 
ENDBRANCH  14  15
ENDBRANCH  13  14
ENDBRANCH  12  13
ENDBRANCH  11  12
ENDBRANCH  10  11
ENDBRANCH   1  10
TORSDOF 12
ENDMDL
MODEL 4
REMARK VINA RESULT:    -4.671      2.242      4.256
REMARK INTER + INTRA:          -9.853
REMARK INTER:                  -8.070
REMARK INTRA:                  -1.783
REMARK UNBOUND:                -1.904
REMARK SMILES CCCCCCCCCCCCCC(=O)[O-]
REMARK SMILES IDX 8 1 9 2 10 3 11 4 12 5 13 6 14 7 15 8 16 9 7 10 6 11 5 12
REMARK SMILES IDX 4 13 3 14 2 15 1 16
REMARK H PARENT
REMARK Flexibility Score: inf
ROOT
ATOM      1  C   UNL     1      32.089  31.969  16.044  1.00  0.00     0.000 C 
ENDROOT
BRANCH   1   2
ATOM      2  C   UNL     1      31.401  31.313  17.247  1.00  0.00     0.000 C 
BRANCH   2   3
ATOM      3  C   UNL     1      30.146  30.543  16.810  1.00  0.00     0.000 C 
BRANCH   3   4
ATOM      4  C   UNL     1      29.685  30.913  15.391  1.00  0.00     0.000 C 
BRANCH   4   5
ATOM      5  C   UNL     1      29.112  29.710  14.622  1.00  0.00     0.006 C 
BRANCH   5   6
ATOM      6  C   UNL     1      29.476  28.375  15.283  1.00  0.00     0.053 C 
BRANCH   6   7
ATOM      7  C   UNL     1      28.763  27.223  14.642  1.00  0.00     0.041 C 
ATOM      8  O   UNL     1      29.103  26.823  13.499  1.00  0.00    -0.550 OA
ATOM      9  O   UNL     1      27.740  26.574  15.322  1.00  0.00    -0.550 OA
ENDBRANCH   6   7
ENDBRANCH   5   6
ENDBRANCH   4   5
ENDBRANCH   3   4
ENDBRANCH   2   3
ENDBRANCH   1   2
BRANCH   1  10
ATOM     10  C   UNL     1      33.217  31.079  15.503  1.00  0.00     0.000 C 
BRANCH  10  11
ATOM     11  C   UNL     1      33.402  29.782  16.311  1.00  0.00    -0.000 C 
BRANCH  11  12
ATOM     12  C   UNL     1      33.213  28.478  15.514  1.00  0.00    -0.000 C 
BRANCH  12  13
ATOM     13  C   UNL     1      33.596  28.621  14.031  1.00  0.00    -0.000 C 
BRANCH  13  14
ATOM     14  C   UNL     1      32.372  28.647  13.096  1.00  0.00    -0.000 C 
BRANCH  14  15
ATOM     15  C   UNL     1      32.478  29.624  11.911  1.00  0.00    -0.003 C 
ATOM     16  C   UNL     1      31.471  30.771  11.986  1.00  0.00     0.004 C 
ENDBRANCH  14  15
ENDBRANCH  13  14
ENDBRANCH  12  13
ENDBRANCH  11  12
ENDBRANCH  10  11
ENDBRANCH   1  10
TORSDOF 12
ENDMDL
MODEL 5
REMARK VINA RESULT:    -4.669      3.090      4.281
REMARK INTER + INTRA:          -9.849
REMARK INTER:                  -7.810
REMARK INTRA:                  -2.039
REMARK UNBOUND:                -1.904
REMARK SMILES CCCCCCCCCCCCCC(=O)[O-]
REMARK SMILES IDX 8 1 9 2 10 3 11 4 12 5 13 6 14 7 15 8 16 9 7 10 6 11 5 12
REMARK SMILES IDX 4 13 3 14 2 15 1 16
REMARK H PARENT
REMARK Flexibility Score: inf
ROOT
ATOM      1  C   UNL     1      30.228  31.825  14.636  1.00  0.00     0.000 C 
ENDROOT
BRANCH   1   2
ATOM      2  C   UNL     1      29.448  30.669  15.275  1.00  0.00     0.000 C 
BRANCH   2   3
ATOM      3  C   UNL     1      28.962  29.678  14.207  1.00  0.00     0.000 C 
BRANCH   3   4
ATOM      4  C   UNL     1      28.911  28.229  14.720  1.00  0.00     0.000 C 
BRANCH   4   5
ATOM      5  C   UNL     1      30.027  27.922  15.734  1.00  0.00     0.006 C 
BRANCH   5   6
ATOM      6  C   UNL     1      30.607  26.514  15.546  1.00  0.00     0.053 C 
BRANCH   6   7
ATOM      7  C   UNL     1      29.581  25.451  15.801  1.00  0.00     0.041 C 
ATOM      8  O   UNL     1      29.438  24.500  14.989  1.00  0.00    -0.550 OA
ATOM      9  O   UNL     1      28.804  25.497  16.952  1.00  0.00    -0.550 OA
ENDBRANCH   6   7
ENDBRANCH   5   6
ENDBRANCH   4   5
ENDBRANCH   3   4
ENDBRANCH   2   3
ENDBRANCH   1   2
BRANCH   1  10
ATOM     10  C   UNL     1      31.459  32.190  15.478  1.00  0.00     0.000 C 
BRANCH  10  11
ATOM     11  C   UNL     1      31.479  31.492  16.851  1.00  0.00    -0.000 C 
BRANCH  11  12
ATOM     12  C   UNL     1      32.525  30.372  17.004  1.00  0.00    -0.000 C 
BRANCH  12  13
ATOM     13  C   UNL     1      33.434  30.228  15.772  1.00  0.00    -0.000 C 
BRANCH  13  14
ATOM     14  C   UNL     1      33.784  28.762  15.453  1.00  0.00    -0.000 C 
BRANCH  14  15
ATOM     15  C   UNL     1      33.385  28.288  14.045  1.00  0.00    -0.003 C 
ATOM     16  C   UNL     1      32.536  29.307  13.286  1.00  0.00     0.004 C 
ENDBRANCH  14  15
ENDBRANCH  13  14
ENDBRANCH  12  13
ENDBRANCH  11  12
ENDBRANCH  10  11
ENDBRANCH   1  10
TORSDOF 12
ENDMDL
MODEL 6
REMARK VINA RESULT:    -4.639      1.602      4.232
REMARK INTER + INTRA:          -9.798
REMARK INTER:                  -7.829
REMARK INTRA:                  -1.969
REMARK UNBOUND:                -1.904
REMARK SMILES CCCCCCCCCCCCCC(=O)[O-]
REMARK SMILES IDX 8 1 9 2 10 3 11 4 12 5 13 6 14 7 15 8 16 9 7 10 6 11 5 12
REMARK SMILES IDX 4 13 3 14 2 15 1 16
REMARK H PARENT
REMARK Flexibility Score: inf
ROOT
ATOM      1  C   UNL     1      31.811  32.221  16.100  1.00  0.00     0.000 C 
ENDROOT
BRANCH   1   2
ATOM      2  C   UNL     1      32.923  31.614  15.235  1.00  0.00     0.000 C 
BRANCH   2   3
ATOM      3  C   UNL     1      33.488  30.340  15.881  1.00  0.00     0.000 C 
BRANCH   3   4
ATOM      4  C   UNL     1      33.392  29.114  14.960  1.00  0.00     0.000 C 
BRANCH   4   5
ATOM      5  C   UNL     1      33.168  27.806  15.738  1.00  0.00     0.006 C 
BRANCH   5   6
ATOM      6  C   UNL     1      31.918  27.055  15.260  1.00  0.00     0.053 C 
BRANCH   6   7
ATOM      7  C   UNL     1      32.016  26.676  13.813  1.00  0.00     0.041 C 
ATOM      8  O   UNL     1      31.133  27.050  12.999  1.00  0.00    -0.550 OA
ATOM      9  O   UNL     1      33.101  25.935  13.361  1.00  0.00    -0.550 OA
ENDBRANCH   6   7
ENDBRANCH   5   6
ENDBRANCH   4   5
ENDBRANCH   3   4
ENDBRANCH   2   3
ENDBRANCH   1   2
BRANCH   1  10
ATOM     10  C   UNL     1      31.475  31.305  17.286  1.00  0.00     0.000 C 
BRANCH  10  11
ATOM     11  C   UNL     1      30.240  30.421  17.035  1.00  0.00    -0.000 C 
BRANCH  11  12
ATOM     12  C   UNL     1      29.429  30.767  15.772  1.00  0.00    -0.000 C 
BRANCH  12  13
ATOM     13  C   UNL     1      29.435  29.637  14.728  1.00  0.00    -0.000 C 
BRANCH  13  14
ATOM     14  C   UNL     1      29.087  30.130  13.311  1.00  0.00    -0.000 C 
BRANCH  14  15
ATOM     15  C   UNL     1      30.065  31.161  12.720  1.00  0.00    -0.003 C 
ATOM     16  C   UNL     1      31.328  30.527  12.139  1.00  0.00     0.004 C 
ENDBRANCH  14  15
ENDBRANCH  13  14
ENDBRANCH  12  13
ENDBRANCH  11  12
ENDBRANCH  10  11
ENDBRANCH   1  10
TORSDOF 12
ENDMDL
MODEL 7
REMARK VINA RESULT:    -4.616      1.385      3.407
REMARK INTER + INTRA:          -9.759
REMARK INTER:                  -7.729
REMARK INTRA:                  -2.030
REMARK UNBOUND:                -1.904
REMARK SMILES CCCCCCCCCCCCCC(=O)[O-]
REMARK SMILES IDX 8 1 9 2 10 3 11 4 12 5 13 6 14 7 15 8 16 9 7 10 6 11 5 12
REMARK SMILES IDX 4 13 3 14 2 15 1 16
REMARK H PARENT
REMARK Flexibility Score: inf
ROOT
ATOM      1  C   UNL     1      31.669  31.426  16.930  1.00  0.00     0.000 C 
ENDROOT
BRANCH   1   2
ATOM      2  C   UNL     1      32.732  30.321  16.929  1.00  0.00     0.000 C 
BRANCH   2   3
ATOM      3  C   UNL     1      33.393  30.196  15.547  1.00  0.00     0.000 C 
BRANCH   3   4
ATOM      4  C   UNL     1      33.720  28.742  15.173  1.00  0.00     0.000 C 
BRANCH   4   5
ATOM      5  C   UNL     1      33.504  28.453  13.678  1.00  0.00     0.006 C 
BRANCH   5   6
ATOM      6  C   UNL     1      32.404  29.333  13.071  1.00  0.00     0.053 C 
BRANCH   6   7
ATOM      7  C   UNL     1      32.445  29.323  11.573  1.00  0.00     0.041 C 
ATOM      8  O   UNL     1      33.533  29.503  10.967  1.00  0.00    -0.550 OA
ATOM      9  O   UNL     1      31.284  29.083  10.848  1.00  0.00    -0.550 OA
ENDBRANCH   6   7
ENDBRANCH   5   6
ENDBRANCH   4   5
ENDBRANCH   3   4
ENDBRANCH   2   3
ENDBRANCH   1   2
BRANCH   1  10
ATOM     10  C   UNL     1      31.593  32.118  15.562  1.00  0.00     0.000 C 
BRANCH  10  11
ATOM     11  C   UNL     1      30.280  31.829  14.811  1.00  0.00    -0.000 C 
BRANCH  11  12
ATOM     12  C   UNL     1      29.407  30.716  15.418  1.00  0.00    -0.000 C 
BRANCH  12  13
ATOM     13  C   UNL     1      28.792  29.790  14.355  1.00  0.00    -0.000 C 
BRANCH  13  14
ATOM     14  C   UNL     1      28.956  28.296  14.695  1.00  0.00    -0.000 C 
BRANCH  14  15
ATOM     15  C   UNL     1      30.075  27.976  15.702  1.00  0.00    -0.003 C 
ATOM     16  C   UNL     1      30.731  26.618  15.460  1.00  0.00     0.004 C 
ENDBRANCH  14  15
ENDBRANCH  13  14
ENDBRANCH  12  13
ENDBRANCH  11  12
ENDBRANCH  10  11
ENDBRANCH   1  10
TORSDOF 12
ENDMDL
MODEL 8
REMARK VINA RESULT:    -4.539      2.640      4.460
REMARK INTER + INTRA:          -9.628
REMARK INTER:                  -7.894
REMARK INTRA:                  -1.735
REMARK UNBOUND:                -1.904
REMARK SMILES CCCCCCCCCCCCCC(=O)[O-]
REMARK SMILES IDX 8 1 9 2 10 3 11 4 12 5 13 6 14 7 15 8 16 9 7 10 6 11 5 12
REMARK SMILES IDX 4 13 3 14 2 15 1 16
REMARK H PARENT
REMARK Flexibility Score: inf
ROOT
ATOM      1  C   UNL     1      32.891  28.893  13.853  1.00  0.00     0.000 C 
ENDROOT
BRANCH   1   2
ATOM      2  C   UNL     1      31.473  28.312  13.924  1.00  0.00     0.000 C 
BRANCH   2   3
ATOM      3  C   UNL     1      31.437  27.054  14.805  1.00  0.00     0.000 C 
BRANCH   3   4
ATOM      4  C   UNL     1      30.226  27.024  15.750  1.00  0.00     0.000 C 
BRANCH   4   5
ATOM      5  C   UNL     1      29.129  26.055  15.274  1.00  0.00     0.006 C 
BRANCH   5   6
ATOM      6  C   UNL     1      27.815  26.781  14.956  1.00  0.00     0.053 C 
BRANCH   6   7
ATOM      7  C   UNL     1      27.869  27.471  13.626  1.00  0.00     0.041 C 
ATOM      8  O   UNL     1      27.443  28.648  13.505  1.00  0.00    -0.550 OA
ATOM      9  O   UNL     1      28.418  26.820  12.528  1.00  0.00    -0.550 OA
ENDBRANCH   6   7
ENDBRANCH   5   6
ENDBRANCH   4   5
ENDBRANCH   3   4
ENDBRANCH   2   3
ENDBRANCH   1   2
BRANCH   1  10
ATOM     10  C   UNL     1      33.617  28.735  15.197  1.00  0.00     0.000 C 
BRANCH  10  11
ATOM     11  C   UNL     1      33.411  29.936  16.138  1.00  0.00    -0.000 C 
BRANCH  11  12
ATOM     12  C   UNL     1      33.087  31.270  15.441  1.00  0.00    -0.000 C 
BRANCH  12  13
ATOM     13  C   UNL     1      31.950  32.045  16.129  1.00  0.00    -0.000 C 
BRANCH  13  14
ATOM     14  C   UNL     1      31.284  31.247  17.266  1.00  0.00    -0.000 C 
BRANCH  14  15
ATOM     15  C   UNL     1      30.039  30.442  16.856  1.00  0.00    -0.003 C 
ATOM     16  C   UNL     1      29.483  30.849  15.491  1.00  0.00     0.004 C 
ENDBRANCH  14  15
ENDBRANCH  13  14
ENDBRANCH  12  13
ENDBRANCH  11  12
ENDBRANCH  10  11
ENDBRANCH   1  10
TORSDOF 12
ENDMDL
MODEL 9
REMARK VINA RESULT:    -4.512      2.899      4.921
REMARK INTER + INTRA:          -9.582
REMARK INTER:                  -7.768
REMARK INTRA:                  -1.815
REMARK UNBOUND:                -1.904
REMARK SMILES CCCCCCCCCCCCCC(=O)[O-]
REMARK SMILES IDX 8 1 9 2 10 3 11 4 12 5 13 6 14 7 15 8 16 9 7 10 6 11 5 12
REMARK SMILES IDX 4 13 3 14 2 15 1 16
REMARK H PARENT
REMARK Flexibility Score: inf
ROOT
ATOM      1  C   UNL     1      33.502  29.648  16.442  1.00  0.00     0.000 C 
ENDROOT
BRANCH   1   2
ATOM      2  C   UNL     1      33.597  28.457  15.481  1.00  0.00     0.000 C 
BRANCH   2   3
ATOM      3  C   UNL     1      32.756  28.701  14.219  1.00  0.00     0.000 C 
BRANCH   3   4
ATOM      4  C   UNL     1      31.738  27.579  13.957  1.00  0.00     0.000 C 
BRANCH   4   5
ATOM      5  C   UNL     1      31.367  26.806  15.235  1.00  0.00     0.006 C 
BRANCH   5   6
ATOM      6  C   UNL     1      29.986  27.206  15.772  1.00  0.00     0.053 C 
BRANCH   6   7
ATOM      7  C   UNL     1      28.985  26.102  15.607  1.00  0.00     0.041 C 
ATOM      8  O   UNL     1      27.914  26.306  14.980  1.00  0.00    -0.550 OA
ATOM      9  O   UNL     1      29.252  24.840  16.124  1.00  0.00    -0.550 OA
ENDBRANCH   6   7
ENDBRANCH   5   6
ENDBRANCH   4   5
ENDBRANCH   3   4
ENDBRANCH   2   3
ENDBRANCH   1   2
BRANCH   1  10
ATOM     10  C   UNL     1      33.092  30.926  15.695  1.00  0.00     0.000 C 
BRANCH  10  11
ATOM     11  C   UNL     1      32.086  31.787  16.480  1.00  0.00    -0.000 C 
BRANCH  11  12
ATOM     12  C   UNL     1      31.021  31.002  17.268  1.00  0.00    -0.000 C 
BRANCH  12  13
ATOM     13  C   UNL     1      29.809  30.608  16.407  1.00  0.00    -0.000 C 
BRANCH  13  14
ATOM     14  C   UNL     1      29.775  31.337  15.050  1.00  0.00    -0.000 C 
BRANCH  14  15
ATOM     15  C   UNL     1      29.452  30.445  13.838  1.00  0.00    -0.003 C 
ATOM     16  C   UNL     1      30.010  30.991  12.525  1.00  0.00     0.004 C 
ENDBRANCH  14  15
ENDBRANCH  13  14
ENDBRANCH  12  13
ENDBRANCH  11  12
ENDBRANCH  10  11
ENDBRANCH   1  10
TORSDOF 12
ENDMDL
