MODEL 1
REMARK VINA RESULT:    -1.002      0.000      0.000
REMARK INTER + INTRA:          -1.525
REMARK INTER:                  -1.207
REMARK INTRA:                  -0.317
REMARK UNBOUND:                -0.317
REMARK SMILES O=c1c(O)c(-c2ccc(O)cc2O)oc2cc(O)cc(O)c12
REMARK SMILES IDX 5 1 3 2 2 3 1 4 22 5 20 6 19 7 17 8 16 9 15 10 14 11 6 12
REMARK SMILES IDX 8 13 7 14 9 15 11 16 12 17 10 18 13 20 4 22 21 24 18 26
REMARK H PARENT 10 19 13 21 4 23 21 25 18 27
REMARK Flexibility Score: inf
ROOT
ATOM      1  C   UNL     1     -18.921   9.099  26.544  1.00  0.00     0.184 A 
ATOM      2  C   UNL     1     -17.558   8.949  26.858  1.00  0.00     0.208 A 
ATOM      3  C   UNL     1     -16.609   9.090  25.835  1.00  0.00     0.238 A 
ATOM      4  O   UNL     1     -15.382   8.970  26.106  1.00  0.00    -0.285 OA
ATOM      5  C   UNL     1     -17.037   9.358  24.518  1.00  0.00     0.111 A 
ATOM      6  C   UNL     1     -16.146   9.511  23.429  1.00  0.00     0.134 A 
ATOM      7  C   UNL     1     -16.652   9.767  22.147  1.00  0.00     0.093 A 
ATOM      8  C   UNL     1     -18.028   9.872  21.930  1.00  0.00     0.123 A 
ATOM      9  C   UNL     1     -18.914   9.722  23.002  1.00  0.00     0.094 A 
ATOM     10  C   UNL     1     -18.430   9.468  24.289  1.00  0.00     0.146 A 
ATOM     11  O   UNL     1     -19.292   9.335  25.291  1.00  0.00    -0.451 OA
ENDROOT
BRANCH   1  12
ATOM     12  C   UNL     1     -19.972   8.974  27.576  1.00  0.00     0.063 A 
ATOM     13  C   UNL     1     -21.657  10.044  28.964  1.00  0.00     0.047 A 
ATOM     14  C   UNL     1     -20.662  10.125  27.987  1.00  0.00     0.020 A 
ATOM     15  C   UNL     1     -21.964   8.811  29.554  1.00  0.00     0.119 A 
ATOM     16  C   UNL     1     -21.266   7.664  29.168  1.00  0.00     0.093 A 
ATOM     17  C   UNL     1     -20.261   7.738  28.191  1.00  0.00     0.130 A 
BRANCH  15  18
ATOM     18  O   UNL     1     -22.957   8.718  30.526  1.00  0.00    -0.508 OA
ATOM     19  H   UNL     1     -22.900   9.239  31.393  1.00  0.00     0.293 HD
ENDBRANCH  15  18
BRANCH  17  20
ATOM     20  O   UNL     1     -19.539   6.595  27.850  1.00  0.00    -0.507 OA
ATOM     21  H   UNL     1     -19.566   5.759  28.422  1.00  0.00     0.293 HD
ENDBRANCH  17  20
ENDBRANCH   1  12
BRANCH   2  22
ATOM     22  O   UNL     1     -17.169   8.640  28.163  1.00  0.00    -0.502 OA
ATOM     23  H   UNL     1     -16.393   8.020  28.364  1.00  0.00     0.293 HD
ENDBRANCH   2  22
BRANCH   6  24
ATOM     24  O   UNL     1     -14.766   9.411  23.611  1.00  0.00    -0.507 OA
ATOM     25  H   UNL     1     -14.339   8.584  24.012  1.00  0.00     0.293 HD
ENDBRANCH   6  24
BRANCH   8  26
ATOM     26  O   UNL     1     -18.504  10.125  20.647  1.00  0.00    -0.508 OA
ATOM     27  H   UNL     1     -17.874  10.272  19.867  1.00  0.00     0.293 HD
ENDBRANCH   8  26
TORSDOF 6
ENDMDL
