MODEL 1
REMARK VINA RESULT:    -4.021      0.000      0.000
REMARK INTER + INTRA:         -10.720
REMARK INTER:                  -7.783
REMARK INTRA:                  -2.937
REMARK UNBOUND:                -2.937
REMARK SMILES CCCCCCCCCCCCCCCCCC(=O)[O-]
REMARK SMILES IDX 10 1 11 2 12 3 13 4 14 5 15 6 16 7 17 8 18 9 19 10 20 11
REMARK SMILES IDX 9 12 8 13 7 14 6 15 5 16 4 17 3 18 2 19 1 20
REMARK H PARENT
REMARK Flexibility Score: inf
ROOT
ATOM      1  C   UNL     1      -8.665   7.100  14.662  1.00  0.00     0.000 C 
ENDROOT
BRANCH   1   2
ATOM      2  C   UNL     1      -7.915   6.695  15.945  1.00  0.00     0.000 C 
BRANCH   2   3
ATOM      3  C   UNL     1      -6.716   7.616  16.234  1.00  0.00     0.000 C 
BRANCH   3   4
ATOM      4  C   UNL     1      -5.527   6.859  16.847  1.00  0.00     0.000 C 
BRANCH   4   5
ATOM      5  C   UNL     1      -5.835   5.372  17.099  1.00  0.00     0.000 C 
BRANCH   5   6
ATOM      6  C   UNL     1      -4.779   4.445  16.460  1.00  0.00     0.000 C 
BRANCH   6   7
ATOM      7  C   UNL     1      -3.517   5.185  15.982  1.00  0.00     0.006 C 
BRANCH   7   8
ATOM      8  C   UNL     1      -2.469   4.247  15.373  1.00  0.00     0.053 C 
BRANCH   8   9
ATOM      9  C   UNL     1      -1.425   3.901  16.387  1.00  0.00     0.041 C 
ATOM     10  O   UNL     1      -1.295   2.712  16.782  1.00  0.00    -0.550 OA
ATOM     11  O   UNL     1      -0.628   4.897  16.934  1.00  0.00    -0.550 OA
ENDBRANCH   8   9
ENDBRANCH   7   8
ENDBRANCH   6   7
ENDBRANCH   5   6
ENDBRANCH   4   5
ENDBRANCH   3   4
ENDBRANCH   2   3
ENDBRANCH   1   2
BRANCH   1  12
ATOM     12  C   UNL     1      -8.741   5.976  13.612  1.00  0.00     0.000 C 
BRANCH  12  13
ATOM     13  C   UNL     1      -7.880   4.758  13.997  1.00  0.00    -0.000 C 
BRANCH  13  14
ATOM     14  C   UNL     1      -6.581   4.678  13.179  1.00  0.00    -0.000 C 
BRANCH  14  15
ATOM     15  C   UNL     1      -6.741   5.229  11.751  1.00  0.00    -0.000 C 
BRANCH  15  16
ATOM     16  C   UNL     1      -5.692   6.313  11.426  1.00  0.00    -0.000 C 
BRANCH  16  17
ATOM     17  C   UNL     1      -4.816   6.707  12.632  1.00  0.00    -0.000 C 
BRANCH  17  18
ATOM     18  C   UNL     1      -5.016   8.149  13.131  1.00  0.00    -0.000 C 
BRANCH  18  19
ATOM     19  C   UNL     1      -3.894   8.614  14.070  1.00  0.00    -0.003 C 
ATOM     20  C   UNL     1      -2.526   8.210  13.529  1.00  0.00     0.004 C 
ENDBRANCH  18  19
ENDBRANCH  17  18
ENDBRANCH  16  17
ENDBRANCH  15  16
ENDBRANCH  14  15
ENDBRANCH  13  14
ENDBRANCH  12  13
ENDBRANCH   1  12
TORSDOF 16
ENDMDL
MODEL 2
REMARK VINA RESULT:    -4.010      1.206      1.800
REMARK INTER + INTRA:         -10.698
REMARK INTER:                  -7.721
REMARK INTRA:                  -2.977
REMARK UNBOUND:                -2.937
REMARK SMILES CCCCCCCCCCCCCCCCCC(=O)[O-]
REMARK SMILES IDX 10 1 11 2 12 3 13 4 14 5 15 6 16 7 17 8 18 9 19 10 20 11
REMARK SMILES IDX 9 12 8 13 7 14 6 15 5 16 4 17 3 18 2 19 1 20
REMARK H PARENT
REMARK Flexibility Score: inf
ROOT
ATOM      1  C   UNL     1      -9.352   7.435  14.442  1.00  0.00     0.000 C 
ENDROOT
BRANCH   1   2
ATOM      2  C   UNL     1      -8.922   6.681  15.715  1.00  0.00     0.000 C 
BRANCH   2   3
ATOM      3  C   UNL     1      -7.455   6.217  15.650  1.00  0.00     0.000 C 
BRANCH   3   4
ATOM      4  C   UNL     1      -6.654   6.618  16.899  1.00  0.00     0.000 C 
BRANCH   4   5
ATOM      5  C   UNL     1      -5.637   5.544  17.322  1.00  0.00     0.000 C 
BRANCH   5   6
ATOM      6  C   UNL     1      -5.590   4.366  16.325  1.00  0.00     0.000 C 
BRANCH   6   7
ATOM      7  C   UNL     1      -4.336   3.486  16.469  1.00  0.00     0.006 C 
BRANCH   7   8
ATOM      8  C   UNL     1      -3.218   3.875  15.494  1.00  0.00     0.053 C 
BRANCH   8   9
ATOM      9  C   UNL     1      -1.878   3.597  16.098  1.00  0.00     0.041 C 
ATOM     10  O   UNL     1      -1.736   2.653  16.919  1.00  0.00    -0.550 OA
ATOM     11  O   UNL     1      -0.795   4.411  15.794  1.00  0.00    -0.550 OA
ENDBRANCH   8   9
ENDBRANCH   7   8
ENDBRANCH   6   7
ENDBRANCH   5   6
ENDBRANCH   4   5
ENDBRANCH   3   4
ENDBRANCH   2   3
ENDBRANCH   1   2
BRANCH   1  12
ATOM     12  C   UNL     1      -8.224   8.274  13.813  1.00  0.00     0.000 C 
BRANCH  12  13
ATOM     13  C   UNL     1      -8.312   8.312  12.276  1.00  0.00    -0.000 C 
BRANCH  13  14
ATOM     14  C   UNL     1      -8.637   6.937  11.674  1.00  0.00    -0.000 C 
BRANCH  14  15
ATOM     15  C   UNL     1      -7.383   6.188  11.187  1.00  0.00    -0.000 C 
BRANCH  15  16
ATOM     16  C   UNL     1      -6.966   5.062  12.156  1.00  0.00    -0.000 C 
BRANCH  16  17
ATOM     17  C   UNL     1      -5.528   5.210  12.694  1.00  0.00    -0.000 C 
BRANCH  17  18
ATOM     18  C   UNL     1      -4.983   6.649  12.691  1.00  0.00    -0.000 C 
BRANCH  18  19
ATOM     19  C   UNL     1      -4.266   7.014  13.999  1.00  0.00    -0.003 C 
ATOM     20  C   UNL     1      -4.604   8.438  14.429  1.00  0.00     0.004 C 
ENDBRANCH  18  19
ENDBRANCH  17  18
ENDBRANCH  16  17
ENDBRANCH  15  16
ENDBRANCH  14  15
ENDBRANCH  13  14
ENDBRANCH  12  13
ENDBRANCH   1  12
TORSDOF 16
ENDMDL
MODEL 3
REMARK VINA RESULT:    -3.910      1.223      3.221
REMARK INTER + INTRA:         -10.505
REMARK INTER:                  -7.779
REMARK INTRA:                  -2.725
REMARK UNBOUND:                -2.937
REMARK SMILES CCCCCCCCCCCCCCCCCC(=O)[O-]
REMARK SMILES IDX 10 1 11 2 12 3 13 4 14 5 15 6 16 7 17 8 18 9 19 10 20 11
REMARK SMILES IDX 9 12 8 13 7 14 6 15 5 16 4 17 3 18 2 19 1 20
REMARK H PARENT
REMARK Flexibility Score: inf
ROOT
ATOM      1  C   UNL     1      -4.521   7.648  14.456  1.00  0.00     0.000 C 
ENDROOT
BRANCH   1   2
ATOM      2  C   UNL     1      -5.841   8.141  15.078  1.00  0.00     0.000 C 
BRANCH   2   3
ATOM      3  C   UNL     1      -5.852   7.998  16.611  1.00  0.00     0.000 C 
BRANCH   3   4
ATOM      4  C   UNL     1      -6.571   6.722  17.078  1.00  0.00     0.000 C 
BRANCH   4   5
ATOM      5  C   UNL     1      -5.598   5.573  17.392  1.00  0.00     0.000 C 
BRANCH   5   6
ATOM      6  C   UNL     1      -5.710   4.423  16.368  1.00  0.00     0.000 C 
BRANCH   6   7
ATOM      7  C   UNL     1      -4.436   3.567  16.259  1.00  0.00     0.006 C 
BRANCH   7   8
ATOM      8  C   UNL     1      -3.376   4.187  15.339  1.00  0.00     0.053 C 
BRANCH   8   9
ATOM      9  C   UNL     1      -2.002   3.817  15.802  1.00  0.00     0.041 C 
ATOM     10  O   UNL     1      -1.008   4.504  15.447  1.00  0.00    -0.550 OA
ATOM     11  O   UNL     1      -1.812   2.687  16.584  1.00  0.00    -0.550 OA
ENDBRANCH   8   9
ENDBRANCH   7   8
ENDBRANCH   6   7
ENDBRANCH   5   6
ENDBRANCH   4   5
ENDBRANCH   3   4
ENDBRANCH   2   3
ENDBRANCH   1   2
BRANCH   1  12
ATOM     12  C   UNL     1      -4.561   7.554  12.919  1.00  0.00     0.000 C 
BRANCH  12  13
ATOM     13  C   UNL     1      -5.847   6.876  12.409  1.00  0.00    -0.000 C 
BRANCH  13  14
ATOM     14  C   UNL     1      -5.886   5.375  12.734  1.00  0.00    -0.000 C 
BRANCH  14  15
ATOM     15  C   UNL     1      -7.316   4.807  12.753  1.00  0.00    -0.000 C 
BRANCH  15  16
ATOM     16  C   UNL     1      -8.055   5.139  14.067  1.00  0.00    -0.000 C 
BRANCH  16  17
ATOM     17  C   UNL     1      -9.339   5.968  13.863  1.00  0.00    -0.000 C 
BRANCH  17  18
ATOM     18  C   UNL     1      -9.251   7.424  14.353  1.00  0.00    -0.000 C 
BRANCH  18  19
ATOM     19  C   UNL     1      -9.550   8.442  13.244  1.00  0.00    -0.003 C 
ATOM     20  C   UNL     1      -8.648   9.666  13.368  1.00  0.00     0.004 C 
ENDBRANCH  18  19
ENDBRANCH  17  18
ENDBRANCH  16  17
ENDBRANCH  15  16
ENDBRANCH  14  15
ENDBRANCH  13  14
ENDBRANCH  12  13
ENDBRANCH   1  12
TORSDOF 16
ENDMDL
MODEL 4
REMARK VINA RESULT:    -3.889      1.160      1.749
REMARK INTER + INTRA:         -10.463
REMARK INTER:                  -7.468
REMARK INTRA:                  -2.996
REMARK UNBOUND:                -2.937
REMARK SMILES CCCCCCCCCCCCCCCCCC(=O)[O-]
REMARK SMILES IDX 10 1 11 2 12 3 13 4 14 5 15 6 16 7 17 8 18 9 19 10 20 11
REMARK SMILES IDX 9 12 8 13 7 14 6 15 5 16 4 17 3 18 2 19 1 20
REMARK H PARENT
REMARK Flexibility Score: inf
ROOT
ATOM      1  C   UNL     1      -8.963   7.350  13.907  1.00  0.00     0.000 C 
ENDROOT
BRANCH   1   2
ATOM      2  C   UNL     1      -8.627   7.371  15.410  1.00  0.00     0.000 C 
BRANCH   2   3
ATOM      3  C   UNL     1      -7.683   6.223  15.812  1.00  0.00     0.000 C 
BRANCH   3   4
ATOM      4  C   UNL     1      -6.740   6.611  16.962  1.00  0.00     0.000 C 
BRANCH   4   5
ATOM      5  C   UNL     1      -5.382   5.890  16.886  1.00  0.00     0.000 C 
BRANCH   5   6
ATOM      6  C   UNL     1      -5.542   4.355  16.867  1.00  0.00     0.000 C 
BRANCH   6   7
ATOM      7  C   UNL     1      -4.581   3.647  15.897  1.00  0.00     0.006 C 
BRANCH   7   8
ATOM      8  C   UNL     1      -3.401   4.530  15.472  1.00  0.00     0.053 C 
BRANCH   8   9
ATOM      9  C   UNL     1      -2.106   3.909  15.889  1.00  0.00     0.041 C 
ATOM     10  O   UNL     1      -1.015   4.375  15.469  1.00  0.00    -0.550 OA
ATOM     11  O   UNL     1      -2.104   2.784  16.704  1.00  0.00    -0.550 OA
ENDBRANCH   8   9
ENDBRANCH   7   8
ENDBRANCH   6   7
ENDBRANCH   5   6
ENDBRANCH   4   5
ENDBRANCH   3   4
ENDBRANCH   2   3
ENDBRANCH   1   2
BRANCH   1  12
ATOM     12  C   UNL     1      -8.666   5.999  13.229  1.00  0.00     0.000 C 
BRANCH  12  13
ATOM     13  C   UNL     1      -8.019   6.172  11.842  1.00  0.00    -0.000 C 
BRANCH  13  14
ATOM     14  C   UNL     1      -6.819   5.235  11.634  1.00  0.00    -0.000 C 
BRANCH  14  15
ATOM     15  C   UNL     1      -5.760   5.370  12.742  1.00  0.00    -0.000 C 
BRANCH  15  16
ATOM     16  C   UNL     1      -4.927   6.662  12.596  1.00  0.00    -0.000 C 
BRANCH  16  17
ATOM     17  C   UNL     1      -5.203   7.704  13.698  1.00  0.00    -0.000 C 
BRANCH  17  18
ATOM     18  C   UNL     1      -5.802   9.030  13.197  1.00  0.00    -0.000 C 
BRANCH  18  19
ATOM     19  C   UNL     1      -5.634  10.176  14.205  1.00  0.00    -0.003 C 
ATOM     20  C   UNL     1      -5.316   9.638  15.597  1.00  0.00     0.004 C 
ENDBRANCH  18  19
ENDBRANCH  17  18
ENDBRANCH  16  17
ENDBRANCH  15  16
ENDBRANCH  14  15
ENDBRANCH  13  14
ENDBRANCH  12  13
ENDBRANCH   1  12
TORSDOF 16
ENDMDL
MODEL 5
REMARK VINA RESULT:    -3.862      1.944      4.744
REMARK INTER + INTRA:         -10.412
REMARK INTER:                  -7.734
REMARK INTRA:                  -2.678
REMARK UNBOUND:                -2.937
REMARK SMILES CCCCCCCCCCCCCCCCCC(=O)[O-]
REMARK SMILES IDX 10 1 11 2 12 3 13 4 14 5 15 6 16 7 17 8 18 9 19 10 20 11
REMARK SMILES IDX 9 12 8 13 7 14 6 15 5 16 4 17 3 18 2 19 1 20
REMARK H PARENT
REMARK Flexibility Score: inf
ROOT
ATOM      1  C   UNL     1      -6.929   8.318  15.012  1.00  0.00     0.000 C 
ENDROOT
BRANCH   1   2
ATOM      2  C   UNL     1      -8.184   7.429  15.097  1.00  0.00     0.000 C 
BRANCH   2   3
ATOM      3  C   UNL     1      -8.340   6.522  13.863  1.00  0.00     0.000 C 
BRANCH   3   4
ATOM      4  C   UNL     1      -8.038   5.047  14.175  1.00  0.00     0.000 C 
BRANCH   4   5
ATOM      5  C   UNL     1      -6.822   4.513  13.398  1.00  0.00     0.000 C 
BRANCH   5   6
ATOM      6  C   UNL     1      -6.155   5.610  12.541  1.00  0.00     0.000 C 
BRANCH   6   7
ATOM      7  C   UNL     1      -4.813   6.105  13.109  1.00  0.00     0.006 C 
BRANCH   7   8
ATOM      8  C   UNL     1      -4.347   7.423  12.478  1.00  0.00     0.053 C 
BRANCH   8   9
ATOM      9  C   UNL     1      -3.425   8.149  13.405  1.00  0.00     0.041 C 
ATOM     10  O   UNL     1      -2.403   7.573  13.863  1.00  0.00    -0.550 OA
ATOM     11  O   UNL     1      -3.718   9.446  13.804  1.00  0.00    -0.550 OA
ENDBRANCH   8   9
ENDBRANCH   7   8
ENDBRANCH   6   7
ENDBRANCH   5   6
ENDBRANCH   4   5
ENDBRANCH   3   4
ENDBRANCH   2   3
ENDBRANCH   1   2
BRANCH   1  12
ATOM     12  C   UNL     1      -5.956   8.123  16.190  1.00  0.00     0.000 C 
BRANCH  12  13
ATOM     13  C   UNL     1      -6.635   7.467  17.406  1.00  0.00    -0.000 C 
BRANCH  13  14
ATOM     14  C   UNL     1      -5.903   6.199  17.872  1.00  0.00    -0.000 C 
BRANCH  14  15
ATOM     15  C   UNL     1      -5.143   5.497  16.733  1.00  0.00    -0.000 C 
BRANCH  15  16
ATOM     16  C   UNL     1      -5.333   3.966  16.765  1.00  0.00    -0.000 C 
BRANCH  16  17
ATOM     17  C   UNL     1      -4.017   3.176  16.614  1.00  0.00    -0.000 C 
BRANCH  17  18
ATOM     18  C   UNL     1      -2.917   3.901  15.819  1.00  0.00    -0.000 C 
BRANCH  18  19
ATOM     19  C   UNL     1      -1.506   3.587  16.336  1.00  0.00    -0.003 C 
ATOM     20  C   UNL     1      -0.869   4.819  16.970  1.00  0.00     0.004 C 
ENDBRANCH  18  19
ENDBRANCH  17  18
ENDBRANCH  16  17
ENDBRANCH  15  16
ENDBRANCH  14  15
ENDBRANCH  13  14
ENDBRANCH  12  13
ENDBRANCH   1  12
TORSDOF 16
ENDMDL
MODEL 6
REMARK VINA RESULT:    -3.861      1.181      3.046
REMARK INTER + INTRA:         -10.409
REMARK INTER:                  -7.391
REMARK INTRA:                  -3.019
REMARK UNBOUND:                -2.937
REMARK SMILES CCCCCCCCCCCCCCCCCC(=O)[O-]
REMARK SMILES IDX 10 1 11 2 12 3 13 4 14 5 15 6 16 7 17 8 18 9 19 10 20 11
REMARK SMILES IDX 9 12 8 13 7 14 6 15 5 16 4 17 3 18 2 19 1 20
REMARK H PARENT
REMARK Flexibility Score: inf
ROOT
ATOM      1  C   UNL     1      -8.383   6.257  13.318  1.00  0.00     0.000 C 
ENDROOT
BRANCH   1   2
ATOM      2  C   UNL     1      -6.928   6.433  12.844  1.00  0.00     0.000 C 
BRANCH   2   3
ATOM      3  C   UNL     1      -6.431   5.227  12.027  1.00  0.00     0.000 C 
BRANCH   3   4
ATOM      4  C   UNL     1      -5.424   4.363  12.805  1.00  0.00     0.000 C 
BRANCH   4   5
ATOM      5  C   UNL     1      -5.039   4.978  14.163  1.00  0.00     0.000 C 
BRANCH   5   6
ATOM      6  C   UNL     1      -5.279   3.998  15.331  1.00  0.00     0.000 C 
BRANCH   6   7
ATOM      7  C   UNL     1      -4.318   4.203  16.515  1.00  0.00     0.006 C 
BRANCH   7   8
ATOM      8  C   UNL     1      -3.063   4.999  16.137  1.00  0.00     0.053 C 
BRANCH   8   9
ATOM      9  C   UNL     1      -1.865   4.104  16.112  1.00  0.00     0.041 C 
ATOM     10  O   UNL     1      -0.826   4.454  15.493  1.00  0.00    -0.550 OA
ATOM     11  O   UNL     1      -1.910   2.863  16.733  1.00  0.00    -0.550 OA
ENDBRANCH   8   9
ENDBRANCH   7   8
ENDBRANCH   6   7
ENDBRANCH   5   6
ENDBRANCH   4   5
ENDBRANCH   3   4
ENDBRANCH   2   3
ENDBRANCH   1   2
BRANCH   1  12
ATOM     12  C   UNL     1      -8.509   5.975  14.827  1.00  0.00     0.000 C 
BRANCH  12  13
ATOM     13  C   UNL     1      -8.146   7.203  15.683  1.00  0.00    -0.000 C 
BRANCH  13  14
ATOM     14  C   UNL     1      -7.052   6.893  16.717  1.00  0.00    -0.000 C 
BRANCH  14  15
ATOM     15  C   UNL     1      -5.786   7.746  16.517  1.00  0.00    -0.000 C 
BRANCH  15  16
ATOM     16  C   UNL     1      -5.925   8.724  15.332  1.00  0.00    -0.000 C 
BRANCH  16  17
ATOM     17  C   UNL     1      -4.576   9.237  14.791  1.00  0.00    -0.000 C 
BRANCH  17  18
ATOM     18  C   UNL     1      -4.441   9.205  13.258  1.00  0.00    -0.000 C 
BRANCH  18  19
ATOM     19  C   UNL     1      -3.532   8.070  12.766  1.00  0.00    -0.003 C 
ATOM     20  C   UNL     1      -3.790   7.761  11.294  1.00  0.00     0.004 C 
ENDBRANCH  18  19
ENDBRANCH  17  18
ENDBRANCH  16  17
ENDBRANCH  15  16
ENDBRANCH  14  15
ENDBRANCH  13  14
ENDBRANCH  12  13
ENDBRANCH   1  12
TORSDOF 16
ENDMDL
MODEL 7
REMARK VINA RESULT:    -3.844      1.179      2.605
REMARK INTER + INTRA:         -10.376
REMARK INTER:                  -7.405
REMARK INTRA:                  -2.970
REMARK UNBOUND:                -2.937
REMARK SMILES CCCCCCCCCCCCCCCCCC(=O)[O-]
REMARK SMILES IDX 10 1 11 2 12 3 13 4 14 5 15 6 16 7 17 8 18 9 19 10 20 11
REMARK SMILES IDX 9 12 8 13 7 14 6 15 5 16 4 17 3 18 2 19 1 20
REMARK H PARENT
REMARK Flexibility Score: inf
ROOT
ATOM      1  C   UNL     1      -7.095   8.806  14.545  1.00  0.00     0.000 C 
ENDROOT
BRANCH   1   2
ATOM      2  C   UNL     1      -5.725   8.351  14.008  1.00  0.00     0.000 C 
BRANCH   2   3
ATOM      3  C   UNL     1      -4.854   7.711  15.104  1.00  0.00     0.000 C 
BRANCH   3   4
ATOM      4  C   UNL     1      -5.689   6.986  16.172  1.00  0.00     0.000 C 
BRANCH   4   5
ATOM      5  C   UNL     1      -4.866   5.968  16.981  1.00  0.00     0.000 C 
BRANCH   5   6
ATOM      6  C   UNL     1      -5.477   4.552  16.922  1.00  0.00     0.000 C 
BRANCH   6   7
ATOM      7  C   UNL     1      -4.513   3.486  16.372  1.00  0.00     0.006 C 
BRANCH   7   8
ATOM      8  C   UNL     1      -3.489   4.059  15.385  1.00  0.00     0.053 C 
BRANCH   8   9
ATOM      9  C   UNL     1      -2.097   3.772  15.851  1.00  0.00     0.041 C 
ATOM     10  O   UNL     1      -1.131   4.457  15.421  1.00  0.00    -0.550 OA
ATOM     11  O   UNL     1      -1.858   2.719  16.723  1.00  0.00    -0.550 OA
ENDBRANCH   8   9
ENDBRANCH   7   8
ENDBRANCH   6   7
ENDBRANCH   5   6
ENDBRANCH   4   5
ENDBRANCH   3   4
ENDBRANCH   2   3
ENDBRANCH   1   2
BRANCH   1  12
ATOM     12  C   UNL     1      -8.286   8.261  13.734  1.00  0.00     0.000 C 
BRANCH  12  13
ATOM     13  C   UNL     1      -8.914   7.015  14.385  1.00  0.00    -0.000 C 
BRANCH  13  14
ATOM     14  C   UNL     1      -8.785   5.764  13.501  1.00  0.00    -0.000 C 
BRANCH  14  15
ATOM     15  C   UNL     1      -7.775   4.744  14.058  1.00  0.00    -0.000 C 
BRANCH  15  16
ATOM     16  C   UNL     1      -6.471   4.709  13.233  1.00  0.00    -0.000 C 
BRANCH  16  17
ATOM     17  C   UNL     1      -6.576   5.438  11.878  1.00  0.00    -0.000 C 
BRANCH  17  18
ATOM     18  C   UNL     1      -5.294   6.164  11.436  1.00  0.00    -0.000 C 
BRANCH  18  19
ATOM     19  C   UNL     1      -5.540   7.159  10.292  1.00  0.00    -0.003 C 
ATOM     20  C   UNL     1      -7.029   7.450  10.131  1.00  0.00     0.004 C 
ENDBRANCH  18  19
ENDBRANCH  17  18
ENDBRANCH  16  17
ENDBRANCH  15  16
ENDBRANCH  14  15
ENDBRANCH  13  14
ENDBRANCH  12  13
ENDBRANCH   1  12
TORSDOF 16
ENDMDL
MODEL 8
REMARK VINA RESULT:    -3.801      1.332      2.844
REMARK INTER + INTRA:         -10.294
REMARK INTER:                  -7.655
REMARK INTRA:                  -2.639
REMARK UNBOUND:                -2.937
REMARK SMILES CCCCCCCCCCCCCCCCCC(=O)[O-]
REMARK SMILES IDX 10 1 11 2 12 3 13 4 14 5 15 6 16 7 17 8 18 9 19 10 20 11
REMARK SMILES IDX 9 12 8 13 7 14 6 15 5 16 4 17 3 18 2 19 1 20
REMARK H PARENT
REMARK Flexibility Score: inf
ROOT
ATOM      1  C   UNL     1      -6.765   4.405  13.664  1.00  0.00     0.000 C 
ENDROOT
BRANCH   1   2
ATOM      2  C   UNL     1      -7.625   5.600  14.118  1.00  0.00     0.000 C 
BRANCH   2   3
ATOM      3  C   UNL     1      -7.381   5.964  15.595  1.00  0.00     0.000 C 
BRANCH   3   4
ATOM      4  C   UNL     1      -6.754   7.358  15.761  1.00  0.00     0.000 C 
BRANCH   4   5
ATOM      5  C   UNL     1      -5.309   7.300  16.289  1.00  0.00     0.000 C 
BRANCH   5   6
ATOM      6  C   UNL     1      -4.877   5.859  16.635  1.00  0.00     0.000 C 
BRANCH   6   7
ATOM      7  C   UNL     1      -3.677   5.359  15.812  1.00  0.00     0.006 C 
BRANCH   7   8
ATOM      8  C   UNL     1      -3.372   3.874  16.041  1.00  0.00     0.053 C 
BRANCH   8   9
ATOM      9  C   UNL     1      -1.894   3.646  16.090  1.00  0.00     0.041 C 
ATOM     10  O   UNL     1      -1.113   4.423  15.480  1.00  0.00    -0.550 OA
ATOM     11  O   UNL     1      -1.381   2.548  16.767  1.00  0.00    -0.550 OA
ENDBRANCH   8   9
ENDBRANCH   7   8
ENDBRANCH   6   7
ENDBRANCH   5   6
ENDBRANCH   4   5
ENDBRANCH   3   4
ENDBRANCH   2   3
ENDBRANCH   1   2
BRANCH   1  12
ATOM     12  C   UNL     1      -5.622   4.797  12.709  1.00  0.00     0.000 C 
BRANCH  12  13
ATOM     13  C   UNL     1      -5.714   6.267  12.259  1.00  0.00    -0.000 C 
BRANCH  13  14
ATOM     14  C   UNL     1      -4.467   7.078  12.645  1.00  0.00    -0.000 C 
BRANCH  14  15
ATOM     15  C   UNL     1      -4.769   8.573  12.851  1.00  0.00    -0.000 C 
BRANCH  15  16
ATOM     16  C   UNL     1      -3.616   9.304  13.570  1.00  0.00    -0.000 C 
BRANCH  16  17
ATOM     17  C   UNL     1      -2.258   8.581  13.457  1.00  0.00    -0.000 C 
BRANCH  17  18
ATOM     18  C   UNL     1      -1.256   9.240  12.494  1.00  0.00    -0.000 C 
BRANCH  18  19
ATOM     19  C   UNL     1      -0.404  10.323  13.172  1.00  0.00    -0.003 C 
ATOM     20  C   UNL     1       0.055   9.871  14.555  1.00  0.00     0.004 C 
ENDBRANCH  18  19
ENDBRANCH  17  18
ENDBRANCH  16  17
ENDBRANCH  15  16
ENDBRANCH  14  15
ENDBRANCH  13  14
ENDBRANCH  12  13
ENDBRANCH   1  12
TORSDOF 16
ENDMDL
MODEL 9
REMARK VINA RESULT:    -1.556      1.323      3.334
REMARK INTER + INTRA:          -5.948
REMARK INTER:                  -3.383
REMARK INTRA:                  -2.565
REMARK UNBOUND:                -2.937
REMARK SMILES CCCCCCCCCCCCCCCCCC(=O)[O-]
REMARK SMILES IDX 10 1 11 2 12 3 13 4 14 5 15 6 16 7 17 8 18 9 19 10 20 11
REMARK SMILES IDX 9 12 8 13 7 14 6 15 5 16 4 17 3 18 2 19 1 20
REMARK H PARENT
REMARK Flexibility Score: inf
ROOT
ATOM      1  C   UNL     1      -4.981   6.506  12.962  1.00  0.00     0.000 C 
ENDROOT
BRANCH   1   2
ATOM      2  C   UNL     1      -4.575   7.012  14.359  1.00  0.00     0.000 C 
BRANCH   2   3
ATOM      3  C   UNL     1      -5.787   7.496  15.178  1.00  0.00     0.000 C 
BRANCH   3   4
ATOM      4  C   UNL     1      -5.834   6.873  16.583  1.00  0.00     0.000 C 
BRANCH   4   5
ATOM      5  C   UNL     1      -4.699   5.863  16.823  1.00  0.00     0.000 C 
BRANCH   5   6
ATOM      6  C   UNL     1      -5.222   4.413  16.902  1.00  0.00     0.000 C 
BRANCH   6   7
ATOM      7  C   UNL     1      -4.284   3.382  16.249  1.00  0.00     0.006 C 
BRANCH   7   8
ATOM      8  C   UNL     1      -3.082   4.028  15.549  1.00  0.00     0.053 C 
BRANCH   8   9
ATOM      9  C   UNL     1      -1.810   3.651  16.241  1.00  0.00     0.041 C 
ATOM     10  O   UNL     1      -1.703   2.530  16.804  1.00  0.00    -0.550 OA
ATOM     11  O   UNL     1      -0.759   4.555  16.306  1.00  0.00    -0.550 OA
ENDBRANCH   8   9
ENDBRANCH   7   8
ENDBRANCH   6   7
ENDBRANCH   5   6
ENDBRANCH   4   5
ENDBRANCH   3   4
ENDBRANCH   2   3
ENDBRANCH   1   2
BRANCH   1  12
ATOM     12  C   UNL     1      -5.521   5.064  12.963  1.00  0.00     0.000 C 
BRANCH  12  13
ATOM     13  C   UNL     1      -6.848   4.937  12.190  1.00  0.00    -0.000 C 
BRANCH  13  14
ATOM     14  C   UNL     1      -6.938   5.925  11.016  1.00  0.00    -0.000 C 
BRANCH  14  15
ATOM     15  C   UNL     1      -8.293   6.653  10.954  1.00  0.00    -0.000 C 
BRANCH  15  16
ATOM     16  C   UNL     1      -8.289   7.959  11.776  1.00  0.00    -0.000 C 
BRANCH  16  17
ATOM     17  C   UNL     1      -9.251   7.936  12.981  1.00  0.00    -0.000 C 
BRANCH  17  18
ATOM     18  C   UNL     1     -10.125   6.674  13.084  1.00  0.00    -0.000 C 
BRANCH  18  19
ATOM     19  C   UNL     1      -9.836   5.853  14.348  1.00  0.00    -0.003 C 
ATOM     20  C   UNL     1      -9.358   6.750  15.486  1.00  0.00     0.004 C 
ENDBRANCH  18  19
ENDBRANCH  17  18
ENDBRANCH  16  17
ENDBRANCH  15  16
ENDBRANCH  14  15
ENDBRANCH  13  14
ENDBRANCH  12  13
ENDBRANCH   1  12
TORSDOF 16
ENDMDL
