MODEL 1
REMARK VINA RESULT:    -0.286      0.000      0.000
REMARK INTER + INTRA:          -1.157
REMARK INTER:                  -0.554
REMARK INTRA:                  -0.603
REMARK UNBOUND:                -0.603
REMARK SMILES CCCCCCCCCCCCCCCCCC(=O)[O-]
REMARK SMILES IDX 10 1 11 2 12 3 13 4 14 5 15 6 16 7 17 8 18 9 19 10 20 11
REMARK SMILES IDX 9 12 8 13 7 14 6 15 5 16 4 17 3 18 2 19 1 20
REMARK H PARENT
REMARK Flexibility Score: inf
ROOT
ATOM      1  C   UNL     1       2.919  20.804  15.944  1.00  0.00     0.000 C 
ENDROOT
BRANCH   1   2
ATOM      2  C   UNL     1       4.196  19.944  15.963  1.00  0.00     0.000 C 
BRANCH   2   3
ATOM      3  C   UNL     1       5.146  20.273  14.801  1.00  0.00     0.000 C 
BRANCH   3   4
ATOM      4  C   UNL     1       6.227  21.291  15.194  1.00  0.00     0.000 C 
BRANCH   4   5
ATOM      5  C   UNL     1       7.286  20.649  16.098  1.00  0.00     0.000 C 
BRANCH   5   6
ATOM      6  C   UNL     1       8.321  19.875  15.268  1.00  0.00     0.000 C 
BRANCH   6   7
ATOM      7  C   UNL     1       8.505  20.457  13.858  1.00  0.00     0.006 C 
BRANCH   7   8
ATOM      8  C   UNL     1       9.973  20.470  13.412  1.00  0.00     0.053 C 
BRANCH   8   9
ATOM      9  C   UNL     1      10.219  21.598  12.461  1.00  0.00     0.041 C 
ATOM     10  O   UNL     1      10.149  22.790  12.859  1.00  0.00    -0.550 OA
ATOM     11  O   UNL     1      10.479  21.334  11.122  1.00  0.00    -0.550 OA
ENDBRANCH   8   9
ENDBRANCH   7   8
ENDBRANCH   6   7
ENDBRANCH   5   6
ENDBRANCH   4   5
ENDBRANCH   3   4
ENDBRANCH   2   3
ENDBRANCH   1   2
BRANCH   1  12
ATOM     12  C   UNL     1       1.642  19.966  16.168  1.00  0.00     0.000 C 
BRANCH  12  13
ATOM     13  C   UNL     1       0.337  20.765  15.990  1.00  0.00    -0.000 C 
BRANCH  13  14
ATOM     14  C   UNL     1      -0.957  19.945  16.151  1.00  0.00    -0.000 C 
BRANCH  14  15
ATOM     15  C   UNL     1      -2.243  20.783  16.278  1.00  0.00    -0.000 C 
BRANCH  15  16
ATOM     16  C   UNL     1      -3.287  20.138  17.202  1.00  0.00    -0.000 C 
BRANCH  16  17
ATOM     17  C   UNL     1      -4.606  19.897  16.458  1.00  0.00    -0.000 C 
BRANCH  17  18
ATOM     18  C   UNL     1      -4.668  20.725  15.166  1.00  0.00    -0.000 C 
BRANCH  18  19
ATOM     19  C   UNL     1      -6.103  20.906  14.648  1.00  0.00    -0.003 C 
ATOM     20  C   UNL     1      -7.134  20.984  15.774  1.00  0.00     0.004 C 
ENDBRANCH  18  19
ENDBRANCH  17  18
ENDBRANCH  16  17
ENDBRANCH  15  16
ENDBRANCH  14  15
ENDBRANCH  13  14
ENDBRANCH  12  13
ENDBRANCH   1  12
TORSDOF 16
ENDMDL
MODEL 2
REMARK VINA RESULT:    -0.181      1.367      2.789
REMARK INTER + INTRA:          -0.952
REMARK INTER:                  -0.251
REMARK INTRA:                  -0.701
REMARK UNBOUND:                -0.603
REMARK SMILES CCCCCCCCCCCCCCCCCC(=O)[O-]
REMARK SMILES IDX 10 1 11 2 12 3 13 4 14 5 15 6 16 7 17 8 18 9 19 10 20 11
REMARK SMILES IDX 9 12 8 13 7 14 6 15 5 16 4 17 3 18 2 19 1 20
REMARK H PARENT
REMARK Flexibility Score: inf
ROOT
ATOM      1  C   UNL     1       5.224  20.672  15.304  1.00  0.00     0.000 C 
ENDROOT
BRANCH   1   2
ATOM      2  C   UNL     1       6.352  19.892  16.004  1.00  0.00     0.000 C 
BRANCH   2   3
ATOM      3  C   UNL     1       7.719  20.105  15.337  1.00  0.00     0.000 C 
BRANCH   3   4
ATOM      4  C   UNL     1       7.624  20.943  14.053  1.00  0.00     0.000 C 
BRANCH   4   5
ATOM      5  C   UNL     1       8.768  20.606  13.089  1.00  0.00     0.000 C 
BRANCH   5   6
ATOM      6  C   UNL     1      10.091  21.219  13.571  1.00  0.00     0.000 C 
BRANCH   6   7
ATOM      7  C   UNL     1      10.850  21.946  12.451  1.00  0.00     0.006 C 
BRANCH   7   8
ATOM      8  C   UNL     1      10.954  23.458  12.694  1.00  0.00     0.053 C 
BRANCH   8   9
ATOM      9  C   UNL     1      10.794  24.205  11.408  1.00  0.00     0.041 C 
ATOM     10  O   UNL     1      10.480  25.424  11.418  1.00  0.00    -0.550 OA
ATOM     11  O   UNL     1      10.943  23.543  10.196  1.00  0.00    -0.550 OA
ENDBRANCH   8   9
ENDBRANCH   7   8
ENDBRANCH   6   7
ENDBRANCH   5   6
ENDBRANCH   4   5
ENDBRANCH   3   4
ENDBRANCH   2   3
ENDBRANCH   1   2
BRANCH   1  12
ATOM     12  C   UNL     1       3.904  19.875  15.249  1.00  0.00     0.000 C 
BRANCH  12  13
ATOM     13  C   UNL     1       2.683  20.659  15.767  1.00  0.00    -0.000 C 
BRANCH  13  14
ATOM     14  C   UNL     1       1.768  19.880  16.730  1.00  0.00    -0.000 C 
BRANCH  14  15
ATOM     15  C   UNL     1       0.268  19.933  16.384  1.00  0.00    -0.000 C 
BRANCH  15  16
ATOM     16  C   UNL     1      -0.182  21.314  15.886  1.00  0.00    -0.000 C 
BRANCH  16  17
ATOM     17  C   UNL     1      -1.704  21.366  15.706  1.00  0.00    -0.000 C 
BRANCH  17  18
ATOM     18  C   UNL     1      -2.339  20.000  16.003  1.00  0.00    -0.000 C 
BRANCH  18  19
ATOM     19  C   UNL     1      -3.865  20.080  16.168  1.00  0.00    -0.003 C 
ATOM     20  C   UNL     1      -4.567  20.615  14.920  1.00  0.00     0.004 C 
ENDBRANCH  18  19
ENDBRANCH  17  18
ENDBRANCH  16  17
ENDBRANCH  15  16
ENDBRANCH  14  15
ENDBRANCH  13  14
ENDBRANCH  12  13
ENDBRANCH   1  12
TORSDOF 16
ENDMDL
MODEL 3
REMARK VINA RESULT:    -0.126      6.593     13.104
REMARK INTER + INTRA:          -0.846
REMARK INTER:                  -0.381
REMARK INTRA:                  -0.465
REMARK UNBOUND:                -0.603
REMARK SMILES CCCCCCCCCCCCCCCCCC(=O)[O-]
REMARK SMILES IDX 10 1 11 2 12 3 13 4 14 5 15 6 16 7 17 8 18 9 19 10 20 11
REMARK SMILES IDX 9 12 8 13 7 14 6 15 5 16 4 17 3 18 2 19 1 20
REMARK H PARENT
REMARK Flexibility Score: inf
ROOT
ATOM      1  C   UNL     1      -3.300  19.880  15.875  1.00  0.00     0.000 C 
ENDROOT
BRANCH   1   2
ATOM      2  C   UNL     1      -4.423  20.662  15.171  1.00  0.00     0.000 C 
BRANCH   2   3
ATOM      3  C   UNL     1      -5.824  20.200  15.601  1.00  0.00     0.000 C 
BRANCH   3   4
ATOM      4  C   UNL     1      -6.842  21.350  15.622  1.00  0.00     0.000 C 
BRANCH   4   5
ATOM      5  C   UNL     1      -8.253  20.841  15.304  1.00  0.00     0.000 C 
BRANCH   5   6
ATOM      6  C   UNL     1      -8.944  20.306  16.567  1.00  0.00     0.000 C 
BRANCH   6   7
ATOM      7  C   UNL     1      -8.173  20.645  17.852  1.00  0.00     0.006 C 
BRANCH   7   8
ATOM      8  C   UNL     1      -9.097  20.826  19.064  1.00  0.00     0.053 C 
BRANCH   8   9
ATOM      9  C   UNL     1      -8.664  22.005  19.877  1.00  0.00     0.041 C 
ATOM     10  O   UNL     1      -8.650  21.937  21.134  1.00  0.00    -0.550 OA
ATOM     11  O   UNL     1      -8.323  23.196  19.248  1.00  0.00    -0.550 OA
ENDBRANCH   8   9
ENDBRANCH   7   8
ENDBRANCH   6   7
ENDBRANCH   5   6
ENDBRANCH   4   5
ENDBRANCH   3   4
ENDBRANCH   2   3
ENDBRANCH   1   2
BRANCH   1  12
ATOM     12  C   UNL     1      -3.015  20.411  17.296  1.00  0.00     0.000 C 
BRANCH  12  13
ATOM     13  C   UNL     1      -1.537  20.294  17.717  1.00  0.00    -0.000 C 
BRANCH  13  14
ATOM     14  C   UNL     1      -0.570  19.875  16.593  1.00  0.00    -0.000 C 
BRANCH  14  15
ATOM     15  C   UNL     1       0.721  20.710  16.504  1.00  0.00    -0.000 C 
BRANCH  15  16
ATOM     16  C   UNL     1       1.905  19.920  15.928  1.00  0.00    -0.000 C 
BRANCH  16  17
ATOM     17  C   UNL     1       3.211  20.714  16.055  1.00  0.00    -0.000 C 
BRANCH  17  18
ATOM     18  C   UNL     1       4.371  19.977  15.371  1.00  0.00    -0.000 C 
BRANCH  18  19
ATOM     19  C   UNL     1       5.520  20.919  14.979  1.00  0.00    -0.003 C 
ATOM     20  C   UNL     1       6.678  20.888  15.975  1.00  0.00     0.004 C 
ENDBRANCH  18  19
ENDBRANCH  17  18
ENDBRANCH  16  17
ENDBRANCH  15  16
ENDBRANCH  14  15
ENDBRANCH  13  14
ENDBRANCH  12  13
ENDBRANCH   1  12
TORSDOF 16
ENDMDL
MODEL 4
REMARK VINA RESULT:     0.154      6.414      9.257
REMARK INTER + INTRA:          -0.305
REMARK INTER:                   1.067
REMARK INTRA:                  -1.371
REMARK UNBOUND:                -0.603
REMARK SMILES CCCCCCCCCCCCCCCCCC(=O)[O-]
REMARK SMILES IDX 10 1 11 2 12 3 13 4 14 5 15 6 16 7 17 8 18 9 19 10 20 11
REMARK SMILES IDX 9 12 8 13 7 14 6 15 5 16 4 17 3 18 2 19 1 20
REMARK H PARENT
REMARK Flexibility Score: inf
ROOT
ATOM      1  C   UNL     1       6.192  20.647  11.534  1.00  0.00     0.000 C 
ENDROOT
BRANCH   1   2
ATOM      2  C   UNL     1       7.524  19.875  11.519  1.00  0.00     0.000 C 
BRANCH   2   3
ATOM      3  C   UNL     1       8.608  20.584  10.692  1.00  0.00     0.000 C 
BRANCH   3   4
ATOM      4  C   UNL     1      10.007  20.444  11.311  1.00  0.00     0.000 C 
BRANCH   4   5
ATOM      5  C   UNL     1      11.057  20.142  10.235  1.00  0.00     0.000 C 
BRANCH   5   6
ATOM      6  C   UNL     1      11.006  21.184   9.109  1.00  0.00     0.000 C 
BRANCH   6   7
ATOM      7  C   UNL     1      11.060  22.627   9.634  1.00  0.00     0.006 C 
BRANCH   7   8
ATOM      8  C   UNL     1      10.553  23.648   8.607  1.00  0.00     0.053 C 
BRANCH   8   9
ATOM      9  C   UNL     1       9.933  24.820   9.300  1.00  0.00     0.041 C 
ATOM     10  O   UNL     1      10.103  24.989  10.536  1.00  0.00    -0.550 OA
ATOM     11  O   UNL     1       9.127  25.701   8.589  1.00  0.00    -0.550 OA
ENDBRANCH   8   9
ENDBRANCH   7   8
ENDBRANCH   6   7
ENDBRANCH   5   6
ENDBRANCH   4   5
ENDBRANCH   3   4
ENDBRANCH   2   3
ENDBRANCH   1   2
BRANCH   1  12
ATOM     12  C   UNL     1       5.161  20.025  12.499  1.00  0.00     0.000 C 
BRANCH  12  13
ATOM     13  C   UNL     1       5.675  19.875  13.943  1.00  0.00    -0.000 C 
BRANCH  13  14
ATOM     14  C   UNL     1       5.981  21.200  14.667  1.00  0.00    -0.000 C 
BRANCH  14  15
ATOM     15  C   UNL     1       7.112  21.122  15.711  1.00  0.00    -0.000 C 
BRANCH  15  16
ATOM     16  C   UNL     1       8.181  20.078  15.357  1.00  0.00    -0.000 C 
BRANCH  16  17
ATOM     17  C   UNL     1       9.316  20.708  14.542  1.00  0.00    -0.000 C 
BRANCH  17  18
ATOM     18  C   UNL     1      10.326  21.413  15.459  1.00  0.00    -0.000 C 
BRANCH  18  19
ATOM     19  C   UNL     1      11.062  22.563  14.754  1.00  0.00    -0.003 C 
ATOM     20  C   UNL     1      10.559  22.805  13.332  1.00  0.00     0.004 C 
ENDBRANCH  18  19
ENDBRANCH  17  18
ENDBRANCH  16  17
ENDBRANCH  15  16
ENDBRANCH  14  15
ENDBRANCH  13  14
ENDBRANCH  12  13
ENDBRANCH   1  12
TORSDOF 16
ENDMDL
MODEL 5
REMARK VINA RESULT:     0.247      1.208      2.541
REMARK INTER + INTRA:          -0.125
REMARK INTER:                   0.353
REMARK INTRA:                  -0.478
REMARK UNBOUND:                -0.603
REMARK SMILES CCCCCCCCCCCCCCCCCC(=O)[O-]
REMARK SMILES IDX 10 1 11 2 12 3 13 4 14 5 15 6 16 7 17 8 18 9 19 10 20 11
REMARK SMILES IDX 9 12 8 13 7 14 6 15 5 16 4 17 3 18 2 19 1 20
REMARK H PARENT
REMARK Flexibility Score: inf
ROOT
ATOM      1  C   UNL     1       0.462  20.755  16.174  1.00  0.00     0.000 C 
ENDROOT
BRANCH   1   2
ATOM      2  C   UNL     1       1.694  19.875  16.452  1.00  0.00     0.000 C 
BRANCH   2   3
ATOM      3  C   UNL     1       2.760  19.988  15.351  1.00  0.00     0.000 C 
BRANCH   3   4
ATOM      4  C   UNL     1       4.026  20.714  15.830  1.00  0.00     0.000 C 
BRANCH   4   5
ATOM      5  C   UNL     1       5.280  19.879  15.544  1.00  0.00     0.000 C 
BRANCH   5   6
ATOM      6  C   UNL     1       6.132  20.526  14.441  1.00  0.00     0.000 C 
BRANCH   6   7
ATOM      7  C   UNL     1       7.636  20.275  14.632  1.00  0.00     0.006 C 
BRANCH   7   8
ATOM      8  C   UNL     1       8.434  20.460  13.334  1.00  0.00     0.053 C 
BRANCH   8   9
ATOM      9  C   UNL     1       9.787  21.026  13.630  1.00  0.00     0.041 C 
ATOM     10  O   UNL     1      10.697  20.981  12.761  1.00  0.00    -0.550 OA
ATOM     11  O   UNL     1      10.057  21.562  14.883  1.00  0.00    -0.550 OA
ENDBRANCH   8   9
ENDBRANCH   7   8
ENDBRANCH   6   7
ENDBRANCH   5   6
ENDBRANCH   4   5
ENDBRANCH   3   4
ENDBRANCH   2   3
ENDBRANCH   1   2
BRANCH   1  12
ATOM     12  C   UNL     1      -0.846  20.114  16.684  1.00  0.00     0.000 C 
BRANCH  12  13
ATOM     13  C   UNL     1      -2.120  20.829  16.194  1.00  0.00    -0.000 C 
BRANCH  13  14
ATOM     14  C   UNL     1      -3.225  19.900  15.659  1.00  0.00    -0.000 C 
BRANCH  14  15
ATOM     15  C   UNL     1      -4.661  20.331  16.013  1.00  0.00    -0.000 C 
BRANCH  15  16
ATOM     16  C   UNL     1      -5.420  20.921  14.816  1.00  0.00    -0.000 C 
BRANCH  16  17
ATOM     17  C   UNL     1      -6.936  20.868  15.044  1.00  0.00    -0.000 C 
BRANCH  17  18
ATOM     18  C   UNL     1      -7.260  20.448  16.485  1.00  0.00    -0.000 C 
BRANCH  18  19
ATOM     19  C   UNL     1      -8.680  20.853  16.913  1.00  0.00    -0.003 C 
ATOM     20  C   UNL     1      -8.788  22.332  17.281  1.00  0.00     0.004 C 
ENDBRANCH  18  19
ENDBRANCH  17  18
ENDBRANCH  16  17
ENDBRANCH  15  16
ENDBRANCH  14  15
ENDBRANCH  13  14
ENDBRANCH  12  13
ENDBRANCH   1  12
TORSDOF 16
ENDMDL
MODEL 6
REMARK VINA RESULT:     0.575      1.936      3.619
REMARK INTER + INTRA:           0.510
REMARK INTER:                   1.179
REMARK INTRA:                  -0.669
REMARK UNBOUND:                -0.603
REMARK SMILES CCCCCCCCCCCCCCCCCC(=O)[O-]
REMARK SMILES IDX 10 1 11 2 12 3 13 4 14 5 15 6 16 7 17 8 18 9 19 10 20 11
REMARK SMILES IDX 9 12 8 13 7 14 6 15 5 16 4 17 3 18 2 19 1 20
REMARK H PARENT
REMARK Flexibility Score: inf
ROOT
ATOM      1  C   UNL     1       6.008  20.774  14.705  1.00  0.00     0.000 C 
ENDROOT
BRANCH   1   2
ATOM      2  C   UNL     1       7.051  20.063  15.585  1.00  0.00     0.000 C 
BRANCH   2   3
ATOM      3  C   UNL     1       8.494  20.375  15.159  1.00  0.00     0.000 C 
BRANCH   3   4
ATOM      4  C   UNL     1       8.566  21.076  13.794  1.00  0.00     0.000 C 
BRANCH   4   5
ATOM      5  C   UNL     1       9.321  20.217  12.773  1.00  0.00     0.000 C 
BRANCH   5   6
ATOM      6  C   UNL     1      10.599  20.923  12.297  1.00  0.00     0.000 C 
BRANCH   6   7
ATOM      7  C   UNL     1      10.577  21.236  10.793  1.00  0.00     0.006 C 
BRANCH   7   8
ATOM      8  C   UNL     1      10.578  19.969   9.926  1.00  0.00     0.053 C 
BRANCH   8   9
ATOM      9  C   UNL     1       9.913  20.235   8.613  1.00  0.00     0.041 C 
ATOM     10  O   UNL     1       8.731  20.668   8.578  1.00  0.00    -0.550 OA
ATOM     11  O   UNL     1      10.580  19.958   7.427  1.00  0.00    -0.550 OA
ENDBRANCH   8   9
ENDBRANCH   7   8
ENDBRANCH   6   7
ENDBRANCH   5   6
ENDBRANCH   4   5
ENDBRANCH   3   4
ENDBRANCH   2   3
ENDBRANCH   1   2
BRANCH   1  12
ATOM     12  C   UNL     1       4.641  20.056  14.714  1.00  0.00     0.000 C 
BRANCH  12  13
ATOM     13  C   UNL     1       3.561  20.790  15.532  1.00  0.00    -0.000 C 
BRANCH  13  14
ATOM     14  C   UNL     1       2.626  19.875  16.346  1.00  0.00    -0.000 C 
BRANCH  14  15
ATOM     15  C   UNL     1       1.122  20.143  16.146  1.00  0.00    -0.000 C 
BRANCH  15  16
ATOM     16  C   UNL     1       0.302  19.927  17.426  1.00  0.00    -0.000 C 
BRANCH  16  17
ATOM     17  C   UNL     1      -1.061  20.623  17.331  1.00  0.00    -0.000 C 
BRANCH  17  18
ATOM     18  C   UNL     1      -1.732  20.335  15.980  1.00  0.00    -0.000 C 
BRANCH  18  19
ATOM     19  C   UNL     1      -3.258  20.190  16.097  1.00  0.00    -0.003 C 
ATOM     20  C   UNL     1      -3.723  19.964  17.535  1.00  0.00     0.004 C 
ENDBRANCH  18  19
ENDBRANCH  17  18
ENDBRANCH  16  17
ENDBRANCH  15  16
ENDBRANCH  14  15
ENDBRANCH  13  14
ENDBRANCH  12  13
ENDBRANCH   1  12
TORSDOF 16
ENDMDL
