MODEL 1
REMARK VINA RESULT:    -3.748      0.000      0.000
REMARK INTER + INTRA:          -7.268
REMARK INTER:                  -5.939
REMARK INTRA:                  -1.329
REMARK UNBOUND:                -1.329
REMARK SMILES CCCCCCCCCCCC(=O)[O-]
REMARK SMILES IDX 7 1 8 2 9 3 10 4 11 5 12 6 13 7 14 8 6 9 5 10 4 11 3 12 2 13
REMARK SMILES IDX 1 14
REMARK H PARENT
REMARK Flexibility Score: inf
ROOT
ATOM      1  C   UNL     1      -6.004   9.152  -9.866  1.00  0.00     0.000 C 
ENDROOT
BRANCH   1   2
ATOM      2  C   UNL     1      -4.516   8.756  -9.899  1.00  0.00     0.000 C 
BRANCH   2   3
ATOM      3  C   UNL     1      -3.812   8.962  -8.550  1.00  0.00     0.000 C 
BRANCH   3   4
ATOM      4  C   UNL     1      -3.525   7.616  -7.868  1.00  0.00     0.006 C 
BRANCH   4   5
ATOM      5  C   UNL     1      -4.202   7.502  -6.497  1.00  0.00     0.053 C 
BRANCH   5   6
ATOM      6  C   UNL     1      -3.891   6.196  -5.831  1.00  0.00     0.041 C 
ATOM      7  O   UNL     1      -4.077   5.112  -6.444  1.00  0.00    -0.550 OA
ATOM      8  O   UNL     1      -3.364   6.179  -4.546  1.00  0.00    -0.550 OA
ENDBRANCH   5   6
ENDBRANCH   4   5
ENDBRANCH   3   4
ENDBRANCH   2   3
ENDBRANCH   1   2
BRANCH   1   9
ATOM      9  C   UNL     1      -6.449   9.908  -8.601  1.00  0.00     0.000 C 
BRANCH   9  10
ATOM     10  C   UNL     1      -7.406   9.091  -7.720  1.00  0.00    -0.000 C 
BRANCH  10  11
ATOM     11  C   UNL     1      -7.764   7.757  -8.387  1.00  0.00    -0.000 C 
BRANCH  11  12
ATOM     12  C   UNL     1      -7.436   6.574  -7.463  1.00  0.00    -0.000 C 
BRANCH  12  13
ATOM     13  C   UNL     1      -7.110   5.290  -8.241  1.00  0.00    -0.003 C 
ATOM     14  C   UNL     1      -8.134   4.985  -9.333  1.00  0.00     0.004 C 
ENDBRANCH  12  13
ENDBRANCH  11  12
ENDBRANCH  10  11
ENDBRANCH   9  10
ENDBRANCH   1   9
TORSDOF 10
ENDMDL
MODEL 2
REMARK VINA RESULT:    -3.597      1.819      4.086
REMARK INTER + INTRA:          -7.028
REMARK INTER:                  -6.120
REMARK INTRA:                  -0.908
REMARK UNBOUND:                -1.329
REMARK SMILES CCCCCCCCCCCC(=O)[O-]
REMARK SMILES IDX 7 1 8 2 9 3 10 4 11 5 12 6 13 7 14 8 6 9 5 10 4 11 3 12 2 13
REMARK SMILES IDX 1 14
REMARK H PARENT
REMARK Flexibility Score: inf
ROOT
ATOM      1  C   UNL     1      -5.901  10.012  -9.314  1.00  0.00     0.000 C 
ENDROOT
BRANCH   1   2
ATOM      2  C   UNL     1      -6.875   9.509  -8.232  1.00  0.00     0.000 C 
BRANCH   2   3
ATOM      3  C   UNL     1      -8.207   9.011  -8.810  1.00  0.00     0.000 C 
BRANCH   3   4
ATOM      4  C   UNL     1      -8.265   7.476  -8.814  1.00  0.00     0.006 C 
BRANCH   4   5
ATOM      5  C   UNL     1      -7.510   6.863  -7.628  1.00  0.00     0.053 C 
BRANCH   5   6
ATOM      6  C   UNL     1      -7.570   5.365  -7.646  1.00  0.00     0.041 C 
ATOM      7  O   UNL     1      -8.536   4.763  -7.108  1.00  0.00    -0.550 OA
ATOM      8  O   UNL     1      -6.576   4.637  -8.288  1.00  0.00    -0.550 OA
ENDBRANCH   5   6
ENDBRANCH   4   5
ENDBRANCH   3   4
ENDBRANCH   2   3
ENDBRANCH   1   2
BRANCH   1   9
ATOM      9  C   UNL     1      -4.413   9.732  -9.031  1.00  0.00     0.000 C 
BRANCH   9  10
ATOM     10  C   UNL     1      -4.116   8.243  -8.801  1.00  0.00    -0.000 C 
BRANCH  10  11
ATOM     11  C   UNL     1      -3.440   8.020  -7.443  1.00  0.00    -0.000 C 
BRANCH  11  12
ATOM     12  C   UNL     1      -4.400   7.341  -6.455  1.00  0.00    -0.000 C 
BRANCH  12  13
ATOM     13  C   UNL     1      -4.064   5.859  -6.230  1.00  0.00    -0.003 C 
ATOM     14  C   UNL     1      -3.419   5.600  -4.868  1.00  0.00     0.004 C 
ENDBRANCH  12  13
ENDBRANCH  11  12
ENDBRANCH  10  11
ENDBRANCH   9  10
ENDBRANCH   1   9
TORSDOF 10
ENDMDL
MODEL 3
REMARK VINA RESULT:    -3.556      1.134      1.553
REMARK INTER + INTRA:          -6.965
REMARK INTER:                  -5.506
REMARK INTRA:                  -1.458
REMARK UNBOUND:                -1.329
REMARK SMILES CCCCCCCCCCCC(=O)[O-]
REMARK SMILES IDX 7 1 8 2 9 3 10 4 11 5 12 6 13 7 14 8 6 9 5 10 4 11 3 12 2 13
REMARK SMILES IDX 1 14
REMARK H PARENT
REMARK Flexibility Score: inf
ROOT
ATOM      1  C   UNL     1      -6.262   9.658  -8.209  1.00  0.00     0.000 C 
ENDROOT
BRANCH   1   2
ATOM      2  C   UNL     1      -5.448   9.493  -9.506  1.00  0.00     0.000 C 
BRANCH   2   3
ATOM      3  C   UNL     1      -4.131   8.732  -9.294  1.00  0.00     0.000 C 
BRANCH   3   4
ATOM      4  C   UNL     1      -3.789   8.630  -7.799  1.00  0.00     0.006 C 
BRANCH   4   5
ATOM      5  C   UNL     1      -3.623   7.177  -7.339  1.00  0.00     0.053 C 
BRANCH   5   6
ATOM      6  C   UNL     1      -4.171   6.966  -5.960  1.00  0.00     0.041 C 
ATOM      7  O   UNL     1      -5.261   7.499  -5.623  1.00  0.00    -0.550 OA
ATOM      8  O   UNL     1      -3.495   6.153  -5.060  1.00  0.00    -0.550 OA
ENDBRANCH   5   6
ENDBRANCH   4   5
ENDBRANCH   3   4
ENDBRANCH   2   3
ENDBRANCH   1   2
BRANCH   1   9
ATOM      9  C   UNL     1      -7.506   8.758  -8.102  1.00  0.00     0.000 C 
BRANCH   9  10
ATOM     10  C   UNL     1      -7.981   8.228  -9.464  1.00  0.00    -0.000 C 
BRANCH  10  11
ATOM     11  C   UNL     1      -8.066   6.697  -9.459  1.00  0.00    -0.000 C 
BRANCH  11  12
ATOM     12  C   UNL     1      -6.741   6.074  -8.997  1.00  0.00    -0.000 C 
BRANCH  12  13
ATOM     13  C   UNL     1      -6.932   5.050  -7.867  1.00  0.00    -0.003 C 
ATOM     14  C   UNL     1      -8.256   5.230  -7.125  1.00  0.00     0.004 C 
ENDBRANCH  12  13
ENDBRANCH  11  12
ENDBRANCH  10  11
ENDBRANCH   9  10
ENDBRANCH   1   9
TORSDOF 10
ENDMDL
MODEL 4
REMARK VINA RESULT:    -3.466      1.422      2.340
REMARK INTER + INTRA:          -6.821
REMARK INTER:                  -5.905
REMARK INTRA:                  -0.917
REMARK UNBOUND:                -1.329
REMARK SMILES CCCCCCCCCCCC(=O)[O-]
REMARK SMILES IDX 7 1 8 2 9 3 10 4 11 5 12 6 13 7 14 8 6 9 5 10 4 11 3 12 2 13
REMARK SMILES IDX 1 14
REMARK H PARENT
REMARK Flexibility Score: inf
ROOT
ATOM      1  C   UNL     1      -7.658   8.318  -8.447  1.00  0.00     0.000 C 
ENDROOT
BRANCH   1   2
ATOM      2  C   UNL     1      -6.587   8.922  -7.519  1.00  0.00     0.000 C 
BRANCH   2   3
ATOM      3  C   UNL     1      -5.194   8.966  -8.162  1.00  0.00     0.000 C 
BRANCH   3   4
ATOM      4  C   UNL     1      -4.202   8.086  -7.386  1.00  0.00     0.006 C 
BRANCH   4   5
ATOM      5  C   UNL     1      -4.882   7.299  -6.259  1.00  0.00     0.053 C 
BRANCH   5   6
ATOM      6  C   UNL     1      -4.030   6.160  -5.786  1.00  0.00     0.041 C 
ATOM      7  O   UNL     1      -3.967   5.095  -6.455  1.00  0.00    -0.550 OA
ATOM      8  O   UNL     1      -3.280   6.289  -4.624  1.00  0.00    -0.550 OA
ENDBRANCH   5   6
ENDBRANCH   4   5
ENDBRANCH   3   4
ENDBRANCH   2   3
ENDBRANCH   1   2
BRANCH   1   9
ATOM      9  C   UNL     1      -7.149   7.222  -9.401  1.00  0.00     0.000 C 
BRANCH   9  10
ATOM     10  C   UNL     1      -7.175   5.820  -8.774  1.00  0.00    -0.000 C 
BRANCH  10  11
ATOM     11  C   UNL     1      -8.289   4.964  -9.388  1.00  0.00    -0.000 C 
BRANCH  11  12
ATOM     12  C   UNL     1      -9.390   4.671  -8.358  1.00  0.00    -0.000 C 
BRANCH  12  13
ATOM     13  C   UNL     1      -8.910   4.861  -6.911  1.00  0.00    -0.003 C 
ATOM     14  C   UNL     1      -9.627   3.940  -5.925  1.00  0.00     0.004 C 
ENDBRANCH  12  13
ENDBRANCH  11  12
ENDBRANCH  10  11
ENDBRANCH   9  10
ENDBRANCH   1   9
TORSDOF 10
ENDMDL
MODEL 5
REMARK VINA RESULT:    -3.367      3.067      5.830
REMARK INTER + INTRA:          -6.664
REMARK INTER:                  -6.084
REMARK INTRA:                  -0.580
REMARK UNBOUND:                -1.329
REMARK SMILES CCCCCCCCCCCC(=O)[O-]
REMARK SMILES IDX 7 1 8 2 9 3 10 4 11 5 12 6 13 7 14 8 6 9 5 10 4 11 3 12 2 13
REMARK SMILES IDX 1 14
REMARK H PARENT
REMARK Flexibility Score: inf
ROOT
ATOM      1  C   UNL     1      -4.431   6.993  -6.000  1.00  0.00     0.000 C 
ENDROOT
BRANCH   1   2
ATOM      2  C   UNL     1      -4.221   7.724  -7.339  1.00  0.00     0.000 C 
BRANCH   2   3
ATOM      3  C   UNL     1      -5.481   8.453  -7.828  1.00  0.00     0.000 C 
BRANCH   3   4
ATOM      4  C   UNL     1      -6.748   7.817  -7.234  1.00  0.00     0.006 C 
BRANCH   4   5
ATOM      5  C   UNL     1      -7.456   6.891  -8.231  1.00  0.00     0.053 C 
BRANCH   5   6
ATOM      6  C   UNL     1      -7.325   5.450  -7.839  1.00  0.00     0.041 C 
ATOM      7  O   UNL     1      -6.282   4.807  -8.129  1.00  0.00    -0.550 OA
ATOM      8  O   UNL     1      -8.341   4.829  -7.124  1.00  0.00    -0.550 OA
ENDBRANCH   5   6
ENDBRANCH   4   5
ENDBRANCH   3   4
ENDBRANCH   2   3
ENDBRANCH   1   2
BRANCH   1   9
ATOM      9  C   UNL     1      -3.696   5.646  -5.872  1.00  0.00     0.000 C 
BRANCH   9  10
ATOM     10  C   UNL     1      -3.369   5.277  -4.417  1.00  0.00    -0.000 C 
BRANCH  10  11
ATOM     11  C   UNL     1      -2.613   3.945  -4.344  1.00  0.00    -0.000 C 
BRANCH  11  12
ATOM     12  C   UNL     1      -2.812   3.274  -2.976  1.00  0.00    -0.000 C 
BRANCH  12  13
ATOM     13  C   UNL     1      -1.489   2.804  -2.352  1.00  0.00    -0.003 C 
ATOM     14  C   UNL     1      -0.888   1.602  -3.078  1.00  0.00     0.004 C 
ENDBRANCH  12  13
ENDBRANCH  11  12
ENDBRANCH  10  11
ENDBRANCH   9  10
ENDBRANCH   1   9
TORSDOF 10
ENDMDL
MODEL 6
REMARK VINA RESULT:    -3.323      2.438      4.829
REMARK INTER + INTRA:          -6.595
REMARK INTER:                  -5.401
REMARK INTRA:                  -1.193
REMARK UNBOUND:                -1.329
REMARK SMILES CCCCCCCCCCCC(=O)[O-]
REMARK SMILES IDX 7 1 8 2 9 3 10 4 11 5 12 6 13 7 14 8 6 9 5 10 4 11 3 12 2 13
REMARK SMILES IDX 1 14
REMARK H PARENT
REMARK Flexibility Score: inf
ROOT
ATOM      1  C   UNL     1      -4.067   6.711  -6.421  1.00  0.00     0.000 C 
ENDROOT
BRANCH   1   2
ATOM      2  C   UNL     1      -5.562   6.527  -6.739  1.00  0.00     0.000 C 
BRANCH   2   3
ATOM      3  C   UNL     1      -5.858   5.226  -7.498  1.00  0.00     0.000 C 
BRANCH   3   4
ATOM      4  C   UNL     1      -7.001   5.425  -8.506  1.00  0.00     0.006 C 
BRANCH   4   5
ATOM      5  C   UNL     1      -8.281   5.942  -7.838  1.00  0.00     0.053 C 
BRANCH   5   6
ATOM      6  C   UNL     1      -9.191   4.820  -7.439  1.00  0.00     0.041 C 
ATOM      7  O   UNL     1      -9.306   4.497  -6.228  1.00  0.00    -0.550 OA
ATOM      8  O   UNL     1      -9.936   4.154  -8.404  1.00  0.00    -0.550 OA
ENDBRANCH   5   6
ENDBRANCH   4   5
ENDBRANCH   3   4
ENDBRANCH   2   3
ENDBRANCH   1   2
BRANCH   1   9
ATOM      9  C   UNL     1      -3.390   7.897  -7.132  1.00  0.00     0.000 C 
BRANCH   9  10
ATOM     10  C   UNL     1      -3.972   8.169  -8.528  1.00  0.00    -0.000 C 
BRANCH  10  11
ATOM     11  C   UNL     1      -4.065   9.676  -8.799  1.00  0.00    -0.000 C 
BRANCH  11  12
ATOM     12  C   UNL     1      -5.436  10.045  -9.385  1.00  0.00    -0.000 C 
BRANCH  12  13
ATOM     13  C   UNL     1      -6.572   9.180  -8.818  1.00  0.00    -0.003 C 
ATOM     14  C   UNL     1      -7.200   9.779  -7.560  1.00  0.00     0.004 C 
ENDBRANCH  12  13
ENDBRANCH  11  12
ENDBRANCH  10  11
ENDBRANCH   9  10
ENDBRANCH   1   9
TORSDOF 10
ENDMDL
MODEL 7
REMARK VINA RESULT:    -3.309      2.863      4.273
REMARK INTER + INTRA:          -6.572
REMARK INTER:                  -5.829
REMARK INTRA:                  -0.743
REMARK UNBOUND:                -1.329
REMARK SMILES CCCCCCCCCCCC(=O)[O-]
REMARK SMILES IDX 7 1 8 2 9 3 10 4 11 5 12 6 13 7 14 8 6 9 5 10 4 11 3 12 2 13
REMARK SMILES IDX 1 14
REMARK H PARENT
REMARK Flexibility Score: inf
ROOT
ATOM      1  C   UNL     1      -4.090   7.121  -6.185  1.00  0.00     0.000 C 
ENDROOT
BRANCH   1   2
ATOM      2  C   UNL     1      -3.755   5.638  -5.940  1.00  0.00     0.000 C 
BRANCH   2   3
ATOM      3  C   UNL     1      -3.390   5.340  -4.478  1.00  0.00     0.000 C 
BRANCH   3   4
ATOM      4  C   UNL     1      -2.578   4.040  -4.369  1.00  0.00     0.006 C 
BRANCH   4   5
ATOM      5  C   UNL     1      -2.804   3.325  -3.031  1.00  0.00     0.053 C 
BRANCH   5   6
ATOM      6  C   UNL     1      -1.532   2.744  -2.491  1.00  0.00     0.041 C 
ATOM      7  O   UNL     1      -1.015   1.733  -3.035  1.00  0.00    -0.550 OA
ATOM      8  O   UNL     1      -0.901   3.340  -1.406  1.00  0.00    -0.550 OA
ENDBRANCH   5   6
ENDBRANCH   4   5
ENDBRANCH   3   4
ENDBRANCH   2   3
ENDBRANCH   1   2
BRANCH   1   9
ATOM      9  C   UNL     1      -3.542   7.704  -7.500  1.00  0.00     0.000 C 
BRANCH   9  10
ATOM     10  C   UNL     1      -4.599   8.484  -8.296  1.00  0.00    -0.000 C 
BRANCH  10  11
ATOM     11  C   UNL     1      -5.612   7.533  -8.945  1.00  0.00    -0.000 C 
BRANCH  11  12
ATOM     12  C   UNL     1      -7.010   7.721  -8.337  1.00  0.00    -0.000 C 
BRANCH  12  13
ATOM     13  C   UNL     1      -7.465   6.506  -7.514  1.00  0.00    -0.003 C 
ATOM     14  C   UNL     1      -6.816   5.202  -7.977  1.00  0.00     0.004 C 
ENDBRANCH  12  13
ENDBRANCH  11  12
ENDBRANCH  10  11
ENDBRANCH   9  10
ENDBRANCH   1   9
TORSDOF 10
ENDMDL
MODEL 8
REMARK VINA RESULT:    -3.246      2.473      3.943
REMARK INTER + INTRA:          -6.473
REMARK INTER:                  -5.349
REMARK INTRA:                  -1.125
REMARK UNBOUND:                -1.329
REMARK SMILES CCCCCCCCCCCC(=O)[O-]
REMARK SMILES IDX 7 1 8 2 9 3 10 4 11 5 12 6 13 7 14 8 6 9 5 10 4 11 3 12 2 13
REMARK SMILES IDX 1 14
REMARK H PARENT
REMARK Flexibility Score: inf
ROOT
ATOM      1  C   UNL     1      -4.491   7.496  -6.710  1.00  0.00     0.000 C 
ENDROOT
BRANCH   1   2
ATOM      2  C   UNL     1      -3.601   7.928  -7.891  1.00  0.00     0.000 C 
BRANCH   2   3
ATOM      3  C   UNL     1      -4.157   9.143  -8.646  1.00  0.00     0.000 C 
BRANCH   3   4
ATOM      4  C   UNL     1      -5.422   8.769  -9.434  1.00  0.00     0.006 C 
BRANCH   4   5
ATOM      5  C   UNL     1      -6.490   9.868  -9.376  1.00  0.00     0.053 C 
BRANCH   5   6
ATOM      6  C   UNL     1      -7.517   9.588  -8.320  1.00  0.00     0.041 C 
ATOM      7  O   UNL     1      -7.217   9.689  -7.102  1.00  0.00    -0.550 OA
ATOM      8  O   UNL     1      -8.814   9.249  -8.685  1.00  0.00    -0.550 OA
ENDBRANCH   5   6
ENDBRANCH   4   5
ENDBRANCH   3   4
ENDBRANCH   2   3
ENDBRANCH   1   2
BRANCH   1   9
ATOM      9  C   UNL     1      -4.592   5.975  -6.493  1.00  0.00     0.000 C 
BRANCH   9  10
ATOM     10  C   UNL     1      -5.615   5.304  -7.423  1.00  0.00    -0.000 C 
BRANCH  10  11
ATOM     11  C   UNL     1      -6.924   6.102  -7.466  1.00  0.00    -0.000 C 
BRANCH  11  12
ATOM     12  C   UNL     1      -8.123   5.177  -7.723  1.00  0.00    -0.000 C 
BRANCH  12  13
ATOM     13  C   UNL     1      -8.313   4.855  -9.213  1.00  0.00    -0.003 C 
ATOM     14  C   UNL     1      -8.105   6.074 -10.111  1.00  0.00     0.004 C 
ENDBRANCH  12  13
ENDBRANCH  11  12
ENDBRANCH  10  11
ENDBRANCH   9  10
ENDBRANCH   1   9
TORSDOF 10
ENDMDL
MODEL 9
REMARK VINA RESULT:    -3.225      3.500      6.393
REMARK INTER + INTRA:          -6.440
REMARK INTER:                  -5.972
REMARK INTRA:                  -0.468
REMARK UNBOUND:                -1.329
REMARK SMILES CCCCCCCCCCCC(=O)[O-]
REMARK SMILES IDX 7 1 8 2 9 3 10 4 11 5 12 6 13 7 14 8 6 9 5 10 4 11 3 12 2 13
REMARK SMILES IDX 1 14
REMARK H PARENT
REMARK Flexibility Score: inf
ROOT
ATOM      1  C   UNL     1      -3.794   5.558  -6.007  1.00  0.00     0.000 C 
ENDROOT
BRANCH   1   2
ATOM      2  C   UNL     1      -4.049   7.026  -6.399  1.00  0.00     0.000 C 
BRANCH   2   3
ATOM      3  C   UNL     1      -5.414   7.544  -5.924  1.00  0.00     0.000 C 
BRANCH   3   4
ATOM      4  C   UNL     1      -6.207   8.153  -7.090  1.00  0.00     0.006 C 
BRANCH   4   5
ATOM      5  C   UNL     1      -7.286   7.200  -7.619  1.00  0.00     0.053 C 
BRANCH   5   6
ATOM      6  C   UNL     1      -6.745   6.278  -8.671  1.00  0.00     0.041 C 
ATOM      7  O   UNL     1      -6.569   6.692  -9.847  1.00  0.00    -0.550 OA
ATOM      8  O   UNL     1      -6.404   4.972  -8.342  1.00  0.00    -0.550 OA
ENDBRANCH   5   6
ENDBRANCH   4   5
ENDBRANCH   3   4
ENDBRANCH   2   3
ENDBRANCH   1   2
BRANCH   1   9
ATOM      9  C   UNL     1      -3.416   5.335  -4.531  1.00  0.00     0.000 C 
BRANCH   9  10
ATOM     10  C   UNL     1      -2.479   4.135  -4.328  1.00  0.00    -0.000 C 
BRANCH  10  11
ATOM     11  C   UNL     1      -2.893   3.317  -3.098  1.00  0.00    -0.000 C 
BRANCH  11  12
ATOM     12  C   UNL     1      -1.681   3.016  -2.204  1.00  0.00    -0.000 C 
BRANCH  12  13
ATOM     13  C   UNL     1      -0.738   1.971  -2.820  1.00  0.00    -0.003 C 
ATOM     14  C   UNL     1      -1.473   0.715  -3.288  1.00  0.00     0.004 C 
ENDBRANCH  12  13
ENDBRANCH  11  12
ENDBRANCH  10  11
ENDBRANCH   9  10
ENDBRANCH   1   9
TORSDOF 10
ENDMDL
