MODEL 1
REMARK VINA RESULT:     6.640      0.000      0.000
REMARK INTER + INTRA:          14.525
REMARK INTER:                  10.910
REMARK INTRA:                   3.615
REMARK UNBOUND:                 3.615
REMARK SMILES C[C@@H]1O[C@@H](OC[C@H]2O[C@@H](Oc3c(-c4ccc(O)c(O)c4)oc4cc(O)cc(O)c4c3=O)[C@@H](O)[C@H](O)[C@H]2O)[C@@H](O)[C@@H](O)[C@H]1O
REMARK SMILES IDX 7 1 36 2 34 3 32 4 9 5 8 6 6 7 5 8 4 9 1 10 2 11 42 12 3 13
REMARK SMILES IDX 40 14 38 15 43 16 41 18 39 20 37 22 35 24 10 26 11 27 12 28
REMARK SMILES IDX 30 29 21 30 29 31 31 32 22 33 27 34 23 35 26 36 24 37 13 38
REMARK SMILES IDX 20 39 14 40 18 41 15 42 16 43 19 44 17 46 28 48 25 50 33 52
REMARK H PARENT 43 17 41 19 39 21 37 23 35 25 19 45 17 47 28 49 25 51 33 53
REMARK Flexibility Score: inf
ROOT
ATOM      1  C   UNL     1      46.136  34.381  97.195  1.00  0.00     0.180 C 
ATOM      2  C   UNL     1      45.966  35.107  95.826  1.00  0.00     0.177 C 
ATOM      3  C   UNL     1      46.088  36.573  96.086  1.00  0.00     0.180 C 
ATOM      4  C   UNL     1      44.977  37.003  97.094  1.00  0.00     0.214 C 
ATOM      5  C   UNL     1      45.212  36.292  98.399  1.00  0.00     0.339 C 
ATOM      6  O   UNL     1      45.256  34.859  98.231  1.00  0.00    -0.332 OA
ENDROOT
BRANCH   1   7
ATOM      7  C   UNL     1      47.565  34.344  97.724  1.00  0.00     0.198 C 
BRANCH   7   8
ATOM      8  O   UNL     1      48.120  33.075  97.925  1.00  0.00    -0.347 OA
BRANCH   8   9
ATOM      9  C   UNL     1      47.277  32.275  98.753  1.00  0.00     0.281 C 
ATOM     10  C   UNL     1      47.749  29.884 101.386  1.00  0.00     0.041 C 
ATOM     11  C   UNL     1      46.964  30.311 100.115  1.00  0.00     0.150 C 
ATOM     12  C   UNL     1      45.677  31.060 100.500  1.00  0.00     0.174 C 
ATOM     13  O   UNL     1      47.888  31.048  99.292  1.00  0.00    -0.344 OA
ATOM     14  C   UNL     1      44.965  31.604  99.212  1.00  0.00     0.179 C 
ATOM     15  C   UNL     1      45.963  31.951  98.046  1.00  0.00     0.202 C 
BRANCH  12  16
ATOM     16  O   UNL     1      44.790  30.333 101.354  1.00  0.00    -0.388 OA
ATOM     17  H   UNL     1      44.037  30.103 100.781  1.00  0.00     0.211 HD
ENDBRANCH  12  16
BRANCH  14  18
ATOM     18  O   UNL     1      43.900  30.803  98.763  1.00  0.00    -0.387 OA
ATOM     19  H   UNL     1      44.013  30.628  97.803  1.00  0.00     0.211 HD
ENDBRANCH  14  18
BRANCH  15  20
ATOM     20  O   UNL     1      46.126  30.907  97.182  1.00  0.00    -0.385 OA
ATOM     21  H   UNL     1      46.900  30.353  97.582  1.00  0.00     0.211 HD
ENDBRANCH  15  20
ENDBRANCH   8   9
ENDBRANCH   7   8
ENDBRANCH   1   7
BRANCH   2  22
ATOM     22  O   UNL     1      46.886  34.590  94.864  1.00  0.00    -0.387 OA
ATOM     23  H   UNL     1      46.849  35.199  94.079  1.00  0.00     0.211 HD
ENDBRANCH   2  22
BRANCH   3  24
ATOM     24  O   UNL     1      45.985  37.308  94.877  1.00  0.00    -0.387 OA
ATOM     25  H   UNL     1      46.795  37.915  94.888  1.00  0.00     0.211 HD
ENDBRANCH   3  24
BRANCH   5  26
ATOM     26  O   UNL     1      46.471  36.797  98.964  1.00  0.00    -0.454 OA
BRANCH  26  27
ATOM     27  C   UNL     1      46.664  37.686 100.075  1.00  0.00     0.214 A 
ATOM     28  C   UNL     1      47.282  37.346 101.328  1.00  0.00     0.180 A 
ATOM     29  C   UNL     1      46.067  38.965 100.071  1.00  0.00     0.239 A 
ATOM     30  O   UNL     1      47.814  38.353 102.025  1.00  0.00    -0.452 OA
ATOM     31  C   UNL     1      46.467  39.973 100.980  1.00  0.00     0.111 A 
ATOM     32  O   UNL     1      45.151  39.236  99.255  1.00  0.00    -0.285 OA
ATOM     33  C   UNL     1      47.527  39.629 101.849  1.00  0.00     0.146 A 
ATOM     34  C   UNL     1      45.812  41.240 101.129  1.00  0.00     0.134 A 
ATOM     35  C   UNL     1      48.116  40.611 102.656  1.00  0.00     0.094 A 
ATOM     36  C   UNL     1      46.328  42.157 102.057  1.00  0.00     0.093 A 
ATOM     37  C   UNL     1      47.446  41.844 102.824  1.00  0.00     0.123 A 
BRANCH  28  38
ATOM     38  C   UNL     1      47.100  36.075 102.125  1.00  0.00     0.025 A 
ATOM     39  C   UNL     1      46.417  34.916 101.643  1.00  0.00     0.062 A 
ATOM     40  C   UNL     1      47.806  35.929 103.315  1.00  0.00     0.016 A 
ATOM     41  C   UNL     1      46.589  33.661 102.330  1.00  0.00     0.158 A 
ATOM     42  C   UNL     1      47.884  34.746 103.983  1.00  0.00     0.051 A 
ATOM     43  C   UNL     1      47.394  33.548 103.466  1.00  0.00     0.157 A 
BRANCH  41  44
ATOM     44  O   UNL     1      45.899  32.552 101.871  1.00  0.00    -0.504 OA
ATOM     45  H   UNL     1      45.213  32.506 101.124  1.00  0.00     0.293 HD
ENDBRANCH  41  44
BRANCH  43  46
ATOM     46  O   UNL     1      47.688  32.334 104.123  1.00  0.00    -0.504 OA
ATOM     47  H   UNL     1      47.785  32.238 105.125  1.00  0.00     0.293 HD
ENDBRANCH  43  46
ENDBRANCH  28  38
BRANCH  34  48
ATOM     48  O   UNL     1      44.692  41.581 100.359  1.00  0.00    -0.507 OA
ATOM     49  H   UNL     1      43.774  41.844 100.792  1.00  0.00     0.293 HD
ENDBRANCH  34  48
BRANCH  37  50
ATOM     50  O   UNL     1      47.966  42.756 103.756  1.00  0.00    -0.508 OA
ATOM     51  H   UNL     1      47.867  42.607 104.746  1.00  0.00     0.293 HD
ENDBRANCH  37  50
ENDBRANCH  26  27
ENDBRANCH   5  26
BRANCH   4  52
ATOM     52  O   UNL     1      44.960  38.370  97.321  1.00  0.00    -0.384 OA
ATOM     53  H   UNL     1      44.974  38.548  98.293  1.00  0.00     0.211 HD
ENDBRANCH   4  52
TORSDOF 16
ENDMDL
