MODEL 1
REMARK VINA RESULT:    -3.358      0.000      0.000
REMARK INTER + INTRA:         -14.439
REMARK INTER:                  -8.856
REMARK INTRA:                  -5.583
REMARK UNBOUND:                -5.583
REMARK SMILES CCCCCCCCCCCCCCCCCCCCCCCCCCCCCC(=O)[O-]
REMARK SMILES IDX 16 1 17 2 18 3 19 4 20 5 21 6 22 7 23 8 24 9 25 10 26 11
REMARK SMILES IDX 27 12 28 13 29 14 30 15 31 16 32 17 15 18 14 19 13 20 12 21
REMARK SMILES IDX 11 22 10 23 9 24 8 25 7 26 6 27 5 28 4 29 3 30 2 31 1 32
REMARK H PARENT
REMARK Flexibility Score: inf
ROOT
ATOM      1  C   UNL     1      40.882  35.620  47.884  1.00  0.00     0.000 C 
ENDROOT
BRANCH   1   2
ATOM      2  C   UNL     1      40.849  35.453  46.351  1.00  0.00     0.000 C 
BRANCH   2   3
ATOM      3  C   UNL     1      41.392  34.086  45.889  1.00  0.00     0.000 C 
BRANCH   3   4
ATOM      4  C   UNL     1      42.717  34.201  45.112  1.00  0.00     0.000 C 
BRANCH   4   5
ATOM      5  C   UNL     1      43.764  33.130  45.459  1.00  0.00     0.000 C 
BRANCH   5   6
ATOM      6  C   UNL     1      45.098  33.733  45.925  1.00  0.00     0.000 C 
BRANCH   6   7
ATOM      7  C   UNL     1      44.890  35.136  46.521  1.00  0.00     0.000 C 
BRANCH   7   8
ATOM      8  C   UNL     1      46.131  35.655  47.263  1.00  0.00     0.000 C 
BRANCH   8   9
ATOM      9  C   UNL     1      45.843  36.911  48.102  1.00  0.00     0.000 C 
BRANCH   9  10
ATOM     10  C   UNL     1      44.523  37.591  47.706  1.00  0.00     0.000 C 
BRANCH  10  11
ATOM     11  C   UNL     1      43.943  38.457  48.839  1.00  0.00     0.000 C 
BRANCH  11  12
ATOM     12  C   UNL     1      44.954  38.715  49.970  1.00  0.00     0.000 C 
BRANCH  12  13
ATOM     13  C   UNL     1      44.925  40.142  50.549  1.00  0.00     0.006 C 
BRANCH  13  14
ATOM     14  C   UNL     1      43.550  40.527  51.110  1.00  0.00     0.053 C 
BRANCH  14  15
ATOM     15  C   UNL     1      43.662  40.910  52.552  1.00  0.00     0.041 C 
ATOM     16  O   UNL     1      44.306  40.183  53.354  1.00  0.00    -0.550 OA
ATOM     17  O   UNL     1      43.095  42.094  53.001  1.00  0.00    -0.550 OA
ENDBRANCH  14  15
ENDBRANCH  13  14
ENDBRANCH  12  13
ENDBRANCH  11  12
ENDBRANCH  10  11
ENDBRANCH   9  10
ENDBRANCH   8   9
ENDBRANCH   7   8
ENDBRANCH   6   7
ENDBRANCH   5   6
ENDBRANCH   4   5
ENDBRANCH   3   4
ENDBRANCH   2   3
ENDBRANCH   1   2
BRANCH   1  18
ATOM     18  C   UNL     1      41.742  34.559  48.607  1.00  0.00     0.000 C 
BRANCH  18  19
ATOM     19  C   UNL     1      42.568  35.133  49.773  1.00  0.00     0.000 C 
BRANCH  19  20
ATOM     20  C   UNL     1      43.806  34.276  50.094  1.00  0.00     0.000 C 
BRANCH  20  21
ATOM     21  C   UNL     1      43.864  32.986  49.255  1.00  0.00     0.000 C 
BRANCH  21  22
ATOM     22  C   UNL     1      45.046  32.053  49.598  1.00  0.00     0.000 C 
BRANCH  22  23
ATOM     23  C   UNL     1      46.444  32.577  49.203  1.00  0.00     0.000 C 
BRANCH  23  24
ATOM     24  C   UNL     1      47.613  31.622  49.510  1.00  0.00    -0.000 C 
BRANCH  24  25
ATOM     25  C   UNL     1      47.246  30.564  50.566  1.00  0.00    -0.000 C 
BRANCH  25  26
ATOM     26  C   UNL     1      47.882  29.192  50.282  1.00  0.00    -0.000 C 
BRANCH  26  27
ATOM     27  C   UNL     1      46.951  28.252  49.494  1.00  0.00    -0.000 C 
BRANCH  27  28
ATOM     28  C   UNL     1      45.465  28.508  49.802  1.00  0.00    -0.000 C 
BRANCH  28  29
ATOM     29  C   UNL     1      44.553  28.186  48.604  1.00  0.00    -0.000 C 
BRANCH  29  30
ATOM     30  C   UNL     1      45.248  28.405  47.247  1.00  0.00    -0.000 C 
BRANCH  30  31
ATOM     31  C   UNL     1      45.244  29.861  46.745  1.00  0.00    -0.003 C 
ATOM     32  C   UNL     1      46.607  30.322  46.227  1.00  0.00     0.004 C 
ENDBRANCH  30  31
ENDBRANCH  29  30
ENDBRANCH  28  29
ENDBRANCH  27  28
ENDBRANCH  26  27
ENDBRANCH  25  26
ENDBRANCH  24  25
ENDBRANCH  23  24
ENDBRANCH  22  23
ENDBRANCH  21  22
ENDBRANCH  20  21
ENDBRANCH  19  20
ENDBRANCH  18  19
ENDBRANCH   1  18
TORSDOF 28
ENDMDL
MODEL 2
REMARK VINA RESULT:    -3.169      3.521      8.288
REMARK INTER + INTRA:         -13.940
REMARK INTER:                  -8.174
REMARK INTRA:                  -5.767
REMARK UNBOUND:                -5.583
REMARK SMILES CCCCCCCCCCCCCCCCCCCCCCCCCCCCCC(=O)[O-]
REMARK SMILES IDX 16 1 17 2 18 3 19 4 20 5 21 6 22 7 23 8 24 9 25 10 26 11
REMARK SMILES IDX 27 12 28 13 29 14 30 15 31 16 32 17 15 18 14 19 13 20 12 21
REMARK SMILES IDX 11 22 10 23 9 24 8 25 7 26 6 27 5 28 4 29 3 30 2 31 1 32
REMARK H PARENT
REMARK Flexibility Score: inf
ROOT
ATOM      1  C   UNL     1      42.270  34.114  48.676  1.00  0.00     0.000 C 
ENDROOT
BRANCH   1   2
ATOM      2  C   UNL     1      41.130  35.152  48.663  1.00  0.00     0.000 C 
BRANCH   2   3
ATOM      3  C   UNL     1      40.598  35.436  47.244  1.00  0.00     0.000 C 
BRANCH   3   4
ATOM      4  C   UNL     1      41.324  34.619  46.160  1.00  0.00     0.000 C 
BRANCH   4   5
ATOM      5  C   UNL     1      42.262  35.436  45.255  1.00  0.00     0.000 C 
BRANCH   5   6
ATOM      6  C   UNL     1      43.677  34.841  45.175  1.00  0.00     0.000 C 
BRANCH   6   7
ATOM      7  C   UNL     1      43.639  33.310  45.310  1.00  0.00     0.000 C 
BRANCH   7   8
ATOM      8  C   UNL     1      44.615  32.784  46.374  1.00  0.00     0.000 C 
BRANCH   8   9
ATOM      9  C   UNL     1      45.893  33.635  46.483  1.00  0.00     0.000 C 
BRANCH   9  10
ATOM     10  C   UNL     1      46.975  32.957  47.338  1.00  0.00     0.000 C 
BRANCH  10  11
ATOM     11  C   UNL     1      46.778  33.209  48.844  1.00  0.00     0.000 C 
BRANCH  11  12
ATOM     12  C   UNL     1      46.627  31.907  49.652  1.00  0.00     0.000 C 
BRANCH  12  13
ATOM     13  C   UNL     1      45.232  31.258  49.576  1.00  0.00     0.006 C 
BRANCH  13  14
ATOM     14  C   UNL     1      45.244  29.906  48.851  1.00  0.00     0.053 C 
BRANCH  14  15
ATOM     15  C   UNL     1      46.285  29.007  49.439  1.00  0.00     0.041 C 
ATOM     16  O   UNL     1      47.286  28.663  48.757  1.00  0.00    -0.550 OA
ATOM     17  O   UNL     1      46.174  28.588  50.757  1.00  0.00    -0.550 OA
ENDBRANCH  14  15
ENDBRANCH  13  14
ENDBRANCH  12  13
ENDBRANCH  11  12
ENDBRANCH  10  11
ENDBRANCH   9  10
ENDBRANCH   8   9
ENDBRANCH   7   8
ENDBRANCH   6   7
ENDBRANCH   5   6
ENDBRANCH   4   5
ENDBRANCH   3   4
ENDBRANCH   2   3
ENDBRANCH   1   2
BRANCH   1  18
ATOM     18  C   UNL     1      43.315  34.353  49.788  1.00  0.00     0.000 C 
BRANCH  18  19
ATOM     19  C   UNL     1      43.715  35.832  49.943  1.00  0.00     0.000 C 
BRANCH  19  20
ATOM     20  C   UNL     1      44.982  36.187  49.144  1.00  0.00     0.000 C 
BRANCH  20  21
ATOM     21  C   UNL     1      44.662  36.916  47.826  1.00  0.00     0.000 C 
BRANCH  21  22
ATOM     22  C   UNL     1      43.422  37.835  47.889  1.00  0.00     0.000 C 
BRANCH  22  23
ATOM     23  C   UNL     1      43.542  39.168  47.117  1.00  0.00     0.000 C 
BRANCH  23  24
ATOM     24  C   UNL     1      44.941  39.472  46.548  1.00  0.00    -0.000 C 
BRANCH  24  25
ATOM     25  C   UNL     1      45.672  40.570  47.341  1.00  0.00    -0.000 C 
BRANCH  25  26
ATOM     26  C   UNL     1      46.672  40.002  48.362  1.00  0.00    -0.000 C 
BRANCH  26  27
ATOM     27  C   UNL     1      46.064  39.837  49.768  1.00  0.00    -0.000 C 
BRANCH  27  28
ATOM     28  C   UNL     1      45.037  40.936  50.093  1.00  0.00    -0.000 C 
BRANCH  28  29
ATOM     29  C   UNL     1      43.748  40.368  50.714  1.00  0.00    -0.000 C 
BRANCH  29  30
ATOM     30  C   UNL     1      43.609  40.701  52.212  1.00  0.00    -0.000 C 
BRANCH  30  31
ATOM     31  C   UNL     1      44.217  39.655  53.166  1.00  0.00    -0.003 C 
ATOM     32  C   UNL     1      44.161  38.231  52.612  1.00  0.00     0.004 C 
ENDBRANCH  30  31
ENDBRANCH  29  30
ENDBRANCH  28  29
ENDBRANCH  27  28
ENDBRANCH  26  27
ENDBRANCH  25  26
ENDBRANCH  24  25
ENDBRANCH  23  24
ENDBRANCH  22  23
ENDBRANCH  21  22
ENDBRANCH  20  21
ENDBRANCH  19  20
ENDBRANCH  18  19
ENDBRANCH   1  18
TORSDOF 28
ENDMDL
MODEL 3
REMARK VINA RESULT:    -3.126      1.381      3.194
REMARK INTER + INTRA:         -13.826
REMARK INTER:                  -7.916
REMARK INTRA:                  -5.910
REMARK UNBOUND:                -5.583
REMARK SMILES CCCCCCCCCCCCCCCCCCCCCCCCCCCCCC(=O)[O-]
REMARK SMILES IDX 16 1 17 2 18 3 19 4 20 5 21 6 22 7 23 8 24 9 25 10 26 11
REMARK SMILES IDX 27 12 28 13 29 14 30 15 31 16 32 17 15 18 14 19 13 20 12 21
REMARK SMILES IDX 11 22 10 23 9 24 8 25 7 26 6 27 5 28 4 29 3 30 2 31 1 32
REMARK H PARENT
REMARK Flexibility Score: inf
ROOT
ATOM      1  C   UNL     1      43.108  34.709  50.215  1.00  0.00     0.000 C 
ENDROOT
BRANCH   1   2
ATOM      2  C   UNL     1      42.435  35.512  49.083  1.00  0.00     0.000 C 
BRANCH   2   3
ATOM      3  C   UNL     1      41.095  34.899  48.631  1.00  0.00     0.000 C 
BRANCH   3   4
ATOM      4  C   UNL     1      41.019  34.686  47.108  1.00  0.00     0.000 C 
BRANCH   4   5
ATOM      5  C   UNL     1      40.592  35.925  46.303  1.00  0.00     0.000 C 
BRANCH   5   6
ATOM      6  C   UNL     1      41.575  36.266  45.172  1.00  0.00     0.000 C 
BRANCH   6   7
ATOM      7  C   UNL     1      42.846  35.406  45.270  1.00  0.00     0.000 C 
BRANCH   7   8
ATOM      8  C   UNL     1      44.093  36.231  45.625  1.00  0.00     0.000 C 
BRANCH   8   9
ATOM      9  C   UNL     1      43.766  37.701  45.941  1.00  0.00     0.000 C 
BRANCH   9  10
ATOM     10  C   UNL     1      44.095  38.074  47.395  1.00  0.00     0.000 C 
BRANCH  10  11
ATOM     11  C   UNL     1      45.468  37.542  47.843  1.00  0.00     0.000 C 
BRANCH  11  12
ATOM     12  C   UNL     1      45.606  37.457  49.374  1.00  0.00     0.000 C 
BRANCH  12  13
ATOM     13  C   UNL     1      44.699  38.423  50.158  1.00  0.00     0.006 C 
BRANCH  13  14
ATOM     14  C   UNL     1      44.391  37.929  51.578  1.00  0.00     0.053 C 
BRANCH  14  15
ATOM     15  C   UNL     1      44.421  39.069  52.546  1.00  0.00     0.041 C 
ATOM     16  O   UNL     1      45.283  39.102  53.463  1.00  0.00    -0.550 OA
ATOM     17  O   UNL     1      43.525  40.120  52.407  1.00  0.00    -0.550 OA
ENDBRANCH  14  15
ENDBRANCH  13  14
ENDBRANCH  12  13
ENDBRANCH  11  12
ENDBRANCH  10  11
ENDBRANCH   9  10
ENDBRANCH   8   9
ENDBRANCH   7   8
ENDBRANCH   6   7
ENDBRANCH   5   6
ENDBRANCH   4   5
ENDBRANCH   3   4
ENDBRANCH   2   3
ENDBRANCH   1   2
BRANCH   1  18
ATOM     18  C   UNL     1      43.877  33.464  49.721  1.00  0.00     0.000 C 
BRANCH  18  19
ATOM     19  C   UNL     1      44.877  33.773  48.591  1.00  0.00     0.000 C 
BRANCH  19  20
ATOM     20  C   UNL     1      44.625  32.921  47.333  1.00  0.00     0.000 C 
BRANCH  20  21
ATOM     21  C   UNL     1      45.850  32.872  46.401  1.00  0.00     0.000 C 
BRANCH  21  22
ATOM     22  C   UNL     1      45.982  31.564  45.588  1.00  0.00     0.000 C 
BRANCH  22  23
ATOM     23  C   UNL     1      45.310  30.322  46.213  1.00  0.00     0.000 C 
BRANCH  23  24
ATOM     24  C   UNL     1      46.276  29.197  46.635  1.00  0.00    -0.000 C 
BRANCH  24  25
ATOM     25  C   UNL     1      45.935  28.619  48.020  1.00  0.00    -0.000 C 
BRANCH  25  26
ATOM     26  C   UNL     1      44.963  29.508  48.815  1.00  0.00    -0.000 C 
BRANCH  26  27
ATOM     27  C   UNL     1      45.660  30.308  49.931  1.00  0.00    -0.000 C 
BRANCH  27  28
ATOM     28  C   UNL     1      46.889  29.574  50.496  1.00  0.00    -0.000 C 
BRANCH  28  29
ATOM     29  C   UNL     1      48.133  30.478  50.560  1.00  0.00    -0.000 C 
BRANCH  29  30
ATOM     30  C   UNL     1      47.825  31.947  50.216  1.00  0.00    -0.000 C 
BRANCH  30  31
ATOM     31  C   UNL     1      48.543  32.483  48.963  1.00  0.00    -0.003 C 
ATOM     32  C   UNL     1      48.929  31.383  47.974  1.00  0.00     0.004 C 
ENDBRANCH  30  31
ENDBRANCH  29  30
ENDBRANCH  28  29
ENDBRANCH  27  28
ENDBRANCH  26  27
ENDBRANCH  25  26
ENDBRANCH  24  25
ENDBRANCH  23  24
ENDBRANCH  22  23
ENDBRANCH  21  22
ENDBRANCH  20  21
ENDBRANCH  19  20
ENDBRANCH  18  19
ENDBRANCH   1  18
TORSDOF 28
ENDMDL
MODEL 4
REMARK VINA RESULT:    -3.120      1.568      4.340
REMARK INTER + INTRA:         -13.809
REMARK INTER:                  -7.962
REMARK INTRA:                  -5.847
REMARK UNBOUND:                -5.583
REMARK SMILES CCCCCCCCCCCCCCCCCCCCCCCCCCCCCC(=O)[O-]
REMARK SMILES IDX 16 1 17 2 18 3 19 4 20 5 21 6 22 7 23 8 24 9 25 10 26 11
REMARK SMILES IDX 27 12 28 13 29 14 30 15 31 16 32 17 15 18 14 19 13 20 12 21
REMARK SMILES IDX 11 22 10 23 9 24 8 25 7 26 6 27 5 28 4 29 3 30 2 31 1 32
REMARK H PARENT
REMARK Flexibility Score: inf
ROOT
ATOM      1  C   UNL     1      45.150  32.517  49.649  1.00  0.00     0.000 C 
ENDROOT
BRANCH   1   2
ATOM      2  C   UNL     1      43.786  33.149  49.304  1.00  0.00     0.000 C 
BRANCH   2   3
ATOM      3  C   UNL     1      43.431  34.337  50.219  1.00  0.00     0.000 C 
BRANCH   3   4
ATOM      4  C   UNL     1      42.415  35.301  49.579  1.00  0.00     0.000 C 
BRANCH   4   5
ATOM      5  C   UNL     1      41.483  34.659  48.538  1.00  0.00     0.000 C 
BRANCH   5   6
ATOM      6  C   UNL     1      40.747  35.699  47.678  1.00  0.00     0.000 C 
BRANCH   6   7
ATOM      7  C   UNL     1      40.749  35.287  46.196  1.00  0.00     0.000 C 
BRANCH   7   8
ATOM      8  C   UNL     1      41.428  33.930  45.960  1.00  0.00     0.000 C 
BRANCH   8   9
ATOM      9  C   UNL     1      42.664  34.031  45.050  1.00  0.00     0.000 C 
BRANCH   9  10
ATOM     10  C   UNL     1      43.969  34.181  45.849  1.00  0.00     0.000 C 
BRANCH  10  11
ATOM     11  C   UNL     1      44.417  35.648  45.971  1.00  0.00     0.000 C 
BRANCH  11  12
ATOM     12  C   UNL     1      45.668  35.819  46.852  1.00  0.00     0.000 C 
BRANCH  12  13
ATOM     13  C   UNL     1      45.453  36.664  48.122  1.00  0.00     0.006 C 
BRANCH  13  14
ATOM     14  C   UNL     1      44.679  37.961  47.849  1.00  0.00     0.053 C 
BRANCH  14  15
ATOM     15  C   UNL     1      44.517  38.749  49.111  1.00  0.00     0.041 C 
ATOM     16  O   UNL     1      45.248  38.508  50.108  1.00  0.00    -0.550 OA
ATOM     17  O   UNL     1      43.592  39.781  49.169  1.00  0.00    -0.550 OA
ENDBRANCH  14  15
ENDBRANCH  13  14
ENDBRANCH  12  13
ENDBRANCH  11  12
ENDBRANCH  10  11
ENDBRANCH   9  10
ENDBRANCH   8   9
ENDBRANCH   7   8
ENDBRANCH   6   7
ENDBRANCH   5   6
ENDBRANCH   4   5
ENDBRANCH   3   4
ENDBRANCH   2   3
ENDBRANCH   1   2
BRANCH   1  18
ATOM     18  C   UNL     1      46.344  33.184  48.930  1.00  0.00     0.000 C 
BRANCH  18  19
ATOM     19  C   UNL     1      47.626  32.331  48.955  1.00  0.00     0.000 C 
BRANCH  19  20
ATOM     20  C   UNL     1      47.990  31.775  47.565  1.00  0.00     0.000 C 
BRANCH  20  21
ATOM     21  C   UNL     1      47.076  32.324  46.454  1.00  0.00     0.000 C 
BRANCH  21  22
ATOM     22  C   UNL     1      46.258  31.246  45.709  1.00  0.00     0.000 C 
BRANCH  22  23
ATOM     23  C   UNL     1      45.210  30.498  46.562  1.00  0.00     0.000 C 
BRANCH  23  24
ATOM     24  C   UNL     1      45.373  28.966  46.607  1.00  0.00    -0.000 C 
BRANCH  24  25
ATOM     25  C   UNL     1      44.800  28.351  47.897  1.00  0.00    -0.000 C 
BRANCH  25  26
ATOM     26  C   UNL     1      45.094  29.203  49.144  1.00  0.00    -0.000 C 
BRANCH  26  27
ATOM     27  C   UNL     1      45.928  28.452  50.199  1.00  0.00    -0.000 C 
BRANCH  27  28
ATOM     28  C   UNL     1      47.014  29.344  50.827  1.00  0.00    -0.000 C 
BRANCH  28  29
ATOM     29  C   UNL     1      48.416  29.044  50.267  1.00  0.00    -0.000 C 
BRANCH  29  30
ATOM     30  C   UNL     1      48.390  28.053  49.088  1.00  0.00    -0.000 C 
BRANCH  30  31
ATOM     31  C   UNL     1      49.261  28.458  47.884  1.00  0.00    -0.003 C 
ATOM     32  C   UNL     1      48.756  27.890  46.558  1.00  0.00     0.004 C 
ENDBRANCH  30  31
ENDBRANCH  29  30
ENDBRANCH  28  29
ENDBRANCH  27  28
ENDBRANCH  26  27
ENDBRANCH  25  26
ENDBRANCH  24  25
ENDBRANCH  23  24
ENDBRANCH  22  23
ENDBRANCH  21  22
ENDBRANCH  20  21
ENDBRANCH  19  20
ENDBRANCH  18  19
ENDBRANCH   1  18
TORSDOF 28
ENDMDL
MODEL 5
REMARK VINA RESULT:    -3.093      2.774      8.292
REMARK INTER + INTRA:         -13.741
REMARK INTER:                  -8.640
REMARK INTRA:                  -5.100
REMARK UNBOUND:                -5.583
REMARK SMILES CCCCCCCCCCCCCCCCCCCCCCCCCCCCCC(=O)[O-]
REMARK SMILES IDX 16 1 17 2 18 3 19 4 20 5 21 6 22 7 23 8 24 9 25 10 26 11
REMARK SMILES IDX 27 12 28 13 29 14 30 15 31 16 32 17 15 18 14 19 13 20 12 21
REMARK SMILES IDX 11 22 10 23 9 24 8 25 7 26 6 27 5 28 4 29 3 30 2 31 1 32
REMARK H PARENT
REMARK Flexibility Score: inf
ROOT
ATOM      1  C   UNL     1      41.960  34.184  48.653  1.00  0.00     0.000 C 
ENDROOT
BRANCH   1   2
ATOM      2  C   UNL     1      43.012  34.509  49.734  1.00  0.00     0.000 C 
BRANCH   2   3
ATOM      3  C   UNL     1      44.112  33.434  49.836  1.00  0.00     0.000 C 
BRANCH   3   4
ATOM      4  C   UNL     1      44.470  32.813  48.474  1.00  0.00     0.000 C 
BRANCH   4   5
ATOM      5  C   UNL     1      45.960  32.887  48.101  1.00  0.00     0.000 C 
BRANCH   5   6
ATOM      6  C   UNL     1      46.292  32.107  46.819  1.00  0.00     0.000 C 
BRANCH   6   7
ATOM      7  C   UNL     1      45.060  31.341  46.307  1.00  0.00     0.000 C 
BRANCH   7   8
ATOM      8  C   UNL     1      45.415  29.954  45.753  1.00  0.00     0.000 C 
BRANCH   8   9
ATOM      9  C   UNL     1      45.860  28.969  46.848  1.00  0.00     0.000 C 
BRANCH   9  10
ATOM     10  C   UNL     1      44.820  28.833  47.971  1.00  0.00     0.000 C 
BRANCH  10  11
ATOM     11  C   UNL     1      45.464  28.524  49.334  1.00  0.00     0.000 C 
BRANCH  11  12
ATOM     12  C   UNL     1      45.711  29.787  50.179  1.00  0.00     0.000 C 
BRANCH  12  13
ATOM     13  C   UNL     1      47.123  29.894  50.784  1.00  0.00     0.006 C 
BRANCH  13  14
ATOM     14  C   UNL     1      48.091  30.690  49.899  1.00  0.00     0.053 C 
BRANCH  14  15
ATOM     15  C   UNL     1      48.763  31.764  50.694  1.00  0.00     0.041 C 
ATOM     16  O   UNL     1      49.067  32.859  50.152  1.00  0.00    -0.550 OA
ATOM     17  O   UNL     1      49.011  31.574  52.046  1.00  0.00    -0.550 OA
ENDBRANCH  14  15
ENDBRANCH  13  14
ENDBRANCH  12  13
ENDBRANCH  11  12
ENDBRANCH  10  11
ENDBRANCH   9  10
ENDBRANCH   8   9
ENDBRANCH   7   8
ENDBRANCH   6   7
ENDBRANCH   5   6
ENDBRANCH   4   5
ENDBRANCH   3   4
ENDBRANCH   2   3
ENDBRANCH   1   2
BRANCH   1  18
ATOM     18  C   UNL     1      41.131  35.408  48.205  1.00  0.00     0.000 C 
BRANCH  18  19
ATOM     19  C   UNL     1      40.924  35.482  46.681  1.00  0.00     0.000 C 
BRANCH  19  20
ATOM     20  C   UNL     1      41.295  34.165  45.973  1.00  0.00     0.000 C 
BRANCH  20  21
ATOM     21  C   UNL     1      42.507  34.323  45.036  1.00  0.00     0.000 C 
BRANCH  21  22
ATOM     22  C   UNL     1      43.293  35.640  45.225  1.00  0.00     0.000 C 
BRANCH  22  23
ATOM     23  C   UNL     1      44.723  35.487  45.789  1.00  0.00     0.000 C 
BRANCH  23  24
ATOM     24  C   UNL     1      44.980  36.204  47.128  1.00  0.00    -0.000 C 
BRANCH  24  25
ATOM     25  C   UNL     1      44.464  37.654  47.127  1.00  0.00    -0.000 C 
BRANCH  25  26
ATOM     26  C   UNL     1      43.663  38.003  48.393  1.00  0.00    -0.000 C 
BRANCH  26  27
ATOM     27  C   UNL     1      44.562  38.304  49.606  1.00  0.00    -0.000 C 
BRANCH  27  28
ATOM     28  C   UNL     1      44.902  39.800  49.724  1.00  0.00    -0.000 C 
BRANCH  28  29
ATOM     29  C   UNL     1      43.684  40.649  50.129  1.00  0.00    -0.000 C 
BRANCH  29  30
ATOM     30  C   UNL     1      43.501  40.743  51.656  1.00  0.00    -0.000 C 
BRANCH  30  31
ATOM     31  C   UNL     1      44.797  40.593  52.474  1.00  0.00    -0.003 C 
ATOM     32  C   UNL     1      44.725  39.476  53.516  1.00  0.00     0.004 C 
ENDBRANCH  30  31
ENDBRANCH  29  30
ENDBRANCH  28  29
ENDBRANCH  27  28
ENDBRANCH  26  27
ENDBRANCH  25  26
ENDBRANCH  24  25
ENDBRANCH  23  24
ENDBRANCH  22  23
ENDBRANCH  21  22
ENDBRANCH  20  21
ENDBRANCH  19  20
ENDBRANCH  18  19
ENDBRANCH   1  18
TORSDOF 28
ENDMDL
MODEL 6
REMARK VINA RESULT:    -3.089      1.468      4.000
REMARK INTER + INTRA:         -13.729
REMARK INTER:                  -7.912
REMARK INTRA:                  -5.818
REMARK UNBOUND:                -5.583
REMARK SMILES CCCCCCCCCCCCCCCCCCCCCCCCCCCCCC(=O)[O-]
REMARK SMILES IDX 16 1 17 2 18 3 19 4 20 5 21 6 22 7 23 8 24 9 25 10 26 11
REMARK SMILES IDX 27 12 28 13 29 14 30 15 31 16 32 17 15 18 14 19 13 20 12 21
REMARK SMILES IDX 11 22 10 23 9 24 8 25 7 26 6 27 5 28 4 29 3 30 2 31 1 32
REMARK H PARENT
REMARK Flexibility Score: inf
ROOT
ATOM      1  C   UNL     1      44.003  32.981  49.401  1.00  0.00     0.000 C 
ENDROOT
BRANCH   1   2
ATOM      2  C   UNL     1      43.564  34.248  50.165  1.00  0.00     0.000 C 
BRANCH   2   3
ATOM      3  C   UNL     1      42.482  35.050  49.417  1.00  0.00     0.000 C 
BRANCH   3   4
ATOM      4  C   UNL     1      41.707  34.199  48.394  1.00  0.00     0.000 C 
BRANCH   4   5
ATOM      5  C   UNL     1      41.079  34.994  47.236  1.00  0.00     0.000 C 
BRANCH   5   6
ATOM      6  C   UNL     1      41.451  34.428  45.857  1.00  0.00     0.000 C 
BRANCH   6   7
ATOM      7  C   UNL     1      42.817  33.723  45.902  1.00  0.00     0.000 C 
BRANCH   7   8
ATOM      8  C   UNL     1      43.960  34.614  45.392  1.00  0.00     0.000 C 
BRANCH   8   9
ATOM      9  C   UNL     1      44.789  35.232  46.531  1.00  0.00     0.000 C 
BRANCH   9  10
ATOM     10  C   UNL     1      46.276  35.366  46.167  1.00  0.00     0.000 C 
BRANCH  10  11
ATOM     11  C   UNL     1      47.131  35.845  47.354  1.00  0.00     0.000 C 
BRANCH  11  12
ATOM     12  C   UNL     1      46.293  36.159  48.606  1.00  0.00     0.000 C 
BRANCH  12  13
ATOM     13  C   UNL     1      45.991  37.654  48.822  1.00  0.00     0.006 C 
BRANCH  13  14
ATOM     14  C   UNL     1      44.738  37.890  49.677  1.00  0.00     0.053 C 
BRANCH  14  15
ATOM     15  C   UNL     1      44.832  39.201  50.391  1.00  0.00     0.041 C 
ATOM     16  O   UNL     1      43.920  40.060  50.264  1.00  0.00    -0.550 OA
ATOM     17  O   UNL     1      45.903  39.455  51.236  1.00  0.00    -0.550 OA
ENDBRANCH  14  15
ENDBRANCH  13  14
ENDBRANCH  12  13
ENDBRANCH  11  12
ENDBRANCH  10  11
ENDBRANCH   9  10
ENDBRANCH   8   9
ENDBRANCH   7   8
ENDBRANCH   6   7
ENDBRANCH   5   6
ENDBRANCH   4   5
ENDBRANCH   3   4
ENDBRANCH   2   3
ENDBRANCH   1   2
BRANCH   1  18
ATOM     18  C   UNL     1      45.532  32.765  49.384  1.00  0.00     0.000 C 
BRANCH  18  19
ATOM     19  C   UNL     1      46.042  32.104  48.089  1.00  0.00     0.000 C 
BRANCH  19  20
ATOM     20  C   UNL     1      44.981  31.201  47.433  1.00  0.00     0.000 C 
BRANCH  20  21
ATOM     21  C   UNL     1      45.408  29.722  47.399  1.00  0.00     0.000 C 
BRANCH  21  22
ATOM     22  C   UNL     1      44.854  28.871  48.564  1.00  0.00     0.000 C 
BRANCH  22  23
ATOM     23  C   UNL     1      45.583  27.532  48.815  1.00  0.00     0.000 C 
BRANCH  23  24
ATOM     24  C   UNL     1      46.528  27.519  50.032  1.00  0.00    -0.000 C 
BRANCH  24  25
ATOM     25  C   UNL     1      46.342  28.752  50.934  1.00  0.00    -0.000 C 
BRANCH  25  26
ATOM     26  C   UNL     1      47.441  29.809  50.732  1.00  0.00    -0.000 C 
BRANCH  26  27
ATOM     27  C   UNL     1      48.704  29.239  50.061  1.00  0.00    -0.000 C 
BRANCH  27  28
ATOM     28  C   UNL     1      48.958  29.856  48.674  1.00  0.00    -0.000 C 
BRANCH  28  29
ATOM     29  C   UNL     1      50.035  30.955  48.708  1.00  0.00    -0.000 C 
BRANCH  29  30
ATOM     30  C   UNL     1      49.589  32.253  48.010  1.00  0.00    -0.000 C 
BRANCH  30  31
ATOM     31  C   UNL     1      49.467  33.477  48.937  1.00  0.00    -0.003 C 
ATOM     32  C   UNL     1      49.125  33.107  50.381  1.00  0.00     0.004 C 
ENDBRANCH  30  31
ENDBRANCH  29  30
ENDBRANCH  28  29
ENDBRANCH  27  28
ENDBRANCH  26  27
ENDBRANCH  25  26
ENDBRANCH  24  25
ENDBRANCH  23  24
ENDBRANCH  22  23
ENDBRANCH  21  22
ENDBRANCH  20  21
ENDBRANCH  19  20
ENDBRANCH  18  19
ENDBRANCH   1  18
TORSDOF 28
ENDMDL
MODEL 7
REMARK VINA RESULT:    -3.087      1.467      2.914
REMARK INTER + INTRA:         -13.723
REMARK INTER:                  -8.094
REMARK INTRA:                  -5.629
REMARK UNBOUND:                -5.583
REMARK SMILES CCCCCCCCCCCCCCCCCCCCCCCCCCCCCC(=O)[O-]
REMARK SMILES IDX 16 1 17 2 18 3 19 4 20 5 21 6 22 7 23 8 24 9 25 10 26 11
REMARK SMILES IDX 27 12 28 13 29 14 30 15 31 16 32 17 15 18 14 19 13 20 12 21
REMARK SMILES IDX 11 22 10 23 9 24 8 25 7 26 6 27 5 28 4 29 3 30 2 31 1 32
REMARK H PARENT
REMARK Flexibility Score: inf
ROOT
ATOM      1  C   UNL     1      41.144  35.501  48.453  1.00  0.00     0.000 C 
ENDROOT
BRANCH   1   2
ATOM      2  C   UNL     1      40.897  35.478  46.930  1.00  0.00     0.000 C 
BRANCH   2   3
ATOM      3  C   UNL     1      41.249  34.121  46.290  1.00  0.00     0.000 C 
BRANCH   3   4
ATOM      4  C   UNL     1      42.364  34.230  45.233  1.00  0.00     0.000 C 
BRANCH   4   5
ATOM      5  C   UNL     1      43.615  33.385  45.525  1.00  0.00     0.000 C 
BRANCH   5   6
ATOM      6  C   UNL     1      44.868  34.242  45.768  1.00  0.00     0.000 C 
BRANCH   6   7
ATOM      7  C   UNL     1      44.575  35.729  45.507  1.00  0.00     0.000 C 
BRANCH   7   8
ATOM      8  C   UNL     1      44.788  36.601  46.754  1.00  0.00     0.000 C 
BRANCH   8   9
ATOM      9  C   UNL     1      43.851  37.820  46.797  1.00  0.00     0.000 C 
BRANCH   9  10
ATOM     10  C   UNL     1      43.481  38.225  48.233  1.00  0.00     0.000 C 
BRANCH  10  11
ATOM     11  C   UNL     1      44.469  39.242  48.830  1.00  0.00     0.000 C 
BRANCH  11  12
ATOM     12  C   UNL     1      45.522  38.588  49.743  1.00  0.00     0.000 C 
BRANCH  12  13
ATOM     13  C   UNL     1      45.972  39.454  50.934  1.00  0.00     0.006 C 
BRANCH  13  14
ATOM     14  C   UNL     1      44.792  40.051  51.713  1.00  0.00     0.053 C 
BRANCH  14  15
ATOM     15  C   UNL     1      44.473  39.208  52.907  1.00  0.00     0.041 C 
ATOM     16  O   UNL     1      44.746  39.618  54.066  1.00  0.00    -0.550 OA
ATOM     17  O   UNL     1      43.831  37.989  52.742  1.00  0.00    -0.550 OA
ENDBRANCH  14  15
ENDBRANCH  13  14
ENDBRANCH  12  13
ENDBRANCH  11  12
ENDBRANCH  10  11
ENDBRANCH   9  10
ENDBRANCH   8   9
ENDBRANCH   7   8
ENDBRANCH   6   7
ENDBRANCH   5   6
ENDBRANCH   4   5
ENDBRANCH   3   4
ENDBRANCH   2   3
ENDBRANCH   1   2
BRANCH   1  18
ATOM     18  C   UNL     1      42.103  34.394  48.943  1.00  0.00     0.000 C 
BRANCH  18  19
ATOM     19  C   UNL     1      43.321  34.939  49.712  1.00  0.00     0.000 C 
BRANCH  19  20
ATOM     20  C   UNL     1      44.588  34.095  49.481  1.00  0.00     0.000 C 
BRANCH  20  21
ATOM     21  C   UNL     1      44.264  32.664  49.012  1.00  0.00     0.000 C 
BRANCH  21  22
ATOM     22  C   UNL     1      45.009  31.554  49.787  1.00  0.00     0.000 C 
BRANCH  22  23
ATOM     23  C   UNL     1      45.349  30.287  48.972  1.00  0.00     0.000 C 
BRANCH  23  24
ATOM     24  C   UNL     1      46.690  29.617  49.328  1.00  0.00    -0.000 C 
BRANCH  24  25
ATOM     25  C   UNL     1      47.030  29.743  50.825  1.00  0.00    -0.000 C 
BRANCH  25  26
ATOM     26  C   UNL     1      48.089  30.821  51.107  1.00  0.00    -0.000 C 
BRANCH  26  27
ATOM     27  C   UNL     1      48.818  31.292  49.835  1.00  0.00    -0.000 C 
BRANCH  27  28
ATOM     28  C   UNL     1      48.556  32.777  49.527  1.00  0.00    -0.000 C 
BRANCH  28  29
ATOM     29  C   UNL     1      47.914  32.986  48.144  1.00  0.00    -0.000 C 
BRANCH  29  30
ATOM     30  C   UNL     1      48.095  34.419  47.609  1.00  0.00    -0.000 C 
BRANCH  30  31
ATOM     31  C   UNL     1      47.785  35.533  48.627  1.00  0.00    -0.003 C 
ATOM     32  C   UNL     1      48.417  36.876  48.260  1.00  0.00     0.004 C 
ENDBRANCH  30  31
ENDBRANCH  29  30
ENDBRANCH  28  29
ENDBRANCH  27  28
ENDBRANCH  26  27
ENDBRANCH  25  26
ENDBRANCH  24  25
ENDBRANCH  23  24
ENDBRANCH  22  23
ENDBRANCH  21  22
ENDBRANCH  20  21
ENDBRANCH  19  20
ENDBRANCH  18  19
ENDBRANCH   1  18
TORSDOF 28
ENDMDL
MODEL 8
REMARK VINA RESULT:    -3.084      2.090      4.707
REMARK INTER + INTRA:         -13.715
REMARK INTER:                  -7.417
REMARK INTRA:                  -6.298
REMARK UNBOUND:                -5.583
REMARK SMILES CCCCCCCCCCCCCCCCCCCCCCCCCCCCCC(=O)[O-]
REMARK SMILES IDX 16 1 17 2 18 3 19 4 20 5 21 6 22 7 23 8 24 9 25 10 26 11
REMARK SMILES IDX 27 12 28 13 29 14 30 15 31 16 32 17 15 18 14 19 13 20 12 21
REMARK SMILES IDX 11 22 10 23 9 24 8 25 7 26 6 27 5 28 4 29 3 30 2 31 1 32
REMARK H PARENT
REMARK Flexibility Score: inf
ROOT
ATOM      1  C   UNL     1      45.008  31.866  49.577  1.00  0.00     0.000 C 
ENDROOT
BRANCH   1   2
ATOM      2  C   UNL     1      43.991  32.909  49.069  1.00  0.00     0.000 C 
BRANCH   2   3
ATOM      3  C   UNL     1      43.750  34.048  50.079  1.00  0.00     0.000 C 
BRANCH   3   4
ATOM      4  C   UNL     1      42.650  35.026  49.626  1.00  0.00     0.000 C 
BRANCH   4   5
ATOM      5  C   UNL     1      41.705  34.477  48.544  1.00  0.00     0.000 C 
BRANCH   5   6
ATOM      6  C   UNL     1      40.898  35.582  47.844  1.00  0.00     0.000 C 
BRANCH   6   7
ATOM      7  C   UNL     1      40.687  35.252  46.357  1.00  0.00     0.000 C 
BRANCH   7   8
ATOM      8  C   UNL     1      41.648  34.167  45.850  1.00  0.00     0.000 C 
BRANCH   8   9
ATOM      9  C   UNL     1      42.821  34.740  45.036  1.00  0.00     0.000 C 
BRANCH   9  10
ATOM     10  C   UNL     1      44.185  34.408  45.660  1.00  0.00     0.000 C 
BRANCH  10  11
ATOM     11  C   UNL     1      44.701  35.532  46.577  1.00  0.00     0.000 C 
BRANCH  11  12
ATOM     12  C   UNL     1      46.144  35.294  47.058  1.00  0.00     0.000 C 
BRANCH  12  13
ATOM     13  C   UNL     1      46.447  35.821  48.473  1.00  0.00     0.006 C 
BRANCH  13  14
ATOM     14  C   UNL     1      45.597  37.042  48.848  1.00  0.00     0.053 C 
BRANCH  14  15
ATOM     15  C   UNL     1      46.414  38.293  48.768  1.00  0.00     0.041 C 
ATOM     16  O   UNL     1      47.654  38.229  48.558  1.00  0.00    -0.550 OA
ATOM     17  O   UNL     1      45.797  39.531  48.877  1.00  0.00    -0.550 OA
ENDBRANCH  14  15
ENDBRANCH  13  14
ENDBRANCH  12  13
ENDBRANCH  11  12
ENDBRANCH  10  11
ENDBRANCH   9  10
ENDBRANCH   8   9
ENDBRANCH   7   8
ENDBRANCH   6   7
ENDBRANCH   5   6
ENDBRANCH   4   5
ENDBRANCH   3   4
ENDBRANCH   2   3
ENDBRANCH   1   2
BRANCH   1  18
ATOM     18  C   UNL     1      46.480  32.256  49.317  1.00  0.00     0.000 C 
BRANCH  18  19
ATOM     19  C   UNL     1      47.488  31.386  50.091  1.00  0.00     0.000 C 
BRANCH  19  20
ATOM     20  C   UNL     1      48.689  32.198  50.610  1.00  0.00     0.000 C 
BRANCH  20  21
ATOM     21  C   UNL     1      48.797  33.581  49.941  1.00  0.00     0.000 C 
BRANCH  21  22
ATOM     22  C   UNL     1      49.918  33.692  48.883  1.00  0.00     0.000 C 
BRANCH  22  23
ATOM     23  C   UNL     1      49.482  33.437  47.423  1.00  0.00     0.000 C 
BRANCH  23  24
ATOM     24  C   UNL     1      49.560  31.968  46.964  1.00  0.00    -0.000 C 
BRANCH  24  25
ATOM     25  C   UNL     1      48.788  31.720  45.655  1.00  0.00    -0.000 C 
BRANCH  25  26
ATOM     26  C   UNL     1      47.333  32.215  45.719  1.00  0.00    -0.000 C 
BRANCH  26  27
ATOM     27  C   UNL     1      46.333  31.216  45.109  1.00  0.00    -0.000 C 
BRANCH  27  28
ATOM     28  C   UNL     1      45.191  30.865  46.079  1.00  0.00    -0.000 C 
BRANCH  28  29
ATOM     29  C   UNL     1      45.148  29.364  46.417  1.00  0.00    -0.000 C 
BRANCH  29  30
ATOM     30  C   UNL     1      46.419  28.876  47.137  1.00  0.00    -0.000 C 
BRANCH  30  31
ATOM     31  C   UNL     1      46.185  28.315  48.553  1.00  0.00    -0.003 C 
ATOM     32  C   UNL     1      44.708  28.076  48.869  1.00  0.00     0.004 C 
ENDBRANCH  30  31
ENDBRANCH  29  30
ENDBRANCH  28  29
ENDBRANCH  27  28
ENDBRANCH  26  27
ENDBRANCH  25  26
ENDBRANCH  24  25
ENDBRANCH  23  24
ENDBRANCH  22  23
ENDBRANCH  21  22
ENDBRANCH  20  21
ENDBRANCH  19  20
ENDBRANCH  18  19
ENDBRANCH   1  18
TORSDOF 28
ENDMDL
MODEL 9
REMARK VINA RESULT:    -3.028      1.284      3.103
REMARK INTER + INTRA:         -13.568
REMARK INTER:                  -7.915
REMARK INTRA:                  -5.653
REMARK UNBOUND:                -5.583
REMARK SMILES CCCCCCCCCCCCCCCCCCCCCCCCCCCCCC(=O)[O-]
REMARK SMILES IDX 16 1 17 2 18 3 19 4 20 5 21 6 22 7 23 8 24 9 25 10 26 11
REMARK SMILES IDX 27 12 28 13 29 14 30 15 31 16 32 17 15 18 14 19 13 20 12 21
REMARK SMILES IDX 11 22 10 23 9 24 8 25 7 26 6 27 5 28 4 29 3 30 2 31 1 32
REMARK H PARENT
REMARK Flexibility Score: inf
ROOT
ATOM      1  C   UNL     1      40.807  35.583  46.833  1.00  0.00     0.000 C 
ENDROOT
BRANCH   1   2
ATOM      2  C   UNL     1      41.105  35.371  48.332  1.00  0.00     0.000 C 
BRANCH   2   3
ATOM      3  C   UNL     1      41.934  34.099  48.601  1.00  0.00     0.000 C 
BRANCH   3   4
ATOM      4  C   UNL     1      43.037  34.317  49.654  1.00  0.00     0.000 C 
BRANCH   4   5
ATOM      5  C   UNL     1      44.203  33.316  49.584  1.00  0.00     0.000 C 
BRANCH   5   6
ATOM      6  C   UNL     1      45.503  33.953  49.069  1.00  0.00     0.000 C 
BRANCH   6   7
ATOM      7  C   UNL     1      45.410  35.488  49.091  1.00  0.00     0.000 C 
BRANCH   7   8
ATOM      8  C   UNL     1      46.229  36.147  47.971  1.00  0.00     0.000 C 
BRANCH   8   9
ATOM      9  C   UNL     1      45.500  37.334  47.317  1.00  0.00     0.000 C 
BRANCH   9  10
ATOM     10  C   UNL     1      44.016  37.398  47.710  1.00  0.00     0.000 C 
BRANCH  10  11
ATOM     11  C   UNL     1      43.513  38.843  47.878  1.00  0.00     0.000 C 
BRANCH  11  12
ATOM     12  C   UNL     1      44.477  39.719  48.699  1.00  0.00     0.000 C 
BRANCH  12  13
ATOM     13  C   UNL     1      44.169  39.780  50.206  1.00  0.00     0.006 C 
BRANCH  13  14
ATOM     14  C   UNL     1      45.068  38.854  51.035  1.00  0.00     0.053 C 
BRANCH  14  15
ATOM     15  C   UNL     1      44.732  38.964  52.489  1.00  0.00     0.041 C 
ATOM     16  O   UNL     1      43.629  38.537  52.921  1.00  0.00    -0.550 OA
ATOM     17  O   UNL     1      45.659  39.493  53.376  1.00  0.00    -0.550 OA
ENDBRANCH  14  15
ENDBRANCH  13  14
ENDBRANCH  12  13
ENDBRANCH  11  12
ENDBRANCH  10  11
ENDBRANCH   9  10
ENDBRANCH   8   9
ENDBRANCH   7   8
ENDBRANCH   6   7
ENDBRANCH   5   6
ENDBRANCH   4   5
ENDBRANCH   3   4
ENDBRANCH   2   3
ENDBRANCH   1   2
BRANCH   1  18
ATOM     18  C   UNL     1      41.523  34.573  45.909  1.00  0.00     0.000 C 
BRANCH  18  19
ATOM     19  C   UNL     1      42.655  35.204  45.077  1.00  0.00     0.000 C 
BRANCH  19  20
ATOM     20  C   UNL     1      44.006  34.496  45.290  1.00  0.00     0.000 C 
BRANCH  20  21
ATOM     21  C   UNL     1      43.840  33.041  45.766  1.00  0.00     0.000 C 
BRANCH  21  22
ATOM     22  C   UNL     1      45.165  32.258  45.902  1.00  0.00     0.000 C 
BRANCH  22  23
ATOM     23  C   UNL     1      45.130  30.800  45.394  1.00  0.00     0.000 C 
BRANCH  23  24
ATOM     24  C   UNL     1      45.462  29.729  46.452  1.00  0.00    -0.000 C 
BRANCH  24  25
ATOM     25  C   UNL     1      44.965  30.118  47.856  1.00  0.00    -0.000 C 
BRANCH  25  26
ATOM     26  C   UNL     1      45.003  28.942  48.848  1.00  0.00    -0.000 C 
BRANCH  26  27
ATOM     27  C   UNL     1      46.232  28.981  49.775  1.00  0.00    -0.000 C 
BRANCH  27  28
ATOM     28  C   UNL     1      46.480  30.383  50.359  1.00  0.00    -0.000 C 
BRANCH  28  29
ATOM     29  C   UNL     1      47.960  30.796  50.285  1.00  0.00    -0.000 C 
BRANCH  29  30
ATOM     30  C   UNL     1      48.556  30.638  48.873  1.00  0.00    -0.000 C 
BRANCH  30  31
ATOM     31  C   UNL     1      48.224  31.783  47.898  1.00  0.00    -0.003 C 
ATOM     32  C   UNL     1      49.052  31.738  46.613  1.00  0.00     0.004 C 
ENDBRANCH  30  31
ENDBRANCH  29  30
ENDBRANCH  28  29
ENDBRANCH  27  28
ENDBRANCH  26  27
ENDBRANCH  25  26
ENDBRANCH  24  25
ENDBRANCH  23  24
ENDBRANCH  22  23
ENDBRANCH  21  22
ENDBRANCH  20  21
ENDBRANCH  19  20
ENDBRANCH  18  19
ENDBRANCH   1  18
TORSDOF 28
ENDMDL
