MODEL 1
REMARK VINA RESULT:    -6.710      0.000      0.000
REMARK INTER + INTRA:         -10.760
REMARK INTER:                  -9.652
REMARK INTRA:                  -1.109
REMARK UNBOUND:                -1.109
REMARK SMILES O=c1cc(-c2ccc(O)c(O)c2)oc2cc(O[C@@H]3O[C@H](CO)[C@@H](O)[C@H](O)[C@@H]3O)cc(O)c12
REMARK SMILES IDX 17 1 16 2 4 3 3 4 13 5 2 6 14 7 1 8 32 9 15 10 30 11 29 12
REMARK SMILES IDX 5 13 6 14 7 15 8 16 12 17 10 18 9 19 11 21 31 23 18 25 27 26
REMARK SMILES IDX 19 27 25 28 20 29 23 30 28 31 26 33 21 35 22 36 24 38
REMARK H PARENT 9 20 11 22 31 24 28 32 26 34 22 37 24 39
REMARK Flexibility Score: inf
ROOT
ATOM      1  O   UNL     1      11.127  16.728  18.627  1.00  0.00    -0.462 OA
ENDROOT
BRANCH   1   2
ATOM      2  C   UNL     1      11.801  16.456  17.425  1.00  0.00     0.130 A 
ATOM      3  C   UNL     1      14.580  18.225  13.974  1.00  0.00     0.138 A 
ATOM      4  C   UNL     1      14.614  17.002  13.286  1.00  0.00     0.100 A 
ATOM      5  O   UNL     1      13.891  18.320  15.109  1.00  0.00    -0.456 OA
ATOM      6  C   UNL     1      13.916  15.906  13.798  1.00  0.00     0.197 A 
ATOM      7  C   UNL     1      13.211  17.305  15.637  1.00  0.00     0.146 A 
ATOM      8  O   UNL     1      13.947  14.813  13.169  1.00  0.00    -0.289 OA
ATOM      9  C   UNL     1      13.195  16.042  15.002  1.00  0.00     0.107 A 
ATOM     10  C   UNL     1      12.513  17.500  16.831  1.00  0.00     0.094 A 
ATOM     11  C   UNL     1      12.471  14.983  15.595  1.00  0.00     0.134 A 
ATOM     12  C   UNL     1      11.781  15.196  16.798  1.00  0.00     0.093 A 
BRANCH   3  13
ATOM     13  C   UNL     1      15.311  19.418  13.480  1.00  0.00     0.021 A 
ATOM     14  C   UNL     1      15.095  19.933  12.190  1.00  0.00     0.016 A 
ATOM     15  C   UNL     1      15.796  21.057  11.751  1.00  0.00     0.051 A 
ATOM     16  C   UNL     1      16.719  21.695  12.586  1.00  0.00     0.157 A 
ATOM     17  C   UNL     1      16.226  20.069  14.324  1.00  0.00     0.062 A 
ATOM     18  C   UNL     1      16.933  21.198  13.892  1.00  0.00     0.158 A 
BRANCH  16  19
ATOM     19  O   UNL     1      17.396  22.807  12.081  1.00  0.00    -0.504 OA
ATOM     20  H   UNL     1      17.314  23.134  11.129  1.00  0.00     0.293 HD
ENDBRANCH  16  19
BRANCH  18  21
ATOM     21  O   UNL     1      17.826  21.790  14.788  1.00  0.00    -0.504 OA
ATOM     22  H   UNL     1      17.614  21.970  15.758  1.00  0.00     0.293 HD
ENDBRANCH  18  21
ENDBRANCH   3  13
BRANCH  11  23
ATOM     23  O   UNL     1      12.434  13.720  15.000  1.00  0.00    -0.507 OA
ATOM     24  H   UNL     1      13.260  13.137  14.930  1.00  0.00     0.293 HD
ENDBRANCH  11  23
ENDBRANCH   1   2
BRANCH   1  25
ATOM     25  C   UNL     1       9.712  16.821  18.822  1.00  0.00     0.339 C 
ATOM     26  C   UNL     1       9.241  16.168  20.143  1.00  0.00     0.214 C 
ATOM     27  O   UNL     1       9.289  18.172  18.713  1.00  0.00    -0.332 OA
ATOM     28  C   UNL     1       9.626  17.003  21.385  1.00  0.00     0.180 C 
ATOM     29  C   UNL     1       9.709  19.010  19.785  1.00  0.00     0.179 C 
ATOM     30  C   UNL     1       9.281  18.485  21.180  1.00  0.00     0.177 C 
BRANCH  26  31
ATOM     31  O   UNL     1       9.740  14.861  20.258  1.00  0.00    -0.384 OA
ATOM     32  H   UNL     1       9.670  14.610  21.214  1.00  0.00     0.211 HD
ENDBRANCH  26  31
BRANCH  28  33
ATOM     33  O   UNL     1      10.967  16.843  21.795  1.00  0.00    -0.387 OA
ATOM     34  H   UNL     1      11.029  16.940  22.778  1.00  0.00     0.211 HD
ENDBRANCH  28  33
BRANCH  29  35
ATOM     35  C   UNL     1      11.194  19.424  19.698  1.00  0.00     0.191 C 
BRANCH  35  36
ATOM     36  O   UNL     1      11.695  19.727  20.973  1.00  0.00    -0.394 OA
ATOM     37  H   UNL     1      12.490  20.307  20.836  1.00  0.00     0.210 HD
ENDBRANCH  35  36
ENDBRANCH  29  35
BRANCH  30  38
ATOM     38  O   UNL     1       7.891  18.642  21.328  1.00  0.00    -0.387 OA
ATOM     39  H   UNL     1       7.538  17.791  21.699  1.00  0.00     0.211 HD
ENDBRANCH  30  38
ENDBRANCH   1  25
TORSDOF 11
ENDMDL
MODEL 2
REMARK VINA RESULT:    -6.559      0.830      2.064
REMARK INTER + INTRA:         -10.544
REMARK INTER:                  -9.473
REMARK INTRA:                  -1.071
REMARK UNBOUND:                -1.109
REMARK SMILES O=c1cc(-c2ccc(O)c(O)c2)oc2cc(O[C@@H]3O[C@H](CO)[C@@H](O)[C@H](O)[C@@H]3O)cc(O)c12
REMARK SMILES IDX 17 1 16 2 4 3 3 4 13 5 2 6 14 7 1 8 32 9 15 10 30 11 29 12
REMARK SMILES IDX 5 13 6 14 7 15 8 16 12 17 10 18 9 19 11 21 31 23 18 25 27 26
REMARK SMILES IDX 19 27 25 28 20 29 23 30 28 31 26 33 21 35 22 36 24 38
REMARK H PARENT 9 20 11 22 31 24 28 32 26 34 22 37 24 39
REMARK Flexibility Score: inf
ROOT
ATOM      1  O   UNL     1      11.004  16.815  18.540  1.00  0.00    -0.462 OA
ENDROOT
BRANCH   1   2
ATOM      2  C   UNL     1      11.724  16.520  17.370  1.00  0.00     0.130 A 
ATOM      3  C   UNL     1      14.620  18.226  13.985  1.00  0.00     0.138 A 
ATOM      4  C   UNL     1      14.685  16.988  13.326  1.00  0.00     0.100 A 
ATOM      5  O   UNL     1      13.889  18.343  15.091  1.00  0.00    -0.456 OA
ATOM      6  C   UNL     1      13.974  15.900  13.837  1.00  0.00     0.197 A 
ATOM      7  C   UNL     1      13.195  17.336  15.616  1.00  0.00     0.146 A 
ATOM      8  O   UNL     1      14.034  14.794  13.235  1.00  0.00    -0.289 OA
ATOM      9  C   UNL     1      13.208  16.059  15.010  1.00  0.00     0.107 A 
ATOM     10  C   UNL     1      12.453  17.554  16.779  1.00  0.00     0.094 A 
ATOM     11  C   UNL     1      12.468  15.010  15.600  1.00  0.00     0.134 A 
ATOM     12  C   UNL     1      11.733  15.246  16.771  1.00  0.00     0.093 A 
BRANCH   3  13
ATOM     13  C   UNL     1      15.363  19.412  13.491  1.00  0.00     0.021 A 
ATOM     14  C   UNL     1      15.145  19.935  12.205  1.00  0.00     0.016 A 
ATOM     15  C   UNL     1      15.857  21.053  11.766  1.00  0.00     0.051 A 
ATOM     16  C   UNL     1      16.795  21.674  12.597  1.00  0.00     0.157 A 
ATOM     17  C   UNL     1      16.293  20.045  14.331  1.00  0.00     0.062 A 
ATOM     18  C   UNL     1      17.012  21.167  13.899  1.00  0.00     0.158 A 
BRANCH  16  19
ATOM     19  O   UNL     1      17.483  22.779  12.093  1.00  0.00    -0.504 OA
ATOM     20  H   UNL     1      17.420  23.095  11.135  1.00  0.00     0.293 HD
ENDBRANCH  16  19
BRANCH  18  21
ATOM     21  O   UNL     1      17.920  21.743  14.791  1.00  0.00    -0.504 OA
ATOM     22  H   UNL     1      17.830  22.678  15.162  1.00  0.00     0.293 HD
ENDBRANCH  18  21
ENDBRANCH   3  13
BRANCH  11  23
ATOM     23  O   UNL     1      12.458  13.734  15.033  1.00  0.00    -0.507 OA
ATOM     24  H   UNL     1      12.784  13.566  14.089  1.00  0.00     0.293 HD
ENDBRANCH  11  23
ENDBRANCH   1   2
BRANCH   1  25
ATOM     25  C   UNL     1      11.446  17.604  19.650  1.00  0.00     0.339 C 
ATOM     26  C   UNL     1      10.648  18.919  19.812  1.00  0.00     0.214 C 
ATOM     27  O   UNL     1      11.442  16.826  20.838  1.00  0.00    -0.332 OA
ATOM     28  C   UNL     1       9.219  18.681  20.347  1.00  0.00     0.180 C 
ATOM     29  C   UNL     1      10.144  16.490  21.317  1.00  0.00     0.179 C 
ATOM     30  C   UNL     1       9.234  17.724  21.549  1.00  0.00     0.177 C 
BRANCH  26  31
ATOM     31  O   UNL     1      10.605  19.627  18.600  1.00  0.00    -0.384 OA
ATOM     32  H   UNL     1      11.516  19.984  18.444  1.00  0.00     0.211 HD
ENDBRANCH  26  31
BRANCH  28  33
ATOM     33  O   UNL     1       8.298  18.253  19.367  1.00  0.00    -0.387 OA
ATOM     34  H   UNL     1       7.618  18.956  19.218  1.00  0.00     0.211 HD
ENDBRANCH  28  33
BRANCH  29  35
ATOM     35  C   UNL     1       9.469  15.353  20.520  1.00  0.00     0.191 C 
BRANCH  35  36
ATOM     36  O   UNL     1      10.406  14.362  20.188  1.00  0.00    -0.394 OA
ATOM     37  H   UNL     1      11.149  14.822  19.714  1.00  0.00     0.210 HD
ENDBRANCH  35  36
ENDBRANCH  29  35
BRANCH  30  38
ATOM     38  O   UNL     1       9.692  18.433  22.674  1.00  0.00    -0.387 OA
ATOM     39  H   UNL     1       9.433  19.384  22.547  1.00  0.00     0.211 HD
ENDBRANCH  30  38
ENDBRANCH   1  25
TORSDOF 11
ENDMDL
MODEL 3
REMARK VINA RESULT:    -6.393      5.106      7.828
REMARK INTER + INTRA:         -10.304
REMARK INTER:                  -9.153
REMARK INTRA:                  -1.152
REMARK UNBOUND:                -1.109
REMARK SMILES O=c1cc(-c2ccc(O)c(O)c2)oc2cc(O[C@@H]3O[C@H](CO)[C@@H](O)[C@H](O)[C@@H]3O)cc(O)c12
REMARK SMILES IDX 17 1 16 2 4 3 3 4 13 5 2 6 14 7 1 8 32 9 15 10 30 11 29 12
REMARK SMILES IDX 5 13 6 14 7 15 8 16 12 17 10 18 9 19 11 21 31 23 18 25 27 26
REMARK SMILES IDX 19 27 25 28 20 29 23 30 28 31 26 33 21 35 22 36 24 38
REMARK H PARENT 9 20 11 22 31 24 28 32 26 34 22 37 24 39
REMARK Flexibility Score: inf
ROOT
ATOM      1  O   UNL     1      15.996  10.833  17.374  1.00  0.00    -0.462 OA
ENDROOT
BRANCH   1   2
ATOM      2  C   UNL     1      15.105  11.920  17.380  1.00  0.00     0.130 A 
ATOM      3  C   UNL     1      14.027  16.146  15.447  1.00  0.00     0.138 A 
ATOM      4  C   UNL     1      12.898  16.305  16.267  1.00  0.00     0.100 A 
ATOM      5  O   UNL     1      14.773  15.050  15.565  1.00  0.00    -0.456 OA
ATOM      6  C   UNL     1      12.581  15.314  17.198  1.00  0.00     0.197 A 
ATOM      7  C   UNL     1      14.512  14.079  16.436  1.00  0.00     0.146 A 
ATOM      8  O   UNL     1      11.568  15.469  17.934  1.00  0.00    -0.289 OA
ATOM      9  C   UNL     1      13.394  14.167  17.298  1.00  0.00     0.107 A 
ATOM     10  C   UNL     1      15.355  12.967  16.490  1.00  0.00     0.094 A 
ATOM     11  C   UNL     1      13.139  13.113  18.205  1.00  0.00     0.134 A 
ATOM     12  C   UNL     1      13.993  12.001  18.241  1.00  0.00     0.093 A 
BRANCH   3  13
ATOM     13  C   UNL     1      14.404  17.162  14.434  1.00  0.00     0.021 A 
ATOM     14  C   UNL     1      13.434  17.876  13.710  1.00  0.00     0.016 A 
ATOM     15  C   UNL     1      13.817  18.827  12.762  1.00  0.00     0.051 A 
ATOM     16  C   UNL     1      15.168  19.090  12.519  1.00  0.00     0.157 A 
ATOM     17  C   UNL     1      15.761  17.438  14.201  1.00  0.00     0.062 A 
ATOM     18  C   UNL     1      16.154  18.391  13.253  1.00  0.00     0.158 A 
BRANCH  16  19
ATOM     19  O   UNL     1      15.484  20.044  11.550  1.00  0.00    -0.504 OA
ATOM     20  H   UNL     1      16.217  19.930  10.864  1.00  0.00     0.293 HD
ENDBRANCH  16  19
BRANCH  18  21
ATOM     21  O   UNL     1      17.522  18.611  13.078  1.00  0.00    -0.504 OA
ATOM     22  H   UNL     1      18.210  18.490  13.807  1.00  0.00     0.293 HD
ENDBRANCH  18  21
ENDBRANCH   3  13
BRANCH  11  23
ATOM     23  O   UNL     1      12.044  13.162  19.069  1.00  0.00    -0.507 OA
ATOM     24  H   UNL     1      12.039  12.669  19.954  1.00  0.00     0.293 HD
ENDBRANCH  11  23
ENDBRANCH   1   2
BRANCH   1  25
ATOM     25  C   UNL     1      16.980  10.517  18.365  1.00  0.00     0.339 C 
ATOM     26  C   UNL     1      16.731   9.152  19.049  1.00  0.00     0.214 C 
ATOM     27  O   UNL     1      18.283  10.607  17.809  1.00  0.00    -0.332 OA
ATOM     28  C   UNL     1      17.053   7.960  18.121  1.00  0.00     0.180 C 
ATOM     29  C   UNL     1      18.593   9.587  16.866  1.00  0.00     0.179 C 
ATOM     30  C   UNL     1      18.409   8.153  17.427  1.00  0.00     0.177 C 
BRANCH  26  31
ATOM     31  O   UNL     1      15.411   9.064  19.518  1.00  0.00    -0.384 OA
ATOM     32  H   UNL     1      15.427   9.332  20.473  1.00  0.00     0.211 HD
ENDBRANCH  26  31
BRANCH  28  33
ATOM     33  O   UNL     1      16.039   7.666  17.185  1.00  0.00    -0.387 OA
ATOM     34  H   UNL     1      16.135   6.733  16.869  1.00  0.00     0.211 HD
ENDBRANCH  28  33
BRANCH  29  35
ATOM     35  C   UNL     1      17.943   9.808  15.483  1.00  0.00     0.191 C 
BRANCH  35  36
ATOM     36  O   UNL     1      18.033  11.158  15.108  1.00  0.00    -0.394 OA
ATOM     37  H   UNL     1      18.351  11.654  15.908  1.00  0.00     0.210 HD
ENDBRANCH  35  36
ENDBRANCH  29  35
BRANCH  30  38
ATOM     38  O   UNL     1      19.427   7.886  18.361  1.00  0.00    -0.387 OA
ATOM     39  H   UNL     1      19.843   7.022  18.103  1.00  0.00     0.211 HD
ENDBRANCH  30  38
ENDBRANCH   1  25
TORSDOF 11
ENDMDL
MODEL 4
REMARK VINA RESULT:    -6.279      3.445      6.320
REMARK INTER + INTRA:         -10.141
REMARK INTER:                  -9.037
REMARK INTRA:                  -1.104
REMARK UNBOUND:                -1.109
REMARK SMILES O=c1cc(-c2ccc(O)c(O)c2)oc2cc(O[C@@H]3O[C@H](CO)[C@@H](O)[C@H](O)[C@@H]3O)cc(O)c12
REMARK SMILES IDX 17 1 16 2 4 3 3 4 13 5 2 6 14 7 1 8 32 9 15 10 30 11 29 12
REMARK SMILES IDX 5 13 6 14 7 15 8 16 12 17 10 18 9 19 11 21 31 23 18 25 27 26
REMARK SMILES IDX 19 27 25 28 20 29 23 30 28 31 26 33 21 35 22 36 24 38
REMARK H PARENT 9 20 11 22 31 24 28 32 26 34 22 37 24 39
REMARK Flexibility Score: inf
ROOT
ATOM      1  O   UNL     1      11.463  17.708  17.690  1.00  0.00    -0.462 OA
ENDROOT
BRANCH   1   2
ATOM      2  C   UNL     1      12.395  17.191  16.775  1.00  0.00     0.130 A 
ATOM      3  C   UNL     1      15.409  13.623  15.803  1.00  0.00     0.138 A 
ATOM      4  C   UNL     1      15.801  14.200  14.585  1.00  0.00     0.100 A 
ATOM      5  O   UNL     1      14.508  14.242  16.562  1.00  0.00    -0.456 OA
ATOM      6  C   UNL     1      15.245  15.419  14.192  1.00  0.00     0.197 A 
ATOM      7  C   UNL     1      13.950  15.404  16.231  1.00  0.00     0.146 A 
ATOM      8  O   UNL     1      15.608  15.933  13.099  1.00  0.00    -0.289 OA
ATOM      9  C   UNL     1      14.294  16.049  15.021  1.00  0.00     0.107 A 
ATOM     10  C   UNL     1      13.014  15.981  17.093  1.00  0.00     0.094 A 
ATOM     11  C   UNL     1      13.675  17.277  14.695  1.00  0.00     0.134 A 
ATOM     12  C   UNL     1      12.733  17.839  15.571  1.00  0.00     0.093 A 
BRANCH   3  13
ATOM     13  C   UNL     1      15.960  12.325  16.264  1.00  0.00     0.021 A 
ATOM     14  C   UNL     1      15.482  11.692  17.424  1.00  0.00     0.016 A 
ATOM     15  C   UNL     1      16.017  10.470  17.835  1.00  0.00     0.051 A 
ATOM     16  C   UNL     1      17.033   9.851  17.100  1.00  0.00     0.157 A 
ATOM     17  C   UNL     1      16.968  11.695  15.517  1.00  0.00     0.062 A 
ATOM     18  C   UNL     1      17.511  10.469  15.921  1.00  0.00     0.158 A 
BRANCH  16  19
ATOM     19  O   UNL     1      17.534   8.637  17.572  1.00  0.00    -0.504 OA
ATOM     20  H   UNL     1      16.957   7.843  17.814  1.00  0.00     0.293 HD
ENDBRANCH  16  19
BRANCH  18  21
ATOM     21  O   UNL     1      18.511   9.905  15.126  1.00  0.00    -0.504 OA
ATOM     22  H   UNL     1      19.445  10.280  15.045  1.00  0.00     0.293 HD
ENDBRANCH  18  21
ENDBRANCH   3  13
BRANCH  11  23
ATOM     23  O   UNL     1      13.986  17.943  13.508  1.00  0.00    -0.507 OA
ATOM     24  H   UNL     1      14.920  17.929  13.116  1.00  0.00     0.293 HD
ENDBRANCH  11  23
ENDBRANCH   1   2
BRANCH   1  25
ATOM     25  C   UNL     1      11.705  18.677  18.716  1.00  0.00     0.339 C 
ATOM     26  C   UNL     1      10.511  19.637  18.932  1.00  0.00     0.214 C 
ATOM     27  O   UNL     1      12.099  18.033  19.918  1.00  0.00    -0.332 OA
ATOM     28  C   UNL     1       9.323  18.950  19.642  1.00  0.00     0.180 C 
ATOM     29  C   UNL     1      11.062  17.297  20.559  1.00  0.00     0.179 C 
ATOM     30  C   UNL     1       9.801  18.146  20.861  1.00  0.00     0.177 C 
BRANCH  26  31
ATOM     31  O   UNL     1      10.095  20.197  17.715  1.00  0.00    -0.384 OA
ATOM     32  H   UNL     1      10.886  20.649  17.322  1.00  0.00     0.211 HD
ENDBRANCH  26  31
BRANCH  28  33
ATOM     33  O   UNL     1       8.521  18.158  18.793  1.00  0.00    -0.387 OA
ATOM     34  H   UNL     1       9.080  17.765  18.077  1.00  0.00     0.211 HD
ENDBRANCH  28  33
BRANCH  29  35
ATOM     35  C   UNL     1      10.760  15.942  19.883  1.00  0.00     0.191 C 
BRANCH  35  36
ATOM     36  O   UNL     1       9.430  15.562  20.118  1.00  0.00    -0.394 OA
ATOM     37  H   UNL     1       8.857  16.247  19.681  1.00  0.00     0.210 HD
ENDBRANCH  35  36
ENDBRANCH  29  35
BRANCH  30  38
ATOM     38  O   UNL     1      10.087  19.048  21.902  1.00  0.00    -0.387 OA
ATOM     39  H   UNL     1      10.647  18.563  22.564  1.00  0.00     0.211 HD
ENDBRANCH  30  38
ENDBRANCH   1  25
TORSDOF 11
ENDMDL
MODEL 5
REMARK VINA RESULT:    -6.253      6.040      9.266
REMARK INTER + INTRA:         -10.103
REMARK INTER:                  -9.033
REMARK INTRA:                  -1.070
REMARK UNBOUND:                -1.109
REMARK SMILES O=c1cc(-c2ccc(O)c(O)c2)oc2cc(O[C@@H]3O[C@H](CO)[C@@H](O)[C@H](O)[C@@H]3O)cc(O)c12
REMARK SMILES IDX 17 1 16 2 4 3 3 4 13 5 2 6 14 7 1 8 32 9 15 10 30 11 29 12
REMARK SMILES IDX 5 13 6 14 7 15 8 16 12 17 10 18 9 19 11 21 31 23 18 25 27 26
REMARK SMILES IDX 19 27 25 28 20 29 23 30 28 31 26 33 21 35 22 36 24 38
REMARK H PARENT 9 20 11 22 31 24 28 32 26 34 22 37 24 39
REMARK Flexibility Score: inf
ROOT
ATOM      1  O   UNL     1      11.870  17.680  21.350  1.00  0.00    -0.462 OA
ENDROOT
BRANCH   1   2
ATOM      2  C   UNL     1      12.344  17.839  22.663  1.00  0.00     0.130 A 
ATOM      3  C   UNL     1      16.153  18.692  25.405  1.00  0.00     0.138 A 
ATOM      4  C   UNL     1      15.399  18.617  26.587  1.00  0.00     0.100 A 
ATOM      5  O   UNL     1      15.551  18.517  24.231  1.00  0.00    -0.456 OA
ATOM      6  C   UNL     1      14.030  18.353  26.513  1.00  0.00     0.197 A 
ATOM      7  C   UNL     1      14.251  18.264  24.109  1.00  0.00     0.146 A 
ATOM      8  O   UNL     1      13.363  18.283  27.580  1.00  0.00    -0.289 OA
ATOM      9  C   UNL     1      13.425  18.171  25.253  1.00  0.00     0.107 A 
ATOM     10  C   UNL     1      13.707  18.091  22.834  1.00  0.00     0.094 A 
ATOM     11  C   UNL     1      12.045  17.911  25.087  1.00  0.00     0.134 A 
ATOM     12  C   UNL     1      11.516  17.747  23.798  1.00  0.00     0.093 A 
BRANCH   3  13
ATOM     13  C   UNL     1      17.609  18.980  25.425  1.00  0.00     0.021 A 
ATOM     14  C   UNL     1      18.399  18.706  26.555  1.00  0.00     0.016 A 
ATOM     15  C   UNL     1      19.766  18.986  26.547  1.00  0.00     0.051 A 
ATOM     16  C   UNL     1      20.376  19.538  25.416  1.00  0.00     0.157 A 
ATOM     17  C   UNL     1      18.224  19.519  24.284  1.00  0.00     0.062 A 
ATOM     18  C   UNL     1      19.596  19.803  24.267  1.00  0.00     0.158 A 
BRANCH  16  19
ATOM     19  O   UNL     1      21.744  19.807  25.478  1.00  0.00    -0.504 OA
ATOM     20  H   UNL     1      22.193  20.280  26.250  1.00  0.00     0.293 HD
ENDBRANCH  16  19
BRANCH  18  21
ATOM     21  O   UNL     1      20.136  20.338  23.096  1.00  0.00    -0.504 OA
ATOM     22  H   UNL     1      20.986  20.882  23.065  1.00  0.00     0.293 HD
ENDBRANCH  18  21
ENDBRANCH   3  13
BRANCH  11  23
ATOM     23  O   UNL     1      11.197  17.817  26.191  1.00  0.00    -0.507 OA
ATOM     24  H   UNL     1      10.820  16.929  26.501  1.00  0.00     0.293 HD
ENDBRANCH  11  23
ENDBRANCH   1   2
BRANCH   1  25
ATOM     25  C   UNL     1      12.225  18.460  20.203  1.00  0.00     0.339 C 
ATOM     26  C   UNL     1      12.026  17.699  18.871  1.00  0.00     0.214 C 
ATOM     27  O   UNL     1      11.533  19.700  20.219  1.00  0.00    -0.332 OA
ATOM     28  C   UNL     1      10.535  17.540  18.499  1.00  0.00     0.180 C 
ATOM     29  C   UNL     1      10.133  19.596  19.983  1.00  0.00     0.179 C 
ATOM     30  C   UNL     1       9.783  18.869  18.659  1.00  0.00     0.177 C 
BRANCH  26  31
ATOM     31  O   UNL     1      12.655  16.445  18.916  1.00  0.00    -0.384 OA
ATOM     32  H   UNL     1      12.463  16.059  19.809  1.00  0.00     0.211 HD
ENDBRANCH  26  31
BRANCH  28  33
ATOM     33  O   UNL     1       9.876  16.496  19.183  1.00  0.00    -0.387 OA
ATOM     34  H   UNL     1       9.932  16.650  20.159  1.00  0.00     0.211 HD
ENDBRANCH  28  33
BRANCH  29  35
ATOM     35  C   UNL     1       9.338  19.090  21.207  1.00  0.00     0.191 C 
BRANCH  35  36
ATOM     36  O   UNL     1       8.164  18.441  20.795  1.00  0.00    -0.394 OA
ATOM     37  H   UNL     1       8.368  18.012  19.922  1.00  0.00     0.210 HD
ENDBRANCH  35  36
ENDBRANCH  29  35
BRANCH  30  38
ATOM     38  O   UNL     1      10.114  19.700  17.572  1.00  0.00    -0.387 OA
ATOM     39  H   UNL     1       9.345  20.310  17.425  1.00  0.00     0.211 HD
ENDBRANCH  30  38
ENDBRANCH   1  25
TORSDOF 11
ENDMDL
MODEL 6
REMARK VINA RESULT:    -6.238      5.698      7.886
REMARK INTER + INTRA:         -10.082
REMARK INTER:                  -9.027
REMARK INTRA:                  -1.055
REMARK UNBOUND:                -1.109
REMARK SMILES O=c1cc(-c2ccc(O)c(O)c2)oc2cc(O[C@@H]3O[C@H](CO)[C@@H](O)[C@H](O)[C@@H]3O)cc(O)c12
REMARK SMILES IDX 17 1 16 2 4 3 3 4 13 5 2 6 14 7 1 8 32 9 15 10 30 11 29 12
REMARK SMILES IDX 5 13 6 14 7 15 8 16 12 17 10 18 9 19 11 21 31 23 18 25 27 26
REMARK SMILES IDX 19 27 25 28 20 29 23 30 28 31 26 33 21 35 22 36 24 38
REMARK H PARENT 9 20 11 22 31 24 28 32 26 34 22 37 24 39
REMARK Flexibility Score: inf
ROOT
ATOM      1  O   UNL     1      16.649  11.153  16.750  1.00  0.00    -0.462 OA
ENDROOT
BRANCH   1   2
ATOM      2  C   UNL     1      16.985  11.811  15.554  1.00  0.00     0.130 A 
ATOM      3  C   UNL     1      16.643  15.855  13.047  1.00  0.00     0.138 A 
ATOM      4  C   UNL     1      17.382  15.329  11.975  1.00  0.00     0.100 A 
ATOM      5  O   UNL     1      16.410  15.098  14.117  1.00  0.00    -0.456 OA
ATOM      6  C   UNL     1      17.853  14.016  12.045  1.00  0.00     0.197 A 
ATOM      7  C   UNL     1      16.837  13.844  14.230  1.00  0.00     0.146 A 
ATOM      8  O   UNL     1      18.511  13.550  11.075  1.00  0.00    -0.289 OA
ATOM      9  C   UNL     1      17.586  13.242  13.193  1.00  0.00     0.107 A 
ATOM     10  C   UNL     1      16.541  13.124  15.391  1.00  0.00     0.094 A 
ATOM     11  C   UNL     1      18.034  11.910  13.350  1.00  0.00     0.134 A 
ATOM     12  C   UNL     1      17.731  11.206  14.525  1.00  0.00     0.093 A 
BRANCH   3  13
ATOM     13  C   UNL     1      16.127  17.246  13.030  1.00  0.00     0.021 A 
ATOM     14  C   UNL     1      16.948  18.340  13.353  1.00  0.00     0.016 A 
ATOM     15  C   UNL     1      16.437  19.639  13.329  1.00  0.00     0.051 A 
ATOM     16  C   UNL     1      15.105  19.877  12.978  1.00  0.00     0.157 A 
ATOM     17  C   UNL     1      14.794  17.486  12.662  1.00  0.00     0.062 A 
ATOM     18  C   UNL     1      14.273  18.786  12.634  1.00  0.00     0.158 A 
BRANCH  16  19
ATOM     19  O   UNL     1      14.653  21.198  12.986  1.00  0.00    -0.504 OA
ATOM     20  H   UNL     1      14.693  21.813  12.185  1.00  0.00     0.293 HD
ENDBRANCH  16  19
BRANCH  18  21
ATOM     21  O   UNL     1      12.937  18.946  12.258  1.00  0.00    -0.504 OA
ATOM     22  H   UNL     1      12.154  18.700  12.846  1.00  0.00     0.293 HD
ENDBRANCH  18  21
ENDBRANCH   3  13
BRANCH  11  23
ATOM     23  O   UNL     1      18.779  11.283  12.350  1.00  0.00    -0.507 OA
ATOM     24  H   UNL     1      19.048  10.308  12.416  1.00  0.00     0.293 HD
ENDBRANCH  11  23
ENDBRANCH   1   2
BRANCH   1  25
ATOM     25  C   UNL     1      17.411  11.121  17.961  1.00  0.00     0.339 C 
ATOM     26  C   UNL     1      16.527  11.044  19.228  1.00  0.00     0.214 C 
ATOM     27  O   UNL     1      18.369  10.074  17.912  1.00  0.00    -0.332 OA
ATOM     28  C   UNL     1      15.880   9.653  19.412  1.00  0.00     0.180 C 
ATOM     29  C   UNL     1      17.813   8.765  17.974  1.00  0.00     0.179 C 
ATOM     30  C   UNL     1      16.914   8.535  19.216  1.00  0.00     0.177 C 
BRANCH  26  31
ATOM     31  O   UNL     1      15.542  12.043  19.209  1.00  0.00    -0.384 OA
ATOM     32  H   UNL     1      14.787  11.712  19.759  1.00  0.00     0.211 HD
ENDBRANCH  26  31
BRANCH  28  33
ATOM     33  O   UNL     1      14.738   9.437  18.613  1.00  0.00    -0.387 OA
ATOM     34  H   UNL     1      14.150   8.766  19.043  1.00  0.00     0.211 HD
ENDBRANCH  28  33
BRANCH  29  35
ATOM     35  C   UNL     1      17.177   8.302  16.645  1.00  0.00     0.191 C 
BRANCH  35  36
ATOM     36  O   UNL     1      16.153   7.374  16.887  1.00  0.00    -0.394 OA
ATOM     37  H   UNL     1      16.558   6.635  17.414  1.00  0.00     0.210 HD
ENDBRANCH  35  36
ENDBRANCH  29  35
BRANCH  30  38
ATOM     38  O   UNL     1      17.721   8.471  20.367  1.00  0.00    -0.387 OA
ATOM     39  H   UNL     1      17.336   9.101  21.030  1.00  0.00     0.211 HD
ENDBRANCH  30  38
ENDBRANCH   1  25
TORSDOF 11
ENDMDL
MODEL 7
REMARK VINA RESULT:    -6.121      3.691      9.254
REMARK INTER + INTRA:          -9.913
REMARK INTER:                  -8.997
REMARK INTRA:                  -0.917
REMARK UNBOUND:                -1.109
REMARK SMILES O=c1cc(-c2ccc(O)c(O)c2)oc2cc(O[C@@H]3O[C@H](CO)[C@@H](O)[C@H](O)[C@@H]3O)cc(O)c12
REMARK SMILES IDX 17 1 16 2 4 3 3 4 13 5 2 6 14 7 1 8 32 9 15 10 30 11 29 12
REMARK SMILES IDX 5 13 6 14 7 15 8 16 12 17 10 18 9 19 11 21 31 23 18 25 27 26
REMARK SMILES IDX 19 27 25 28 20 29 23 30 28 31 26 33 21 35 22 36 24 38
REMARK H PARENT 9 20 11 22 31 24 28 32 26 34 22 37 24 39
REMARK Flexibility Score: inf
ROOT
ATOM      1  O   UNL     1      16.992  14.145  13.956  1.00  0.00    -0.462 OA
ENDROOT
BRANCH   1   2
ATOM      2  C   UNL     1      16.253  13.755  15.086  1.00  0.00     0.130 A 
ATOM      3  C   UNL     1      12.659  14.858  18.022  1.00  0.00     0.138 A 
ATOM      4  C   UNL     1      12.852  13.703  18.797  1.00  0.00     0.100 A 
ATOM      5  O   UNL     1      13.448  15.085  16.975  1.00  0.00    -0.456 OA
ATOM      6  C   UNL     1      13.876  12.815  18.462  1.00  0.00     0.197 A 
ATOM      7  C   UNL     1      14.436  14.269  16.616  1.00  0.00     0.146 A 
ATOM      8  O   UNL     1      14.046  11.784  19.167  1.00  0.00    -0.289 OA
ATOM      9  C   UNL     1      14.696  13.088  17.347  1.00  0.00     0.107 A 
ATOM     10  C   UNL     1      15.217  14.592  15.503  1.00  0.00     0.094 A 
ATOM     11  C   UNL     1      15.747  12.238  16.933  1.00  0.00     0.134 A 
ATOM     12  C   UNL     1      16.516  12.576  15.809  1.00  0.00     0.093 A 
BRANCH   3  13
ATOM     13  C   UNL     1      11.579  15.830  18.326  1.00  0.00     0.021 A 
ATOM     14  C   UNL     1      10.584  15.551  19.279  1.00  0.00     0.016 A 
ATOM     15  C   UNL     1       9.580  16.484  19.546  1.00  0.00     0.051 A 
ATOM     16  C   UNL     1       9.549  17.712  18.878  1.00  0.00     0.157 A 
ATOM     17  C   UNL     1      11.557  17.069  17.668  1.00  0.00     0.062 A 
ATOM     18  C   UNL     1      10.555  18.012  17.930  1.00  0.00     0.158 A 
BRANCH  16  19
ATOM     19  O   UNL     1       8.511  18.594  19.183  1.00  0.00    -0.504 OA
ATOM     20  H   UNL     1       7.632  18.312  19.593  1.00  0.00     0.293 HD
ENDBRANCH  16  19
BRANCH  18  21
ATOM     21  O   UNL     1      10.599  19.222  17.235  1.00  0.00    -0.504 OA
ATOM     22  H   UNL     1      10.854  20.104  17.656  1.00  0.00     0.293 HD
ENDBRANCH  18  21
ENDBRANCH   3  13
BRANCH  11  23
ATOM     23  O   UNL     1      16.031  11.060  17.627  1.00  0.00    -0.507 OA
ATOM     24  H   UNL     1      16.832  10.983  18.242  1.00  0.00     0.293 HD
ENDBRANCH  11  23
ENDBRANCH   1   2
BRANCH   1  25
ATOM     25  C   UNL     1      18.368  14.536  13.917  1.00  0.00     0.339 C 
ATOM     26  C   UNL     1      19.175  13.794  12.825  1.00  0.00     0.214 C 
ATOM     27  O   UNL     1      18.475  15.947  13.796  1.00  0.00    -0.332 OA
ATOM     28  C   UNL     1      18.831  14.285  11.401  1.00  0.00     0.180 C 
ATOM     29  C   UNL     1      18.070  16.461  12.532  1.00  0.00     0.179 C 
ATOM     30  C   UNL     1      18.820  15.819  11.336  1.00  0.00     0.177 C 
BRANCH  26  31
ATOM     31  O   UNL     1      18.986  12.407  12.923  1.00  0.00    -0.384 OA
ATOM     32  H   UNL     1      19.677  11.982  12.353  1.00  0.00     0.211 HD
ENDBRANCH  26  31
BRANCH  28  33
ATOM     33  O   UNL     1      17.639  13.743  10.875  1.00  0.00    -0.387 OA
ATOM     34  H   UNL     1      17.761  12.778  10.695  1.00  0.00     0.211 HD
ENDBRANCH  28  33
BRANCH  29  35
ATOM     35  C   UNL     1      16.537  16.520  12.353  1.00  0.00     0.191 C 
BRANCH  35  36
ATOM     36  O   UNL     1      16.165  17.705  11.698  1.00  0.00    -0.394 OA
ATOM     37  H   UNL     1      16.659  18.443  12.143  1.00  0.00     0.210 HD
ENDBRANCH  35  36
ENDBRANCH  29  35
BRANCH  30  38
ATOM     38  O   UNL     1      20.152  16.273  11.326  1.00  0.00    -0.387 OA
ATOM     39  H   UNL     1      20.272  16.847  12.127  1.00  0.00     0.211 HD
ENDBRANCH  30  38
ENDBRANCH   1  25
TORSDOF 11
ENDMDL
MODEL 8
REMARK VINA RESULT:    -6.108      6.086     10.998
REMARK INTER + INTRA:          -9.895
REMARK INTER:                  -8.847
REMARK INTRA:                  -1.047
REMARK UNBOUND:                -1.109
REMARK SMILES O=c1cc(-c2ccc(O)c(O)c2)oc2cc(O[C@@H]3O[C@H](CO)[C@@H](O)[C@H](O)[C@@H]3O)cc(O)c12
REMARK SMILES IDX 17 1 16 2 4 3 3 4 13 5 2 6 14 7 1 8 32 9 15 10 30 11 29 12
REMARK SMILES IDX 5 13 6 14 7 15 8 16 12 17 10 18 9 19 11 21 31 23 18 25 27 26
REMARK SMILES IDX 19 27 25 28 20 29 23 30 28 31 26 33 21 35 22 36 24 38
REMARK H PARENT 9 20 11 22 31 24 28 32 26 34 22 37 24 39
REMARK Flexibility Score: inf
ROOT
ATOM      1  O   UNL     1      16.789  14.515  13.848  1.00  0.00    -0.462 OA
ENDROOT
BRANCH   1   2
ATOM      2  C   UNL     1      16.040  13.926  14.881  1.00  0.00     0.130 A 
ATOM      3  C   UNL     1      15.826  10.390  18.075  1.00  0.00     0.138 A 
ATOM      4  C   UNL     1      14.587  10.825  18.570  1.00  0.00     0.100 A 
ATOM      5  O   UNL     1      16.411  11.062  17.086  1.00  0.00    -0.456 OA
ATOM      6  C   UNL     1      13.983  11.954  18.012  1.00  0.00     0.197 A 
ATOM      7  C   UNL     1      15.875  12.142  16.523  1.00  0.00     0.146 A 
ATOM      8  O   UNL     1      12.867  12.334  18.460  1.00  0.00    -0.289 OA
ATOM      9  C   UNL     1      14.629  12.642  16.965  1.00  0.00     0.107 A 
ATOM     10  C   UNL     1      16.561  12.782  15.487  1.00  0.00     0.094 A 
ATOM     11  C   UNL     1      14.093  13.797  16.351  1.00  0.00     0.134 A 
ATOM     12  C   UNL     1      14.800  14.430  15.317  1.00  0.00     0.093 A 
BRANCH   3  13
ATOM     13  C   UNL     1      16.518   9.203  18.638  1.00  0.00     0.021 A 
ATOM     14  C   UNL     1      15.844   8.274  19.449  1.00  0.00     0.016 A 
ATOM     15  C   UNL     1      16.518   7.166  19.965  1.00  0.00     0.051 A 
ATOM     16  C   UNL     1      17.871   6.957  19.681  1.00  0.00     0.157 A 
ATOM     17  C   UNL     1      17.872   8.984  18.340  1.00  0.00     0.062 A 
ATOM     18  C   UNL     1      18.556   7.875  18.852  1.00  0.00     0.158 A 
BRANCH  16  19
ATOM     19  O   UNL     1      18.490   5.837  20.239  1.00  0.00    -0.504 OA
ATOM     20  H   UNL     1      19.027   5.165  19.708  1.00  0.00     0.293 HD
ENDBRANCH  16  19
BRANCH  18  21
ATOM     21  O   UNL     1      19.903   7.725  18.512  1.00  0.00    -0.504 OA
ATOM     22  H   UNL     1      20.612   7.395  19.151  1.00  0.00     0.293 HD
ENDBRANCH  18  21
ENDBRANCH   3  13
BRANCH  11  23
ATOM     23  O   UNL     1      12.867  14.323  16.762  1.00  0.00    -0.507 OA
ATOM     24  H   UNL     1      12.349  14.980  16.191  1.00  0.00     0.293 HD
ENDBRANCH  11  23
ENDBRANCH   1   2
BRANCH   1  25
ATOM     25  C   UNL     1      18.162  14.917  13.898  1.00  0.00     0.339 C 
ATOM     26  C   UNL     1      19.064  14.103  12.941  1.00  0.00     0.214 C 
ATOM     27  O   UNL     1      18.274  16.316  13.678  1.00  0.00    -0.332 OA
ATOM     28  C   UNL     1      18.843  14.479  11.458  1.00  0.00     0.180 C 
ATOM     29  C   UNL     1      17.977  16.728  12.348  1.00  0.00     0.179 C 
ATOM     30  C   UNL     1      18.831  16.004  11.274  1.00  0.00     0.177 C 
BRANCH  26  31
ATOM     31  O   UNL     1      18.874  12.725  13.129  1.00  0.00    -0.384 OA
ATOM     32  H   UNL     1      19.355  12.266  12.394  1.00  0.00     0.211 HD
ENDBRANCH  26  31
BRANCH  28  33
ATOM     33  O   UNL     1      17.704  13.886  10.875  1.00  0.00    -0.387 OA
ATOM     34  H   UNL     1      17.907  12.952  10.620  1.00  0.00     0.211 HD
ENDBRANCH  28  33
BRANCH  29  35
ATOM     35  C   UNL     1      16.466  16.756  12.034  1.00  0.00     0.191 C 
BRANCH  35  36
ATOM     36  O   UNL     1      15.730  17.065  13.188  1.00  0.00    -0.394 OA
ATOM     37  H   UNL     1      16.363  17.009  13.952  1.00  0.00     0.210 HD
ENDBRANCH  35  36
ENDBRANCH  29  35
BRANCH  30  38
ATOM     38  O   UNL     1      20.157  16.470  11.344  1.00  0.00    -0.387 OA
ATOM     39  H   UNL     1      20.607  16.202  10.501  1.00  0.00     0.211 HD
ENDBRANCH  30  38
ENDBRANCH   1  25
TORSDOF 11
ENDMDL
MODEL 9
REMARK VINA RESULT:    -6.034      6.926      8.944
REMARK INTER + INTRA:          -9.789
REMARK INTER:                  -8.726
REMARK INTRA:                  -1.062
REMARK UNBOUND:                -1.109
REMARK SMILES O=c1cc(-c2ccc(O)c(O)c2)oc2cc(O[C@@H]3O[C@H](CO)[C@@H](O)[C@H](O)[C@@H]3O)cc(O)c12
REMARK SMILES IDX 17 1 16 2 4 3 3 4 13 5 2 6 14 7 1 8 32 9 15 10 30 11 29 12
REMARK SMILES IDX 5 13 6 14 7 15 8 16 12 17 10 18 9 19 11 21 31 23 18 25 27 26
REMARK SMILES IDX 19 27 25 28 20 29 23 30 28 31 26 33 21 35 22 36 24 38
REMARK H PARENT 9 20 11 22 31 24 28 32 26 34 22 37 24 39
REMARK Flexibility Score: inf
ROOT
ATOM      1  O   UNL     1      16.537   9.198  19.119  1.00  0.00    -0.462 OA
ENDROOT
BRANCH   1   2
ATOM      2  C   UNL     1      15.780  10.215  18.514  1.00  0.00     0.130 A 
ATOM      3  C   UNL     1      15.795  13.817  15.388  1.00  0.00     0.138 A 
ATOM      4  C   UNL     1      14.444  14.114  15.624  1.00  0.00     0.100 A 
ATOM      5  O   UNL     1      16.372  12.814  16.045  1.00  0.00    -0.456 OA
ATOM      6  C   UNL     1      13.727  13.356  16.553  1.00  0.00     0.197 A 
ATOM      7  C   UNL     1      15.731  12.064  16.938  1.00  0.00     0.146 A 
ATOM      8  O   UNL     1      12.515  13.634  16.763  1.00  0.00    -0.289 OA
ATOM      9  C   UNL     1      14.369  12.302  17.234  1.00  0.00     0.107 A 
ATOM     10  C   UNL     1      16.420  11.033  17.583  1.00  0.00     0.094 A 
ATOM     11  C   UNL     1      13.716  11.480  18.180  1.00  0.00     0.134 A 
ATOM     12  C   UNL     1      14.423  10.446  18.812  1.00  0.00     0.093 A 
BRANCH   3  13
ATOM     13  C   UNL     1      16.601  14.583  14.405  1.00  0.00     0.021 A 
ATOM     14  C   UNL     1      17.229  15.793  14.749  1.00  0.00     0.016 A 
ATOM     15  C   UNL     1      17.982  16.493  13.805  1.00  0.00     0.051 A 
ATOM     16  C   UNL     1      18.131  16.003  12.504  1.00  0.00     0.157 A 
ATOM     17  C   UNL     1      16.764  14.084  13.103  1.00  0.00     0.062 A 
ATOM     18  C   UNL     1      17.519  14.779  12.149  1.00  0.00     0.158 A 
BRANCH  16  19
ATOM     19  O   UNL     1      18.885  16.758  11.605  1.00  0.00    -0.504 OA
ATOM     20  H   UNL     1      19.819  17.095  11.794  1.00  0.00     0.293 HD
ENDBRANCH  16  19
BRANCH  18  21
ATOM     21  O   UNL     1      17.635  14.219  10.875  1.00  0.00    -0.504 OA
ATOM     22  H   UNL     1      18.496  14.193  10.348  1.00  0.00     0.293 HD
ENDBRANCH  18  21
ENDBRANCH   3  13
BRANCH  11  23
ATOM     23  O   UNL     1      12.371  11.680  18.495  1.00  0.00    -0.507 OA
ATOM     24  H   UNL     1      11.659  11.750  17.778  1.00  0.00     0.293 HD
ENDBRANCH  11  23
ENDBRANCH   1   2
BRANCH   1  25
ATOM     25  C   UNL     1      16.236   8.500  20.332  1.00  0.00     0.339 C 
ATOM     26  C   UNL     1      16.609   7.000  20.274  1.00  0.00     0.214 C 
ATOM     27  O   UNL     1      16.834   9.158  21.439  1.00  0.00    -0.332 OA
ATOM     28  C   UNL     1      18.135   6.769  20.335  1.00  0.00     0.180 C 
ATOM     29  C   UNL     1      18.253   9.062  21.484  1.00  0.00     0.179 C 
ATOM     30  C   UNL     1      18.774   7.602  21.456  1.00  0.00     0.177 C 
BRANCH  26  31
ATOM     31  O   UNL     1      16.068   6.396  19.128  1.00  0.00    -0.384 OA
ATOM     32  H   UNL     1      15.095   6.295  19.289  1.00  0.00     0.211 HD
ENDBRANCH  26  31
BRANCH  28  33
ATOM     33  O   UNL     1      18.800   6.972  19.107  1.00  0.00    -0.387 OA
ATOM     34  H   UNL     1      18.147   6.938  18.364  1.00  0.00     0.211 HD
ENDBRANCH  28  33
BRANCH  29  35
ATOM     35  C   UNL     1      18.966  10.002  20.487  1.00  0.00     0.191 C 
BRANCH  35  36
ATOM     36  O   UNL     1      20.220   9.480  20.130  1.00  0.00    -0.394 OA
ATOM     37  H   UNL     1      20.055   8.808  19.417  1.00  0.00     0.210 HD
ENDBRANCH  35  36
ENDBRANCH  29  35
BRANCH  30  38
ATOM     38  O   UNL     1      18.486   6.984  22.687  1.00  0.00    -0.387 OA
ATOM     39  H   UNL     1      17.624   6.503  22.579  1.00  0.00     0.211 HD
ENDBRANCH  30  38
ENDBRANCH   1  25
TORSDOF 11
ENDMDL
