MODEL 1
REMARK VINA RESULT:    -3.785      0.000      0.000
REMARK INTER + INTRA:          -7.382
REMARK INTER:                  -6.441
REMARK INTRA:                  -0.941
REMARK UNBOUND:                -0.941
REMARK SMILES CCCCCCCCCCCCCC(=O)[O-]
REMARK SMILES IDX 8 1 9 2 10 3 11 4 12 5 13 6 14 7 15 8 16 9 7 10 6 11 5 12
REMARK SMILES IDX 4 13 3 14 2 15 1 16
REMARK H PARENT
REMARK Flexibility Score: inf
ROOT
ATOM      1  C   UNL     1     -45.257 -27.162   0.634  1.00  0.00     0.000 C 
ENDROOT
BRANCH   1   2
ATOM      2  C   UNL     1     -43.773 -27.122   0.227  1.00  0.00     0.000 C 
BRANCH   2   3
ATOM      3  C   UNL     1     -43.283 -28.445  -0.378  1.00  0.00     0.000 C 
BRANCH   3   4
ATOM      4  C   UNL     1     -44.402 -29.497  -0.380  1.00  0.00     0.000 C 
BRANCH   4   5
ATOM      5  C   UNL     1     -44.843 -29.888  -1.806  1.00  0.00     0.006 C 
BRANCH   5   6
ATOM      6  C   UNL     1     -46.158 -29.225  -2.245  1.00  0.00     0.053 C 
BRANCH   6   7
ATOM      7  C   UNL     1     -45.946 -28.156  -3.273  1.00  0.00     0.041 C 
ATOM      8  O   UNL     1     -46.540 -28.215  -4.381  1.00  0.00    -0.550 OA
ATOM      9  O   UNL     1     -45.073 -27.107  -3.014  1.00  0.00    -0.550 OA
ENDBRANCH   6   7
ENDBRANCH   5   6
ENDBRANCH   4   5
ENDBRANCH   3   4
ENDBRANCH   2   3
ENDBRANCH   1   2
BRANCH   1  10
ATOM     10  C   UNL     1     -45.728 -25.987   1.515  1.00  0.00     0.000 C 
BRANCH  10  11
ATOM     11  C   UNL     1     -46.609 -26.375   2.716  1.00  0.00    -0.000 C 
BRANCH  11  12
ATOM     12  C   UNL     1     -46.381 -27.826   3.176  1.00  0.00    -0.000 C 
BRANCH  12  13
ATOM     13  C   UNL     1     -46.568 -28.006   4.691  1.00  0.00    -0.000 C 
BRANCH  13  14
ATOM     14  C   UNL     1     -45.548 -28.942   5.369  1.00  0.00    -0.000 C 
BRANCH  14  15
ATOM     15  C   UNL     1     -45.195 -28.535   6.815  1.00  0.00    -0.003 C 
ATOM     16  C   UNL     1     -45.293 -27.026   7.039  1.00  0.00     0.004 C 
ENDBRANCH  14  15
ENDBRANCH  13  14
ENDBRANCH  12  13
ENDBRANCH  11  12
ENDBRANCH  10  11
ENDBRANCH   1  10
TORSDOF 12
ENDMDL
MODEL 2
REMARK VINA RESULT:    -3.557      4.124      6.381
REMARK INTER + INTRA:          -6.994
REMARK INTER:                  -6.356
REMARK INTRA:                  -0.638
REMARK UNBOUND:                -0.941
REMARK SMILES CCCCCCCCCCCCCC(=O)[O-]
REMARK SMILES IDX 8 1 9 2 10 3 11 4 12 5 13 6 14 7 15 8 16 9 7 10 6 11 5 12
REMARK SMILES IDX 4 13 3 14 2 15 1 16
REMARK H PARENT
REMARK Flexibility Score: inf
ROOT
ATOM      1  C   UNL     1     -45.698 -29.154  -4.326  1.00  0.00     0.000 C 
ENDROOT
BRANCH   1   2
ATOM      2  C   UNL     1     -45.549 -27.729  -4.888  1.00  0.00     0.000 C 
BRANCH   2   3
ATOM      3  C   UNL     1     -46.152 -27.573  -6.292  1.00  0.00     0.000 C 
BRANCH   3   4
ATOM      4  C   UNL     1     -45.050 -27.495  -7.358  1.00  0.00     0.000 C 
BRANCH   4   5
ATOM      5  C   UNL     1     -44.591 -28.887  -7.836  1.00  0.00     0.006 C 
BRANCH   5   6
ATOM      6  C   UNL     1     -43.560 -28.836  -8.976  1.00  0.00     0.053 C 
BRANCH   6   7
ATOM      7  C   UNL     1     -42.154 -28.992  -8.483  1.00  0.00     0.041 C 
ATOM      8  O   UNL     1     -41.350 -29.746  -9.092  1.00  0.00    -0.550 OA
ATOM      9  O   UNL     1     -41.740 -28.323  -7.339  1.00  0.00    -0.550 OA
ENDBRANCH   6   7
ENDBRANCH   5   6
ENDBRANCH   4   5
ENDBRANCH   3   4
ENDBRANCH   2   3
ENDBRANCH   1   2
BRANCH   1  10
ATOM     10  C   UNL     1     -45.596 -29.268  -2.791  1.00  0.00     0.000 C 
BRANCH  10  11
ATOM     11  C   UNL     1     -45.392 -27.937  -2.044  1.00  0.00    -0.000 C 
BRANCH  11  12
ATOM     12  C   UNL     1     -45.369 -28.111  -0.515  1.00  0.00    -0.000 C 
BRANCH  12  13
ATOM     13  C   UNL     1     -43.976 -28.478   0.020  1.00  0.00    -0.000 C 
BRANCH  13  14
ATOM     14  C   UNL     1     -42.829 -27.570  -0.464  1.00  0.00    -0.000 C 
BRANCH  14  15
ATOM     15  C   UNL     1     -41.427 -28.193  -0.295  1.00  0.00    -0.003 C 
ATOM     16  C   UNL     1     -41.476 -29.716  -0.165  1.00  0.00     0.004 C 
ENDBRANCH  14  15
ENDBRANCH  13  14
ENDBRANCH  12  13
ENDBRANCH  11  12
ENDBRANCH  10  11
ENDBRANCH   1  10
TORSDOF 12
ENDMDL
MODEL 3
REMARK VINA RESULT:    -3.552      1.101      1.819
REMARK INTER + INTRA:          -6.986
REMARK INTER:                  -6.329
REMARK INTRA:                  -0.656
REMARK UNBOUND:                -0.941
REMARK SMILES CCCCCCCCCCCCCC(=O)[O-]
REMARK SMILES IDX 8 1 9 2 10 3 11 4 12 5 13 6 14 7 15 8 16 9 7 10 6 11 5 12
REMARK SMILES IDX 4 13 3 14 2 15 1 16
REMARK H PARENT
REMARK Flexibility Score: inf
ROOT
ATOM      1  C   UNL     1     -44.234 -27.138   0.316  1.00  0.00     0.000 C 
ENDROOT
BRANCH   1   2
ATOM      2  C   UNL     1     -44.291 -27.839  -1.052  1.00  0.00     0.000 C 
BRANCH   2   3
ATOM      3  C   UNL     1     -44.403 -29.367  -0.938  1.00  0.00     0.000 C 
BRANCH   3   4
ATOM      4  C   UNL     1     -45.596 -29.893  -1.750  1.00  0.00     0.000 C 
BRANCH   4   5
ATOM      5  C   UNL     1     -46.186 -28.825  -2.693  1.00  0.00     0.006 C 
BRANCH   5   6
ATOM      6  C   UNL     1     -45.870 -29.074  -4.177  1.00  0.00     0.053 C 
BRANCH   6   7
ATOM      7  C   UNL     1     -45.558 -27.809  -4.916  1.00  0.00     0.041 C 
ATOM      8  O   UNL     1     -45.149 -26.795  -4.292  1.00  0.00    -0.550 OA
ATOM      9  O   UNL     1     -45.741 -27.744  -6.291  1.00  0.00    -0.550 OA
ENDBRANCH   6   7
ENDBRANCH   5   6
ENDBRANCH   4   5
ENDBRANCH   3   4
ENDBRANCH   2   3
ENDBRANCH   1   2
BRANCH   1  10
ATOM     10  C   UNL     1     -45.457 -27.376   1.227  1.00  0.00     0.000 C 
BRANCH  10  11
ATOM     11  C   UNL     1     -45.911 -26.157   2.050  1.00  0.00    -0.000 C 
BRANCH  11  12
ATOM     12  C   UNL     1     -46.904 -26.530   3.166  1.00  0.00    -0.000 C 
BRANCH  12  13
ATOM     13  C   UNL     1     -46.227 -27.231   4.355  1.00  0.00    -0.000 C 
BRANCH  13  14
ATOM     14  C   UNL     1     -46.306 -26.470   5.693  1.00  0.00    -0.000 C 
BRANCH  14  15
ATOM     15  C   UNL     1     -45.445 -27.090   6.813  1.00  0.00    -0.003 C 
ATOM     16  C   UNL     1     -45.202 -28.584   6.604  1.00  0.00     0.004 C 
ENDBRANCH  14  15
ENDBRANCH  13  14
ENDBRANCH  12  13
ENDBRANCH  11  12
ENDBRANCH  10  11
ENDBRANCH   1  10
TORSDOF 12
ENDMDL
MODEL 4
REMARK VINA RESULT:    -3.478      4.302      7.225
REMARK INTER + INTRA:          -6.859
REMARK INTER:                  -5.978
REMARK INTRA:                  -0.881
REMARK UNBOUND:                -0.941
REMARK SMILES CCCCCCCCCCCCCC(=O)[O-]
REMARK SMILES IDX 8 1 9 2 10 3 11 4 12 5 13 6 14 7 15 8 16 9 7 10 6 11 5 12
REMARK SMILES IDX 4 13 3 14 2 15 1 16
REMARK H PARENT
REMARK Flexibility Score: inf
ROOT
ATOM      1  C   UNL     1     -45.914 -26.619   0.896  1.00  0.00     0.000 C 
ENDROOT
BRANCH   1   2
ATOM      2  C   UNL     1     -45.930 -26.284   2.398  1.00  0.00     0.000 C 
BRANCH   2   3
ATOM      3  C   UNL     1     -46.899 -27.168   3.197  1.00  0.00     0.000 C 
BRANCH   3   4
ATOM      4  C   UNL     1     -46.154 -28.330   3.869  1.00  0.00     0.000 C 
BRANCH   4   5
ATOM      5  C   UNL     1     -46.161 -28.226   5.408  1.00  0.00     0.006 C 
BRANCH   5   6
ATOM      6  C   UNL     1     -45.893 -26.805   5.929  1.00  0.00     0.053 C 
BRANCH   6   7
ATOM      7  C   UNL     1     -46.381 -26.607   7.331  1.00  0.00     0.041 C 
ATOM      8  O   UNL     1     -46.311 -25.472   7.872  1.00  0.00    -0.550 OA
ATOM      9  O   UNL     1     -46.891 -27.682   8.048  1.00  0.00    -0.550 OA
ENDBRANCH   6   7
ENDBRANCH   5   6
ENDBRANCH   4   5
ENDBRANCH   3   4
ENDBRANCH   2   3
ENDBRANCH   1   2
BRANCH   1  10
ATOM     10  C   UNL     1     -47.079 -27.505   0.408  1.00  0.00     0.000 C 
BRANCH  10  11
ATOM     11  C   UNL     1     -46.923 -28.073  -1.014  1.00  0.00    -0.000 C 
BRANCH  11  12
ATOM     12  C   UNL     1     -45.451 -28.243  -1.429  1.00  0.00    -0.000 C 
BRANCH  12  13
ATOM     13  C   UNL     1     -44.855 -29.583  -0.970  1.00  0.00    -0.000 C 
BRANCH  13  14
ATOM     14  C   UNL     1     -43.455 -29.491  -0.332  1.00  0.00    -0.000 C 
BRANCH  14  15
ATOM     15  C   UNL     1     -42.847 -28.073  -0.366  1.00  0.00    -0.003 C 
ATOM     16  C   UNL     1     -41.323 -28.087  -0.245  1.00  0.00     0.004 C 
ENDBRANCH  14  15
ENDBRANCH  13  14
ENDBRANCH  12  13
ENDBRANCH  11  12
ENDBRANCH  10  11
ENDBRANCH   1  10
TORSDOF 12
ENDMDL
MODEL 5
REMARK VINA RESULT:    -3.471      3.956      7.773
REMARK INTER + INTRA:          -6.846
REMARK INTER:                  -5.940
REMARK INTRA:                  -0.907
REMARK UNBOUND:                -0.941
REMARK SMILES CCCCCCCCCCCCCC(=O)[O-]
REMARK SMILES IDX 8 1 9 2 10 3 11 4 12 5 13 6 14 7 15 8 16 9 7 10 6 11 5 12
REMARK SMILES IDX 4 13 3 14 2 15 1 16
REMARK H PARENT
REMARK Flexibility Score: inf
ROOT
ATOM      1  C   UNL     1     -44.820 -26.379   1.144  1.00  0.00     0.000 C 
ENDROOT
BRANCH   1   2
ATOM      2  C   UNL     1     -46.348 -26.561   1.178  1.00  0.00     0.000 C 
BRANCH   2   3
ATOM      3  C   UNL     1     -46.892 -26.794   2.595  1.00  0.00     0.000 C 
BRANCH   3   4
ATOM      4  C   UNL     1     -46.333 -28.094   3.190  1.00  0.00     0.000 C 
BRANCH   4   5
ATOM      5  C   UNL     1     -46.347 -28.093   4.733  1.00  0.00     0.006 C 
BRANCH   5   6
ATOM      6  C   UNL     1     -46.233 -26.688   5.347  1.00  0.00     0.053 C 
BRANCH   6   7
ATOM      7  C   UNL     1     -45.684 -26.715   6.740  1.00  0.00     0.041 C 
ATOM      8  O   UNL     1     -44.937 -27.659   7.108  1.00  0.00    -0.550 OA
ATOM      9  O   UNL     1     -46.016 -25.708   7.638  1.00  0.00    -0.550 OA
ENDBRANCH   6   7
ENDBRANCH   5   6
ENDBRANCH   4   5
ENDBRANCH   3   4
ENDBRANCH   2   3
ENDBRANCH   1   2
BRANCH   1  10
ATOM     10  C   UNL     1     -44.098 -27.109  -0.008  1.00  0.00     0.000 C 
BRANCH  10  11
ATOM     11  C   UNL     1     -44.209 -28.645   0.015  1.00  0.00    -0.000 C 
BRANCH  11  12
ATOM     12  C   UNL     1     -44.849 -29.214  -1.264  1.00  0.00    -0.000 C 
BRANCH  12  13
ATOM     13  C   UNL     1     -45.550 -28.137  -2.108  1.00  0.00    -0.000 C 
BRANCH  13  14
ATOM     14  C   UNL     1     -46.481 -28.676  -3.212  1.00  0.00    -0.000 C 
BRANCH  14  15
ATOM     15  C   UNL     1     -45.813 -28.767  -4.600  1.00  0.00    -0.003 C 
ATOM     16  C   UNL     1     -45.352 -27.404  -5.117  1.00  0.00     0.004 C 
ENDBRANCH  14  15
ENDBRANCH  13  14
ENDBRANCH  12  13
ENDBRANCH  11  12
ENDBRANCH  10  11
ENDBRANCH   1  10
TORSDOF 12
ENDMDL
MODEL 6
REMARK VINA RESULT:    -3.434      3.712      5.715
REMARK INTER + INTRA:          -6.784
REMARK INTER:                  -5.811
REMARK INTRA:                  -0.973
REMARK UNBOUND:                -0.941
REMARK SMILES CCCCCCCCCCCCCC(=O)[O-]
REMARK SMILES IDX 8 1 9 2 10 3 11 4 12 5 13 6 14 7 15 8 16 9 7 10 6 11 5 12
REMARK SMILES IDX 4 13 3 14 2 15 1 16
REMARK H PARENT
REMARK Flexibility Score: inf
ROOT
ATOM      1  C   UNL     1     -45.872 -28.732  -3.563  1.00  0.00     0.000 C 
ENDROOT
BRANCH   1   2
ATOM      2  C   UNL     1     -45.361 -27.544  -4.398  1.00  0.00     0.000 C 
BRANCH   2   3
ATOM      3  C   UNL     1     -45.931 -27.526  -5.824  1.00  0.00     0.000 C 
BRANCH   3   4
ATOM      4  C   UNL     1     -46.247 -28.948  -6.307  1.00  0.00     0.000 C 
BRANCH   4   5
ATOM      5  C   UNL     1     -45.337 -29.393  -7.471  1.00  0.00     0.006 C 
BRANCH   5   6
ATOM      6  C   UNL     1     -43.858 -29.538  -7.073  1.00  0.00     0.053 C 
BRANCH   6   7
ATOM      7  C   UNL     1     -42.963 -28.631  -7.860  1.00  0.00     0.041 C 
ATOM      8  O   UNL     1     -43.368 -27.492  -8.214  1.00  0.00    -0.550 OA
ATOM      9  O   UNL     1     -41.690 -29.052  -8.221  1.00  0.00    -0.550 OA
ENDBRANCH   6   7
ENDBRANCH   5   6
ENDBRANCH   4   5
ENDBRANCH   3   4
ENDBRANCH   2   3
ENDBRANCH   1   2
BRANCH   1  10
ATOM     10  C   UNL     1     -46.845 -28.363  -2.424  1.00  0.00     0.000 C 
BRANCH  10  11
ATOM     11  C   UNL     1     -46.349 -28.689  -1.004  1.00  0.00    -0.000 C 
BRANCH  11  12
ATOM     12  C   UNL     1     -46.215 -27.437  -0.119  1.00  0.00    -0.000 C 
BRANCH  12  13
ATOM     13  C   UNL     1     -44.824 -27.308   0.522  1.00  0.00    -0.000 C 
BRANCH  13  14
ATOM     14  C   UNL     1     -43.643 -27.345  -0.467  1.00  0.00    -0.000 C 
BRANCH  14  15
ATOM     15  C   UNL     1     -42.654 -28.502  -0.214  1.00  0.00    -0.003 C 
ATOM     16  C   UNL     1     -41.196 -28.073  -0.382  1.00  0.00     0.004 C 
ENDBRANCH  14  15
ENDBRANCH  13  14
ENDBRANCH  12  13
ENDBRANCH  11  12
ENDBRANCH  10  11
ENDBRANCH   1  10
TORSDOF 12
ENDMDL
MODEL 7
REMARK VINA RESULT:    -3.421      3.858      8.388
REMARK INTER + INTRA:          -6.761
REMARK INTER:                  -6.273
REMARK INTRA:                  -0.488
REMARK UNBOUND:                -0.941
REMARK SMILES CCCCCCCCCCCCCC(=O)[O-]
REMARK SMILES IDX 8 1 9 2 10 3 11 4 12 5 13 6 14 7 15 8 16 9 7 10 6 11 5 12
REMARK SMILES IDX 4 13 3 14 2 15 1 16
REMARK H PARENT
REMARK Flexibility Score: inf
ROOT
ATOM      1  C   UNL     1     -43.960 -27.369  -0.241  1.00  0.00     0.000 C 
ENDROOT
BRANCH   1   2
ATOM      2  C   UNL     1     -45.074 -27.461   0.817  1.00  0.00     0.000 C 
BRANCH   2   3
ATOM      3  C   UNL     1     -45.373 -26.114   1.490  1.00  0.00     0.000 C 
BRANCH   3   4
ATOM      4  C   UNL     1     -46.597 -26.220   2.412  1.00  0.00     0.000 C 
BRANCH   4   5
ATOM      5  C   UNL     1     -46.377 -27.210   3.574  1.00  0.00     0.006 C 
BRANCH   5   6
ATOM      6  C   UNL     1     -46.759 -26.638   4.949  1.00  0.00     0.053 C 
BRANCH   6   7
ATOM      7  C   UNL     1     -45.778 -27.012   6.017  1.00  0.00     0.041 C 
ATOM      8  O   UNL     1     -45.308 -28.179   6.065  1.00  0.00    -0.550 OA
ATOM      9  O   UNL     1     -45.401 -26.077   6.973  1.00  0.00    -0.550 OA
ENDBRANCH   6   7
ENDBRANCH   5   6
ENDBRANCH   4   5
ENDBRANCH   3   4
ENDBRANCH   2   3
ENDBRANCH   1   2
BRANCH   1  10
ATOM     10  C   UNL     1     -44.415 -27.608  -1.695  1.00  0.00     0.000 C 
BRANCH  10  11
ATOM     11  C   UNL     1     -45.831 -28.189  -1.855  1.00  0.00    -0.000 C 
BRANCH  11  12
ATOM     12  C   UNL     1     -46.141 -28.610  -3.302  1.00  0.00    -0.000 C 
BRANCH  12  13
ATOM     13  C   UNL     1     -45.486 -27.688  -4.344  1.00  0.00    -0.000 C 
BRANCH  13  14
ATOM     14  C   UNL     1     -45.797 -28.037  -5.812  1.00  0.00    -0.000 C 
BRANCH  14  15
ATOM     15  C   UNL     1     -44.939 -27.258  -6.832  1.00  0.00    -0.003 C 
ATOM     16  C   UNL     1     -43.720 -28.054  -7.300  1.00  0.00     0.004 C 
ENDBRANCH  14  15
ENDBRANCH  13  14
ENDBRANCH  12  13
ENDBRANCH  11  12
ENDBRANCH  10  11
ENDBRANCH   1  10
TORSDOF 12
ENDMDL
MODEL 8
REMARK VINA RESULT:    -3.408      2.789      3.992
REMARK INTER + INTRA:          -6.741
REMARK INTER:                  -6.305
REMARK INTRA:                  -0.436
REMARK UNBOUND:                -0.941
REMARK SMILES CCCCCCCCCCCCCC(=O)[O-]
REMARK SMILES IDX 8 1 9 2 10 3 11 4 12 5 13 6 14 7 15 8 16 9 7 10 6 11 5 12
REMARK SMILES IDX 4 13 3 14 2 15 1 16
REMARK H PARENT
REMARK Flexibility Score: inf
ROOT
ATOM      1  C   UNL     1     -45.042 -27.847  -1.861  1.00  0.00     0.000 C 
ENDROOT
BRANCH   1   2
ATOM      2  C   UNL     1     -45.674 -28.840  -2.853  1.00  0.00     0.000 C 
BRANCH   2   3
ATOM      3  C   UNL     1     -46.323 -28.149  -4.061  1.00  0.00     0.000 C 
BRANCH   3   4
ATOM      4  C   UNL     1     -45.273 -27.400  -4.894  1.00  0.00     0.000 C 
BRANCH   4   5
ATOM      5  C   UNL     1     -45.409 -27.677  -6.405  1.00  0.00     0.006 C 
BRANCH   5   6
ATOM      6  C   UNL     1     -44.456 -28.770  -6.917  1.00  0.00     0.053 C 
BRANCH   6   7
ATOM      7  C   UNL     1     -43.375 -28.221  -7.796  1.00  0.00     0.041 C 
ATOM      8  O   UNL     1     -43.669 -27.501  -8.787  1.00  0.00    -0.550 OA
ATOM      9  O   UNL     1     -42.045 -28.524  -7.534  1.00  0.00    -0.550 OA
ENDBRANCH   6   7
ENDBRANCH   5   6
ENDBRANCH   4   5
ENDBRANCH   3   4
ENDBRANCH   2   3
ENDBRANCH   1   2
BRANCH   1  10
ATOM     10  C   UNL     1     -45.701 -27.804  -0.467  1.00  0.00     0.000 C 
BRANCH  10  11
ATOM     11  C   UNL     1     -44.837 -27.193   0.651  1.00  0.00    -0.000 C 
BRANCH  11  12
ATOM     12  C   UNL     1     -45.594 -26.138   1.478  1.00  0.00    -0.000 C 
BRANCH  12  13
ATOM     13  C   UNL     1     -46.664 -26.755   2.392  1.00  0.00    -0.000 C 
BRANCH  13  14
ATOM     14  C   UNL     1     -46.285 -26.829   3.884  1.00  0.00    -0.000 C 
BRANCH  14  15
ATOM     15  C   UNL     1     -46.139 -28.269   4.419  1.00  0.00    -0.003 C 
ATOM     16  C   UNL     1     -45.610 -28.310   5.852  1.00  0.00     0.004 C 
ENDBRANCH  14  15
ENDBRANCH  13  14
ENDBRANCH  12  13
ENDBRANCH  11  12
ENDBRANCH  10  11
ENDBRANCH   1  10
TORSDOF 12
ENDMDL
