MODEL 1
REMARK VINA RESULT:    -8.448      0.000      0.000
REMARK INTER + INTRA:         -13.863
REMARK INTER:                 -12.399
REMARK INTRA:                  -1.464
REMARK UNBOUND:                -1.464
REMARK SMILES O=c1c(O[C@H]2O[C@@H](CO)[C@@H](O)[C@H](O)[C@@H]2O)c(-c2ccc(O)c(O)c2)oc2cc(O)cc(O)c12
REMARK SMILES IDX 4 1 3 2 16 3 25 4 2 5 26 6 1 7 33 8 27 9 31 10 28 11 30 12
REMARK SMILES IDX 17 13 18 14 19 15 20 16 24 17 22 18 21 19 23 21 32 23 29 25
REMARK SMILES IDX 5 27 14 28 6 29 12 30 7 31 10 32 15 33 13 35 8 37 9 38 11 40
REMARK H PARENT 21 20 23 22 32 24 29 26 15 34 13 36 9 39 11 41
REMARK Flexibility Score: inf
ROOT
ATOM      1  O   UNL     1      12.383  45.019   6.462  1.00  0.00    -0.454 OA
ENDROOT
BRANCH   1   2
ATOM      2  C   UNL     1      11.750  44.757   7.692  1.00  0.00     0.214 A 
ATOM      3  C   UNL     1      12.518  44.212   8.742  1.00  0.00     0.180 A 
ATOM      4  O   UNL     1      11.945  43.908   9.902  1.00  0.00    -0.452 OA
ATOM      5  C   UNL     1      10.377  44.994   7.922  1.00  0.00     0.239 A 
ATOM      6  C   UNL     1      10.659  44.108  10.155  1.00  0.00     0.146 A 
ATOM      7  O   UNL     1       9.664  45.509   7.020  1.00  0.00    -0.285 OA
ATOM      8  C   UNL     1       9.810  44.667   9.172  1.00  0.00     0.111 A 
ATOM      9  C   UNL     1      10.151  43.759  11.410  1.00  0.00     0.094 A 
ATOM     10  C   UNL     1       8.442  44.870   9.478  1.00  0.00     0.134 A 
ATOM     11  C   UNL     1       8.800  43.961  11.706  1.00  0.00     0.123 A 
ATOM     12  C   UNL     1       7.953  44.515  10.745  1.00  0.00     0.093 A 
BRANCH   3  13
ATOM     13  C   UNL     1      13.959  43.915   8.584  1.00  0.00     0.025 A 
ATOM     14  C   UNL     1      14.919  44.939   8.556  1.00  0.00     0.016 A 
ATOM     15  C   UNL     1      16.274  44.635   8.410  1.00  0.00     0.051 A 
ATOM     16  C   UNL     1      16.691  43.301   8.306  1.00  0.00     0.157 A 
ATOM     17  C   UNL     1      14.383  42.578   8.503  1.00  0.00     0.062 A 
ATOM     18  C   UNL     1      15.740  42.269   8.357  1.00  0.00     0.158 A 
BRANCH  16  19
ATOM     19  O   UNL     1      18.045  43.000   8.159  1.00  0.00    -0.504 OA
ATOM     20  H   UNL     1      18.371  42.355   7.449  1.00  0.00     0.293 HD
ENDBRANCH  16  19
BRANCH  18  21
ATOM     21  O   UNL     1      16.123  40.930   8.265  1.00  0.00    -0.504 OA
ATOM     22  H   UNL     1      15.560  40.243   7.777  1.00  0.00     0.293 HD
ENDBRANCH  18  21
ENDBRANCH   3  13
BRANCH  10  23
ATOM     23  O   UNL     1       7.568  45.419   8.539  1.00  0.00    -0.507 OA
ATOM     24  H   UNL     1       7.805  46.253   8.014  1.00  0.00     0.293 HD
ENDBRANCH  10  23
BRANCH  11  25
ATOM     25  O   UNL     1       8.288  43.617  12.955  1.00  0.00    -0.508 OA
ATOM     26  H   UNL     1       7.317  43.782  13.195  1.00  0.00     0.293 HD
ENDBRANCH  11  25
ENDBRANCH   1   2
BRANCH   1  27
ATOM     27  C   UNL     1      12.264  44.242   5.266  1.00  0.00     0.339 C 
ATOM     28  C   UNL     1      13.388  43.189   5.214  1.00  0.00     0.214 C 
ATOM     29  O   UNL     1      12.224  45.057   4.100  1.00  0.00    -0.332 OA
ATOM     30  C   UNL     1      14.745  43.859   4.936  1.00  0.00     0.180 C 
ATOM     31  C   UNL     1      13.441  45.738   3.809  1.00  0.00     0.179 C 
ATOM     32  C   UNL     1      14.657  44.781   3.705  1.00  0.00     0.177 C 
BRANCH  28  33
ATOM     33  O   UNL     1      13.098  42.181   4.273  1.00  0.00    -0.384 OA
ATOM     34  H   UNL     1      13.822  41.504   4.308  1.00  0.00     0.211 HD
ENDBRANCH  28  33
BRANCH  30  35
ATOM     35  O   UNL     1      15.762  42.898   4.790  1.00  0.00    -0.387 OA
ATOM     36  H   UNL     1      15.743  42.306   5.586  1.00  0.00     0.211 HD
ENDBRANCH  30  35
BRANCH  31  37
ATOM     37  C   UNL     1      13.659  46.958   4.733  1.00  0.00     0.191 C 
BRANCH  37  38
ATOM     38  O   UNL     1      14.653  46.693   5.686  1.00  0.00    -0.394 OA
ATOM     39  H   UNL     1      15.461  46.408   5.184  1.00  0.00     0.210 HD
ENDBRANCH  37  38
ENDBRANCH  31  37
BRANCH  32  40
ATOM     40  O   UNL     1      15.844  45.519   3.565  1.00  0.00    -0.387 OA
ATOM     41  H   UNL     1      16.590  44.864   3.524  1.00  0.00     0.211 HD
ENDBRANCH  32  40
ENDBRANCH   1  27
TORSDOF 12
ENDMDL
MODEL 2
REMARK VINA RESULT:    -7.845      1.150      1.798
REMARK INTER + INTRA:         -12.977
REMARK INTER:                 -11.940
REMARK INTRA:                  -1.038
REMARK UNBOUND:                -1.464
REMARK SMILES O=c1c(O[C@H]2O[C@@H](CO)[C@@H](O)[C@H](O)[C@@H]2O)c(-c2ccc(O)c(O)c2)oc2cc(O)cc(O)c12
REMARK SMILES IDX 4 1 3 2 16 3 25 4 2 5 26 6 1 7 33 8 27 9 31 10 28 11 30 12
REMARK SMILES IDX 17 13 18 14 19 15 20 16 24 17 22 18 21 19 23 21 32 23 29 25
REMARK SMILES IDX 5 27 14 28 6 29 12 30 7 31 10 32 15 33 13 35 8 37 9 38 11 40
REMARK H PARENT 21 20 23 22 32 24 29 26 15 34 13 36 9 39 11 41
REMARK Flexibility Score: inf
ROOT
ATOM      1  O   UNL     1      13.690  45.682   6.481  1.00  0.00    -0.454 OA
ENDROOT
BRANCH   1   2
ATOM      2  C   UNL     1      12.721  45.359   7.450  1.00  0.00     0.214 A 
ATOM      3  C   UNL     1      13.078  44.479   8.492  1.00  0.00     0.180 A 
ATOM      4  O   UNL     1      12.177  44.115   9.399  1.00  0.00    -0.452 OA
ATOM      5  C   UNL     1      11.401  45.859   7.421  1.00  0.00     0.239 A 
ATOM      6  C   UNL     1      10.927  44.555   9.402  1.00  0.00     0.146 A 
ATOM      7  O   UNL     1      11.052  46.672   6.525  1.00  0.00    -0.285 OA
ATOM      8  C   UNL     1      10.478  45.455   8.409  1.00  0.00     0.111 A 
ATOM      9  C   UNL     1      10.055  44.116  10.403  1.00  0.00     0.094 A 
ATOM     10  C   UNL     1       9.136  45.908   8.445  1.00  0.00     0.134 A 
ATOM     11  C   UNL     1       8.731  44.566  10.433  1.00  0.00     0.123 A 
ATOM     12  C   UNL     1       8.277  45.457   9.460  1.00  0.00     0.093 A 
BRANCH   3  13
ATOM     13  C   UNL     1      14.434  43.894   8.592  1.00  0.00     0.025 A 
ATOM     14  C   UNL     1      15.529  44.655   9.033  1.00  0.00     0.016 A 
ATOM     15  C   UNL     1      16.799  44.081   9.123  1.00  0.00     0.051 A 
ATOM     16  C   UNL     1      16.990  42.733   8.789  1.00  0.00     0.157 A 
ATOM     17  C   UNL     1      14.626  42.538   8.280  1.00  0.00     0.062 A 
ATOM     18  C   UNL     1      15.896  41.959   8.369  1.00  0.00     0.158 A 
BRANCH  16  19
ATOM     19  O   UNL     1      18.260  42.162   8.878  1.00  0.00    -0.504 OA
ATOM     20  H   UNL     1      18.503  41.327   8.359  1.00  0.00     0.293 HD
ENDBRANCH  16  19
BRANCH  18  21
ATOM     21  O   UNL     1      16.051  40.612   8.037  1.00  0.00    -0.504 OA
ATOM     22  H   UNL     1      16.901  40.257   7.616  1.00  0.00     0.293 HD
ENDBRANCH  18  21
ENDBRANCH   3  13
BRANCH  10  23
ATOM     23  O   UNL     1       8.650  46.797   7.486  1.00  0.00    -0.507 OA
ATOM     24  H   UNL     1       7.698  47.145   7.515  1.00  0.00     0.293 HD
ENDBRANCH  10  23
BRANCH  11  25
ATOM     25  O   UNL     1       7.858  44.133  11.429  1.00  0.00    -0.508 OA
ATOM     26  H   UNL     1       7.602  43.157  11.522  1.00  0.00     0.293 HD
ENDBRANCH  11  25
ENDBRANCH   1   2
BRANCH   1  27
ATOM     27  C   UNL     1      13.471  45.803   5.073  1.00  0.00     0.339 C 
ATOM     28  C   UNL     1      12.758  44.543   4.545  1.00  0.00     0.214 C 
ATOM     29  O   UNL     1      14.674  46.087   4.365  1.00  0.00    -0.332 OA
ATOM     30  C   UNL     1      13.716  43.340   4.540  1.00  0.00     0.180 C 
ATOM     31  C   UNL     1      15.622  45.023   4.358  1.00  0.00     0.179 C 
ATOM     32  C   UNL     1      15.032  43.694   3.821  1.00  0.00     0.177 C 
BRANCH  28  33
ATOM     33  O   UNL     1      12.195  44.771   3.273  1.00  0.00    -0.384 OA
ATOM     34  H   UNL     1      11.684  43.964   3.009  1.00  0.00     0.211 HD
ENDBRANCH  28  33
BRANCH  30  35
ATOM     35  O   UNL     1      13.104  42.209   3.970  1.00  0.00    -0.387 OA
ATOM     36  H   UNL     1      12.747  41.648   4.707  1.00  0.00     0.211 HD
ENDBRANCH  30  35
BRANCH  31  37
ATOM     37  C   UNL     1      16.368  44.900   5.707  1.00  0.00     0.191 C 
BRANCH  37  38
ATOM     38  O   UNL     1      17.550  44.159   5.559  1.00  0.00    -0.394 OA
ATOM     39  H   UNL     1      17.299  43.202   5.649  1.00  0.00     0.210 HD
ENDBRANCH  37  38
ENDBRANCH  31  37
BRANCH  32  40
ATOM     40  O   UNL     1      15.964  42.653   3.976  1.00  0.00    -0.387 OA
ATOM     41  H   UNL     1      15.602  42.039   4.668  1.00  0.00     0.211 HD
ENDBRANCH  32  40
ENDBRANCH   1  27
TORSDOF 12
ENDMDL
MODEL 3
REMARK VINA RESULT:    -7.263      2.345      7.770
REMARK INTER + INTRA:         -12.123
REMARK INTER:                 -10.709
REMARK INTRA:                  -1.414
REMARK UNBOUND:                -1.464
REMARK SMILES O=c1c(O[C@H]2O[C@@H](CO)[C@@H](O)[C@H](O)[C@@H]2O)c(-c2ccc(O)c(O)c2)oc2cc(O)cc(O)c12
REMARK SMILES IDX 4 1 3 2 16 3 25 4 2 5 26 6 1 7 33 8 27 9 31 10 28 11 30 12
REMARK SMILES IDX 17 13 18 14 19 15 20 16 24 17 22 18 21 19 23 21 32 23 29 25
REMARK SMILES IDX 5 27 14 28 6 29 12 30 7 31 10 32 15 33 13 35 8 37 9 38 11 40
REMARK H PARENT 21 20 23 22 32 24 29 26 15 34 13 36 9 39 11 41
REMARK Flexibility Score: inf
ROOT
ATOM      1  O   UNL     1       8.279  45.952   8.640  1.00  0.00    -0.454 OA
ENDROOT
BRANCH   1   2
ATOM      2  C   UNL     1       9.643  45.653   8.464  1.00  0.00     0.214 A 
ATOM      3  C   UNL     1      10.264  44.776   9.377  1.00  0.00     0.180 A 
ATOM      4  O   UNL     1      11.561  44.506   9.270  1.00  0.00    -0.452 OA
ATOM      5  C   UNL     1      10.428  46.203   7.427  1.00  0.00     0.239 A 
ATOM      6  C   UNL     1      12.334  45.008   8.317  1.00  0.00     0.146 A 
ATOM      7  O   UNL     1       9.904  46.966   6.573  1.00  0.00    -0.285 OA
ATOM      8  C   UNL     1      11.800  45.883   7.343  1.00  0.00     0.111 A 
ATOM      9  C   UNL     1      13.688  44.660   8.287  1.00  0.00     0.094 A 
ATOM     10  C   UNL     1      12.655  46.397   6.337  1.00  0.00     0.134 A 
ATOM     11  C   UNL     1      14.526  45.171   7.292  1.00  0.00     0.123 A 
ATOM     12  C   UNL     1      14.010  46.033   6.324  1.00  0.00     0.093 A 
BRANCH   3  13
ATOM     13  C   UNL     1       9.522  44.166  10.504  1.00  0.00     0.025 A 
ATOM     14  C   UNL     1       8.267  43.566  10.314  1.00  0.00     0.016 A 
ATOM     15  C   UNL     1       7.587  42.993  11.391  1.00  0.00     0.051 A 
ATOM     16  C   UNL     1       8.158  42.999  12.671  1.00  0.00     0.157 A 
ATOM     17  C   UNL     1      10.101  44.150  11.783  1.00  0.00     0.062 A 
ATOM     18  C   UNL     1       9.424  43.577  12.865  1.00  0.00     0.158 A 
BRANCH  16  19
ATOM     19  O   UNL     1       7.477  42.428  13.745  1.00  0.00    -0.504 OA
ATOM     20  H   UNL     1       7.949  42.200  14.612  1.00  0.00     0.293 HD
ENDBRANCH  16  19
BRANCH  18  21
ATOM     21  O   UNL     1      10.024  43.592  14.124  1.00  0.00    -0.504 OA
ATOM     22  H   UNL     1       9.564  43.212  14.943  1.00  0.00     0.293 HD
ENDBRANCH  18  21
ENDBRANCH   3  13
BRANCH  10  23
ATOM     23  O   UNL     1      12.172  47.263   5.356  1.00  0.00    -0.507 OA
ATOM     24  H   UNL     1      11.186  47.490   5.284  1.00  0.00     0.293 HD
ENDBRANCH  10  23
BRANCH  11  25
ATOM     25  O   UNL     1      15.876  44.827   7.256  1.00  0.00    -0.508 OA
ATOM     26  H   UNL     1      16.187  43.880   7.442  1.00  0.00     0.293 HD
ENDBRANCH  11  25
ENDBRANCH   1   2
BRANCH   1  27
ATOM     27  C   UNL     1       7.743  47.121   9.266  1.00  0.00     0.339 C 
ATOM     28  C   UNL     1       6.850  46.715  10.455  1.00  0.00     0.214 C 
ATOM     29  O   UNL     1       7.068  47.965   8.339  1.00  0.00    -0.332 OA
ATOM     30  C   UNL     1       5.539  46.082   9.956  1.00  0.00     0.180 C 
ATOM     31  C   UNL     1       5.864  47.418   7.808  1.00  0.00     0.179 C 
ATOM     32  C   UNL     1       4.861  46.987   8.910  1.00  0.00     0.177 C 
BRANCH  28  33
ATOM     33  O   UNL     1       6.613  47.808  11.311  1.00  0.00    -0.384 OA
ATOM     34  H   UNL     1       7.486  48.135  11.649  1.00  0.00     0.211 HD
ENDBRANCH  28  33
BRANCH  30  35
ATOM     35  O   UNL     1       4.676  45.796  11.029  1.00  0.00    -0.387 OA
ATOM     36  H   UNL     1       4.185  44.961  10.814  1.00  0.00     0.211 HD
ENDBRANCH  30  35
BRANCH  31  37
ATOM     37  C   UNL     1       6.138  46.344   6.731  1.00  0.00     0.191 C 
BRANCH  37  38
ATOM     38  O   UNL     1       7.179  46.745   5.879  1.00  0.00    -0.394 OA
ATOM     39  H   UNL     1       7.395  45.963   5.306  1.00  0.00     0.210 HD
ENDBRANCH  37  38
ENDBRANCH  31  37
BRANCH  32  40
ATOM     40  O   UNL     1       3.764  46.324   8.334  1.00  0.00    -0.387 OA
ATOM     41  H   UNL     1       3.784  46.521   7.360  1.00  0.00     0.211 HD
ENDBRANCH  32  40
ENDBRANCH   1  27
TORSDOF 12
ENDMDL
MODEL 4
REMARK VINA RESULT:    -7.202      2.749      7.938
REMARK INTER + INTRA:         -12.034
REMARK INTER:                 -10.635
REMARK INTRA:                  -1.399
REMARK UNBOUND:                -1.464
REMARK SMILES O=c1c(O[C@H]2O[C@@H](CO)[C@@H](O)[C@H](O)[C@@H]2O)c(-c2ccc(O)c(O)c2)oc2cc(O)cc(O)c12
REMARK SMILES IDX 4 1 3 2 16 3 25 4 2 5 26 6 1 7 33 8 27 9 31 10 28 11 30 12
REMARK SMILES IDX 17 13 18 14 19 15 20 16 24 17 22 18 21 19 23 21 32 23 29 25
REMARK SMILES IDX 5 27 14 28 6 29 12 30 7 31 10 32 15 33 13 35 8 37 9 38 11 40
REMARK H PARENT 21 20 23 22 32 24 29 26 15 34 13 36 9 39 11 41
REMARK Flexibility Score: inf
ROOT
ATOM      1  O   UNL     1       7.410  46.063   8.393  1.00  0.00    -0.454 OA
ENDROOT
BRANCH   1   2
ATOM      2  C   UNL     1       8.803  45.904   8.274  1.00  0.00     0.214 A 
ATOM      3  C   UNL     1       9.499  45.253   9.314  1.00  0.00     0.180 A 
ATOM      4  O   UNL     1      10.820  45.125   9.257  1.00  0.00    -0.452 OA
ATOM      5  C   UNL     1       9.544  46.382   7.172  1.00  0.00     0.239 A 
ATOM      6  C   UNL     1      11.553  45.567   8.245  1.00  0.00     0.146 A 
ATOM      7  O   UNL     1       8.957  46.941   6.208  1.00  0.00    -0.285 OA
ATOM      8  C   UNL     1      10.946  46.217   7.147  1.00  0.00     0.111 A 
ATOM      9  C   UNL     1      12.939  45.381   8.278  1.00  0.00     0.094 A 
ATOM     10  C   UNL     1      11.760  46.673   6.080  1.00  0.00     0.134 A 
ATOM     11  C   UNL     1      13.737  45.833   7.222  1.00  0.00     0.123 A 
ATOM     12  C   UNL     1      13.148  46.474   6.131  1.00  0.00     0.093 A 
BRANCH   3  13
ATOM     13  C   UNL     1       8.805  44.735  10.514  1.00  0.00     0.025 A 
ATOM     14  C   UNL     1       8.333  43.414  10.574  1.00  0.00     0.016 A 
ATOM     15  C   UNL     1       7.685  42.945  11.719  1.00  0.00     0.051 A 
ATOM     16  C   UNL     1       7.512  43.786  12.827  1.00  0.00     0.157 A 
ATOM     17  C   UNL     1       8.650  45.567  11.635  1.00  0.00     0.062 A 
ATOM     18  C   UNL     1       8.001  45.102  12.784  1.00  0.00     0.158 A 
BRANCH  16  19
ATOM     19  O   UNL     1       6.862  43.317  13.968  1.00  0.00    -0.504 OA
ATOM     20  H   UNL     1       5.942  43.650  14.229  1.00  0.00     0.293 HD
ENDBRANCH  16  19
BRANCH  18  21
ATOM     21  O   UNL     1       7.852  45.963  13.872  1.00  0.00    -0.504 OA
ATOM     22  H   UNL     1       7.124  45.832  14.565  1.00  0.00     0.293 HD
ENDBRANCH  18  21
ENDBRANCH   3  13
BRANCH  10  23
ATOM     23  O   UNL     1      11.204  47.319   4.976  1.00  0.00    -0.507 OA
ATOM     24  H   UNL     1      10.270  47.714   5.003  1.00  0.00     0.293 HD
ENDBRANCH  10  23
BRANCH  11  25
ATOM     25  O   UNL     1      15.117  45.649   7.248  1.00  0.00    -0.508 OA
ATOM     26  H   UNL     1      15.658  45.806   8.091  1.00  0.00     0.293 HD
ENDBRANCH  11  25
ENDBRANCH   1   2
BRANCH   1  27
ATOM     27  C   UNL     1       6.411  45.131   7.966  1.00  0.00     0.339 C 
ATOM     28  C   UNL     1       6.179  45.273   6.450  1.00  0.00     0.214 C 
ATOM     29  O   UNL     1       5.208  45.253   8.717  1.00  0.00    -0.332 OA
ATOM     30  C   UNL     1       5.439  46.585   6.136  1.00  0.00     0.180 C 
ATOM     31  C   UNL     1       4.494  46.467   8.501  1.00  0.00     0.179 C 
ATOM     32  C   UNL     1       4.174  46.719   7.005  1.00  0.00     0.177 C 
BRANCH  28  33
ATOM     33  O   UNL     1       5.502  44.152   5.930  1.00  0.00    -0.384 OA
ATOM     34  H   UNL     1       5.157  44.385   5.031  1.00  0.00     0.211 HD
ENDBRANCH  28  33
BRANCH  30  35
ATOM     35  O   UNL     1       5.136  46.679   4.765  1.00  0.00    -0.387 OA
ATOM     36  H   UNL     1       4.677  45.842   4.493  1.00  0.00     0.211 HD
ENDBRANCH  30  35
BRANCH  31  37
ATOM     37  C   UNL     1       5.147  47.663   9.231  1.00  0.00     0.191 C 
BRANCH  37  38
ATOM     38  O   UNL     1       5.629  47.278  10.491  1.00  0.00    -0.394 OA
ATOM     39  H   UNL     1       6.557  47.624  10.559  1.00  0.00     0.210 HD
ENDBRANCH  37  38
ENDBRANCH  31  37
BRANCH  32  40
ATOM     40  O   UNL     1       3.604  47.993   6.839  1.00  0.00    -0.387 OA
ATOM     41  H   UNL     1       4.331  48.599   6.536  1.00  0.00     0.211 HD
ENDBRANCH  32  40
ENDBRANCH   1  27
TORSDOF 12
ENDMDL
MODEL 5
REMARK VINA RESULT:    -7.075      2.549      8.587
REMARK INTER + INTRA:         -11.848
REMARK INTER:                 -10.401
REMARK INTRA:                  -1.447
REMARK UNBOUND:                -1.464
REMARK SMILES O=c1c(O[C@H]2O[C@@H](CO)[C@@H](O)[C@H](O)[C@@H]2O)c(-c2ccc(O)c(O)c2)oc2cc(O)cc(O)c12
REMARK SMILES IDX 4 1 3 2 16 3 25 4 2 5 26 6 1 7 33 8 27 9 31 10 28 11 30 12
REMARK SMILES IDX 17 13 18 14 19 15 20 16 24 17 22 18 21 19 23 21 32 23 29 25
REMARK SMILES IDX 5 27 14 28 6 29 12 30 7 31 10 32 15 33 13 35 8 37 9 38 11 40
REMARK H PARENT 21 20 23 22 32 24 29 26 15 34 13 36 9 39 11 41
REMARK Flexibility Score: inf
ROOT
ATOM      1  O   UNL     1       9.196  45.474   9.556  1.00  0.00    -0.454 OA
ENDROOT
BRANCH   1   2
ATOM      2  C   UNL     1      10.198  45.656   8.584  1.00  0.00     0.214 A 
ATOM      3  C   UNL     1       9.891  46.411   7.434  1.00  0.00     0.180 A 
ATOM      4  O   UNL     1      10.797  46.565   6.474  1.00  0.00    -0.452 OA
ATOM      5  C   UNL     1      11.491  45.102   8.694  1.00  0.00     0.239 A 
ATOM      6  C   UNL     1      12.019  46.056   6.534  1.00  0.00     0.146 A 
ATOM      7  O   UNL     1      11.815  44.447   9.720  1.00  0.00    -0.285 OA
ATOM      8  C   UNL     1      12.427  45.298   7.656  1.00  0.00     0.111 A 
ATOM      9  C   UNL     1      12.901  46.278   5.473  1.00  0.00     0.094 A 
ATOM     10  C   UNL     1      13.742  44.772   7.689  1.00  0.00     0.134 A 
ATOM     11  C   UNL     1      14.198  45.755   5.512  1.00  0.00     0.123 A 
ATOM     12  C   UNL     1      14.613  45.008   6.615  1.00  0.00     0.093 A 
BRANCH   3  13
ATOM     13  C   UNL     1       8.555  47.015   7.227  1.00  0.00     0.025 A 
ATOM     14  C   UNL     1       8.248  48.297   7.710  1.00  0.00     0.016 A 
ATOM     15  C   UNL     1       6.982  48.848   7.500  1.00  0.00     0.051 A 
ATOM     16  C   UNL     1       6.009  48.131   6.791  1.00  0.00     0.157 A 
ATOM     17  C   UNL     1       7.585  46.309   6.497  1.00  0.00     0.062 A 
ATOM     18  C   UNL     1       6.315  46.857   6.284  1.00  0.00     0.158 A 
BRANCH  16  19
ATOM     19  O   UNL     1       4.745  48.682   6.583  1.00  0.00    -0.504 OA
ATOM     20  H   UNL     1       3.936  48.100   6.401  1.00  0.00     0.293 HD
ENDBRANCH  16  19
BRANCH  18  21
ATOM     21  O   UNL     1       5.372  46.121   5.566  1.00  0.00    -0.504 OA
ATOM     22  H   UNL     1       5.333  45.109   5.611  1.00  0.00     0.293 HD
ENDBRANCH  18  21
ENDBRANCH   3  13
BRANCH  10  23
ATOM     23  O   UNL     1      14.188  44.018   8.776  1.00  0.00    -0.507 OA
ATOM     24  H   UNL     1      14.173  43.005   8.764  1.00  0.00     0.293 HD
ENDBRANCH  10  23
BRANCH  11  25
ATOM     25  O   UNL     1      15.082  45.974   4.458  1.00  0.00    -0.508 OA
ATOM     26  H   UNL     1      14.763  46.322   3.561  1.00  0.00     0.293 HD
ENDBRANCH  11  25
ENDBRANCH   1   2
BRANCH   1  27
ATOM     27  C   UNL     1       8.107  44.548   9.488  1.00  0.00     0.339 C 
ATOM     28  C   UNL     1       6.773  45.294   9.682  1.00  0.00     0.214 C 
ATOM     29  O   UNL     1       8.266  43.465  10.398  1.00  0.00    -0.332 OA
ATOM     30  C   UNL     1       6.615  45.748  11.144  1.00  0.00     0.180 C 
ATOM     31  C   UNL     1       8.170  43.828  11.773  1.00  0.00     0.179 C 
ATOM     32  C   UNL     1       6.851  44.571  12.109  1.00  0.00     0.177 C 
BRANCH  28  33
ATOM     33  O   UNL     1       5.683  44.509   9.256  1.00  0.00    -0.384 OA
ATOM     34  H   UNL     1       5.087  45.078   8.704  1.00  0.00     0.211 HD
ENDBRANCH  28  33
BRANCH  30  35
ATOM     35  O   UNL     1       5.359  46.345  11.354  1.00  0.00    -0.387 OA
ATOM     36  H   UNL     1       4.761  46.076  10.608  1.00  0.00     0.211 HD
ENDBRANCH  30  35
BRANCH  31  37
ATOM     37  C   UNL     1       9.452  44.528  12.280  1.00  0.00     0.191 C 
BRANCH  37  38
ATOM     38  O   UNL     1      10.586  43.746  12.018  1.00  0.00    -0.394 OA
ATOM     39  H   UNL     1      11.307  44.079  12.614  1.00  0.00     0.210 HD
ENDBRANCH  37  38
ENDBRANCH  31  37
BRANCH  32  40
ATOM     40  O   UNL     1       6.879  45.031  13.437  1.00  0.00    -0.387 OA
ATOM     41  H   UNL     1       6.000  44.805  13.841  1.00  0.00     0.211 HD
ENDBRANCH  32  40
ENDBRANCH   1  27
TORSDOF 12
ENDMDL
MODEL 6
REMARK VINA RESULT:    -7.016      2.370      7.501
REMARK INTER + INTRA:         -11.761
REMARK INTER:                 -10.580
REMARK INTRA:                  -1.181
REMARK UNBOUND:                -1.464
REMARK SMILES O=c1c(O[C@H]2O[C@@H](CO)[C@@H](O)[C@H](O)[C@@H]2O)c(-c2ccc(O)c(O)c2)oc2cc(O)cc(O)c12
REMARK SMILES IDX 4 1 3 2 16 3 25 4 2 5 26 6 1 7 33 8 27 9 31 10 28 11 30 12
REMARK SMILES IDX 17 13 18 14 19 15 20 16 24 17 22 18 21 19 23 21 32 23 29 25
REMARK SMILES IDX 5 27 14 28 6 29 12 30 7 31 10 32 15 33 13 35 8 37 9 38 11 40
REMARK H PARENT 21 20 23 22 32 24 29 26 15 34 13 36 9 39 11 41
REMARK Flexibility Score: inf
ROOT
ATOM      1  O   UNL     1       8.896  46.359   8.730  1.00  0.00    -0.454 OA
ENDROOT
BRANCH   1   2
ATOM      2  C   UNL     1      10.180  45.814   8.534  1.00  0.00     0.214 A 
ATOM      3  C   UNL     1      10.596  44.756   9.368  1.00  0.00     0.180 A 
ATOM      4  O   UNL     1      11.817  44.247   9.243  1.00  0.00    -0.452 OA
ATOM      5  C   UNL     1      11.080  46.287   7.555  1.00  0.00     0.239 A 
ATOM      6  C   UNL     1      12.695  44.667   8.344  1.00  0.00     0.146 A 
ATOM      7  O   UNL     1      10.735  47.209   6.770  1.00  0.00    -0.285 OA
ATOM      8  C   UNL     1      12.365  45.712   7.450  1.00  0.00     0.111 A 
ATOM      9  C   UNL     1      13.955  44.064   8.289  1.00  0.00     0.094 A 
ATOM     10  C   UNL     1      13.326  46.134   6.498  1.00  0.00     0.134 A 
ATOM     11  C   UNL     1      14.900  44.485   7.348  1.00  0.00     0.123 A 
ATOM     12  C   UNL     1      14.584  45.513   6.459  1.00  0.00     0.093 A 
BRANCH   3  13
ATOM     13  C   UNL     1       9.724  44.208  10.431  1.00  0.00     0.025 A 
ATOM     14  C   UNL     1       8.537  43.524  10.124  1.00  0.00     0.016 A 
ATOM     15  C   UNL     1       7.732  43.012  11.144  1.00  0.00     0.051 A 
ATOM     16  C   UNL     1       8.109  43.163  12.485  1.00  0.00     0.157 A 
ATOM     17  C   UNL     1      10.111  44.338  11.775  1.00  0.00     0.062 A 
ATOM     18  C   UNL     1       9.307  43.826  12.800  1.00  0.00     0.158 A 
BRANCH  16  19
ATOM     19  O   UNL     1       7.303  42.653  13.502  1.00  0.00    -0.504 OA
ATOM     20  H   UNL     1       7.382  42.981  14.457  1.00  0.00     0.293 HD
ENDBRANCH  16  19
BRANCH  18  21
ATOM     21  O   UNL     1       9.716  43.986  14.125  1.00  0.00    -0.504 OA
ATOM     22  H   UNL     1       9.165  43.641  14.903  1.00  0.00     0.293 HD
ENDBRANCH  18  21
ENDBRANCH   3  13
BRANCH  10  23
ATOM     23  O   UNL     1      13.043  47.160   5.596  1.00  0.00    -0.507 OA
ATOM     24  H   UNL     1      12.204  47.154   5.027  1.00  0.00     0.293 HD
ENDBRANCH  10  23
BRANCH  11  25
ATOM     25  O   UNL     1      16.156  43.887   7.288  1.00  0.00    -0.508 OA
ATOM     26  H   UNL     1      16.574  43.619   6.404  1.00  0.00     0.293 HD
ENDBRANCH  11  25
ENDBRANCH   1   2
BRANCH   1  27
ATOM     27  C   UNL     1       7.734  46.092   7.940  1.00  0.00     0.339 C 
ATOM     28  C   UNL     1       7.594  47.161   6.839  1.00  0.00     0.214 C 
ATOM     29  O   UNL     1       6.560  45.972   8.737  1.00  0.00    -0.332 OA
ATOM     30  C   UNL     1       7.173  48.511   7.444  1.00  0.00     0.180 C 
ATOM     31  C   UNL     1       6.140  47.183   9.360  1.00  0.00     0.179 C 
ATOM     32  C   UNL     1       5.938  48.342   8.349  1.00  0.00     0.177 C 
BRANCH  28  33
ATOM     33  O   UNL     1       6.706  46.739   5.829  1.00  0.00    -0.384 OA
ATOM     34  H   UNL     1       6.339  47.544   5.380  1.00  0.00     0.211 HD
ENDBRANCH  28  33
BRANCH  30  35
ATOM     35  O   UNL     1       6.949  49.468   6.438  1.00  0.00    -0.387 OA
ATOM     36  H   UNL     1       7.578  49.285   5.693  1.00  0.00     0.211 HD
ENDBRANCH  30  35
BRANCH  31  37
ATOM     37  C   UNL     1       7.014  47.540  10.584  1.00  0.00     0.191 C 
BRANCH  37  38
ATOM     38  O   UNL     1       7.173  46.430  11.427  1.00  0.00    -0.394 OA
ATOM     39  H   UNL     1       6.387  46.418  12.034  1.00  0.00     0.210 HD
ENDBRANCH  37  38
ENDBRANCH  31  37
BRANCH  32  40
ATOM     40  O   UNL     1       5.669  49.540   9.033  1.00  0.00    -0.387 OA
ATOM     41  H   UNL     1       4.751  49.464   9.403  1.00  0.00     0.211 HD
ENDBRANCH  32  40
ENDBRANCH   1  27
TORSDOF 12
ENDMDL
MODEL 7
REMARK VINA RESULT:    -6.967      3.030      6.771
REMARK INTER + INTRA:         -11.689
REMARK INTER:                 -10.298
REMARK INTRA:                  -1.391
REMARK UNBOUND:                -1.464
REMARK SMILES O=c1c(O[C@H]2O[C@@H](CO)[C@@H](O)[C@H](O)[C@@H]2O)c(-c2ccc(O)c(O)c2)oc2cc(O)cc(O)c12
REMARK SMILES IDX 4 1 3 2 16 3 25 4 2 5 26 6 1 7 33 8 27 9 31 10 28 11 30 12
REMARK SMILES IDX 17 13 18 14 19 15 20 16 24 17 22 18 21 19 23 21 32 23 29 25
REMARK SMILES IDX 5 27 14 28 6 29 12 30 7 31 10 32 15 33 13 35 8 37 9 38 11 40
REMARK H PARENT 21 20 23 22 32 24 29 26 15 34 13 36 9 39 11 41
REMARK Flexibility Score: inf
ROOT
ATOM      1  O   UNL     1       9.391  45.811   7.201  1.00  0.00    -0.454 OA
ENDROOT
BRANCH   1   2
ATOM      2  C   UNL     1       8.864  45.241   8.375  1.00  0.00     0.214 A 
ATOM      3  C   UNL     1       7.463  45.165   8.517  1.00  0.00     0.180 A 
ATOM      4  O   UNL     1       6.929  44.675   9.631  1.00  0.00    -0.452 OA
ATOM      5  C   UNL     1       9.669  44.757   9.429  1.00  0.00     0.239 A 
ATOM      6  C   UNL     1       7.649  44.219  10.646  1.00  0.00     0.146 A 
ATOM      7  O   UNL     1      10.924  44.779   9.327  1.00  0.00    -0.285 OA
ATOM      8  C   UNL     1       9.061  44.236  10.591  1.00  0.00     0.111 A 
ATOM      9  C   UNL     1       6.992  43.719  11.774  1.00  0.00     0.094 A 
ATOM     10  C   UNL     1       9.799  43.737  11.693  1.00  0.00     0.134 A 
ATOM     11  C   UNL     1       7.726  43.228  12.859  1.00  0.00     0.123 A 
ATOM     12  C   UNL     1       9.121  43.237  12.815  1.00  0.00     0.093 A 
BRANCH   3  13
ATOM     13  C   UNL     1       6.542  45.663   7.470  1.00  0.00     0.025 A 
ATOM     14  C   UNL     1       5.825  44.780   6.646  1.00  0.00     0.016 A 
ATOM     15  C   UNL     1       4.959  45.273   5.667  1.00  0.00     0.051 A 
ATOM     16  C   UNL     1       4.785  46.654   5.508  1.00  0.00     0.157 A 
ATOM     17  C   UNL     1       6.348  47.046   7.322  1.00  0.00     0.062 A 
ATOM     18  C   UNL     1       5.481  47.543   6.343  1.00  0.00     0.158 A 
BRANCH  16  19
ATOM     19  O   UNL     1       3.921  47.144   4.529  1.00  0.00    -0.504 OA
ATOM     20  H   UNL     1       2.997  47.488   4.761  1.00  0.00     0.293 HD
ENDBRANCH  16  19
BRANCH  18  21
ATOM     21  O   UNL     1       5.325  48.924   6.216  1.00  0.00    -0.504 OA
ATOM     22  H   UNL     1       5.938  49.580   6.685  1.00  0.00     0.293 HD
ENDBRANCH  18  21
ENDBRANCH   3  13
BRANCH  10  23
ATOM     23  O   UNL     1      11.195  43.733  11.682  1.00  0.00    -0.507 OA
ATOM     24  H   UNL     1      11.725  42.877  11.566  1.00  0.00     0.293 HD
ENDBRANCH  10  23
BRANCH  11  25
ATOM     25  O   UNL     1       7.078  42.727  13.985  1.00  0.00    -0.508 OA
ATOM     26  H   UNL     1       6.249  43.173  14.362  1.00  0.00     0.293 HD
ENDBRANCH  11  25
ENDBRANCH   1   2
BRANCH   1  27
ATOM     27  C   UNL     1      10.046  47.079   7.095  1.00  0.00     0.339 C 
ATOM     28  C   UNL     1       9.539  47.826   5.847  1.00  0.00     0.214 C 
ATOM     29  O   UNL     1      11.464  46.953   7.119  1.00  0.00    -0.332 OA
ATOM     30  C   UNL     1      10.076  47.167   4.565  1.00  0.00     0.180 C 
ATOM     31  C   UNL     1      12.021  46.313   5.975  1.00  0.00     0.179 C 
ATOM     32  C   UNL     1      11.605  46.989   4.643  1.00  0.00     0.177 C 
BRANCH  28  33
ATOM     33  O   UNL     1       9.862  49.196   5.907  1.00  0.00    -0.384 OA
ATOM     34  H   UNL     1      10.588  49.375   5.255  1.00  0.00     0.211 HD
ENDBRANCH  28  33
BRANCH  30  35
ATOM     35  O   UNL     1       9.699  47.898   3.424  1.00  0.00    -0.387 OA
ATOM     36  H   UNL     1      10.156  48.778   3.457  1.00  0.00     0.211 HD
ENDBRANCH  30  35
BRANCH  31  37
ATOM     37  C   UNL     1      11.820  44.780   6.011  1.00  0.00     0.191 C 
BRANCH  37  38
ATOM     38  O   UNL     1      12.910  44.119   5.424  1.00  0.00    -0.394 OA
ATOM     39  H   UNL     1      13.028  43.268   5.922  1.00  0.00     0.210 HD
ENDBRANCH  37  38
ENDBRANCH  31  37
BRANCH  32  40
ATOM     40  O   UNL     1      12.061  46.230   3.551  1.00  0.00    -0.387 OA
ATOM     41  H   UNL     1      11.301  45.664   3.253  1.00  0.00     0.211 HD
ENDBRANCH  32  40
ENDBRANCH   1  27
TORSDOF 12
ENDMDL
MODEL 8
REMARK VINA RESULT:    -6.889      1.756      4.626
REMARK INTER + INTRA:         -11.574
REMARK INTER:                 -10.191
REMARK INTRA:                  -1.383
REMARK UNBOUND:                -1.464
REMARK SMILES O=c1c(O[C@H]2O[C@@H](CO)[C@@H](O)[C@H](O)[C@@H]2O)c(-c2ccc(O)c(O)c2)oc2cc(O)cc(O)c12
REMARK SMILES IDX 4 1 3 2 16 3 25 4 2 5 26 6 1 7 33 8 27 9 31 10 28 11 30 12
REMARK SMILES IDX 17 13 18 14 19 15 20 16 24 17 22 18 21 19 23 21 32 23 29 25
REMARK SMILES IDX 5 27 14 28 6 29 12 30 7 31 10 32 15 33 13 35 8 37 9 38 11 40
REMARK H PARENT 21 20 23 22 32 24 29 26 15 34 13 36 9 39 11 41
REMARK Flexibility Score: inf
ROOT
ATOM      1  O   UNL     1      12.749  43.826   8.143  1.00  0.00    -0.454 OA
ENDROOT
BRANCH   1   2
ATOM      2  C   UNL     1      11.606  44.606   7.885  1.00  0.00     0.214 A 
ATOM      3  C   UNL     1      11.448  45.166   6.600  1.00  0.00     0.180 A 
ATOM      4  O   UNL     1      10.405  45.945   6.334  1.00  0.00    -0.452 OA
ATOM      5  C   UNL     1      10.617  44.872   8.856  1.00  0.00     0.239 A 
ATOM      6  C   UNL     1       9.459  46.226   7.219  1.00  0.00     0.146 A 
ATOM      7  O   UNL     1      10.705  44.366  10.006  1.00  0.00    -0.285 OA
ATOM      8  C   UNL     1       9.519  45.697   8.529  1.00  0.00     0.111 A 
ATOM      9  C   UNL     1       8.398  47.054   6.840  1.00  0.00     0.094 A 
ATOM     10  C   UNL     1       8.489  46.016   9.448  1.00  0.00     0.134 A 
ATOM     11  C   UNL     1       7.385  47.365   7.752  1.00  0.00     0.123 A 
ATOM     12  C   UNL     1       7.432  46.847   9.047  1.00  0.00     0.093 A 
BRANCH   3  13
ATOM     13  C   UNL     1      12.444  44.953   5.526  1.00  0.00     0.025 A 
ATOM     14  C   UNL     1      13.332  45.969   5.139  1.00  0.00     0.016 A 
ATOM     15  C   UNL     1      14.266  45.744   4.126  1.00  0.00     0.051 A 
ATOM     16  C   UNL     1      14.336  44.495   3.494  1.00  0.00     0.157 A 
ATOM     17  C   UNL     1      12.533  43.695   4.907  1.00  0.00     0.062 A 
ATOM     18  C   UNL     1      13.467  43.465   3.892  1.00  0.00     0.158 A 
BRANCH  16  19
ATOM     19  O   UNL     1      15.269  44.273   2.481  1.00  0.00    -0.504 OA
ATOM     20  H   UNL     1      14.981  44.062   1.533  1.00  0.00     0.293 HD
ENDBRANCH  16  19
BRANCH  18  21
ATOM     21  O   UNL     1      13.517  42.207   3.289  1.00  0.00    -0.504 OA
ATOM     22  H   UNL     1      14.374  41.670   3.237  1.00  0.00     0.293 HD
ENDBRANCH  18  21
ENDBRANCH   3  13
BRANCH  10  23
ATOM     23  O   UNL     1       8.507  45.516  10.751  1.00  0.00    -0.507 OA
ATOM     24  H   UNL     1       8.475  44.521  10.940  1.00  0.00     0.293 HD
ENDBRANCH  10  23
BRANCH  11  25
ATOM     25  O   UNL     1       6.324  48.188   7.380  1.00  0.00    -0.508 OA
ATOM     26  H   UNL     1       6.472  49.031   6.837  1.00  0.00     0.293 HD
ENDBRANCH  11  25
ENDBRANCH   1   2
BRANCH   1  27
ATOM     27  C   UNL     1      13.911  44.240   8.868  1.00  0.00     0.339 C 
ATOM     28  C   UNL     1      14.943  44.849   7.899  1.00  0.00     0.214 C 
ATOM     29  O   UNL     1      14.455  43.186   9.655  1.00  0.00    -0.332 OA
ATOM     30  C   UNL     1      15.579  43.753   7.027  1.00  0.00     0.180 C 
ATOM     31  C   UNL     1      15.025  42.118   8.903  1.00  0.00     0.179 C 
ATOM     32  C   UNL     1      16.105  42.598   7.899  1.00  0.00     0.177 C 
BRANCH  28  33
ATOM     33  O   UNL     1      15.915  45.596   8.594  1.00  0.00    -0.384 OA
ATOM     34  H   UNL     1      16.635  44.979   8.882  1.00  0.00     0.211 HD
ENDBRANCH  28  33
BRANCH  30  35
ATOM     35  O   UNL     1      16.590  44.284   6.206  1.00  0.00    -0.387 OA
ATOM     36  H   UNL     1      16.541  45.274   6.258  1.00  0.00     0.211 HD
ENDBRANCH  30  35
BRANCH  31  37
ATOM     37  C   UNL     1      13.945  41.194   8.296  1.00  0.00     0.191 C 
BRANCH  37  38
ATOM     38  O   UNL     1      14.263  39.845   8.511  1.00  0.00    -0.394 OA
ATOM     39  H   UNL     1      13.553  39.475   9.099  1.00  0.00     0.210 HD
ENDBRANCH  37  38
ENDBRANCH  31  37
BRANCH  32  40
ATOM     40  O   UNL     1      16.522  41.529   7.088  1.00  0.00    -0.387 OA
ATOM     41  H   UNL     1      16.409  40.698   7.621  1.00  0.00     0.211 HD
ENDBRANCH  32  40
ENDBRANCH   1  27
TORSDOF 12
ENDMDL
MODEL 9
REMARK VINA RESULT:    -6.286      3.377      9.402
REMARK INTER + INTRA:         -10.690
REMARK INTER:                  -9.090
REMARK INTRA:                  -1.601
REMARK UNBOUND:                -1.464
REMARK SMILES O=c1c(O[C@H]2O[C@@H](CO)[C@@H](O)[C@H](O)[C@@H]2O)c(-c2ccc(O)c(O)c2)oc2cc(O)cc(O)c12
REMARK SMILES IDX 4 1 3 2 16 3 25 4 2 5 26 6 1 7 33 8 27 9 31 10 28 11 30 12
REMARK SMILES IDX 17 13 18 14 19 15 20 16 24 17 22 18 21 19 23 21 32 23 29 25
REMARK SMILES IDX 5 27 14 28 6 29 12 30 7 31 10 32 15 33 13 35 8 37 9 38 11 40
REMARK H PARENT 21 20 23 22 32 24 29 26 15 34 13 36 9 39 11 41
REMARK Flexibility Score: inf
ROOT
ATOM      1  O   UNL     1       7.513  46.078   9.795  1.00  0.00    -0.454 OA
ENDROOT
BRANCH   1   2
ATOM      2  C   UNL     1       8.617  45.985   8.926  1.00  0.00     0.214 A 
ATOM      3  C   UNL     1       8.502  46.528   7.630  1.00  0.00     0.180 A 
ATOM      4  O   UNL     1       9.507  46.418   6.767  1.00  0.00    -0.452 OA
ATOM      5  C   UNL     1       9.830  45.355   9.281  1.00  0.00     0.239 A 
ATOM      6  C   UNL     1      10.658  45.828   7.058  1.00  0.00     0.146 A 
ATOM      7  O   UNL     1       9.983  44.885  10.440  1.00  0.00    -0.285 OA
ATOM      8  C   UNL     1      10.876  45.268   8.338  1.00  0.00     0.111 A 
ATOM      9  C   UNL     1      11.656  45.767   6.082  1.00  0.00     0.094 A 
ATOM     10  C   UNL     1      12.119  44.649   8.615  1.00  0.00     0.134 A 
ATOM     11  C   UNL     1      12.881  45.154   6.362  1.00  0.00     0.123 A 
ATOM     12  C   UNL     1      13.109  44.600   7.622  1.00  0.00     0.093 A 
BRANCH   3  13
ATOM     13  C   UNL     1       7.263  47.191   7.167  1.00  0.00     0.025 A 
ATOM     14  C   UNL     1       6.983  48.529   7.491  1.00  0.00     0.016 A 
ATOM     15  C   UNL     1       5.809  49.135   7.039  1.00  0.00     0.051 A 
ATOM     16  C   UNL     1       4.904  48.418   6.244  1.00  0.00     0.157 A 
ATOM     17  C   UNL     1       6.365  46.484   6.351  1.00  0.00     0.062 A 
ATOM     18  C   UNL     1       5.188  47.087   5.896  1.00  0.00     0.158 A 
BRANCH  16  19
ATOM     19  O   UNL     1       3.731  49.025   5.796  1.00  0.00    -0.504 OA
ATOM     20  H   UNL     1       3.724  49.980   5.457  1.00  0.00     0.293 HD
ENDBRANCH  16  19
BRANCH  18  21
ATOM     21  O   UNL     1       4.312  46.348   5.099  1.00  0.00    -0.504 OA
ATOM     22  H   UNL     1       3.834  46.756   4.304  1.00  0.00     0.293 HD
ENDBRANCH  18  21
ENDBRANCH   3  13
BRANCH  10  23
ATOM     23  O   UNL     1      12.378  44.083   9.865  1.00  0.00    -0.507 OA
ATOM     24  H   UNL     1      12.512  43.085   9.981  1.00  0.00     0.293 HD
ENDBRANCH  10  23
BRANCH  11  25
ATOM     25  O   UNL     1      13.880  45.091   5.393  1.00  0.00    -0.508 OA
ATOM     26  H   UNL     1      14.170  45.913   4.876  1.00  0.00     0.293 HD
ENDBRANCH  11  25
ENDBRANCH   1   2
BRANCH   1  27
ATOM     27  C   UNL     1       7.341  47.034  10.845  1.00  0.00     0.339 C 
ATOM     28  C   UNL     1       7.359  46.319  12.210  1.00  0.00     0.214 C 
ATOM     29  O   UNL     1       6.174  47.829  10.661  1.00  0.00    -0.332 OA
ATOM     30  C   UNL     1       6.072  45.501  12.411  1.00  0.00     0.180 C 
ATOM     31  C   UNL     1       4.946  47.120  10.794  1.00  0.00     0.179 C 
ATOM     32  C   UNL     1       4.827  46.370  12.146  1.00  0.00     0.177 C 
BRANCH  28  33
ATOM     33  O   UNL     1       7.569  47.233  13.261  1.00  0.00    -0.384 OA
ATOM     34  H   UNL     1       7.329  46.788  14.115  1.00  0.00     0.211 HD
ENDBRANCH  28  33
BRANCH  30  35
ATOM     35  O   UNL     1       6.035  44.923  13.693  1.00  0.00    -0.387 OA
ATOM     36  H   UNL     1       6.948  44.971  14.078  1.00  0.00     0.211 HD
ENDBRANCH  30  35
BRANCH  31  37
ATOM     37  C   UNL     1       4.634  46.258   9.549  1.00  0.00     0.191 C 
BRANCH  37  38
ATOM     38  O   UNL     1       3.263  45.974   9.468  1.00  0.00    -0.394 OA
ATOM     39  H   UNL     1       3.103  45.173  10.032  1.00  0.00     0.210 HD
ENDBRANCH  37  38
ENDBRANCH  31  37
BRANCH  32  40
ATOM     40  O   UNL     1       3.669  45.574  12.159  1.00  0.00    -0.387 OA
ATOM     41  H   UNL     1       3.832  44.834  12.800  1.00  0.00     0.211 HD
ENDBRANCH  32  40
ENDBRANCH   1  27
TORSDOF 12
ENDMDL
