MODEL 1
REMARK VINA RESULT:    -5.888      0.000      0.000
REMARK INTER + INTRA:          -9.687
REMARK INTER:                  -8.125
REMARK INTRA:                  -1.562
REMARK UNBOUND:                -1.562
REMARK SMILES CC[C@@H](CC[C@H](C)[C@@H]1CC[C@H]2[C@@H]3CC=C4C[C@H](O)CC[C@@]4(C)[C@H]3CC[C@]21C)C(C)C
REMARK SMILES IDX 5 1 4 2 3 3 2 4 1 5 28 6 29 7 30 8 6 9 7 10 8 11 9 12 26 13
REMARK SMILES IDX 10 14 11 15 25 16 27 17 12 18 24 19 23 20 13 21 21 22 14 23
REMARK SMILES IDX 15 24 20 25 22 26 16 27 19 28 17 29 18 30
REMARK H PARENT 18 31
REMARK Flexibility Score: inf
ROOT
ATOM      1  C   UNL     1       9.727  39.131  20.742  1.00  0.00     0.004 C 
ENDROOT
BRANCH   1   2
ATOM      2  C   UNL     1       9.269  40.598  20.558  1.00  0.00     0.004 C 
BRANCH   2   3
ATOM      3  C   UNL     1      10.405  41.667  20.567  1.00  0.00    -0.009 C 
BRANCH   3   4
ATOM      4  C   UNL     1      10.026  42.898  21.440  1.00  0.00     0.000 C 
ATOM      5  C   UNL     1      10.774  44.181  21.071  1.00  0.00     0.004 C 
ENDBRANCH   3   4
BRANCH   3   6
ATOM      6  C   UNL     1      10.944  41.975  19.121  1.00  0.00    -0.014 C 
ATOM      7  C   UNL     1       9.947  41.564  18.024  1.00  0.00     0.007 C 
ATOM      8  C   UNL     1      12.337  41.404  18.806  1.00  0.00     0.007 C 
ENDBRANCH   3   6
ENDBRANCH   2   3
ENDBRANCH   1   2
BRANCH   1   9
ATOM      9  C   UNL     1      10.876  38.999  21.781  1.00  0.00    -0.011 C 
ATOM     10  C   UNL     1      12.126  38.416  21.089  1.00  0.00     0.008 C 
BRANCH   9  11
ATOM     11  C   UNL     1      10.529  38.156  23.068  1.00  0.00    -0.002 C 
ATOM     12  C   UNL     1       9.051  37.827  23.262  1.00  0.00     0.005 C 
ATOM     13  C   UNL     1      11.023  38.698  24.447  1.00  0.00    -0.026 C 
ATOM     14  C   UNL     1       8.964  37.281  24.676  1.00  0.00     0.005 C 
ATOM     15  C   UNL     1      10.100  37.951  25.490  1.00  0.00    -0.001 C 
ATOM     16  C   UNL     1      12.563  38.466  24.604  1.00  0.00     0.007 C 
ATOM     17  C   UNL     1      10.775  40.229  24.588  1.00  0.00     0.012 C 
ATOM     18  C   UNL     1      10.757  36.920  26.487  1.00  0.00     0.000 C 
ATOM     19  C   UNL     1      12.939  37.176  25.319  1.00  0.00     0.005 C 
ATOM     20  C   UNL     1      12.261  37.133  26.700  1.00  0.00     0.003 C 
ATOM     21  C   UNL     1      10.055  37.003  27.852  1.00  0.00     0.031 C 
ATOM     22  C   UNL     1      12.905  36.070  27.688  1.00  0.00    -0.008 C 
ATOM     23  C   UNL     1      10.647  36.051  28.842  1.00  0.00    -0.027 C 
ATOM     24  C   UNL     1      11.940  35.665  28.816  1.00  0.00    -0.065 C 
ATOM     25  C   UNL     1      13.304  34.752  26.950  1.00  0.00     0.014 C 
ATOM     26  C   UNL     1      14.166  36.724  28.313  1.00  0.00     0.016 C 
ATOM     27  C   UNL     1      12.390  34.584  29.779  1.00  0.00     0.063 C 
ATOM     28  C   UNL     1      13.778  33.627  27.896  1.00  0.00     0.033 C 
ATOM     29  C   UNL     1      12.746  33.314  28.989  1.00  0.00     0.118 C 
BRANCH  29  30
ATOM     30  O   UNL     1      13.274  32.339  29.851  1.00  0.00    -0.393 OA
ATOM     31  H   UNL     1      13.122  31.458  29.417  1.00  0.00     0.210 HD
ENDBRANCH  29  30
ENDBRANCH   9  11
ENDBRANCH   1   9
TORSDOF 7
ENDMDL
MODEL 2
REMARK VINA RESULT:    -4.836      1.372      3.174
REMARK INTER + INTRA:          -8.235
REMARK INTER:                  -6.562
REMARK INTRA:                  -1.673
REMARK UNBOUND:                -1.562
REMARK SMILES CC[C@@H](CC[C@H](C)[C@@H]1CC[C@H]2[C@@H]3CC=C4C[C@H](O)CC[C@@]4(C)[C@H]3CC[C@]21C)C(C)C
REMARK SMILES IDX 5 1 4 2 3 3 2 4 1 5 28 6 29 7 30 8 6 9 7 10 8 11 9 12 26 13
REMARK SMILES IDX 10 14 11 15 25 16 27 17 12 18 24 19 23 20 13 21 21 22 14 23
REMARK SMILES IDX 15 24 20 25 22 26 16 27 19 28 17 29 18 30
REMARK H PARENT 18 31
REMARK Flexibility Score: inf
ROOT
ATOM      1  C   UNL     1      12.837  40.880  19.459  1.00  0.00     0.004 C 
ENDROOT
BRANCH   1   2
ATOM      2  C   UNL     1      12.102  42.126  18.908  1.00  0.00     0.004 C 
BRANCH   2   3
ATOM      3  C   UNL     1      10.725  42.446  19.567  1.00  0.00    -0.009 C 
BRANCH   3   4
ATOM      4  C   UNL     1       9.542  42.074  18.628  1.00  0.00     0.000 C 
ATOM      5  C   UNL     1       9.639  40.671  18.024  1.00  0.00     0.004 C 
ENDBRANCH   3   4
BRANCH   3   6
ATOM      6  C   UNL     1      10.687  43.886  20.200  1.00  0.00    -0.014 C 
ATOM      7  C   UNL     1      12.083  44.377  20.622  1.00  0.00     0.007 C 
ATOM      8  C   UNL     1       9.694  44.065  21.361  1.00  0.00     0.007 C 
ENDBRANCH   3   6
ENDBRANCH   2   3
ENDBRANCH   1   2
BRANCH   1   9
ATOM      9  C   UNL     1      12.871  40.858  21.013  1.00  0.00    -0.011 C 
ATOM     10  C   UNL     1      14.289  41.226  21.497  1.00  0.00     0.008 C 
BRANCH   9  11
ATOM     11  C   UNL     1      12.407  39.506  21.680  1.00  0.00    -0.002 C 
ATOM     12  C   UNL     1      12.179  38.342  20.718  1.00  0.00     0.005 C 
ATOM     13  C   UNL     1      11.146  39.545  22.599  1.00  0.00    -0.026 C 
ATOM     14  C   UNL     1      11.481  37.286  21.557  1.00  0.00     0.005 C 
ATOM     15  C   UNL     1      10.680  38.036  22.652  1.00  0.00    -0.001 C 
ATOM     16  C   UNL     1      11.494  40.204  23.975  1.00  0.00     0.007 C 
ATOM     17  C   UNL     1       9.996  40.385  21.967  1.00  0.00     0.012 C 
ATOM     18  C   UNL     1      10.754  37.265  24.026  1.00  0.00     0.000 C 
ATOM     19  C   UNL     1      11.886  39.220  25.067  1.00  0.00     0.005 C 
ATOM     20  C   UNL     1      10.765  38.181  25.255  1.00  0.00     0.003 C 
ATOM     21  C   UNL     1       9.558  36.305  24.145  1.00  0.00     0.031 C 
ATOM     22  C   UNL     1      10.864  37.385  26.625  1.00  0.00    -0.008 C 
ATOM     23  C   UNL     1       9.573  35.553  25.438  1.00  0.00    -0.027 C 
ATOM     24  C   UNL     1      10.105  36.047  26.575  1.00  0.00    -0.065 C 
ATOM     25  C   UNL     1      12.341  37.044  26.999  1.00  0.00     0.014 C 
ATOM     26  C   UNL     1      10.236  38.280  27.727  1.00  0.00     0.016 C 
ATOM     27  C   UNL     1      10.194  35.137  27.784  1.00  0.00     0.063 C 
ATOM     28  C   UNL     1      12.477  36.126  28.233  1.00  0.00     0.033 C 
ATOM     29  C   UNL     1      11.671  34.828  28.082  1.00  0.00     0.118 C 
BRANCH  29  30
ATOM     30  O   UNL     1      11.782  34.080  29.266  1.00  0.00    -0.393 OA
ATOM     31  H   UNL     1      12.657  34.312  29.672  1.00  0.00     0.210 HD
ENDBRANCH  29  30
ENDBRANCH   9  11
ENDBRANCH   1   9
TORSDOF 7
ENDMDL
MODEL 3
REMARK VINA RESULT:    -4.402      3.432      9.458
REMARK INTER + INTRA:          -7.637
REMARK INTER:                  -6.724
REMARK INTRA:                  -0.913
REMARK UNBOUND:                -1.562
REMARK SMILES CC[C@@H](CC[C@H](C)[C@@H]1CC[C@H]2[C@@H]3CC=C4C[C@H](O)CC[C@@]4(C)[C@H]3CC[C@]21C)C(C)C
REMARK SMILES IDX 5 1 4 2 3 3 2 4 1 5 28 6 29 7 30 8 6 9 7 10 8 11 9 12 26 13
REMARK SMILES IDX 10 14 11 15 25 16 27 17 12 18 24 19 23 20 13 21 21 22 14 23
REMARK SMILES IDX 15 24 20 25 22 26 16 27 19 28 17 29 18 30
REMARK H PARENT 18 31
REMARK Flexibility Score: inf
ROOT
ATOM      1  C   UNL     1      13.491  37.227  26.670  1.00  0.00     0.004 C 
ENDROOT
BRANCH   1   2
ATOM      2  C   UNL     1      14.101  35.827  26.924  1.00  0.00     0.004 C 
BRANCH   2   3
ATOM      3  C   UNL     1      13.314  34.916  27.913  1.00  0.00    -0.009 C 
BRANCH   3   4
ATOM      4  C   UNL     1      13.188  33.461  27.375  1.00  0.00     0.000 C 
ATOM      5  C   UNL     1      14.140  32.464  28.038  1.00  0.00     0.004 C 
ENDBRANCH   3   4
BRANCH   3   6
ATOM      6  C   UNL     1      11.985  35.591  28.417  1.00  0.00    -0.014 C 
ATOM      7  C   UNL     1      11.868  35.583  29.951  1.00  0.00     0.007 C 
ATOM      8  C   UNL     1      10.692  35.042  27.789  1.00  0.00     0.007 C 
ENDBRANCH   3   6
ENDBRANCH   2   3
ENDBRANCH   1   2
BRANCH   1   9
ATOM      9  C   UNL     1      13.672  37.689  25.197  1.00  0.00    -0.011 C 
ATOM     10  C   UNL     1      14.953  38.543  25.083  1.00  0.00     0.008 C 
BRANCH   9  11
ATOM     11  C   UNL     1      12.449  38.467  24.577  1.00  0.00    -0.002 C 
ATOM     12  C   UNL     1      11.072  38.030  25.072  1.00  0.00     0.005 C 
ATOM     13  C   UNL     1      12.337  38.525  23.021  1.00  0.00    -0.026 C 
ATOM     14  C   UNL     1      10.095  38.715  24.132  1.00  0.00     0.005 C 
ATOM     15  C   UNL     1      10.818  38.883  22.771  1.00  0.00    -0.001 C 
ATOM     16  C   UNL     1      13.384  39.531  22.436  1.00  0.00     0.007 C 
ATOM     17  C   UNL     1      12.622  37.139  22.369  1.00  0.00     0.012 C 
ATOM     18  C   UNL     1      10.461  40.272  22.116  1.00  0.00     0.000 C 
ATOM     19  C   UNL     1      12.854  40.942  22.223  1.00  0.00     0.005 C 
ATOM     20  C   UNL     1      11.611  40.897  21.317  1.00  0.00     0.003 C 
ATOM     21  C   UNL     1       9.252  40.107  21.181  1.00  0.00     0.031 C 
ATOM     22  C   UNL     1      11.236  42.306  20.686  1.00  0.00    -0.008 C 
ATOM     23  C   UNL     1       8.875  41.396  20.523  1.00  0.00    -0.027 C 
ATOM     24  C   UNL     1       9.764  42.371  20.243  1.00  0.00    -0.065 C 
ATOM     25  C   UNL     1      11.447  43.475  21.700  1.00  0.00     0.014 C 
ATOM     26  C   UNL     1      12.147  42.515  19.447  1.00  0.00     0.016 C 
ATOM     27  C   UNL     1       9.243  43.691  19.709  1.00  0.00     0.063 C 
ATOM     28  C   UNL     1      10.939  44.841  21.191  1.00  0.00     0.033 C 
ATOM     29  C   UNL     1       9.465  44.789  20.763  1.00  0.00     0.118 C 
BRANCH  29  30
ATOM     30  O   UNL     1       9.094  46.041  20.245  1.00  0.00    -0.393 OA
ATOM     31  H   UNL     1       9.806  46.311  19.607  1.00  0.00     0.210 HD
ENDBRANCH  29  30
ENDBRANCH   9  11
ENDBRANCH   1   9
TORSDOF 7
ENDMDL
MODEL 4
REMARK VINA RESULT:    -4.209      3.072      9.022
REMARK INTER + INTRA:          -7.370
REMARK INTER:                  -6.999
REMARK INTRA:                  -0.371
REMARK UNBOUND:                -1.562
REMARK SMILES CC[C@@H](CC[C@H](C)[C@@H]1CC[C@H]2[C@@H]3CC=C4C[C@H](O)CC[C@@]4(C)[C@H]3CC[C@]21C)C(C)C
REMARK SMILES IDX 5 1 4 2 3 3 2 4 1 5 28 6 29 7 30 8 6 9 7 10 8 11 9 12 26 13
REMARK SMILES IDX 10 14 11 15 25 16 27 17 12 18 24 19 23 20 13 21 21 22 14 23
REMARK SMILES IDX 15 24 20 25 22 26 16 27 19 28 17 29 18 30
REMARK H PARENT 18 31
REMARK Flexibility Score: inf
ROOT
ATOM      1  C   UNL     1      12.386  35.792  27.778  1.00  0.00     0.004 C 
ENDROOT
BRANCH   1   2
ATOM      2  C   UNL     1      12.277  34.468  28.573  1.00  0.00     0.004 C 
BRANCH   2   3
ATOM      3  C   UNL     1      12.616  33.171  27.776  1.00  0.00    -0.009 C 
BRANCH   3   4
ATOM      4  C   UNL     1      11.374  32.630  27.010  1.00  0.00     0.000 C 
ATOM      5  C   UNL     1      11.458  31.145  26.652  1.00  0.00     0.004 C 
ENDBRANCH   3   4
BRANCH   3   6
ATOM      6  C   UNL     1      13.410  32.128  28.645  1.00  0.00    -0.014 C 
ATOM      7  C   UNL     1      13.338  32.442  30.149  1.00  0.00     0.007 C 
ATOM      8  C   UNL     1      14.873  31.903  28.224  1.00  0.00     0.007 C 
ENDBRANCH   3   6
ENDBRANCH   2   3
ENDBRANCH   1   2
BRANCH   1   9
ATOM      9  C   UNL     1      11.242  36.784  28.129  1.00  0.00    -0.011 C 
ATOM     10  C   UNL     1      10.090  36.015  28.808  1.00  0.00     0.008 C 
BRANCH   9  11
ATOM     11  C   UNL     1      10.687  37.631  26.921  1.00  0.00    -0.002 C 
ATOM     12  C   UNL     1       9.316  38.268  27.139  1.00  0.00     0.005 C 
ATOM     13  C   UNL     1      10.611  36.941  25.523  1.00  0.00    -0.026 C 
ATOM     14  C   UNL     1       8.904  38.764  25.764  1.00  0.00     0.005 C 
ATOM     15  C   UNL     1       9.576  37.830  24.726  1.00  0.00    -0.001 C 
ATOM     16  C   UNL     1      12.041  36.823  24.896  1.00  0.00     0.007 C 
ATOM     17  C   UNL     1      10.035  35.497  25.622  1.00  0.00     0.012 C 
ATOM     18  C   UNL     1      10.081  38.652  23.478  1.00  0.00     0.000 C 
ATOM     19  C   UNL     1      12.422  37.970  23.971  1.00  0.00     0.005 C 
ATOM     20  C   UNL     1      11.372  38.107  22.854  1.00  0.00     0.003 C 
ATOM     21  C   UNL     1       8.988  38.672  22.396  1.00  0.00     0.031 C 
ATOM     22  C   UNL     1      11.873  38.963  21.615  1.00  0.00    -0.008 C 
ATOM     23  C   UNL     1       9.419  39.431  21.182  1.00  0.00    -0.027 C 
ATOM     24  C   UNL     1      10.705  39.524  20.786  1.00  0.00    -0.065 C 
ATOM     25  C   UNL     1      12.733  40.189  22.060  1.00  0.00     0.014 C 
ATOM     26  C   UNL     1      12.724  38.024  20.717  1.00  0.00     0.016 C 
ATOM     27  C   UNL     1      11.038  40.442  19.625  1.00  0.00     0.063 C 
ATOM     28  C   UNL     1      13.102  41.144  20.904  1.00  0.00     0.033 C 
ATOM     29  C   UNL     1      11.864  41.633  20.137  1.00  0.00     0.118 C 
BRANCH  29  30
ATOM     30  O   UNL     1      12.280  42.434  19.062  1.00  0.00    -0.393 OA
ATOM     31  H   UNL     1      12.828  41.857  18.467  1.00  0.00     0.210 HD
ENDBRANCH  29  30
ENDBRANCH   9  11
ENDBRANCH   1   9
TORSDOF 7
ENDMDL
MODEL 5
REMARK VINA RESULT:    -4.158      1.639      3.473
REMARK INTER + INTRA:          -7.300
REMARK INTER:                  -6.124
REMARK INTRA:                  -1.176
REMARK UNBOUND:                -1.562
REMARK SMILES CC[C@@H](CC[C@H](C)[C@@H]1CC[C@H]2[C@@H]3CC=C4C[C@H](O)CC[C@@]4(C)[C@H]3CC[C@]21C)C(C)C
REMARK SMILES IDX 5 1 4 2 3 3 2 4 1 5 28 6 29 7 30 8 6 9 7 10 8 11 9 12 26 13
REMARK SMILES IDX 10 14 11 15 25 16 27 17 12 18 24 19 23 20 13 21 21 22 14 23
REMARK SMILES IDX 15 24 20 25 22 26 16 27 19 28 17 29 18 30
REMARK H PARENT 18 31
REMARK Flexibility Score: inf
ROOT
ATOM      1  C   UNL     1      11.870  41.680  19.596  1.00  0.00     0.004 C 
ENDROOT
BRANCH   1   2
ATOM      2  C   UNL     1      11.840  43.220  19.755  1.00  0.00     0.004 C 
BRANCH   2   3
ATOM      3  C   UNL     1      12.069  43.755  21.201  1.00  0.00    -0.009 C 
BRANCH   3   4
ATOM      4  C   UNL     1      10.771  44.377  21.793  1.00  0.00     0.000 C 
ATOM      5  C   UNL     1       9.570  44.339  20.846  1.00  0.00     0.004 C 
ENDBRANCH   3   4
BRANCH   3   6
ATOM      6  C   UNL     1      13.375  44.625  21.315  1.00  0.00    -0.014 C 
ATOM      7  C   UNL     1      14.556  43.836  21.906  1.00  0.00     0.007 C 
ATOM      8  C   UNL     1      13.210  45.960  22.061  1.00  0.00     0.007 C 
ENDBRANCH   3   6
ENDBRANCH   2   3
ENDBRANCH   1   2
BRANCH   1   9
ATOM      9  C   UNL     1      12.819  41.002  20.624  1.00  0.00    -0.011 C 
ATOM     10  C   UNL     1      14.172  40.700  19.948  1.00  0.00     0.008 C 
BRANCH   9  11
ATOM     11  C   UNL     1      12.253  39.698  21.306  1.00  0.00    -0.002 C 
ATOM     12  C   UNL     1      11.868  38.570  20.352  1.00  0.00     0.005 C 
ATOM     13  C   UNL     1      11.044  39.853  22.282  1.00  0.00    -0.026 C 
ATOM     14  C   UNL     1      11.108  37.581  21.219  1.00  0.00     0.005 C 
ATOM     15  C   UNL     1      10.434  38.397  22.352  1.00  0.00    -0.001 C 
ATOM     16  C   UNL     1      11.518  40.464  23.643  1.00  0.00     0.007 C 
ATOM     17  C   UNL     1       9.956  40.808  21.707  1.00  0.00     0.012 C 
ATOM     18  C   UNL     1      10.494  37.612  23.718  1.00  0.00     0.000 C 
ATOM     19  C   UNL     1      11.859  39.437  24.713  1.00  0.00     0.005 C 
ATOM     20  C   UNL     1      10.651  38.513  24.948  1.00  0.00     0.003 C 
ATOM     21  C   UNL     1       9.215  36.774  23.888  1.00  0.00     0.031 C 
ATOM     22  C   UNL     1      10.731  37.700  26.310  1.00  0.00    -0.008 C 
ATOM     23  C   UNL     1       9.214  36.014  25.176  1.00  0.00    -0.027 C 
ATOM     24  C   UNL     1       9.842  36.444  26.289  1.00  0.00    -0.065 C 
ATOM     25  C   UNL     1      12.183  37.212  26.614  1.00  0.00     0.014 C 
ATOM     26  C   UNL     1      10.246  38.644  27.442  1.00  0.00     0.016 C 
ATOM     27  C   UNL     1       9.895  35.520  27.490  1.00  0.00     0.063 C 
ATOM     28  C   UNL     1      12.283  36.275  27.838  1.00  0.00     0.033 C 
ATOM     29  C   UNL     1      11.346  35.064  27.719  1.00  0.00     0.118 C 
BRANCH  29  30
ATOM     30  O   UNL     1      11.435  34.300  28.894  1.00  0.00    -0.393 OA
ATOM     31  H   UNL     1      11.530  34.940  29.648  1.00  0.00     0.210 HD
ENDBRANCH  29  30
ENDBRANCH   9  11
ENDBRANCH   1   9
TORSDOF 7
ENDMDL
MODEL 6
REMARK VINA RESULT:    -4.123      3.236      9.231
REMARK INTER + INTRA:          -7.251
REMARK INTER:                  -6.050
REMARK INTRA:                  -1.201
REMARK UNBOUND:                -1.562
REMARK SMILES CC[C@@H](CC[C@H](C)[C@@H]1CC[C@H]2[C@@H]3CC=C4C[C@H](O)CC[C@@]4(C)[C@H]3CC[C@]21C)C(C)C
REMARK SMILES IDX 5 1 4 2 3 3 2 4 1 5 28 6 29 7 30 8 6 9 7 10 8 11 9 12 26 13
REMARK SMILES IDX 10 14 11 15 25 16 27 17 12 18 24 19 23 20 13 21 21 22 14 23
REMARK SMILES IDX 15 24 20 25 22 26 16 27 19 28 17 29 18 30
REMARK H PARENT 18 31
REMARK Flexibility Score: inf
ROOT
ATOM      1  C   UNL     1      11.590  35.720  27.965  1.00  0.00     0.004 C 
ENDROOT
BRANCH   1   2
ATOM      2  C   UNL     1      11.186  34.226  27.955  1.00  0.00     0.004 C 
BRANCH   2   3
ATOM      3  C   UNL     1      12.281  33.232  27.461  1.00  0.00    -0.009 C 
BRANCH   3   4
ATOM      4  C   UNL     1      11.655  31.921  26.905  1.00  0.00     0.000 C 
ATOM      5  C   UNL     1      10.248  32.094  26.328  1.00  0.00     0.004 C 
ENDBRANCH   3   4
BRANCH   3   6
ATOM      6  C   UNL     1      13.446  33.062  28.504  1.00  0.00    -0.014 C 
ATOM      7  C   UNL     1      14.430  31.947  28.107  1.00  0.00     0.007 C 
ATOM      8  C   UNL     1      12.998  32.872  29.963  1.00  0.00     0.007 C 
ENDBRANCH   3   6
ENDBRANCH   2   3
ENDBRANCH   1   2
BRANCH   1   9
ATOM      9  C   UNL     1      10.727  36.569  26.989  1.00  0.00    -0.011 C 
ATOM     10  C   UNL     1       9.546  35.717  26.480  1.00  0.00     0.008 C 
BRANCH   9  11
ATOM     11  C   UNL     1      11.505  37.195  25.770  1.00  0.00    -0.002 C 
ATOM     12  C   UNL     1      13.027  37.080  25.830  1.00  0.00     0.005 C 
ATOM     13  C   UNL     1      11.211  38.686  25.408  1.00  0.00    -0.026 C 
ATOM     14  C   UNL     1      13.522  37.989  24.719  1.00  0.00     0.005 C 
ATOM     15  C   UNL     1      12.469  39.114  24.552  1.00  0.00    -0.001 C 
ATOM     16  C   UNL     1       9.822  38.810  24.697  1.00  0.00     0.007 C 
ATOM     17  C   UNL     1      11.158  39.589  26.676  1.00  0.00     0.012 C 
ATOM     18  C   UNL     1      12.266  39.469  23.028  1.00  0.00     0.000 C 
ATOM     19  C   UNL     1       9.884  38.770  23.177  1.00  0.00     0.005 C 
ATOM     20  C   UNL     1      10.831  39.871  22.668  1.00  0.00     0.003 C 
ATOM     21  C   UNL     1      13.207  40.621  22.637  1.00  0.00     0.031 C 
ATOM     22  C   UNL     1      10.647  40.201  21.125  1.00  0.00    -0.008 C 
ATOM     23  C   UNL     1      13.050  41.007  21.201  1.00  0.00    -0.027 C 
ATOM     24  C   UNL     1      11.891  40.878  20.523  1.00  0.00    -0.065 C 
ATOM     25  C   UNL     1      10.386  38.915  20.279  1.00  0.00     0.014 C 
ATOM     26  C   UNL     1       9.437  41.167  21.000  1.00  0.00     0.016 C 
ATOM     27  C   UNL     1      11.890  41.163  19.034  1.00  0.00     0.063 C 
ATOM     28  C   UNL     1      10.367  39.165  18.755  1.00  0.00     0.033 C 
ATOM     29  C   UNL     1      11.649  39.854  18.264  1.00  0.00     0.118 C 
BRANCH  29  30
ATOM     30  O   UNL     1      11.530  40.114  16.889  1.00  0.00    -0.393 OA
ATOM     31  H   UNL     1      12.427  40.397  16.571  1.00  0.00     0.210 HD
ENDBRANCH  29  30
ENDBRANCH   9  11
ENDBRANCH   1   9
TORSDOF 7
ENDMDL
MODEL 7
REMARK VINA RESULT:    -4.085      3.372      8.920
REMARK INTER + INTRA:          -7.199
REMARK INTER:                  -5.502
REMARK INTRA:                  -1.698
REMARK UNBOUND:                -1.562
REMARK SMILES CC[C@@H](CC[C@H](C)[C@@H]1CC[C@H]2[C@@H]3CC=C4C[C@H](O)CC[C@@]4(C)[C@H]3CC[C@]21C)C(C)C
REMARK SMILES IDX 5 1 4 2 3 3 2 4 1 5 28 6 29 7 30 8 6 9 7 10 8 11 9 12 26 13
REMARK SMILES IDX 10 14 11 15 25 16 27 17 12 18 24 19 23 20 13 21 21 22 14 23
REMARK SMILES IDX 15 24 20 25 22 26 16 27 19 28 17 29 18 30
REMARK H PARENT 18 31
REMARK Flexibility Score: inf
ROOT
ATOM      1  C   UNL     1      11.646  36.601  28.136  1.00  0.00     0.004 C 
ENDROOT
BRANCH   1   2
ATOM      2  C   UNL     1      11.339  35.137  28.537  1.00  0.00     0.004 C 
BRANCH   2   3
ATOM      3  C   UNL     1      11.332  34.104  27.369  1.00  0.00    -0.009 C 
BRANCH   3   4
ATOM      4  C   UNL     1       9.883  33.743  26.933  1.00  0.00     0.000 C 
ATOM      5  C   UNL     1       8.877  34.885  27.096  1.00  0.00     0.004 C 
ENDBRANCH   3   4
BRANCH   3   6
ATOM      6  C   UNL     1      12.302  32.894  27.638  1.00  0.00    -0.014 C 
ATOM      7  C   UNL     1      13.776  33.258  27.390  1.00  0.00     0.007 C 
ATOM      8  C   UNL     1      11.949  31.594  26.895  1.00  0.00     0.007 C 
ENDBRANCH   3   6
ENDBRANCH   2   3
ENDBRANCH   1   2
BRANCH   1   9
ATOM      9  C   UNL     1      12.122  36.719  26.661  1.00  0.00    -0.011 C 
ATOM     10  C   UNL     1      13.652  36.919  26.634  1.00  0.00     0.008 C 
BRANCH   9  11
ATOM     11  C   UNL     1      11.415  37.842  25.811  1.00  0.00    -0.002 C 
ATOM     12  C   UNL     1      10.114  38.388  26.393  1.00  0.00     0.005 C 
ATOM     13  C   UNL     1      11.107  37.534  24.311  1.00  0.00    -0.026 C 
ATOM     14  C   UNL     1       9.513  39.217  25.272  1.00  0.00     0.005 C 
ATOM     15  C   UNL     1       9.990  38.587  23.938  1.00  0.00    -0.001 C 
ATOM     16  C   UNL     1      12.420  37.596  23.461  1.00  0.00     0.007 C 
ATOM     17  C   UNL     1      10.509  36.107  24.126  1.00  0.00     0.012 C 
ATOM     18  C   UNL     1      10.324  39.707  22.879  1.00  0.00     0.000 C 
ATOM     19  C   UNL     1      12.690  38.945  22.812  1.00  0.00     0.005 C 
ATOM     20  C   UNL     1      11.487  39.354  21.945  1.00  0.00     0.003 C 
ATOM     21  C   UNL     1       9.080  39.994  22.021  1.00  0.00     0.031 C 
ATOM     22  C   UNL     1      11.820  40.505  20.902  1.00  0.00    -0.008 C 
ATOM     23  C   UNL     1       9.343  41.044  20.990  1.00  0.00    -0.027 C 
ATOM     24  C   UNL     1      10.556  41.249  20.436  1.00  0.00    -0.065 C 
ATOM     25  C   UNL     1      12.773  41.583  21.507  1.00  0.00     0.014 C 
ATOM     26  C   UNL     1      12.494  39.836  19.674  1.00  0.00     0.016 C 
ATOM     27  C   UNL     1      10.736  42.437  19.511  1.00  0.00     0.063 C 
ATOM     28  C   UNL     1      12.991  42.807  20.591  1.00  0.00     0.033 C 
ATOM     29  C   UNL     1      11.667  43.465  20.176  1.00  0.00     0.118 C 
BRANCH  29  30
ATOM     30  O   UNL     1      11.938  44.519  19.289  1.00  0.00    -0.393 OA
ATOM     31  H   UNL     1      11.084  44.737  18.831  1.00  0.00     0.210 HD
ENDBRANCH  29  30
ENDBRANCH   9  11
ENDBRANCH   1   9
TORSDOF 7
ENDMDL
MODEL 8
REMARK VINA RESULT:    -3.519      6.527     10.265
REMARK INTER + INTRA:          -6.419
REMARK INTER:                  -6.601
REMARK INTRA:                   0.182
REMARK UNBOUND:                -1.562
REMARK SMILES CC[C@@H](CC[C@H](C)[C@@H]1CC[C@H]2[C@@H]3CC=C4C[C@H](O)CC[C@@]4(C)[C@H]3CC[C@]21C)C(C)C
REMARK SMILES IDX 5 1 4 2 3 3 2 4 1 5 28 6 29 7 30 8 6 9 7 10 8 11 9 12 26 13
REMARK SMILES IDX 10 14 11 15 25 16 27 17 12 18 24 19 23 20 13 21 21 22 14 23
REMARK SMILES IDX 15 24 20 25 22 26 16 27 19 28 17 29 18 30
REMARK H PARENT 18 31
REMARK Flexibility Score: inf
ROOT
ATOM      1  C   UNL     1      18.422  44.792  21.587  1.00  0.00     0.004 C 
ENDROOT
BRANCH   1   2
ATOM      2  C   UNL     1      19.251  45.413  20.436  1.00  0.00     0.004 C 
BRANCH   2   3
ATOM      3  C   UNL     1      20.347  46.434  20.868  1.00  0.00    -0.009 C 
BRANCH   3   4
ATOM      4  C   UNL     1      20.041  47.863  20.332  1.00  0.00     0.000 C 
ATOM      5  C   UNL     1      18.572  48.094  19.971  1.00  0.00     0.004 C 
ENDBRANCH   3   4
BRANCH   3   6
ATOM      6  C   UNL     1      21.801  45.890  20.613  1.00  0.00    -0.014 C 
ATOM      7  C   UNL     1      22.798  47.014  20.279  1.00  0.00     0.007 C 
ATOM      8  C   UNL     1      21.907  44.767  19.567  1.00  0.00     0.007 C 
ENDBRANCH   3   6
ENDBRANCH   2   3
ENDBRANCH   1   2
BRANCH   1   9
ATOM      9  C   UNL     1      17.400  45.798  22.186  1.00  0.00    -0.011 C 
ATOM     10  C   UNL     1      17.543  45.817  23.722  1.00  0.00     0.008 C 
BRANCH   9  11
ATOM     11  C   UNL     1      15.895  45.551  21.786  1.00  0.00    -0.002 C 
ATOM     12  C   UNL     1      14.980  46.769  21.884  1.00  0.00     0.005 C 
ATOM     13  C   UNL     1      15.132  44.394  22.506  1.00  0.00    -0.026 C 
ATOM     14  C   UNL     1      13.578  46.205  21.731  1.00  0.00     0.005 C 
ATOM     15  C   UNL     1      13.611  44.756  22.280  1.00  0.00    -0.001 C 
ATOM     16  C   UNL     1      15.598  43.006  21.951  1.00  0.00     0.007 C 
ATOM     17  C   UNL     1      15.406  44.388  24.040  1.00  0.00     0.012 C 
ATOM     18  C   UNL     1      12.726  43.801  21.390  1.00  0.00     0.000 C 
ATOM     19  C   UNL     1      14.741  42.458  20.819  1.00  0.00     0.005 C 
ATOM     20  C   UNL     1      13.273  42.373  21.274  1.00  0.00     0.003 C 
ATOM     21  C   UNL     1      11.302  43.731  21.966  1.00  0.00     0.031 C 
ATOM     22  C   UNL     1      12.379  41.436  20.356  1.00  0.00    -0.008 C 
ATOM     23  C   UNL     1      10.420  42.828  21.164  1.00  0.00    -0.027 C 
ATOM     24  C   UNL     1      10.880  41.759  20.481  1.00  0.00    -0.065 C 
ATOM     25  C   UNL     1      12.741  41.583  18.843  1.00  0.00     0.014 C 
ATOM     26  C   UNL     1      12.620  39.972  20.814  1.00  0.00     0.016 C 
ATOM     27  C   UNL     1       9.916  41.005  19.586  1.00  0.00     0.063 C 
ATOM     28  C   UNL     1      11.788  40.820  17.898  1.00  0.00     0.033 C 
ATOM     29  C   UNL     1      10.318  41.209  18.116  1.00  0.00     0.118 C 
BRANCH  29  30
ATOM     30  O   UNL     1       9.508  40.426  17.278  1.00  0.00    -0.393 OA
ATOM     31  H   UNL     1       8.711  40.166  17.809  1.00  0.00     0.210 HD
ENDBRANCH  29  30
ENDBRANCH   9  11
ENDBRANCH   1   9
TORSDOF 7
ENDMDL
