MODEL 1
REMARK VINA RESULT:    -4.691      0.000      0.000
REMARK INTER + INTRA:         -10.805
REMARK INTER:                  -8.530
REMARK INTRA:                  -2.275
REMARK UNBOUND:                -2.275
REMARK SMILES CCCCCCCCCCCCCCCC(=O)[O-]
REMARK SMILES IDX 9 1 10 2 11 3 12 4 13 5 14 6 15 7 16 8 17 9 18 10 8 11 7 12
REMARK SMILES IDX 6 13 5 14 4 15 3 16 2 17 1 18
REMARK H PARENT
REMARK Flexibility Score: inf
ROOT
ATOM      1  C   UNL     1      60.647  27.875  25.676  1.00  0.00     0.000 C 
ENDROOT
BRANCH   1   2
ATOM      2  C   UNL     1      61.595  28.364  24.569  1.00  0.00     0.000 C 
BRANCH   2   3
ATOM      3  C   UNL     1      62.290  29.689  24.928  1.00  0.00     0.000 C 
BRANCH   3   4
ATOM      4  C   UNL     1      63.821  29.566  24.948  1.00  0.00     0.000 C 
BRANCH   4   5
ATOM      5  C   UNL     1      64.297  28.216  25.507  1.00  0.00     0.000 C 
BRANCH   5   6
ATOM      6  C   UNL     1      65.460  27.656  24.675  1.00  0.00     0.006 C 
BRANCH   6   7
ATOM      7  C   UNL     1      65.232  26.194  24.267  1.00  0.00     0.053 C 
BRANCH   7   8
ATOM      8  C   UNL     1      64.013  26.039  23.411  1.00  0.00     0.041 C 
ATOM      9  O   UNL     1      63.903  26.692  22.339  1.00  0.00    -0.550 OA
ATOM     10  O   UNL     1      62.985  25.195  23.812  1.00  0.00    -0.550 OA
ENDBRANCH   7   8
ENDBRANCH   6   7
ENDBRANCH   5   6
ENDBRANCH   4   5
ENDBRANCH   3   4
ENDBRANCH   2   3
ENDBRANCH   1   2
BRANCH   1  11
ATOM     11  C   UNL     1      61.264  26.756  26.533  1.00  0.00     0.000 C 
BRANCH  11  12
ATOM     12  C   UNL     1      61.307  27.125  28.031  1.00  0.00    -0.000 C 
BRANCH  12  13
ATOM     13  C   UNL     1      61.067  28.622  28.307  1.00  0.00    -0.000 C 
BRANCH  13  14
ATOM     14  C   UNL     1      62.174  29.312  29.125  1.00  0.00    -0.000 C 
BRANCH  14  15
ATOM     15  C   UNL     1      62.812  30.534  28.437  1.00  0.00    -0.000 C 
BRANCH  15  16
ATOM     16  C   UNL     1      64.155  30.969  29.069  1.00  0.00    -0.000 C 
BRANCH  16  17
ATOM     17  C   UNL     1      65.329  30.041  28.711  1.00  0.00    -0.003 C 
ATOM     18  C   UNL     1      66.266  30.658  27.673  1.00  0.00     0.004 C 
ENDBRANCH  16  17
ENDBRANCH  15  16
ENDBRANCH  14  15
ENDBRANCH  13  14
ENDBRANCH  12  13
ENDBRANCH  11  12
ENDBRANCH   1  11
TORSDOF 14
ENDMDL
MODEL 2
REMARK VINA RESULT:    -4.644      0.899      3.678
REMARK INTER + INTRA:         -10.720
REMARK INTER:                  -8.546
REMARK INTRA:                  -2.174
REMARK UNBOUND:                -2.275
REMARK SMILES CCCCCCCCCCCCCCCC(=O)[O-]
REMARK SMILES IDX 9 1 10 2 11 3 12 4 13 5 14 6 15 7 16 8 17 9 18 10 8 11 7 12
REMARK SMILES IDX 6 13 5 14 4 15 3 16 2 17 1 18
REMARK H PARENT
REMARK Flexibility Score: inf
ROOT
ATOM      1  C   UNL     1      64.078  30.012  28.777  1.00  0.00     0.000 C 
ENDROOT
BRANCH   1   2
ATOM      2  C   UNL     1      65.072  30.873  27.979  1.00  0.00     0.000 C 
BRANCH   2   3
ATOM      3  C   UNL     1      66.266  30.060  27.450  1.00  0.00     0.000 C 
BRANCH   3   4
ATOM      4  C   UNL     1      66.132  29.718  25.958  1.00  0.00     0.000 C 
BRANCH   4   5
ATOM      5  C   UNL     1      65.380  28.401  25.719  1.00  0.00     0.000 C 
BRANCH   5   6
ATOM      6  C   UNL     1      65.447  27.990  24.241  1.00  0.00     0.006 C 
BRANCH   6   7
ATOM      7  C   UNL     1      65.167  26.495  24.039  1.00  0.00     0.053 C 
BRANCH   7   8
ATOM      8  C   UNL     1      63.886  26.264  23.297  1.00  0.00     0.041 C 
ATOM      9  O   UNL     1      63.463  27.122  22.478  1.00  0.00    -0.550 OA
ATOM     10  O   UNL     1      63.143  25.114  23.534  1.00  0.00    -0.550 OA
ENDBRANCH   7   8
ENDBRANCH   6   7
ENDBRANCH   5   6
ENDBRANCH   4   5
ENDBRANCH   3   4
ENDBRANCH   2   3
ENDBRANCH   1   2
BRANCH   1  11
ATOM     11  C   UNL     1      62.615  30.424  28.541  1.00  0.00     0.000 C 
BRANCH  11  12
ATOM     12  C   UNL     1      61.633  29.262  28.799  1.00  0.00    -0.000 C 
BRANCH  12  13
ATOM     13  C   UNL     1      62.325  27.901  29.005  1.00  0.00    -0.000 C 
BRANCH  13  14
ATOM     14  C   UNL     1      61.841  26.781  28.066  1.00  0.00    -0.000 C 
BRANCH  14  15
ATOM     15  C   UNL     1      62.171  27.005  26.578  1.00  0.00    -0.000 C 
BRANCH  15  16
ATOM     16  C   UNL     1      60.930  26.977  25.657  1.00  0.00    -0.000 C 
BRANCH  16  17
ATOM     17  C   UNL     1      60.803  28.223  24.762  1.00  0.00    -0.003 C 
ATOM     18  C   UNL     1      61.954  29.207  24.964  1.00  0.00     0.004 C 
ENDBRANCH  16  17
ENDBRANCH  15  16
ENDBRANCH  14  15
ENDBRANCH  13  14
ENDBRANCH  12  13
ENDBRANCH  11  12
ENDBRANCH   1  11
TORSDOF 14
ENDMDL
MODEL 3
REMARK VINA RESULT:    -4.624      2.695      5.493
REMARK INTER + INTRA:         -10.683
REMARK INTER:                  -8.381
REMARK INTRA:                  -2.302
REMARK UNBOUND:                -2.275
REMARK SMILES CCCCCCCCCCCCCCCC(=O)[O-]
REMARK SMILES IDX 9 1 10 2 11 3 12 4 13 5 14 6 15 7 16 8 17 9 18 10 8 11 7 12
REMARK SMILES IDX 6 13 5 14 4 15 3 16 2 17 1 18
REMARK H PARENT
REMARK Flexibility Score: inf
ROOT
ATOM      1  C   UNL     1      61.762  28.407  24.262  1.00  0.00     0.000 C 
ENDROOT
BRANCH   1   2
ATOM      2  C   UNL     1      60.513  28.088  25.100  1.00  0.00     0.000 C 
BRANCH   2   3
ATOM      3  C   UNL     1      60.631  26.750  25.852  1.00  0.00     0.000 C 
BRANCH   3   4
ATOM      4  C   UNL     1      61.466  26.867  27.136  1.00  0.00     0.000 C 
BRANCH   4   5
ATOM      5  C   UNL     1      60.774  27.712  28.216  1.00  0.00     0.000 C 
BRANCH   5   6
ATOM      6  C   UNL     1      61.796  28.555  28.992  1.00  0.00     0.006 C 
BRANCH   6   7
ATOM      7  C   UNL     1      62.997  28.957  28.126  1.00  0.00     0.053 C 
BRANCH   7   8
ATOM      8  C   UNL     1      63.721  30.141  28.692  1.00  0.00     0.041 C 
ATOM      9  O   UNL     1      64.975  30.123  28.804  1.00  0.00    -0.550 OA
ATOM     10  O   UNL     1      63.006  31.251  29.125  1.00  0.00    -0.550 OA
ENDBRANCH   7   8
ENDBRANCH   6   7
ENDBRANCH   5   6
ENDBRANCH   4   5
ENDBRANCH   3   4
ENDBRANCH   2   3
ENDBRANCH   1   2
BRANCH   1  11
ATOM     11  C   UNL     1      62.398  29.757  24.636  1.00  0.00     0.000 C 
BRANCH  11  12
ATOM     12  C   UNL     1      63.775  29.959  23.970  1.00  0.00    -0.000 C 
BRANCH  12  13
ATOM     13  C   UNL     1      64.933  30.107  24.976  1.00  0.00    -0.000 C 
BRANCH  13  14
ATOM     14  C   UNL     1      65.514  28.778  25.491  1.00  0.00    -0.000 C 
BRANCH  14  15
ATOM     15  C   UNL     1      65.546  27.645  24.448  1.00  0.00    -0.000 C 
BRANCH  15  16
ATOM     16  C   UNL     1      64.783  26.375  24.889  1.00  0.00    -0.000 C 
BRANCH  16  17
ATOM     17  C   UNL     1      63.962  25.730  23.758  1.00  0.00    -0.003 C 
ATOM     18  C   UNL     1      64.233  26.374  22.398  1.00  0.00     0.004 C 
ENDBRANCH  16  17
ENDBRANCH  15  16
ENDBRANCH  14  15
ENDBRANCH  13  14
ENDBRANCH  12  13
ENDBRANCH  11  12
ENDBRANCH   1  11
TORSDOF 14
ENDMDL
MODEL 4
REMARK VINA RESULT:    -4.572      2.772      5.408
REMARK INTER + INTRA:         -10.589
REMARK INTER:                  -8.265
REMARK INTRA:                  -2.324
REMARK UNBOUND:                -2.275
REMARK SMILES CCCCCCCCCCCCCCCC(=O)[O-]
REMARK SMILES IDX 9 1 10 2 11 3 12 4 13 5 14 6 15 7 16 8 17 9 18 10 8 11 7 12
REMARK SMILES IDX 6 13 5 14 4 15 3 16 2 17 1 18
REMARK H PARENT
REMARK Flexibility Score: inf
ROOT
ATOM      1  C   UNL     1      60.808  27.440  26.175  1.00  0.00     0.000 C 
ENDROOT
BRANCH   1   2
ATOM      2  C   UNL     1      61.718  26.751  27.205  1.00  0.00     0.000 C 
BRANCH   2   3
ATOM      3  C   UNL     1      61.556  27.333  28.620  1.00  0.00     0.000 C 
BRANCH   3   4
ATOM      4  C   UNL     1      62.602  28.413  28.937  1.00  0.00     0.000 C 
BRANCH   4   5
ATOM      5  C   UNL     1      62.095  29.832  28.636  1.00  0.00     0.000 C 
BRANCH   5   6
ATOM      6  C   UNL     1      63.167  30.880  28.965  1.00  0.00     0.006 C 
BRANCH   6   7
ATOM      7  C   UNL     1      64.565  30.261  29.099  1.00  0.00     0.053 C 
BRANCH   7   8
ATOM      8  C   UNL     1      65.628  31.161  28.548  1.00  0.00     0.041 C 
ATOM      9  O   UNL     1      65.571  32.404  28.746  1.00  0.00    -0.550 OA
ATOM     10  O   UNL     1      66.664  30.631  27.790  1.00  0.00    -0.550 OA
ENDBRANCH   7   8
ENDBRANCH   6   7
ENDBRANCH   5   6
ENDBRANCH   4   5
ENDBRANCH   3   4
ENDBRANCH   2   3
ENDBRANCH   1   2
BRANCH   1  11
ATOM     11  C   UNL     1      61.583  27.945  24.945  1.00  0.00     0.000 C 
BRANCH  11  12
ATOM     12  C   UNL     1      61.837  29.466  24.999  1.00  0.00    -0.000 C 
BRANCH  12  13
ATOM     13  C   UNL     1      63.330  29.845  24.970  1.00  0.00    -0.000 C 
BRANCH  13  14
ATOM     14  C   UNL     1      64.263  28.846  25.678  1.00  0.00    -0.000 C 
BRANCH  14  15
ATOM     15  C   UNL     1      65.632  28.654  24.996  1.00  0.00    -0.000 C 
BRANCH  15  16
ATOM     16  C   UNL     1      65.698  27.411  24.079  1.00  0.00    -0.000 C 
BRANCH  16  17
ATOM     17  C   UNL     1      64.873  26.221  24.600  1.00  0.00    -0.003 C 
ATOM     18  C   UNL     1      63.930  25.654  23.539  1.00  0.00     0.004 C 
ENDBRANCH  16  17
ENDBRANCH  15  16
ENDBRANCH  14  15
ENDBRANCH  13  14
ENDBRANCH  12  13
ENDBRANCH  11  12
ENDBRANCH   1  11
TORSDOF 14
ENDMDL
MODEL 5
REMARK VINA RESULT:    -4.517      2.303      5.553
REMARK INTER + INTRA:         -10.489
REMARK INTER:                  -8.166
REMARK INTRA:                  -2.323
REMARK UNBOUND:                -2.275
REMARK SMILES CCCCCCCCCCCCCCCC(=O)[O-]
REMARK SMILES IDX 9 1 10 2 11 3 12 4 13 5 14 6 15 7 16 8 17 9 18 10 8 11 7 12
REMARK SMILES IDX 6 13 5 14 4 15 3 16 2 17 1 18
REMARK H PARENT
REMARK Flexibility Score: inf
ROOT
ATOM      1  C   UNL     1      65.472  29.265  26.123  1.00  0.00     0.000 C 
ENDROOT
BRANCH   1   2
ATOM      2  C   UNL     1      66.691  29.962  26.747  1.00  0.00     0.000 C 
BRANCH   2   3
ATOM      3  C   UNL     1      66.319  30.829  27.963  1.00  0.00     0.000 C 
BRANCH   3   4
ATOM      4  C   UNL     1      65.141  30.250  28.762  1.00  0.00     0.000 C 
BRANCH   4   5
ATOM      5  C   UNL     1      63.968  31.235  28.881  1.00  0.00     0.000 C 
BRANCH   5   6
ATOM      6  C   UNL     1      62.642  30.487  29.085  1.00  0.00     0.006 C 
BRANCH   6   7
ATOM      7  C   UNL     1      62.703  29.044  28.568  1.00  0.00     0.053 C 
BRANCH   7   8
ATOM      8  C   UNL     1      61.416  28.314  28.803  1.00  0.00     0.041 C 
ATOM      9  O   UNL     1      60.372  28.950  29.107  1.00  0.00    -0.550 OA
ATOM     10  O   UNL     1      61.377  26.928  28.716  1.00  0.00    -0.550 OA
ENDBRANCH   7   8
ENDBRANCH   6   7
ENDBRANCH   5   6
ENDBRANCH   4   5
ENDBRANCH   3   4
ENDBRANCH   2   3
ENDBRANCH   1   2
BRANCH   1  11
ATOM     11  C   UNL     1      64.855  30.073  24.967  1.00  0.00     0.000 C 
BRANCH  11  12
ATOM     12  C   UNL     1      63.314  30.111  25.038  1.00  0.00    -0.000 C 
BRANCH  12  13
ATOM     13  C   UNL     1      62.631  28.980  24.246  1.00  0.00    -0.000 C 
BRANCH  13  14
ATOM     14  C   UNL     1      61.954  27.902  25.113  1.00  0.00    -0.000 C 
BRANCH  14  15
ATOM     15  C   UNL     1      62.870  26.728  25.507  1.00  0.00    -0.000 C 
BRANCH  15  16
ATOM     16  C   UNL     1      63.494  25.995  24.297  1.00  0.00    -0.000 C 
BRANCH  16  17
ATOM     17  C   UNL     1      65.031  26.060  24.267  1.00  0.00    -0.003 C 
ATOM     18  C   UNL     1      65.564  26.729  23.000  1.00  0.00     0.004 C 
ENDBRANCH  16  17
ENDBRANCH  15  16
ENDBRANCH  14  15
ENDBRANCH  13  14
ENDBRANCH  12  13
ENDBRANCH  11  12
ENDBRANCH   1  11
TORSDOF 14
ENDMDL
MODEL 6
REMARK VINA RESULT:    -4.424     12.214     15.036
REMARK INTER + INTRA:         -10.321
REMARK INTER:                  -8.559
REMARK INTRA:                  -1.762
REMARK UNBOUND:                -2.275
REMARK SMILES CCCCCCCCCCCCCCCC(=O)[O-]
REMARK SMILES IDX 9 1 10 2 11 3 12 4 13 5 14 6 15 7 16 8 17 9 18 10 8 11 7 12
REMARK SMILES IDX 6 13 5 14 4 15 3 16 2 17 1 18
REMARK H PARENT
REMARK Flexibility Score: inf
ROOT
ATOM      1  C   UNL     1      64.329  31.264  10.547  1.00  0.00     0.000 C 
ENDROOT
BRANCH   1   2
ATOM      2  C   UNL     1      64.529  32.080  11.835  1.00  0.00     0.000 C 
BRANCH   2   3
ATOM      3  C   UNL     1      63.425  31.822  12.876  1.00  0.00     0.000 C 
BRANCH   3   4
ATOM      4  C   UNL     1      62.559  33.064  13.138  1.00  0.00     0.000 C 
BRANCH   4   5
ATOM      5  C   UNL     1      61.057  32.743  13.156  1.00  0.00     0.000 C 
BRANCH   5   6
ATOM      6  C   UNL     1      60.456  33.005  14.544  1.00  0.00     0.006 C 
BRANCH   6   7
ATOM      7  C   UNL     1      61.080  34.229  15.228  1.00  0.00     0.053 C 
BRANCH   7   8
ATOM      8  C   UNL     1      61.629  33.892  16.580  1.00  0.00     0.041 C 
ATOM      9  O   UNL     1      61.450  34.676  17.550  1.00  0.00    -0.550 OA
ATOM     10  O   UNL     1      62.365  32.728  16.762  1.00  0.00    -0.550 OA
ENDBRANCH   7   8
ENDBRANCH   6   7
ENDBRANCH   5   6
ENDBRANCH   4   5
ENDBRANCH   3   4
ENDBRANCH   2   3
ENDBRANCH   1   2
BRANCH   1  11
ATOM     11  C   UNL     1      64.030  29.781  10.827  1.00  0.00     0.000 C 
BRANCH  11  12
ATOM     12  C   UNL     1      63.591  29.024   9.556  1.00  0.00    -0.000 C 
BRANCH  12  13
ATOM     13  C   UNL     1      62.106  28.611   9.564  1.00  0.00    -0.000 C 
BRANCH  13  14
ATOM     14  C   UNL     1      61.110  29.783   9.621  1.00  0.00    -0.000 C 
BRANCH  14  15
ATOM     15  C   UNL     1      60.390  29.948  10.973  1.00  0.00    -0.000 C 
BRANCH  15  16
ATOM     16  C   UNL     1      59.678  28.663  11.456  1.00  0.00    -0.000 C 
BRANCH  16  17
ATOM     17  C   UNL     1      60.249  28.105  12.772  1.00  0.00    -0.003 C 
ATOM     18  C   UNL     1      61.326  29.009  13.373  1.00  0.00     0.004 C 
ENDBRANCH  16  17
ENDBRANCH  15  16
ENDBRANCH  14  15
ENDBRANCH  13  14
ENDBRANCH  12  13
ENDBRANCH  11  12
ENDBRANCH   1  11
TORSDOF 14
ENDMDL
MODEL 7
REMARK VINA RESULT:    -4.407     12.038     14.567
REMARK INTER + INTRA:         -10.290
REMARK INTER:                  -7.875
REMARK INTRA:                  -2.415
REMARK UNBOUND:                -2.275
REMARK SMILES CCCCCCCCCCCCCCCC(=O)[O-]
REMARK SMILES IDX 9 1 10 2 11 3 12 4 13 5 14 6 15 7 16 8 17 9 18 10 8 11 7 12
REMARK SMILES IDX 6 13 5 14 4 15 3 16 2 17 1 18
REMARK H PARENT
REMARK Flexibility Score: inf
ROOT
ATOM      1  C   UNL     1      60.209  29.136  10.727  1.00  0.00     0.000 C 
ENDROOT
BRANCH   1   2
ATOM      2  C   UNL     1      60.355  28.893  12.238  1.00  0.00     0.000 C 
BRANCH   2   3
ATOM      3  C   UNL     1      60.452  30.201  13.041  1.00  0.00     0.000 C 
BRANCH   3   4
ATOM      4  C   UNL     1      60.705  31.425  12.147  1.00  0.00     0.000 C 
BRANCH   4   5
ATOM      5  C   UNL     1      60.659  32.747  12.929  1.00  0.00     0.000 C 
BRANCH   5   6
ATOM      6  C   UNL     1      60.517  32.489  14.435  1.00  0.00     0.006 C 
BRANCH   6   7
ATOM      7  C   UNL     1      60.984  33.685  15.277  1.00  0.00     0.053 C 
BRANCH   7   8
ATOM      8  C   UNL     1      61.828  33.254  16.437  1.00  0.00     0.041 C 
ATOM      9  O   UNL     1      62.494  32.186  16.375  1.00  0.00    -0.550 OA
ATOM     10  O   UNL     1      61.855  34.016  17.598  1.00  0.00    -0.550 OA
ENDBRANCH   7   8
ENDBRANCH   6   7
ENDBRANCH   5   6
ENDBRANCH   4   5
ENDBRANCH   3   4
ENDBRANCH   2   3
ENDBRANCH   1   2
BRANCH   1  11
ATOM     11  C   UNL     1      61.164  28.266   9.891  1.00  0.00     0.000 C 
BRANCH  11  12
ATOM     12  C   UNL     1      62.203  29.111   9.124  1.00  0.00    -0.000 C 
BRANCH  12  13
ATOM     13  C   UNL     1      63.612  29.076   9.748  1.00  0.00    -0.000 C 
BRANCH  13  14
ATOM     14  C   UNL     1      63.902  30.206  10.751  1.00  0.00    -0.000 C 
BRANCH  14  15
ATOM     15  C   UNL     1      64.056  29.743  12.213  1.00  0.00    -0.000 C 
BRANCH  15  16
ATOM     16  C   UNL     1      64.177  30.908  13.222  1.00  0.00    -0.000 C 
BRANCH  16  17
ATOM     17  C   UNL     1      64.326  32.286  12.552  1.00  0.00    -0.003 C 
ATOM     18  C   UNL     1      64.319  33.432  13.563  1.00  0.00     0.004 C 
ENDBRANCH  16  17
ENDBRANCH  15  16
ENDBRANCH  14  15
ENDBRANCH  13  14
ENDBRANCH  12  13
ENDBRANCH  11  12
ENDBRANCH   1  11
TORSDOF 14
ENDMDL
MODEL 8
REMARK VINA RESULT:    -4.318      1.720      2.176
REMARK INTER + INTRA:         -10.128
REMARK INTER:                  -7.865
REMARK INTRA:                  -2.263
REMARK UNBOUND:                -2.275
REMARK SMILES CCCCCCCCCCCCCCCC(=O)[O-]
REMARK SMILES IDX 9 1 10 2 11 3 12 4 13 5 14 6 15 7 16 8 17 9 18 10 8 11 7 12
REMARK SMILES IDX 6 13 5 14 4 15 3 16 2 17 1 18
REMARK H PARENT
REMARK Flexibility Score: inf
ROOT
ATOM      1  C   UNL     1      60.541  27.427  27.084  1.00  0.00     0.000 C 
ENDROOT
BRANCH   1   2
ATOM      2  C   UNL     1      60.641  27.077  25.590  1.00  0.00     0.000 C 
BRANCH   2   3
ATOM      3  C   UNL     1      61.205  28.234  24.747  1.00  0.00     0.000 C 
BRANCH   3   4
ATOM      4  C   UNL     1      62.564  27.895  24.115  1.00  0.00     0.000 C 
BRANCH   4   5
ATOM      5  C   UNL     1      63.192  26.626  24.710  1.00  0.00     0.000 C 
BRANCH   5   6
ATOM      6  C   UNL     1      63.725  25.705  23.603  1.00  0.00     0.006 C 
BRANCH   6   7
ATOM      7  C   UNL     1      64.172  26.487  22.360  1.00  0.00     0.053 C 
BRANCH   7   8
ATOM      8  C   UNL     1      65.660  26.462  22.192  1.00  0.00     0.041 C 
ATOM      9  O   UNL     1      66.340  27.500  22.406  1.00  0.00    -0.550 OA
ATOM     10  O   UNL     1      66.293  25.300  21.769  1.00  0.00    -0.550 OA
ENDBRANCH   7   8
ENDBRANCH   6   7
ENDBRANCH   5   6
ENDBRANCH   4   5
ENDBRANCH   3   4
ENDBRANCH   2   3
ENDBRANCH   1   2
BRANCH   1  11
ATOM     11  C   UNL     1      61.535  26.631  27.946  1.00  0.00     0.000 C 
BRANCH  11  12
ATOM     12  C   UNL     1      62.273  27.527  28.963  1.00  0.00    -0.000 C 
BRANCH  12  13
ATOM     13  C   UNL     1      61.761  28.980  28.993  1.00  0.00    -0.000 C 
BRANCH  13  14
ATOM     14  C   UNL     1      62.794  30.037  28.559  1.00  0.00    -0.000 C 
BRANCH  14  15
ATOM     15  C   UNL     1      62.679  30.480  27.088  1.00  0.00    -0.000 C 
BRANCH  15  16
ATOM     16  C   UNL     1      64.028  30.477  26.333  1.00  0.00    -0.000 C 
BRANCH  16  17
ATOM     17  C   UNL     1      64.939  29.296  26.713  1.00  0.00    -0.003 C 
ATOM     18  C   UNL     1      65.967  28.977  25.627  1.00  0.00     0.004 C 
ENDBRANCH  16  17
ENDBRANCH  15  16
ENDBRANCH  14  15
ENDBRANCH  13  14
ENDBRANCH  12  13
ENDBRANCH  11  12
ENDBRANCH   1  11
TORSDOF 14
ENDMDL
MODEL 9
REMARK VINA RESULT:    -4.316      1.872      5.501
REMARK INTER + INTRA:         -10.123
REMARK INTER:                  -8.278
REMARK INTRA:                  -1.845
REMARK UNBOUND:                -2.275
REMARK SMILES CCCCCCCCCCCCCCCC(=O)[O-]
REMARK SMILES IDX 9 1 10 2 11 3 12 4 13 5 14 6 15 7 16 8 17 9 18 10 8 11 7 12
REMARK SMILES IDX 6 13 5 14 4 15 3 16 2 17 1 18
REMARK H PARENT
REMARK Flexibility Score: inf
ROOT
ATOM      1  C   UNL     1      64.238  29.120  26.463  1.00  0.00     0.000 C 
ENDROOT
BRANCH   1   2
ATOM      2  C   UNL     1      63.937  29.617  27.887  1.00  0.00     0.000 C 
BRANCH   2   3
ATOM      3  C   UNL     1      62.533  30.234  28.014  1.00  0.00     0.000 C 
BRANCH   3   4
ATOM      4  C   UNL     1      61.639  29.469  29.002  1.00  0.00     0.000 C 
BRANCH   4   5
ATOM      5  C   UNL     1      61.892  27.954  28.976  1.00  0.00     0.000 C 
BRANCH   5   6
ATOM      6  C   UNL     1      60.831  27.234  28.132  1.00  0.00     0.006 C 
BRANCH   6   7
ATOM      7  C   UNL     1      61.369  26.810  26.759  1.00  0.00     0.053 C 
BRANCH   7   8
ATOM      8  C   UNL     1      60.422  27.167  25.654  1.00  0.00     0.041 C 
ATOM      9  O   UNL     1      59.417  26.443  25.422  1.00  0.00    -0.550 OA
ATOM     10  O   UNL     1      60.667  28.281  24.861  1.00  0.00    -0.550 OA
ENDBRANCH   7   8
ENDBRANCH   6   7
ENDBRANCH   5   6
ENDBRANCH   4   5
ENDBRANCH   3   4
ENDBRANCH   2   3
ENDBRANCH   1   2
BRANCH   1  11
ATOM     11  C   UNL     1      63.667  30.050  25.379  1.00  0.00     0.000 C 
BRANCH  11  12
ATOM     12  C   UNL     1      64.148  29.662  23.965  1.00  0.00    -0.000 C 
BRANCH  12  13
ATOM     13  C   UNL     1      65.663  29.854  23.753  1.00  0.00    -0.000 C 
BRANCH  13  14
ATOM     14  C   UNL     1      66.483  28.551  23.742  1.00  0.00    -0.000 C 
BRANCH  14  15
ATOM     15  C   UNL     1      66.429  27.771  22.414  1.00  0.00    -0.000 C 
BRANCH  15  16
ATOM     16  C   UNL     1      65.540  26.507  22.473  1.00  0.00    -0.000 C 
BRANCH  16  17
ATOM     17  C   UNL     1      65.267  26.018  23.906  1.00  0.00    -0.003 C 
ATOM     18  C   UNL     1      63.773  25.928  24.219  1.00  0.00     0.004 C 
ENDBRANCH  16  17
ENDBRANCH  15  16
ENDBRANCH  14  15
ENDBRANCH  13  14
ENDBRANCH  12  13
ENDBRANCH  11  12
ENDBRANCH   1  11
TORSDOF 14
ENDMDL
