MODEL 1
REMARK VINA RESULT:    -4.833      0.000      0.000
REMARK INTER + INTRA:          -5.305
REMARK INTER:                  -5.256
REMARK INTRA:                  -0.049
REMARK UNBOUND:                -0.049
REMARK SMILES COc1cc2ccc(=O)oc2cc1O
REMARK SMILES IDX 3 1 13 2 12 3 11 4 5 5 4 6 6 7 7 8 8 9 9 10 10 11 2 12 1 13
REMARK SMILES IDX 14 14
REMARK H PARENT 14 15
REMARK Flexibility Score: inf
ROOT
ATOM      1  C   UNL     1       3.360 -13.329  15.175  1.00  0.00     0.161 A 
ATOM      2  C   UNL     1       2.301 -14.192  14.832  1.00  0.00     0.161 A 
ATOM      3  C   UNL     1       2.560 -15.523  14.481  1.00  0.00     0.098 A 
ATOM      4  C   UNL     1       3.870 -16.007  14.467  1.00  0.00     0.142 A 
ATOM      5  C   UNL     1       4.938 -15.150  14.810  1.00  0.00     0.022 A 
ATOM      6  C   UNL     1       4.682 -13.819  15.162  1.00  0.00     0.062 A 
ATOM      7  C   UNL     1       6.238 -15.666  14.787  1.00  0.00     0.019 A 
ATOM      8  C   UNL     1       6.442 -16.998  14.431  1.00  0.00     0.094 A 
ATOM      9  C   UNL     1       5.334 -17.788  14.103  1.00  0.00     0.336 A 
ATOM     10  O   UNL     1       5.496 -18.994  13.778  1.00  0.00    -0.246 OA
ATOM     11  O   UNL     1       4.107 -17.274  14.133  1.00  0.00    -0.423 OA
ENDROOT
BRANCH   1  12
ATOM     12  O   UNL     1       3.064 -12.001  15.522  1.00  0.00    -0.493 OA
ATOM     13  C   UNL     1       3.814 -10.867  15.096  1.00  0.00     0.278 C 
ENDBRANCH   1  12
BRANCH   2  14
ATOM     14  O   UNL     1       0.980 -13.745  14.833  1.00  0.00    -0.504 OA
ATOM     15  H   UNL     1       0.728 -12.802  15.106  1.00  0.00     0.293 HD
ENDBRANCH   2  14
TORSDOF 2
ENDMDL
MODEL 2
REMARK VINA RESULT:    -4.509      1.796      1.986
REMARK INTER + INTRA:          -4.954
REMARK INTER:                  -4.908
REMARK INTRA:                  -0.045
REMARK UNBOUND:                -0.049
REMARK SMILES COc1cc2ccc(=O)oc2cc1O
REMARK SMILES IDX 3 1 13 2 12 3 11 4 5 5 4 6 6 7 7 8 8 9 9 10 10 11 2 12 1 13
REMARK SMILES IDX 14 14
REMARK H PARENT 14 15
REMARK Flexibility Score: inf
ROOT
ATOM      1  C   UNL     1       2.929 -14.335  16.697  1.00  0.00     0.161 A 
ATOM      2  C   UNL     1       2.422 -14.391  15.383  1.00  0.00     0.161 A 
ATOM      3  C   UNL     1       2.873 -15.374  14.494  1.00  0.00     0.098 A 
ATOM      4  C   UNL     1       3.829 -16.308  14.900  1.00  0.00     0.142 A 
ATOM      5  C   UNL     1       4.341 -16.261  16.214  1.00  0.00     0.022 A 
ATOM      6  C   UNL     1       3.893 -15.278  17.106  1.00  0.00     0.062 A 
ATOM      7  C   UNL     1       5.297 -17.211  16.590  1.00  0.00     0.019 A 
ATOM      8  C   UNL     1       5.712 -18.169  15.666  1.00  0.00     0.094 A 
ATOM      9  C   UNL     1       5.159 -18.155  14.381  1.00  0.00     0.336 A 
ATOM     10  O   UNL     1       5.520 -19.010  13.531  1.00  0.00    -0.246 OA
ATOM     11  O   UNL     1       4.251 -17.240  14.048  1.00  0.00    -0.423 OA
ENDROOT
BRANCH   1  12
ATOM     12  O   UNL     1       2.454 -13.335  17.562  1.00  0.00    -0.493 OA
ATOM     13  C   UNL     1       2.365 -13.467  18.977  1.00  0.00     0.278 C 
ENDBRANCH   1  12
BRANCH   2  14
ATOM     14  O   UNL     1       1.468 -13.474  14.941  1.00  0.00    -0.504 OA
ATOM     15  H   UNL     1       0.490 -13.547  15.196  1.00  0.00     0.293 HD
ENDBRANCH   2  14
TORSDOF 2
ENDMDL
MODEL 3
REMARK VINA RESULT:    -4.448      1.476      5.444
REMARK INTER + INTRA:          -4.887
REMARK INTER:                  -4.837
REMARK INTRA:                  -0.050
REMARK UNBOUND:                -0.049
REMARK SMILES COc1cc2ccc(=O)oc2cc1O
REMARK SMILES IDX 3 1 13 2 12 3 11 4 5 5 4 6 6 7 7 8 8 9 9 10 10 11 2 12 1 13
REMARK SMILES IDX 14 14
REMARK H PARENT 14 15
REMARK Flexibility Score: inf
ROOT
ATOM      1  C   UNL     1       5.927 -17.268  14.001  1.00  0.00     0.161 A 
ATOM      2  C   UNL     1       6.778 -16.148  14.070  1.00  0.00     0.161 A 
ATOM      3  C   UNL     1       6.286 -14.913  14.508  1.00  0.00     0.098 A 
ATOM      4  C   UNL     1       4.947 -14.778  14.881  1.00  0.00     0.142 A 
ATOM      5  C   UNL     1       4.086 -15.894  14.815  1.00  0.00     0.022 A 
ATOM      6  C   UNL     1       4.575 -17.132  14.377  1.00  0.00     0.062 A 
ATOM      7  C   UNL     1       2.750 -15.727  15.196  1.00  0.00     0.019 A 
ATOM      8  C   UNL     1       2.310 -14.476  15.625  1.00  0.00     0.094 A 
ATOM      9  C   UNL     1       3.221 -13.415  15.664  1.00  0.00     0.336 A 
ATOM     10  O   UNL     1       2.845 -12.276  16.048  1.00  0.00    -0.246 OA
ATOM     11  O   UNL     1       4.487 -13.600  15.297  1.00  0.00    -0.423 OA
ENDROOT
BRANCH   1  12
ATOM     12  O   UNL     1       6.454 -18.491  13.557  1.00  0.00    -0.493 OA
ATOM     13  C   UNL     1       6.234 -19.746  14.194  1.00  0.00     0.278 C 
ENDBRANCH   1  12
BRANCH   2  14
ATOM     14  O   UNL     1       8.122 -16.242  13.706  1.00  0.00    -0.504 OA
ATOM     15  H   UNL     1       8.416 -16.303  12.739  1.00  0.00     0.293 HD
ENDBRANCH   2  14
TORSDOF 2
ENDMDL
MODEL 4
REMARK VINA RESULT:    -4.352      2.217      5.665
REMARK INTER + INTRA:          -4.782
REMARK INTER:                  -4.737
REMARK INTRA:                  -0.046
REMARK UNBOUND:                -0.049
REMARK SMILES COc1cc2ccc(=O)oc2cc1O
REMARK SMILES IDX 3 1 13 2 12 3 11 4 5 5 4 6 6 7 7 8 8 9 9 10 10 11 2 12 1 13
REMARK SMILES IDX 14 14
REMARK H PARENT 14 15
REMARK Flexibility Score: inf
ROOT
ATOM      1  C   UNL     1       6.044 -19.036  15.940  1.00  0.00     0.161 A 
ATOM      2  C   UNL     1       5.892 -19.066  14.539  1.00  0.00     0.161 A 
ATOM      3  C   UNL     1       5.077 -18.125  13.898  1.00  0.00     0.098 A 
ATOM      4  C   UNL     1       4.406 -17.150  14.639  1.00  0.00     0.142 A 
ATOM      5  C   UNL     1       4.552 -17.112  16.042  1.00  0.00     0.022 A 
ATOM      6  C   UNL     1       5.367 -18.051  16.687  1.00  0.00     0.062 A 
ATOM      7  C   UNL     1       3.867 -16.122  16.755  1.00  0.00     0.019 A 
ATOM      8  C   UNL     1       3.068 -15.210  16.068  1.00  0.00     0.094 A 
ATOM      9  C   UNL     1       2.971 -15.308  14.676  1.00  0.00     0.336 A 
ATOM     10  O   UNL     1       2.255 -14.495  14.035  1.00  0.00    -0.246 OA
ATOM     11  O   UNL     1       3.633 -16.259  14.020  1.00  0.00    -0.423 OA
ENDROOT
BRANCH   1  12
ATOM     12  O   UNL     1       6.869 -19.994  16.550  1.00  0.00    -0.493 OA
ATOM     13  C   UNL     1       6.676 -20.508  17.865  1.00  0.00     0.278 C 
ENDBRANCH   1  12
BRANCH   2  14
ATOM     14  O   UNL     1       6.545 -20.025  13.765  1.00  0.00    -0.504 OA
ATOM     15  H   UNL     1       6.201 -20.974  13.677  1.00  0.00     0.293 HD
ENDBRANCH   2  14
TORSDOF 2
ENDMDL
MODEL 5
REMARK VINA RESULT:    -4.294      2.066      5.564
REMARK INTER + INTRA:          -4.719
REMARK INTER:                  -4.655
REMARK INTRA:                  -0.065
REMARK UNBOUND:                -0.049
REMARK SMILES COc1cc2ccc(=O)oc2cc1O
REMARK SMILES IDX 3 1 13 2 12 3 11 4 5 5 4 6 6 7 7 8 8 9 9 10 10 11 2 12 1 13
REMARK SMILES IDX 14 14
REMARK H PARENT 14 15
REMARK Flexibility Score: inf
ROOT
ATOM      1  C   UNL     1       5.145 -18.577  14.708  1.00  0.00     0.161 A 
ATOM      2  C   UNL     1       5.295 -18.659  16.107  1.00  0.00     0.161 A 
ATOM      3  C   UNL     1       4.775 -17.656  16.932  1.00  0.00     0.098 A 
ATOM      4  C   UNL     1       4.103 -16.564  16.379  1.00  0.00     0.142 A 
ATOM      5  C   UNL     1       3.946 -16.473  14.980  1.00  0.00     0.022 A 
ATOM      6  C   UNL     1       4.466 -17.475  14.150  1.00  0.00     0.062 A 
ATOM      7  C   UNL     1       3.268 -15.367  14.457  1.00  0.00     0.019 A 
ATOM      8  C   UNL     1       2.769 -14.395  15.323  1.00  0.00     0.094 A 
ATOM      9  C   UNL     1       2.961 -14.553  16.700  1.00  0.00     0.336 A 
ATOM     10  O   UNL     1       2.519 -13.687  17.500  1.00  0.00    -0.246 OA
ATOM     11  O   UNL     1       3.610 -15.615  17.173  1.00  0.00    -0.423 OA
ENDROOT
BRANCH   1  12
ATOM     12  O   UNL     1       5.679 -19.601  13.910  1.00  0.00    -0.493 OA
ATOM     13  C   UNL     1       6.901 -19.507  13.185  1.00  0.00     0.278 C 
ENDBRANCH   1  12
BRANCH   2  14
ATOM     14  O   UNL     1       5.961 -19.734  16.696  1.00  0.00    -0.504 OA
ATOM     15  H   UNL     1       6.114 -19.792  17.696  1.00  0.00     0.293 HD
ENDBRANCH   2  14
TORSDOF 2
ENDMDL
MODEL 6
REMARK VINA RESULT:    -4.261      1.352      5.068
REMARK INTER + INTRA:          -4.683
REMARK INTER:                  -4.626
REMARK INTRA:                  -0.057
REMARK UNBOUND:                -0.049
REMARK SMILES COc1cc2ccc(=O)oc2cc1O
REMARK SMILES IDX 3 1 13 2 12 3 11 4 5 5 4 6 6 7 7 8 8 9 9 10 10 11 2 12 1 13
REMARK SMILES IDX 14 14
REMARK H PARENT 14 15
REMARK Flexibility Score: inf
ROOT
ATOM      1  C   UNL     1       6.428 -17.203  14.040  1.00  0.00     0.161 A 
ATOM      2  C   UNL     1       5.078 -17.600  14.124  1.00  0.00     0.161 A 
ATOM      3  C   UNL     1       4.094 -16.678  14.501  1.00  0.00     0.098 A 
ATOM      4  C   UNL     1       4.439 -15.358  14.797  1.00  0.00     0.142 A 
ATOM      5  C   UNL     1       5.787 -14.950  14.714  1.00  0.00     0.022 A 
ATOM      6  C   UNL     1       6.775 -15.869  14.338  1.00  0.00     0.062 A 
ATOM      7  C   UNL     1       6.099 -13.620  15.017  1.00  0.00     0.019 A 
ATOM      8  C   UNL     1       5.081 -12.743  15.386  1.00  0.00     0.094 A 
ATOM      9  C   UNL     1       3.766 -13.218  15.446  1.00  0.00     0.336 A 
ATOM     10  O   UNL     1       2.831 -12.443  15.777  1.00  0.00    -0.246 OA
ATOM     11  O   UNL     1       3.495 -14.489  15.153  1.00  0.00    -0.423 OA
ENDROOT
BRANCH   1  12
ATOM     12  O   UNL     1       7.389 -18.153  13.659  1.00  0.00    -0.493 OA
ATOM     13  C   UNL     1       8.124 -18.968  14.567  1.00  0.00     0.278 C 
ENDBRANCH   1  12
BRANCH   2  14
ATOM     14  O   UNL     1       4.695 -18.910  13.838  1.00  0.00    -0.504 OA
ATOM     15  H   UNL     1       5.368 -19.662  13.747  1.00  0.00     0.293 HD
ENDBRANCH   2  14
TORSDOF 2
ENDMDL
MODEL 7
REMARK VINA RESULT:    -4.222      1.893      5.205
REMARK INTER + INTRA:          -4.640
REMARK INTER:                  -4.576
REMARK INTRA:                  -0.064
REMARK UNBOUND:                -0.049
REMARK SMILES COc1cc2ccc(=O)oc2cc1O
REMARK SMILES IDX 3 1 13 2 12 3 11 4 5 5 4 6 6 7 7 8 8 9 9 10 10 11 2 12 1 13
REMARK SMILES IDX 14 14
REMARK H PARENT 14 15
REMARK Flexibility Score: inf
ROOT
ATOM      1  C   UNL     1       4.282 -17.325  15.952  1.00  0.00     0.161 A 
ATOM      2  C   UNL     1       4.157 -16.903  14.614  1.00  0.00     0.161 A 
ATOM      3  C   UNL     1       3.790 -15.583  14.322  1.00  0.00     0.098 A 
ATOM      4  C   UNL     1       3.544 -14.674  15.353  1.00  0.00     0.142 A 
ATOM      5  C   UNL     1       3.667 -15.087  16.696  1.00  0.00     0.022 A 
ATOM      6  C   UNL     1       4.034 -16.406  16.992  1.00  0.00     0.062 A 
ATOM      7  C   UNL     1       3.414 -14.152  17.706  1.00  0.00     0.019 A 
ATOM      8  C   UNL     1       3.052 -12.851  17.360  1.00  0.00     0.094 A 
ATOM      9  C   UNL     1       2.950 -12.513  16.007  1.00  0.00     0.336 A 
ATOM     10  O   UNL     1       2.624 -11.344  15.673  1.00  0.00    -0.246 OA
ATOM     11  O   UNL     1       3.196 -13.421  15.065  1.00  0.00    -0.423 OA
ENDROOT
BRANCH   1  12
ATOM     12  O   UNL     1       4.652 -18.655  16.209  1.00  0.00    -0.493 OA
ATOM     13  C   UNL     1       5.982 -19.088  16.472  1.00  0.00     0.278 C 
ENDBRANCH   1  12
BRANCH   2  14
ATOM     14  O   UNL     1       4.394 -17.782  13.557  1.00  0.00    -0.504 OA
ATOM     15  H   UNL     1       3.975 -17.654  12.644  1.00  0.00     0.293 HD
ENDBRANCH   2  14
TORSDOF 2
ENDMDL
MODEL 8
REMARK VINA RESULT:    -4.055     13.625     14.535
REMARK INTER + INTRA:          -4.460
REMARK INTER:                  -4.416
REMARK INTRA:                  -0.043
REMARK UNBOUND:                -0.049
REMARK SMILES COc1cc2ccc(=O)oc2cc1O
REMARK SMILES IDX 3 1 13 2 12 3 11 4 5 5 4 6 6 7 7 8 8 9 9 10 10 11 2 12 1 13
REMARK SMILES IDX 14 14
REMARK H PARENT 14 15
REMARK Flexibility Score: inf
ROOT
ATOM      1  C   UNL     1       0.636 -25.190   5.442  1.00  0.00     0.161 A 
ATOM      2  C   UNL     1       0.065 -25.004   4.168  1.00  0.00     0.161 A 
ATOM      3  C   UNL     1       0.812 -24.420   3.138  1.00  0.00     0.098 A 
ATOM      4  C   UNL     1       2.130 -24.016   3.363  1.00  0.00     0.142 A 
ATOM      5  C   UNL     1       2.711 -24.198   4.636  1.00  0.00     0.022 A 
ATOM      6  C   UNL     1       1.967 -24.782   5.668  1.00  0.00     0.062 A 
ATOM      7  C   UNL     1       4.033 -23.783   4.829  1.00  0.00     0.019 A 
ATOM      8  C   UNL     1       4.733 -23.207   3.770  1.00  0.00     0.094 A 
ATOM      9  C   UNL     1       4.092 -23.058   2.535  1.00  0.00     0.336 A 
ATOM     10  O   UNL     1       4.705 -22.541   1.566  1.00  0.00    -0.246 OA
ATOM     11  O   UNL     1       2.833 -23.462   2.377  1.00  0.00    -0.423 OA
ENDROOT
BRANCH   1  12
ATOM     12  O   UNL     1      -0.142 -25.779   6.452  1.00  0.00    -0.493 OA
ATOM     13  C   UNL     1       0.341 -26.125   7.746  1.00  0.00     0.278 C 
ENDBRANCH   1  12
BRANCH   2  14
ATOM     14  O   UNL     1      -1.248 -25.393   3.905  1.00  0.00    -0.504 OA
ATOM     15  H   UNL     1      -2.033 -24.765   4.026  1.00  0.00     0.293 HD
ENDBRANCH   2  14
TORSDOF 2
ENDMDL
MODEL 9
REMARK VINA RESULT:    -4.044      2.082      3.367
REMARK INTER + INTRA:          -4.447
REMARK INTER:                  -4.386
REMARK INTRA:                  -0.061
REMARK UNBOUND:                -0.049
REMARK SMILES COc1cc2ccc(=O)oc2cc1O
REMARK SMILES IDX 3 1 13 2 12 3 11 4 5 5 4 6 6 7 7 8 8 9 9 10 10 11 2 12 1 13
REMARK SMILES IDX 14 14
REMARK H PARENT 14 15
REMARK Flexibility Score: inf
ROOT
ATOM      1  C   UNL     1       4.973 -11.649  14.091  1.00  0.00     0.161 A 
ATOM      2  C   UNL     1       6.206 -12.266  14.382  1.00  0.00     0.161 A 
ATOM      3  C   UNL     1       6.251 -13.620  14.736  1.00  0.00     0.098 A 
ATOM      4  C   UNL     1       5.076 -14.372  14.805  1.00  0.00     0.142 A 
ATOM      5  C   UNL     1       3.837 -13.763  14.514  1.00  0.00     0.022 A 
ATOM      6  C   UNL     1       3.787 -12.409  14.159  1.00  0.00     0.062 A 
ATOM      7  C   UNL     1       2.678 -14.543  14.591  1.00  0.00     0.019 A 
ATOM      8  C   UNL     1       2.778 -15.887  14.948  1.00  0.00     0.094 A 
ATOM      9  C   UNL     1       4.041 -16.423  15.222  1.00  0.00     0.336 A 
ATOM     10  O   UNL     1       4.154 -17.634  15.547  1.00  0.00    -0.246 OA
ATOM     11  O   UNL     1       5.129 -15.659  15.142  1.00  0.00    -0.423 OA
ENDROOT
BRANCH   1  12
ATOM     12  O   UNL     1       4.965 -10.290  13.739  1.00  0.00    -0.493 OA
ATOM     13  C   UNL     1       4.407  -9.251  14.538  1.00  0.00     0.278 C 
ENDBRANCH   1  12
BRANCH   2  14
ATOM     14  O   UNL     1       7.400 -11.549  14.326  1.00  0.00    -0.504 OA
ATOM     15  H   UNL     1       7.877 -11.226  15.159  1.00  0.00     0.293 HD
ENDBRANCH   2  14
TORSDOF 2
ENDMDL
