MODEL 1
REMARK VINA RESULT:     1.783      0.000      0.000
REMARK INTER + INTRA:           1.783
REMARK INTER:                   1.783
REMARK INTRA:                   0.000
REMARK UNBOUND:                 0.000
REMARK SMILES CC1(C)O[C@]2(C)CC[C@H]1CC2
REMARK SMILES IDX 1 1 2 2 9 3 8 4 7 5 5 6 4 7 11 8 10 9 6 10 3 11
REMARK H PARENT
REMARK Flexibility Score: inf
ROOT
ATOM      1  C   UNL     1      -0.002   9.755   9.995  1.00  0.00     0.042 C 
ATOM      2  C   UNL     1      -1.291   8.912  10.107  1.00  0.00     0.066 C 
ATOM      3  C   UNL     1      -2.201   9.111   8.835  1.00  0.00     0.021 C 
ATOM      4  C   UNL     1      -2.641  10.593   8.773  1.00  0.00     0.009 C 
ATOM      5  C   UNL     1      -3.249  10.999  10.137  1.00  0.00     0.035 C 
ATOM      6  C   UNL     1      -3.299   9.763  11.081  1.00  0.00     0.066 C 
ATOM      7  O   UNL     1      -1.970   9.295  11.313  1.00  0.00    -0.369 OA
ATOM      8  C   UNL     1      -4.125   8.637  10.395  1.00  0.00     0.035 C 
ATOM      9  C   UNL     1      -3.496   8.286   9.025  1.00  0.00     0.009 C 
ATOM     10  C   UNL     1      -3.930  10.143  12.424  1.00  0.00     0.042 C 
ATOM     11  C   UNL     1      -0.863   7.435  10.247  1.00  0.00     0.042 C 
ENDROOT
TORSDOF 0
ENDMDL
MODEL 2
REMARK VINA RESULT:     1.983      1.282      3.166
REMARK INTER + INTRA:           1.983
REMARK INTER:                   1.983
REMARK INTRA:                   0.000
REMARK UNBOUND:                 0.000
REMARK SMILES CC1(C)O[C@]2(C)CC[C@H]1CC2
REMARK SMILES IDX 1 1 2 2 9 3 8 4 7 5 5 6 4 7 11 8 10 9 6 10 3 11
REMARK H PARENT
REMARK Flexibility Score: inf
ROOT
ATOM      1  C   UNL     1      -3.745  12.345   9.966  1.00  0.00     0.042 C 
ATOM      2  C   UNL     1      -3.194  11.159   9.148  1.00  0.00     0.066 C 
ATOM      3  C   UNL     1      -4.125   9.895   9.300  1.00  0.00     0.021 C 
ATOM      4  C   UNL     1      -4.117   9.455  10.783  1.00  0.00     0.009 C 
ATOM      5  C   UNL     1      -2.651   9.306  11.260  1.00  0.00     0.035 C 
ATOM      6  C   UNL     1      -1.681   9.556  10.070  1.00  0.00     0.066 C 
ATOM      7  O   UNL     1      -1.856  10.891   9.594  1.00  0.00    -0.369 OA
ATOM      8  C   UNL     1      -2.019   8.558   8.924  1.00  0.00     0.035 C 
ATOM      9  C   UNL     1      -3.499   8.726   8.503  1.00  0.00     0.009 C 
ATOM     10  C   UNL     1      -0.228   9.378  10.519  1.00  0.00     0.042 C 
ATOM     11  C   UNL     1      -3.125  11.611   7.672  1.00  0.00     0.042 C 
ENDROOT
TORSDOF 0
ENDMDL
MODEL 3
REMARK VINA RESULT:     2.777      1.226      2.563
REMARK INTER + INTRA:           2.777
REMARK INTER:                   2.777
REMARK INTRA:                   0.000
REMARK UNBOUND:                 0.000
REMARK SMILES CC1(C)O[C@]2(C)CC[C@H]1CC2
REMARK SMILES IDX 1 1 2 2 9 3 8 4 7 5 5 6 4 7 11 8 10 9 6 10 3 11
REMARK H PARENT
REMARK Flexibility Score: inf
ROOT
ATOM      1  C   UNL     1      -1.032   7.876   8.908  1.00  0.00     0.042 C 
ATOM      2  C   UNL     1      -1.477   9.010   9.855  1.00  0.00     0.066 C 
ATOM      3  C   UNL     1      -2.700   8.551  10.740  1.00  0.00     0.021 C 
ATOM      4  C   UNL     1      -3.897   8.256   9.805  1.00  0.00     0.009 C 
ATOM      5  C   UNL     1      -4.125   9.470   8.872  1.00  0.00     0.035 C 
ATOM      6  C   UNL     1      -3.139  10.614   9.245  1.00  0.00     0.066 C 
ATOM      7  O   UNL     1      -1.798  10.159   9.056  1.00  0.00    -0.369 OA
ATOM      8  C   UNL     1      -3.344  10.990  10.741  1.00  0.00     0.035 C 
ATOM      9  C   UNL     1      -3.134   9.741  11.630  1.00  0.00     0.009 C 
ATOM     10  C   UNL     1      -3.375  11.836   8.352  1.00  0.00     0.042 C 
ATOM     11  C   UNL     1      -0.265   9.368  10.744  1.00  0.00     0.042 C 
ENDROOT
TORSDOF 0
ENDMDL
MODEL 4
REMARK VINA RESULT:     4.266      0.840      3.327
REMARK INTER + INTRA:           4.266
REMARK INTER:                   4.266
REMARK INTRA:                   0.000
REMARK UNBOUND:                 0.000
REMARK SMILES CC1(C)O[C@]2(C)CC[C@H]1CC2
REMARK SMILES IDX 1 1 2 2 9 3 8 4 7 5 5 6 4 7 11 8 10 9 6 10 3 11
REMARK H PARENT
REMARK Flexibility Score: inf
ROOT
ATOM      1  C   UNL     1      -3.999   9.908  12.333  1.00  0.00     0.042 C 
ATOM      2  C   UNL     1      -3.569  10.144  10.870  1.00  0.00     0.066 C 
ATOM      3  C   UNL     1      -4.125   9.003   9.933  1.00  0.00     0.021 C 
ATOM      4  C   UNL     1      -3.498   7.659  10.372  1.00  0.00     0.009 C 
ATOM      5  C   UNL     1      -1.959   7.816  10.444  1.00  0.00     0.035 C 
ATOM      6  C   UNL     1      -1.551   9.239   9.965  1.00  0.00     0.066 C 
ATOM      7  O   UNL     1      -2.135  10.212  10.832  1.00  0.00    -0.369 OA
ATOM      8  C   UNL     1      -2.086   9.458   8.520  1.00  0.00     0.035 C 
ATOM      9  C   UNL     1      -3.621   9.262   8.493  1.00  0.00     0.009 C 
ATOM     10  C   UNL     1      -0.028   9.398   9.998  1.00  0.00     0.042 C 
ATOM     11  C   UNL     1      -4.125  11.520  10.443  1.00  0.00     0.042 C 
ENDROOT
TORSDOF 0
ENDMDL
