MODEL 1
REMARK VINA RESULT:    -3.608      0.000      0.000
REMARK INTER + INTRA:          -9.530
REMARK INTER:                  -6.982
REMARK INTRA:                  -2.548
REMARK UNBOUND:                -2.548
REMARK SMILES CCCCCCCCCCCCCCCCCC(=O)[O-]
REMARK SMILES IDX 10 1 11 2 12 3 13 4 14 5 15 6 16 7 17 8 18 9 19 10 20 11
REMARK SMILES IDX 9 12 8 13 7 14 6 15 5 16 4 17 3 18 2 19 1 20
REMARK H PARENT
REMARK Flexibility Score: inf
ROOT
ATOM      1  C   UNL     1       0.063   8.957  35.980  1.00  0.00     0.000 C 
ENDROOT
BRANCH   1   2
ATOM      2  C   UNL     1       0.992  10.010  36.610  1.00  0.00     0.000 C 
BRANCH   2   3
ATOM      3  C   UNL     1       2.235   9.394  37.269  1.00  0.00     0.000 C 
BRANCH   3   4
ATOM      4  C   UNL     1       2.227   9.628  38.783  1.00  0.00     0.000 C 
BRANCH   4   5
ATOM      5  C   UNL     1       1.999   8.312  39.543  1.00  0.00     0.000 C 
BRANCH   5   6
ATOM      6  C   UNL     1       1.889   7.092  38.611  1.00  0.00     0.000 C 
BRANCH   6   7
ATOM      7  C   UNL     1       1.952   5.723  39.316  1.00  0.00     0.006 C 
BRANCH   7   8
ATOM      8  C   UNL     1       2.466   4.574  38.435  1.00  0.00     0.053 C 
BRANCH   8   9
ATOM      9  C   UNL     1       3.813   4.875  37.854  1.00  0.00     0.041 C 
ATOM     10  O   UNL     1       3.937   5.101  36.621  1.00  0.00    -0.550 OA
ATOM     11  O   UNL     1       4.929   4.939  38.680  1.00  0.00    -0.550 OA
ENDBRANCH   8   9
ENDBRANCH   7   8
ENDBRANCH   6   7
ENDBRANCH   5   6
ENDBRANCH   4   5
ENDBRANCH   3   4
ENDBRANCH   2   3
ENDBRANCH   1   2
BRANCH   1  12
ATOM     12  C   UNL     1      -1.141   8.546  36.851  1.00  0.00     0.000 C 
BRANCH  12  13
ATOM     13  C   UNL     1      -1.493   9.528  37.984  1.00  0.00    -0.000 C 
BRANCH  13  14
ATOM     14  C   UNL     1      -1.334   8.960  39.408  1.00  0.00    -0.000 C 
BRANCH  14  15
ATOM     15  C   UNL     1      -2.471   8.025  39.869  1.00  0.00    -0.000 C 
BRANCH  15  16
ATOM     16  C   UNL     1      -2.051   6.563  40.106  1.00  0.00    -0.000 C 
BRANCH  16  17
ATOM     17  C   UNL     1      -2.477   5.629  38.959  1.00  0.00    -0.000 C 
BRANCH  17  18
ATOM     18  C   UNL     1      -1.300   5.235  38.053  1.00  0.00    -0.000 C 
BRANCH  18  19
ATOM     19  C   UNL     1      -1.762   4.670  36.702  1.00  0.00    -0.003 C 
ATOM     20  C   UNL     1      -0.625   3.935  35.996  1.00  0.00     0.004 C 
ENDBRANCH  18  19
ENDBRANCH  17  18
ENDBRANCH  16  17
ENDBRANCH  15  16
ENDBRANCH  14  15
ENDBRANCH  13  14
ENDBRANCH  12  13
ENDBRANCH   1  12
TORSDOF 16
ENDMDL
MODEL 2
REMARK VINA RESULT:    -3.590      2.735      4.542
REMARK INTER + INTRA:          -9.496
REMARK INTER:                  -6.547
REMARK INTRA:                  -2.949
REMARK UNBOUND:                -2.548
REMARK SMILES CCCCCCCCCCCCCCCCCC(=O)[O-]
REMARK SMILES IDX 10 1 11 2 12 3 13 4 14 5 15 6 16 7 17 8 18 9 19 10 20 11
REMARK SMILES IDX 9 12 8 13 7 14 6 15 5 16 4 17 3 18 2 19 1 20
REMARK H PARENT
REMARK Flexibility Score: inf
ROOT
ATOM      1  C   UNL     1       2.078   8.052  38.596  1.00  0.00     0.000 C 
ENDROOT
BRANCH   1   2
ATOM      2  C   UNL     1       2.033   9.166  37.535  1.00  0.00     0.000 C 
BRANCH   2   3
ATOM      3  C   UNL     1       1.172   8.799  36.317  1.00  0.00     0.000 C 
BRANCH   3   4
ATOM      4  C   UNL     1      -0.268   8.484  36.738  1.00  0.00     0.000 C 
BRANCH   4   5
ATOM      5  C   UNL     1      -1.022   9.766  37.123  1.00  0.00     0.000 C 
BRANCH   5   6
ATOM      6  C   UNL     1      -1.848   9.612  38.413  1.00  0.00     0.000 C 
BRANCH   6   7
ATOM      7  C   UNL     1      -1.385   8.482  39.354  1.00  0.00     0.006 C 
BRANCH   7   8
ATOM      8  C   UNL     1      -2.500   7.876  40.219  1.00  0.00     0.053 C 
BRANCH   8   9
ATOM      9  C   UNL     1      -1.998   7.460  41.568  1.00  0.00     0.041 C 
ATOM     10  O   UNL     1      -2.435   6.412  42.112  1.00  0.00    -0.550 OA
ATOM     11  O   UNL     1      -1.023   8.214  42.210  1.00  0.00    -0.550 OA
ENDBRANCH   8   9
ENDBRANCH   7   8
ENDBRANCH   6   7
ENDBRANCH   5   6
ENDBRANCH   4   5
ENDBRANCH   3   4
ENDBRANCH   2   3
ENDBRANCH   1   2
BRANCH   1  12
ATOM     12  C   UNL     1       2.514   6.670  38.072  1.00  0.00     0.000 C 
BRANCH  12  13
ATOM     13  C   UNL     1       2.154   5.482  38.984  1.00  0.00    -0.000 C 
BRANCH  13  14
ATOM     14  C   UNL     1       0.853   5.656  39.793  1.00  0.00    -0.000 C 
BRANCH  14  15
ATOM     15  C   UNL     1      -0.023   4.392  39.901  1.00  0.00    -0.000 C 
BRANCH  15  16
ATOM     16  C   UNL     1      -1.390   4.488  39.200  1.00  0.00    -0.000 C 
BRANCH  16  17
ATOM     17  C   UNL     1      -1.304   5.161  37.818  1.00  0.00    -0.000 C 
BRANCH  17  18
ATOM     18  C   UNL     1      -1.224   4.141  36.671  1.00  0.00    -0.000 C 
BRANCH  18  19
ATOM     19  C   UNL     1       0.221   3.868  36.228  1.00  0.00    -0.003 C 
ATOM     20  C   UNL     1       0.718   4.954  35.277  1.00  0.00     0.004 C 
ENDBRANCH  18  19
ENDBRANCH  17  18
ENDBRANCH  16  17
ENDBRANCH  15  16
ENDBRANCH  14  15
ENDBRANCH  13  14
ENDBRANCH  12  13
ENDBRANCH   1  12
TORSDOF 16
ENDMDL
MODEL 3
REMARK VINA RESULT:    -3.548      2.100      2.643
REMARK INTER + INTRA:          -9.415
REMARK INTER:                  -6.655
REMARK INTRA:                  -2.761
REMARK UNBOUND:                -2.548
REMARK SMILES CCCCCCCCCCCCCCCCCC(=O)[O-]
REMARK SMILES IDX 10 1 11 2 12 3 13 4 14 5 15 6 16 7 17 8 18 9 19 10 20 11
REMARK SMILES IDX 9 12 8 13 7 14 6 15 5 16 4 17 3 18 2 19 1 20
REMARK H PARENT
REMARK Flexibility Score: inf
ROOT
ATOM      1  C   UNL     1       0.818   8.989  35.841  1.00  0.00     0.000 C 
ENDROOT
BRANCH   1   2
ATOM      2  C   UNL     1       1.706   9.901  36.708  1.00  0.00     0.000 C 
BRANCH   2   3
ATOM      3  C   UNL     1       2.768   9.124  37.500  1.00  0.00     0.000 C 
BRANCH   3   4
ATOM      4  C   UNL     1       2.211   8.649  38.846  1.00  0.00     0.000 C 
BRANCH   4   5
ATOM      5  C   UNL     1       2.069   7.119  38.875  1.00  0.00     0.000 C 
BRANCH   5   6
ATOM      6  C   UNL     1       2.772   6.429  37.692  1.00  0.00     0.000 C 
BRANCH   6   7
ATOM      7  C   UNL     1       1.847   5.610  36.770  1.00  0.00     0.006 C 
BRANCH   7   8
ATOM      8  C   UNL     1       2.416   5.346  35.367  1.00  0.00     0.053 C 
BRANCH   8   9
ATOM      9  C   UNL     1       1.362   5.448  34.308  1.00  0.00     0.041 C 
ATOM     10  O   UNL     1       0.410   4.625  34.277  1.00  0.00    -0.550 OA
ATOM     11  O   UNL     1       1.414   6.475  33.372  1.00  0.00    -0.550 OA
ENDBRANCH   8   9
ENDBRANCH   7   8
ENDBRANCH   6   7
ENDBRANCH   5   6
ENDBRANCH   4   5
ENDBRANCH   3   4
ENDBRANCH   2   3
ENDBRANCH   1   2
BRANCH   1  12
ATOM     12  C   UNL     1      -0.521   8.579  36.486  1.00  0.00     0.000 C 
BRANCH  12  13
ATOM     13  C   UNL     1      -1.461   9.748  36.837  1.00  0.00    -0.000 C 
BRANCH  13  14
ATOM     14  C   UNL     1      -1.966   9.758  38.294  1.00  0.00    -0.000 C 
BRANCH  14  15
ATOM     15  C   UNL     1      -0.899   9.432  39.358  1.00  0.00    -0.000 C 
BRANCH  15  16
ATOM     16  C   UNL     1      -1.214   8.210  40.239  1.00  0.00    -0.000 C 
BRANCH  16  17
ATOM     17  C   UNL     1      -2.638   7.669  40.019  1.00  0.00    -0.000 C 
BRANCH  17  18
ATOM     18  C   UNL     1      -2.659   6.155  39.757  1.00  0.00    -0.000 C 
BRANCH  18  19
ATOM     19  C   UNL     1      -1.759   5.749  38.581  1.00  0.00    -0.003 C 
ATOM     20  C   UNL     1      -0.973   4.481  38.903  1.00  0.00     0.004 C 
ENDBRANCH  18  19
ENDBRANCH  17  18
ENDBRANCH  16  17
ENDBRANCH  15  16
ENDBRANCH  14  15
ENDBRANCH  13  14
ENDBRANCH  12  13
ENDBRANCH   1  12
TORSDOF 16
ENDMDL
MODEL 4
REMARK VINA RESULT:    -3.499      1.857      3.520
REMARK INTER + INTRA:          -9.319
REMARK INTER:                  -6.408
REMARK INTRA:                  -2.911
REMARK UNBOUND:                -2.548
REMARK SMILES CCCCCCCCCCCCCCCCCC(=O)[O-]
REMARK SMILES IDX 10 1 11 2 12 3 13 4 14 5 15 6 16 7 17 8 18 9 19 10 20 11
REMARK SMILES IDX 9 12 8 13 7 14 6 15 5 16 4 17 3 18 2 19 1 20
REMARK H PARENT
REMARK Flexibility Score: inf
ROOT
ATOM      1  C   UNL     1      -0.379   9.054  39.800  1.00  0.00     0.000 C 
ENDROOT
BRANCH   1   2
ATOM      2  C   UNL     1      -0.642  10.116  38.718  1.00  0.00     0.000 C 
BRANCH   2   3
ATOM      3  C   UNL     1      -1.851   9.782  37.831  1.00  0.00     0.000 C 
BRANCH   3   4
ATOM      4  C   UNL     1      -1.413   9.485  36.393  1.00  0.00     0.000 C 
BRANCH   4   5
ATOM      5  C   UNL     1       0.066   9.844  36.183  1.00  0.00     0.000 C 
BRANCH   5   6
ATOM      6  C   UNL     1       0.923   8.637  35.759  1.00  0.00     0.000 C 
BRANCH   6   7
ATOM      7  C   UNL     1       0.573   7.309  36.461  1.00  0.00     0.006 C 
BRANCH   7   8
ATOM      8  C   UNL     1       1.595   6.857  37.515  1.00  0.00     0.053 C 
BRANCH   8   9
ATOM      9  C   UNL     1       2.276   5.582  37.124  1.00  0.00     0.041 C 
ATOM     10  O   UNL     1       3.356   5.612  36.479  1.00  0.00    -0.550 OA
ATOM     11  O   UNL     1       1.733   4.359  37.501  1.00  0.00    -0.550 OA
ENDBRANCH   8   9
ENDBRANCH   7   8
ENDBRANCH   6   7
ENDBRANCH   5   6
ENDBRANCH   4   5
ENDBRANCH   3   4
ENDBRANCH   2   3
ENDBRANCH   1   2
BRANCH   1  12
ATOM     12  C   UNL     1       0.991   9.160  40.498  1.00  0.00     0.000 C 
BRANCH  12  13
ATOM     13  C   UNL     1       1.023   8.655  41.953  1.00  0.00    -0.000 C 
BRANCH  13  14
ATOM     14  C   UNL     1      -0.334   8.171  42.502  1.00  0.00    -0.000 C 
BRANCH  14  15
ATOM     15  C   UNL     1      -0.457   6.645  42.687  1.00  0.00    -0.000 C 
BRANCH  15  16
ATOM     16  C   UNL     1       0.719   5.827  42.123  1.00  0.00    -0.000 C 
BRANCH  16  17
ATOM     17  C   UNL     1       0.438   5.272  40.716  1.00  0.00    -0.000 C 
BRANCH  17  18
ATOM     18  C   UNL     1      -1.057   5.008  40.475  1.00  0.00    -0.000 C 
BRANCH  18  19
ATOM     19  C   UNL     1      -1.563   5.641  39.170  1.00  0.00    -0.003 C 
ATOM     20  C   UNL     1      -2.905   6.338  39.383  1.00  0.00     0.004 C 
ENDBRANCH  18  19
ENDBRANCH  17  18
ENDBRANCH  16  17
ENDBRANCH  15  16
ENDBRANCH  14  15
ENDBRANCH  13  14
ENDBRANCH  12  13
ENDBRANCH   1  12
TORSDOF 16
ENDMDL
MODEL 5
REMARK VINA RESULT:    -3.469      2.516      4.814
REMARK INTER + INTRA:          -9.261
REMARK INTER:                  -6.427
REMARK INTRA:                  -2.834
REMARK UNBOUND:                -2.548
REMARK SMILES CCCCCCCCCCCCCCCCCC(=O)[O-]
REMARK SMILES IDX 10 1 11 2 12 3 13 4 14 5 15 6 16 7 17 8 18 9 19 10 20 11
REMARK SMILES IDX 9 12 8 13 7 14 6 15 5 16 4 17 3 18 2 19 1 20
REMARK H PARENT
REMARK Flexibility Score: inf
ROOT
ATOM      1  C   UNL     1       1.276   8.732  40.766  1.00  0.00     0.000 C 
ENDROOT
BRANCH   1   2
ATOM      2  C   UNL     1       1.062   7.211  40.865  1.00  0.00     0.000 C 
BRANCH   2   3
ATOM      3  C   UNL     1       0.115   6.813  42.007  1.00  0.00     0.000 C 
BRANCH   3   4
ATOM      4  C   UNL     1      -0.949   7.891  42.239  1.00  0.00     0.000 C 
BRANCH   4   5
ATOM      5  C   UNL     1      -2.344   7.382  41.843  1.00  0.00     0.000 C 
BRANCH   5   6
ATOM      6  C   UNL     1      -2.627   7.519  40.336  1.00  0.00     0.000 C 
BRANCH   6   7
ATOM      7  C   UNL     1      -2.627   6.193  39.548  1.00  0.00     0.006 C 
BRANCH   7   8
ATOM      8  C   UNL     1      -2.720   4.933  40.422  1.00  0.00     0.053 C 
BRANCH   8   9
ATOM      9  C   UNL     1      -1.555   4.016  40.207  1.00  0.00     0.041 C 
ATOM     10  O   UNL     1      -1.442   2.963  40.887  1.00  0.00    -0.550 OA
ATOM     11  O   UNL     1      -0.610   4.310  39.231  1.00  0.00    -0.550 OA
ENDBRANCH   8   9
ENDBRANCH   7   8
ENDBRANCH   6   7
ENDBRANCH   5   6
ENDBRANCH   4   5
ENDBRANCH   3   4
ENDBRANCH   2   3
ENDBRANCH   1   2
BRANCH   1  12
ATOM     12  C   UNL     1       1.869   9.221  39.429  1.00  0.00     0.000 C 
BRANCH  12  13
ATOM     13  C   UNL     1       0.943  10.125  38.595  1.00  0.00    -0.000 C 
BRANCH  13  14
ATOM     14  C   UNL     1      -0.483   9.576  38.385  1.00  0.00    -0.000 C 
BRANCH  14  15
ATOM     15  C   UNL     1      -0.590   8.398  37.396  1.00  0.00    -0.000 C 
BRANCH  15  16
ATOM     16  C   UNL     1       0.286   8.527  36.137  1.00  0.00    -0.000 C 
BRANCH  16  17
ATOM     17  C   UNL     1       1.121   7.265  35.860  1.00  0.00    -0.000 C 
BRANCH  17  18
ATOM     18  C   UNL     1       1.227   6.348  37.088  1.00  0.00    -0.000 C 
BRANCH  18  19
ATOM     19  C   UNL     1       2.660   6.262  37.636  1.00  0.00    -0.003 C 
ATOM     20  C   UNL     1       2.893   4.938  38.358  1.00  0.00     0.004 C 
ENDBRANCH  18  19
ENDBRANCH  17  18
ENDBRANCH  16  17
ENDBRANCH  15  16
ENDBRANCH  14  15
ENDBRANCH  13  14
ENDBRANCH  12  13
ENDBRANCH   1  12
TORSDOF 16
ENDMDL
MODEL 6
REMARK VINA RESULT:    -3.436      2.206      4.483
REMARK INTER + INTRA:          -9.197
REMARK INTER:                  -6.317
REMARK INTRA:                  -2.880
REMARK UNBOUND:                -2.548
REMARK SMILES CCCCCCCCCCCCCCCCCC(=O)[O-]
REMARK SMILES IDX 10 1 11 2 12 3 13 4 14 5 15 6 16 7 17 8 18 9 19 10 20 11
REMARK SMILES IDX 9 12 8 13 7 14 6 15 5 16 4 17 3 18 2 19 1 20
REMARK H PARENT
REMARK Flexibility Score: inf
ROOT
ATOM      1  C   UNL     1      -1.845   5.083  39.880  1.00  0.00     0.000 C 
ENDROOT
BRANCH   1   2
ATOM      2  C   UNL     1      -1.158   4.680  38.562  1.00  0.00     0.000 C 
BRANCH   2   3
ATOM      3  C   UNL     1      -1.577   5.561  37.375  1.00  0.00     0.000 C 
BRANCH   3   4
ATOM      4  C   UNL     1      -0.355   6.208  36.714  1.00  0.00     0.000 C 
BRANCH   4   5
ATOM      5  C   UNL     1       0.813   6.319  37.705  1.00  0.00     0.000 C 
BRANCH   5   6
ATOM      6  C   UNL     1       2.142   6.698  37.026  1.00  0.00     0.000 C 
BRANCH   6   7
ATOM      7  C   UNL     1       2.206   6.414  35.512  1.00  0.00     0.006 C 
BRANCH   7   8
ATOM      8  C   UNL     1       2.820   5.055  35.143  1.00  0.00     0.053 C 
BRANCH   8   9
ATOM      9  C   UNL     1       1.804   4.123  34.559  1.00  0.00     0.041 C 
ATOM     10  O   UNL     1       1.771   2.916  34.916  1.00  0.00    -0.550 OA
ATOM     11  O   UNL     1       0.870   4.595  33.645  1.00  0.00    -0.550 OA
ENDBRANCH   8   9
ENDBRANCH   7   8
ENDBRANCH   6   7
ENDBRANCH   5   6
ENDBRANCH   4   5
ENDBRANCH   3   4
ENDBRANCH   2   3
ENDBRANCH   1   2
BRANCH   1  12
ATOM     12  C   UNL     1      -2.978   6.118  39.734  1.00  0.00     0.000 C 
BRANCH  12  13
ATOM     13  C   UNL     1      -2.683   7.500  40.347  1.00  0.00    -0.000 C 
BRANCH  13  14
ATOM     14  C   UNL     1      -1.190   7.792  40.600  1.00  0.00    -0.000 C 
BRANCH  14  15
ATOM     15  C   UNL     1      -0.618   8.991  39.816  1.00  0.00    -0.000 C 
BRANCH  15  16
ATOM     16  C   UNL     1      -1.386   9.351  38.531  1.00  0.00    -0.000 C 
BRANCH  16  17
ATOM     17  C   UNL     1      -0.479   9.964  37.449  1.00  0.00    -0.000 C 
BRANCH  17  18
ATOM     18  C   UNL     1      -1.017   9.730  36.028  1.00  0.00    -0.000 C 
BRANCH  18  19
ATOM     19  C   UNL     1       0.077   9.850  34.958  1.00  0.00    -0.003 C 
ATOM     20  C   UNL     1       1.441  10.110  35.594  1.00  0.00     0.004 C 
ENDBRANCH  18  19
ENDBRANCH  17  18
ENDBRANCH  16  17
ENDBRANCH  15  16
ENDBRANCH  14  15
ENDBRANCH  13  14
ENDBRANCH  12  13
ENDBRANCH   1  12
TORSDOF 16
ENDMDL
MODEL 7
REMARK VINA RESULT:    -3.422      3.047      5.354
REMARK INTER + INTRA:          -9.170
REMARK INTER:                  -6.524
REMARK INTRA:                  -2.646
REMARK UNBOUND:                -2.548
REMARK SMILES CCCCCCCCCCCCCCCCCC(=O)[O-]
REMARK SMILES IDX 10 1 11 2 12 3 13 4 14 5 15 6 16 7 17 8 18 9 19 10 20 11
REMARK SMILES IDX 9 12 8 13 7 14 6 15 5 16 4 17 3 18 2 19 1 20
REMARK H PARENT
REMARK Flexibility Score: inf
ROOT
ATOM      1  C   UNL     1      -1.593   6.247  38.302  1.00  0.00     0.000 C 
ENDROOT
BRANCH   1   2
ATOM      2  C   UNL     1      -0.601   5.085  38.490  1.00  0.00     0.000 C 
BRANCH   2   3
ATOM      3  C   UNL     1       0.508   5.068  37.428  1.00  0.00     0.000 C 
BRANCH   3   4
ATOM      4  C   UNL     1       0.223   6.087  36.319  1.00  0.00     0.000 C 
BRANCH   4   5
ATOM      5  C   UNL     1       1.458   6.292  35.429  1.00  0.00     0.000 C 
BRANCH   5   6
ATOM      6  C   UNL     1       1.757   7.776  35.151  1.00  0.00     0.000 C 
BRANCH   6   7
ATOM      7  C   UNL     1       1.625   8.205  33.676  1.00  0.00     0.006 C 
BRANCH   7   8
ATOM      8  C   UNL     1       1.450   7.042  32.687  1.00  0.00     0.053 C 
BRANCH   8   9
ATOM      9  C   UNL     1       1.811   7.438  31.288  1.00  0.00     0.041 C 
ATOM     10  O   UNL     1       2.090   6.559  30.432  1.00  0.00    -0.550 OA
ATOM     11  O   UNL     1       1.806   8.779  30.922  1.00  0.00    -0.550 OA
ENDBRANCH   8   9
ENDBRANCH   7   8
ENDBRANCH   6   7
ENDBRANCH   5   6
ENDBRANCH   4   5
ENDBRANCH   3   4
ENDBRANCH   2   3
ENDBRANCH   1   2
BRANCH   1  12
ATOM     12  C   UNL     1      -2.228   6.779  39.603  1.00  0.00     0.000 C 
BRANCH  12  13
ATOM     13  C   UNL     1      -2.253   8.313  39.737  1.00  0.00    -0.000 C 
BRANCH  13  14
ATOM     14  C   UNL     1      -1.889   9.083  38.452  1.00  0.00    -0.000 C 
BRANCH  14  15
ATOM     15  C   UNL     1      -0.763  10.125  38.611  1.00  0.00    -0.000 C 
BRANCH  15  16
ATOM     16  C   UNL     1       0.595   9.707  38.019  1.00  0.00    -0.000 C 
BRANCH  16  17
ATOM     17  C   UNL     1       1.647   9.402  39.100  1.00  0.00    -0.000 C 
BRANCH  17  18
ATOM     18  C   UNL     1       1.755   7.901  39.410  1.00  0.00    -0.000 C 
BRANCH  18  19
ATOM     19  C   UNL     1       1.165   7.539  40.781  1.00  0.00    -0.003 C 
ATOM     20  C   UNL     1       0.933   8.789  41.626  1.00  0.00     0.004 C 
ENDBRANCH  18  19
ENDBRANCH  17  18
ENDBRANCH  16  17
ENDBRANCH  15  16
ENDBRANCH  14  15
ENDBRANCH  13  14
ENDBRANCH  12  13
ENDBRANCH   1  12
TORSDOF 16
ENDMDL
MODEL 8
REMARK VINA RESULT:    -3.410      2.778      4.770
REMARK INTER + INTRA:          -9.148
REMARK INTER:                  -6.615
REMARK INTRA:                  -2.532
REMARK UNBOUND:                -2.548
REMARK SMILES CCCCCCCCCCCCCCCCCC(=O)[O-]
REMARK SMILES IDX 10 1 11 2 12 3 13 4 14 5 15 6 16 7 17 8 18 9 19 10 20 11
REMARK SMILES IDX 9 12 8 13 7 14 6 15 5 16 4 17 3 18 2 19 1 20
REMARK H PARENT
REMARK Flexibility Score: inf
ROOT
ATOM      1  C   UNL     1       0.084   9.264  35.305  1.00  0.00     0.000 C 
ENDROOT
BRANCH   1   2
ATOM      2  C   UNL     1      -0.916   9.813  36.338  1.00  0.00     0.000 C 
BRANCH   2   3
ATOM      3  C   UNL     1      -1.446   8.731  37.291  1.00  0.00     0.000 C 
BRANCH   3   4
ATOM      4  C   UNL     1      -1.837   9.334  38.644  1.00  0.00     0.000 C 
BRANCH   4   5
ATOM      5  C   UNL     1      -2.287   8.241  39.626  1.00  0.00     0.000 C 
BRANCH   5   6
ATOM      6  C   UNL     1      -2.169   6.823  39.039  1.00  0.00     0.000 C 
BRANCH   6   7
ATOM      7  C   UNL     1      -2.565   5.684  40.000  1.00  0.00     0.006 C 
BRANCH   7   8
ATOM      8  C   UNL     1      -1.763   5.645  41.309  1.00  0.00     0.053 C 
BRANCH   8   9
ATOM      9  C   UNL     1      -2.031   4.398  42.093  1.00  0.00     0.041 C 
ATOM     10  O   UNL     1      -3.213   4.003  42.273  1.00  0.00    -0.550 OA
ATOM     11  O   UNL     1      -0.972   3.652  42.598  1.00  0.00    -0.550 OA
ENDBRANCH   8   9
ENDBRANCH   7   8
ENDBRANCH   6   7
ENDBRANCH   5   6
ENDBRANCH   4   5
ENDBRANCH   3   4
ENDBRANCH   2   3
ENDBRANCH   1   2
BRANCH   1  12
ATOM     12  C   UNL     1       1.552   9.229  35.775  1.00  0.00     0.000 C 
BRANCH  12  13
ATOM     13  C   UNL     1       1.872  10.125  36.986  1.00  0.00    -0.000 C 
BRANCH  13  14
ATOM     14  C   UNL     1       2.601   9.414  38.145  1.00  0.00    -0.000 C 
BRANCH  14  15
ATOM     15  C   UNL     1       1.866   9.453  39.500  1.00  0.00    -0.000 C 
BRANCH  15  16
ATOM     16  C   UNL     1       1.353   8.090  39.999  1.00  0.00    -0.000 C 
BRANCH  16  17
ATOM     17  C   UNL     1       1.467   6.985  38.934  1.00  0.00    -0.000 C 
BRANCH  17  18
ATOM     18  C   UNL     1       1.499   5.576  39.548  1.00  0.00    -0.000 C 
BRANCH  18  19
ATOM     19  C   UNL     1       2.410   4.616  38.770  1.00  0.00    -0.003 C 
ATOM     20  C   UNL     1       3.655   5.335  38.257  1.00  0.00     0.004 C 
ENDBRANCH  18  19
ENDBRANCH  17  18
ENDBRANCH  16  17
ENDBRANCH  15  16
ENDBRANCH  14  15
ENDBRANCH  13  14
ENDBRANCH  12  13
ENDBRANCH   1  12
TORSDOF 16
ENDMDL
MODEL 9
REMARK VINA RESULT:    -3.409      2.476      5.475
REMARK INTER + INTRA:          -9.146
REMARK INTER:                  -6.653
REMARK INTRA:                  -2.492
REMARK UNBOUND:                -2.548
REMARK SMILES CCCCCCCCCCCCCCCCCC(=O)[O-]
REMARK SMILES IDX 10 1 11 2 12 3 13 4 14 5 15 6 16 7 17 8 18 9 19 10 20 11
REMARK SMILES IDX 9 12 8 13 7 14 6 15 5 16 4 17 3 18 2 19 1 20
REMARK H PARENT
REMARK Flexibility Score: inf
ROOT
ATOM      1  C   UNL     1      -1.653   4.963  38.874  1.00  0.00     0.000 C 
ENDROOT
BRANCH   1   2
ATOM      2  C   UNL     1      -2.848   5.791  39.380  1.00  0.00     0.000 C 
BRANCH   2   3
ATOM      3  C   UNL     1      -2.439   6.883  40.379  1.00  0.00     0.000 C 
BRANCH   3   4
ATOM      4  C   UNL     1      -2.499   8.271  39.731  1.00  0.00     0.000 C 
BRANCH   4   5
ATOM      5  C   UNL     1      -1.330   8.473  38.754  1.00  0.00     0.000 C 
BRANCH   5   6
ATOM      6  C   UNL     1      -0.548   9.772  39.014  1.00  0.00     0.000 C 
BRANCH   6   7
ATOM      7  C   UNL     1       0.837   9.582  39.665  1.00  0.00     0.006 C 
BRANCH   7   8
ATOM      8  C   UNL     1       1.087   8.177  40.234  1.00  0.00     0.053 C 
BRANCH   8   9
ATOM      9  C   UNL     1       0.894   8.132  41.718  1.00  0.00     0.041 C 
ATOM     10  O   UNL     1       0.797   9.200  42.378  1.00  0.00    -0.550 OA
ATOM     11  O   UNL     1       0.788   6.909  42.370  1.00  0.00    -0.550 OA
ENDBRANCH   8   9
ENDBRANCH   7   8
ENDBRANCH   6   7
ENDBRANCH   5   6
ENDBRANCH   4   5
ENDBRANCH   3   4
ENDBRANCH   2   3
ENDBRANCH   1   2
BRANCH   1  12
ATOM     12  C   UNL     1      -1.407   5.036  37.354  1.00  0.00     0.000 C 
BRANCH  12  13
ATOM     13  C   UNL     1      -0.167   4.270  36.856  1.00  0.00    -0.000 C 
BRANCH  13  14
ATOM     14  C   UNL     1       0.172   4.481  35.367  1.00  0.00    -0.000 C 
BRANCH  14  15
ATOM     15  C   UNL     1       1.245   5.553  35.087  1.00  0.00    -0.000 C 
BRANCH  15  16
ATOM     16  C   UNL     1       2.032   6.021  36.324  1.00  0.00    -0.000 C 
BRANCH  16  17
ATOM     17  C   UNL     1       1.731   7.481  36.706  1.00  0.00    -0.000 C 
BRANCH  17  18
ATOM     18  C   UNL     1       0.780   8.165  35.711  1.00  0.00    -0.000 C 
BRANCH  18  19
ATOM     19  C   UNL     1       1.043   9.673  35.588  1.00  0.00    -0.003 C 
ATOM     20  C   UNL     1       2.290  10.078  36.370  1.00  0.00     0.004 C 
ENDBRANCH  18  19
ENDBRANCH  17  18
ENDBRANCH  16  17
ENDBRANCH  15  16
ENDBRANCH  14  15
ENDBRANCH  13  14
ENDBRANCH  12  13
ENDBRANCH   1  12
TORSDOF 16
ENDMDL
