MODEL 1
REMARK VINA RESULT:    -2.957      0.000      0.000
REMARK INTER + INTRA:         -10.267
REMARK INTER:                  -7.798
REMARK INTRA:                  -2.469
REMARK UNBOUND:                -2.469
REMARK SMILES CCCCCCCCCCCCCCCCCCCCCCCCCCCCCC(=O)[O-]
REMARK SMILES IDX 16 1 17 2 18 3 19 4 20 5 21 6 22 7 23 8 24 9 25 10 26 11
REMARK SMILES IDX 27 12 28 13 29 14 30 15 31 16 32 17 15 18 14 19 13 20 12 21
REMARK SMILES IDX 11 22 10 23 9 24 8 25 7 26 6 27 5 28 4 29 3 30 2 31 1 32
REMARK H PARENT
REMARK Flexibility Score: inf
ROOT
ATOM      1  C   UNL     1       0.956  44.793   8.029  1.00  0.00     0.000 C 
ENDROOT
BRANCH   1   2
ATOM      2  C   UNL     1       0.179  46.092   8.326  1.00  0.00     0.000 C 
BRANCH   2   3
ATOM      3  C   UNL     1      -0.528  46.721   7.111  1.00  0.00     0.000 C 
BRANCH   3   4
ATOM      4  C   UNL     1      -1.018  48.151   7.377  1.00  0.00     0.000 C 
BRANCH   4   5
ATOM      5  C   UNL     1      -0.082  48.875   8.357  1.00  0.00     0.000 C 
BRANCH   5   6
ATOM      6  C   UNL     1       0.688  50.029   7.699  1.00  0.00     0.000 C 
BRANCH   6   7
ATOM      7  C   UNL     1       1.826  50.566   8.586  1.00  0.00     0.000 C 
BRANCH   7   8
ATOM      8  C   UNL     1       3.200  50.468   7.905  1.00  0.00     0.000 C 
BRANCH   8   9
ATOM      9  C   UNL     1       3.270  49.326   6.876  1.00  0.00     0.000 C 
BRANCH   9  10
ATOM     10  C   UNL     1       3.565  47.960   7.523  1.00  0.00     0.000 C 
BRANCH  10  11
ATOM     11  C   UNL     1       3.635  47.972   9.063  1.00  0.00     0.000 C 
BRANCH  11  12
ATOM     12  C   UNL     1       4.632  46.971   9.680  1.00  0.00     0.000 C 
BRANCH  12  13
ATOM     13  C   UNL     1       6.104  47.433   9.681  1.00  0.00     0.006 C 
BRANCH  13  14
ATOM     14  C   UNL     1       6.392  48.632   8.765  1.00  0.00     0.053 C 
BRANCH  14  15
ATOM     15  C   UNL     1       7.628  49.370   9.178  1.00  0.00     0.041 C 
ATOM     16  O   UNL     1       7.883  50.502   8.690  1.00  0.00    -0.550 OA
ATOM     17  O   UNL     1       8.517  48.792  10.076  1.00  0.00    -0.550 OA
ENDBRANCH  14  15
ENDBRANCH  13  14
ENDBRANCH  12  13
ENDBRANCH  11  12
ENDBRANCH  10  11
ENDBRANCH   9  10
ENDBRANCH   8   9
ENDBRANCH   7   8
ENDBRANCH   6   7
ENDBRANCH   5   6
ENDBRANCH   4   5
ENDBRANCH   3   4
ENDBRANCH   2   3
ENDBRANCH   1   2
BRANCH   1  18
ATOM     18  C   UNL     1       1.779  44.233   9.208  1.00  0.00     0.000 C 
BRANCH  18  19
ATOM     19  C   UNL     1       3.240  43.881   8.878  1.00  0.00     0.000 C 
BRANCH  19  20
ATOM     20  C   UNL     1       3.810  42.776   9.782  1.00  0.00     0.000 C 
BRANCH  20  21
ATOM     21  C   UNL     1       4.676  43.330  10.928  1.00  0.00     0.000 C 
BRANCH  21  22
ATOM     22  C   UNL     1       3.959  44.315  11.874  1.00  0.00     0.000 C 
BRANCH  22  23
ATOM     23  C   UNL     1       3.050  43.660  12.933  1.00  0.00     0.000 C 
BRANCH  23  24
ATOM     24  C   UNL     1       1.588  43.463  12.493  1.00  0.00    -0.000 C 
BRANCH  24  25
ATOM     25  C   UNL     1       1.014  42.107  12.936  1.00  0.00    -0.000 C 
BRANCH  25  26
ATOM     26  C   UNL     1      -0.140  42.245  13.945  1.00  0.00    -0.000 C 
BRANCH  26  27
ATOM     27  C   UNL     1       0.033  41.450  15.257  1.00  0.00    -0.000 C 
BRANCH  27  28
ATOM     28  C   UNL     1      -0.776  40.140  15.345  1.00  0.00    -0.000 C 
BRANCH  28  29
ATOM     29  C   UNL     1      -1.124  39.519  13.974  1.00  0.00    -0.000 C 
BRANCH  29  30
ATOM     30  C   UNL     1      -0.244  38.313  13.599  1.00  0.00    -0.000 C 
BRANCH  30  31
ATOM     31  C   UNL     1      -0.749  37.504  12.393  1.00  0.00    -0.003 C 
ATOM     32  C   UNL     1      -0.791  35.999  12.663  1.00  0.00     0.004 C 
ENDBRANCH  30  31
ENDBRANCH  29  30
ENDBRANCH  28  29
ENDBRANCH  27  28
ENDBRANCH  26  27
ENDBRANCH  25  26
ENDBRANCH  24  25
ENDBRANCH  23  24
ENDBRANCH  22  23
ENDBRANCH  21  22
ENDBRANCH  20  21
ENDBRANCH  19  20
ENDBRANCH  18  19
ENDBRANCH   1  18
TORSDOF 28
ENDMDL
MODEL 2
REMARK VINA RESULT:    -2.885      1.151      2.486
REMARK INTER + INTRA:         -10.076
REMARK INTER:                  -8.058
REMARK INTRA:                  -2.018
REMARK UNBOUND:                -2.469
REMARK SMILES CCCCCCCCCCCCCCCCCCCCCCCCCCCCCC(=O)[O-]
REMARK SMILES IDX 16 1 17 2 18 3 19 4 20 5 21 6 22 7 23 8 24 9 25 10 26 11
REMARK SMILES IDX 27 12 28 13 29 14 30 15 31 16 32 17 15 18 14 19 13 20 12 21
REMARK SMILES IDX 11 22 10 23 9 24 8 25 7 26 6 27 5 28 4 29 3 30 2 31 1 32
REMARK H PARENT
REMARK Flexibility Score: inf
ROOT
ATOM      1  C   UNL     1       4.180  45.957  10.693  1.00  0.00     0.000 C 
ENDROOT
BRANCH   1   2
ATOM      2  C   UNL     1       2.805  46.570  10.353  1.00  0.00     0.000 C 
BRANCH   2   3
ATOM      3  C   UNL     1       2.347  46.372   8.897  1.00  0.00     0.000 C 
BRANCH   3   4
ATOM      4  C   UNL     1       0.828  46.188   8.766  1.00  0.00     0.000 C 
BRANCH   4   5
ATOM      5  C   UNL     1       0.309  46.839   7.475  1.00  0.00     0.000 C 
BRANCH   5   6
ATOM      6  C   UNL     1      -1.091  47.448   7.639  1.00  0.00     0.000 C 
BRANCH   6   7
ATOM      7  C   UNL     1      -1.099  48.977   7.463  1.00  0.00     0.000 C 
BRANCH   7   8
ATOM      8  C   UNL     1       0.118  49.652   8.116  1.00  0.00     0.000 C 
BRANCH   8   9
ATOM      9  C   UNL     1       0.587  50.898   7.345  1.00  0.00     0.000 C 
BRANCH   9  10
ATOM     10  C   UNL     1       2.113  50.934   7.143  1.00  0.00     0.000 C 
BRANCH  10  11
ATOM     11  C   UNL     1       2.912  49.980   8.053  1.00  0.00     0.000 C 
BRANCH  11  12
ATOM     12  C   UNL     1       3.962  49.113   7.330  1.00  0.00     0.000 C 
BRANCH  12  13
ATOM     13  C   UNL     1       5.024  48.473   8.248  1.00  0.00     0.006 C 
BRANCH  13  14
ATOM     14  C   UNL     1       6.273  49.339   8.472  1.00  0.00     0.053 C 
BRANCH  14  15
ATOM     15  C   UNL     1       7.279  48.657   9.347  1.00  0.00     0.041 C 
ATOM     16  O   UNL     1       8.331  49.258   9.690  1.00  0.00    -0.550 OA
ATOM     17  O   UNL     1       7.073  47.345   9.755  1.00  0.00    -0.550 OA
ENDBRANCH  14  15
ENDBRANCH  13  14
ENDBRANCH  12  13
ENDBRANCH  11  12
ENDBRANCH  10  11
ENDBRANCH   9  10
ENDBRANCH   8   9
ENDBRANCH   7   8
ENDBRANCH   6   7
ENDBRANCH   5   6
ENDBRANCH   4   5
ENDBRANCH   3   4
ENDBRANCH   2   3
ENDBRANCH   1   2
BRANCH   1  18
ATOM     18  C   UNL     1       4.256  45.223  12.047  1.00  0.00     0.000 C 
BRANCH  18  19
ATOM     19  C   UNL     1       4.199  43.687  11.963  1.00  0.00     0.000 C 
BRANCH  19  20
ATOM     20  C   UNL     1       4.437  43.154  10.541  1.00  0.00     0.000 C 
BRANCH  20  21
ATOM     21  C   UNL     1       3.127  42.864   9.786  1.00  0.00     0.000 C 
BRANCH  21  22
ATOM     22  C   UNL     1       1.893  42.627  10.681  1.00  0.00     0.000 C 
BRANCH  22  23
ATOM     23  C   UNL     1       1.356  43.882  11.399  1.00  0.00     0.000 C 
BRANCH  23  24
ATOM     24  C   UNL     1       0.331  43.598  12.511  1.00  0.00    -0.000 C 
BRANCH  24  25
ATOM     25  C   UNL     1       0.703  42.371  13.360  1.00  0.00    -0.000 C 
BRANCH  25  26
ATOM     26  C   UNL     1      -0.370  42.019  14.407  1.00  0.00    -0.000 C 
BRANCH  26  27
ATOM     27  C   UNL     1      -0.246  40.611  15.029  1.00  0.00    -0.000 C 
BRANCH  27  28
ATOM     28  C   UNL     1      -0.858  39.467  14.195  1.00  0.00    -0.000 C 
BRANCH  28  29
ATOM     29  C   UNL     1       0.180  38.624  13.421  1.00  0.00    -0.000 C 
BRANCH  29  30
ATOM     30  C   UNL     1      -0.410  37.360  12.770  1.00  0.00    -0.000 C 
BRANCH  30  31
ATOM     31  C   UNL     1       0.628  36.441  12.104  1.00  0.00    -0.003 C 
ATOM     32  C   UNL     1      -0.010  35.264  11.364  1.00  0.00     0.004 C 
ENDBRANCH  30  31
ENDBRANCH  29  30
ENDBRANCH  28  29
ENDBRANCH  27  28
ENDBRANCH  26  27
ENDBRANCH  25  26
ENDBRANCH  24  25
ENDBRANCH  23  24
ENDBRANCH  22  23
ENDBRANCH  21  22
ENDBRANCH  20  21
ENDBRANCH  19  20
ENDBRANCH  18  19
ENDBRANCH   1  18
TORSDOF 28
ENDMDL
MODEL 3
REMARK VINA RESULT:    -2.747      3.912     10.296
REMARK INTER + INTRA:          -9.712
REMARK INTER:                  -7.524
REMARK INTRA:                  -2.188
REMARK UNBOUND:                -2.469
REMARK SMILES CCCCCCCCCCCCCCCCCCCCCCCCCCCCCC(=O)[O-]
REMARK SMILES IDX 16 1 17 2 18 3 19 4 20 5 21 6 22 7 23 8 24 9 25 10 26 11
REMARK SMILES IDX 27 12 28 13 29 14 30 15 31 16 32 17 15 18 14 19 13 20 12 21
REMARK SMILES IDX 11 22 10 23 9 24 8 25 7 26 6 27 5 28 4 29 3 30 2 31 1 32
REMARK H PARENT
REMARK Flexibility Score: inf
ROOT
ATOM      1  C   UNL     1       2.116  43.763   9.133  1.00  0.00     0.000 C 
ENDROOT
BRANCH   1   2
ATOM      2  C   UNL     1       3.397  42.911   9.025  1.00  0.00     0.000 C 
BRANCH   2   3
ATOM      3  C   UNL     1       4.486  43.239  10.063  1.00  0.00     0.000 C 
BRANCH   3   4
ATOM      4  C   UNL     1       4.386  44.672  10.604  1.00  0.00     0.000 C 
BRANCH   4   5
ATOM      5  C   UNL     1       4.246  44.668  12.134  1.00  0.00     0.000 C 
BRANCH   5   6
ATOM      6  C   UNL     1       3.208  43.651  12.633  1.00  0.00     0.000 C 
BRANCH   6   7
ATOM      7  C   UNL     1       1.761  44.140  12.451  1.00  0.00     0.000 C 
BRANCH   7   8
ATOM      8  C   UNL     1       0.756  42.982  12.339  1.00  0.00     0.000 C 
BRANCH   8   9
ATOM      9  C   UNL     1      -0.036  42.760  13.639  1.00  0.00     0.000 C 
BRANCH   9  10
ATOM     10  C   UNL     1      -0.885  41.476  13.606  1.00  0.00     0.000 C 
BRANCH  10  11
ATOM     11  C   UNL     1      -0.794  40.604  14.874  1.00  0.00     0.000 C 
BRANCH  11  12
ATOM     12  C   UNL     1      -0.957  39.089  14.639  1.00  0.00     0.000 C 
BRANCH  12  13
ATOM     13  C   UNL     1      -0.572  38.603  13.226  1.00  0.00     0.006 C 
BRANCH  13  14
ATOM     14  C   UNL     1      -1.101  37.205  12.871  1.00  0.00     0.053 C 
BRANCH  14  15
ATOM     15  C   UNL     1      -0.035  36.335  12.278  1.00  0.00     0.041 C 
ATOM     16  O   UNL     1      -0.236  35.101  12.127  1.00  0.00    -0.550 OA
ATOM     17  O   UNL     1       1.193  36.880  11.926  1.00  0.00    -0.550 OA
ENDBRANCH  14  15
ENDBRANCH  13  14
ENDBRANCH  12  13
ENDBRANCH  11  12
ENDBRANCH  10  11
ENDBRANCH   9  10
ENDBRANCH   8   9
ENDBRANCH   7   8
ENDBRANCH   6   7
ENDBRANCH   5   6
ENDBRANCH   4   5
ENDBRANCH   3   4
ENDBRANCH   2   3
ENDBRANCH   1   2
BRANCH   1  18
ATOM     18  C   UNL     1       2.309  45.276   8.899  1.00  0.00     0.000 C 
BRANCH  18  19
ATOM     19  C   UNL     1       1.318  46.186   9.646  1.00  0.00     0.000 C 
BRANCH  19  20
ATOM     20  C   UNL     1      -0.142  45.958   9.225  1.00  0.00     0.000 C 
BRANCH  20  21
ATOM     21  C   UNL     1      -0.360  46.136   7.711  1.00  0.00     0.000 C 
BRANCH  21  22
ATOM     22  C   UNL     1      -0.709  47.570   7.263  1.00  0.00     0.000 C 
BRANCH  22  23
ATOM     23  C   UNL     1      -0.482  48.661   8.329  1.00  0.00     0.000 C 
BRANCH  23  24
ATOM     24  C   UNL     1       0.254  49.914   7.822  1.00  0.00    -0.000 C 
BRANCH  24  25
ATOM     25  C   UNL     1       1.675  50.041   8.399  1.00  0.00    -0.000 C 
BRANCH  25  26
ATOM     26  C   UNL     1       2.766  50.025   7.314  1.00  0.00    -0.000 C 
BRANCH  26  27
ATOM     27  C   UNL     1       3.490  48.675   7.127  1.00  0.00    -0.000 C 
BRANCH  27  28
ATOM     28  C   UNL     1       4.212  48.135   8.378  1.00  0.00    -0.000 C 
BRANCH  28  29
ATOM     29  C   UNL     1       5.721  48.460   8.425  1.00  0.00    -0.000 C 
BRANCH  29  30
ATOM     30  C   UNL     1       6.525  47.536   9.359  1.00  0.00    -0.000 C 
BRANCH  30  31
ATOM     31  C   UNL     1       7.859  48.125   9.846  1.00  0.00    -0.003 C 
ATOM     32  C   UNL     1       7.992  49.619   9.550  1.00  0.00     0.004 C 
ENDBRANCH  30  31
ENDBRANCH  29  30
ENDBRANCH  28  29
ENDBRANCH  27  28
ENDBRANCH  26  27
ENDBRANCH  25  26
ENDBRANCH  24  25
ENDBRANCH  23  24
ENDBRANCH  22  23
ENDBRANCH  21  22
ENDBRANCH  20  21
ENDBRANCH  19  20
ENDBRANCH  18  19
ENDBRANCH   1  18
TORSDOF 28
ENDMDL
MODEL 4
REMARK VINA RESULT:    -2.606      1.028      2.750
REMARK INTER + INTRA:          -9.340
REMARK INTER:                  -6.820
REMARK INTRA:                  -2.520
REMARK UNBOUND:                -2.469
REMARK SMILES CCCCCCCCCCCCCCCCCCCCCCCCCCCCCC(=O)[O-]
REMARK SMILES IDX 16 1 17 2 18 3 19 4 20 5 21 6 22 7 23 8 24 9 25 10 26 11
REMARK SMILES IDX 27 12 28 13 29 14 30 15 31 16 32 17 15 18 14 19 13 20 12 21
REMARK SMILES IDX 11 22 10 23 9 24 8 25 7 26 6 27 5 28 4 29 3 30 2 31 1 32
REMARK H PARENT
REMARK Flexibility Score: inf
ROOT
ATOM      1  C   UNL     1       3.869  42.949   9.499  1.00  0.00     0.000 C 
ENDROOT
BRANCH   1   2
ATOM      2  C   UNL     1       3.006  43.698   8.462  1.00  0.00     0.000 C 
BRANCH   2   3
ATOM      3  C   UNL     1       1.486  43.592   8.682  1.00  0.00     0.000 C 
BRANCH   3   4
ATOM      4  C   UNL     1       0.712  44.785   8.105  1.00  0.00     0.000 C 
BRANCH   4   5
ATOM      5  C   UNL     1       0.344  45.784   9.213  1.00  0.00     0.000 C 
BRANCH   5   6
ATOM      6  C   UNL     1      -0.870  46.653   8.850  1.00  0.00     0.000 C 
BRANCH   6   7
ATOM      7  C   UNL     1      -0.636  48.147   9.132  1.00  0.00     0.000 C 
BRANCH   7   8
ATOM      8  C   UNL     1      -0.056  48.893   7.920  1.00  0.00     0.000 C 
BRANCH   8   9
ATOM      9  C   UNL     1       1.445  49.191   8.072  1.00  0.00     0.000 C 
BRANCH   9  10
ATOM     10  C   UNL     1       2.335  48.067   7.510  1.00  0.00     0.000 C 
BRANCH  10  11
ATOM     11  C   UNL     1       3.757  48.006   8.104  1.00  0.00     0.000 C 
BRANCH  11  12
ATOM     12  C   UNL     1       3.893  47.163   9.388  1.00  0.00     0.000 C 
BRANCH  12  13
ATOM     13  C   UNL     1       5.249  47.294  10.113  1.00  0.00     0.006 C 
BRANCH  13  14
ATOM     14  C   UNL     1       6.468  47.310   9.179  1.00  0.00     0.053 C 
BRANCH  14  15
ATOM     15  C   UNL     1       7.156  48.640   9.177  1.00  0.00     0.041 C 
ATOM     16  O   UNL     1       6.704  49.586   8.479  1.00  0.00    -0.550 OA
ATOM     17  O   UNL     1       8.317  48.826   9.916  1.00  0.00    -0.550 OA
ENDBRANCH  14  15
ENDBRANCH  13  14
ENDBRANCH  12  13
ENDBRANCH  11  12
ENDBRANCH  10  11
ENDBRANCH   9  10
ENDBRANCH   8   9
ENDBRANCH   7   8
ENDBRANCH   6   7
ENDBRANCH   5   6
ENDBRANCH   4   5
ENDBRANCH   3   4
ENDBRANCH   2   3
ENDBRANCH   1   2
BRANCH   1  18
ATOM     18  C   UNL     1       3.177  42.662  10.847  1.00  0.00     0.000 C 
BRANCH  18  19
ATOM     19  C   UNL     1       3.588  43.589  12.005  1.00  0.00     0.000 C 
BRANCH  19  20
ATOM     20  C   UNL     1       2.629  44.776  12.193  1.00  0.00     0.000 C 
BRANCH  20  21
ATOM     21  C   UNL     1       1.152  44.345  12.251  1.00  0.00     0.000 C 
BRANCH  21  22
ATOM     22  C   UNL     1       0.900  42.945  12.847  1.00  0.00     0.000 C 
BRANCH  22  23
ATOM     23  C   UNL     1      -0.581  42.600  13.102  1.00  0.00     0.000 C 
BRANCH  23  24
ATOM     24  C   UNL     1      -1.013  42.671  14.577  1.00  0.00    -0.000 C 
BRANCH  24  25
ATOM     25  C   UNL     1      -0.125  41.816  15.497  1.00  0.00    -0.000 C 
BRANCH  25  26
ATOM     26  C   UNL     1      -0.857  40.586  16.063  1.00  0.00    -0.000 C 
BRANCH  26  27
ATOM     27  C   UNL     1      -1.125  39.454  15.048  1.00  0.00    -0.000 C 
BRANCH  27  28
ATOM     28  C   UNL     1      -0.304  39.531  13.745  1.00  0.00    -0.000 C 
BRANCH  28  29
ATOM     29  C   UNL     1       0.130  38.156  13.190  1.00  0.00    -0.000 C 
BRANCH  29  30
ATOM     30  C   UNL     1      -1.046  37.270  12.741  1.00  0.00    -0.000 C 
BRANCH  30  31
ATOM     31  C   UNL     1      -0.709  35.774  12.619  1.00  0.00    -0.003 C 
ATOM     32  C   UNL     1       0.393  35.496  11.596  1.00  0.00     0.004 C 
ENDBRANCH  30  31
ENDBRANCH  29  30
ENDBRANCH  28  29
ENDBRANCH  27  28
ENDBRANCH  26  27
ENDBRANCH  25  26
ENDBRANCH  24  25
ENDBRANCH  23  24
ENDBRANCH  22  23
ENDBRANCH  21  22
ENDBRANCH  20  21
ENDBRANCH  19  20
ENDBRANCH  18  19
ENDBRANCH   1  18
TORSDOF 28
ENDMDL
MODEL 5
REMARK VINA RESULT:    -2.340      3.875     10.185
REMARK INTER + INTRA:          -8.639
REMARK INTER:                  -8.503
REMARK INTRA:                  -0.137
REMARK UNBOUND:                -2.469
REMARK SMILES CCCCCCCCCCCCCCCCCCCCCCCCCCCCCC(=O)[O-]
REMARK SMILES IDX 16 1 17 2 18 3 19 4 20 5 21 6 22 7 23 8 24 9 25 10 26 11
REMARK SMILES IDX 27 12 28 13 29 14 30 15 31 16 32 17 15 18 14 19 13 20 12 21
REMARK SMILES IDX 11 22 10 23 9 24 8 25 7 26 6 27 5 28 4 29 3 30 2 31 1 32
REMARK H PARENT
REMARK Flexibility Score: inf
ROOT
ATOM      1  C   UNL     1      -0.028  45.809   8.573  1.00  0.00     0.000 C 
ENDROOT
BRANCH   1   2
ATOM      2  C   UNL     1       0.657  44.437   8.397  1.00  0.00     0.000 C 
BRANCH   2   3
ATOM      3  C   UNL     1       1.520  43.983   9.588  1.00  0.00     0.000 C 
BRANCH   3   4
ATOM      4  C   UNL     1       2.573  42.936   9.200  1.00  0.00     0.000 C 
BRANCH   4   5
ATOM      5  C   UNL     1       3.954  43.321   9.751  1.00  0.00     0.000 C 
BRANCH   5   6
ATOM      6  C   UNL     1       3.869  44.151  11.040  1.00  0.00     0.000 C 
BRANCH   6   7
ATOM      7  C   UNL     1       3.540  43.296  12.277  1.00  0.00     0.000 C 
BRANCH   7   8
ATOM      8  C   UNL     1       2.140  42.666  12.203  1.00  0.00     0.000 C 
BRANCH   8   9
ATOM      9  C   UNL     1       1.615  42.229  13.581  1.00  0.00     0.000 C 
BRANCH   9  10
ATOM     10  C   UNL     1       0.096  41.979  13.588  1.00  0.00     0.000 C 
BRANCH  10  11
ATOM     11  C   UNL     1      -0.408  41.068  14.725  1.00  0.00     0.000 C 
BRANCH  11  12
ATOM     12  C   UNL     1      -1.119  39.779  14.265  1.00  0.00     0.000 C 
BRANCH  12  13
ATOM     13  C   UNL     1      -0.257  38.830  13.407  1.00  0.00     0.006 C 
BRANCH  13  14
ATOM     14  C   UNL     1      -1.000  37.585  12.898  1.00  0.00     0.053 C 
BRANCH  14  15
ATOM     15  C   UNL     1      -0.072  36.602  12.253  1.00  0.00     0.041 C 
ATOM     16  O   UNL     1      -0.508  35.494  11.844  1.00  0.00    -0.550 OA
ATOM     17  O   UNL     1       1.281  36.894  12.137  1.00  0.00    -0.550 OA
ENDBRANCH  14  15
ENDBRANCH  13  14
ENDBRANCH  12  13
ENDBRANCH  11  12
ENDBRANCH  10  11
ENDBRANCH   9  10
ENDBRANCH   8   9
ENDBRANCH   7   8
ENDBRANCH   6   7
ENDBRANCH   5   6
ENDBRANCH   4   5
ENDBRANCH   3   4
ENDBRANCH   2   3
ENDBRANCH   1   2
BRANCH   1  18
ATOM     18  C   UNL     1       0.392  46.890   7.557  1.00  0.00     0.000 C 
BRANCH  18  19
ATOM     19  C   UNL     1      -0.754  47.766   7.021  1.00  0.00     0.000 C 
BRANCH  19  20
ATOM     20  C   UNL     1      -0.792  49.163   7.661  1.00  0.00     0.000 C 
BRANCH  20  21
ATOM     21  C   UNL     1       0.560  49.577   8.270  1.00  0.00     0.000 C 
BRANCH  21  22
ATOM     22  C   UNL     1       1.356  50.615   7.453  1.00  0.00     0.000 C 
BRANCH  22  23
ATOM     23  C   UNL     1       2.885  50.567   7.649  1.00  0.00     0.000 C 
BRANCH  23  24
ATOM     24  C   UNL     1       3.517  49.179   7.444  1.00  0.00    -0.000 C 
BRANCH  24  25
ATOM     25  C   UNL     1       2.841  48.089   8.292  1.00  0.00    -0.000 C 
BRANCH  25  26
ATOM     26  C   UNL     1       3.796  46.941   8.666  1.00  0.00    -0.000 C 
BRANCH  26  27
ATOM     27  C   UNL     1       4.428  47.043  10.071  1.00  0.00    -0.000 C 
BRANCH  27  28
ATOM     28  C   UNL     1       5.948  47.303  10.092  1.00  0.00    -0.000 C 
BRANCH  28  29
ATOM     29  C   UNL     1       6.521  47.808   8.749  1.00  0.00    -0.000 C 
BRANCH  29  30
ATOM     30  C   UNL     1       6.899  49.301   8.759  1.00  0.00    -0.000 C 
BRANCH  30  31
ATOM     31  C   UNL     1       7.934  49.690   9.828  1.00  0.00    -0.003 C 
ATOM     32  C   UNL     1       9.138  48.748   9.859  1.00  0.00     0.004 C 
ENDBRANCH  30  31
ENDBRANCH  29  30
ENDBRANCH  28  29
ENDBRANCH  27  28
ENDBRANCH  26  27
ENDBRANCH  25  26
ENDBRANCH  24  25
ENDBRANCH  23  24
ENDBRANCH  22  23
ENDBRANCH  21  22
ENDBRANCH  20  21
ENDBRANCH  19  20
ENDBRANCH  18  19
ENDBRANCH   1  18
TORSDOF 28
ENDMDL
MODEL 6
REMARK VINA RESULT:    -1.996      1.162      2.030
REMARK INTER + INTRA:          -7.732
REMARK INTER:                  -6.267
REMARK INTRA:                  -1.465
REMARK UNBOUND:                -2.469
REMARK SMILES CCCCCCCCCCCCCCCCCCCCCCCCCCCCCC(=O)[O-]
REMARK SMILES IDX 16 1 17 2 18 3 19 4 20 5 21 6 22 7 23 8 24 9 25 10 26 11
REMARK SMILES IDX 27 12 28 13 29 14 30 15 31 16 32 17 15 18 14 19 13 20 12 21
REMARK SMILES IDX 11 22 10 23 9 24 8 25 7 26 6 27 5 28 4 29 3 30 2 31 1 32
REMARK H PARENT
REMARK Flexibility Score: inf
ROOT
ATOM      1  C   UNL     1       0.666  45.501  10.357  1.00  0.00     0.000 C 
ENDROOT
BRANCH   1   2
ATOM      2  C   UNL     1      -0.341  45.692   9.203  1.00  0.00     0.000 C 
BRANCH   2   3
ATOM      3  C   UNL     1      -0.101  44.797   7.975  1.00  0.00     0.000 C 
BRANCH   3   4
ATOM      4  C   UNL     1      -0.990  45.168   6.779  1.00  0.00     0.000 C 
BRANCH   4   5
ATOM      5  C   UNL     1      -0.611  46.550   6.226  1.00  0.00     0.000 C 
BRANCH   5   6
ATOM      6  C   UNL     1      -0.554  47.631   7.316  1.00  0.00     0.000 C 
BRANCH   6   7
ATOM      7  C   UNL     1       0.823  48.311   7.407  1.00  0.00     0.000 C 
BRANCH   7   8
ATOM      8  C   UNL     1       0.891  49.358   8.531  1.00  0.00     0.000 C 
BRANCH   8   9
ATOM      9  C   UNL     1       1.874  50.499   8.217  1.00  0.00     0.000 C 
BRANCH   9  10
ATOM     10  C   UNL     1       3.024  50.057   7.295  1.00  0.00     0.000 C 
BRANCH  10  11
ATOM     11  C   UNL     1       4.260  49.492   8.023  1.00  0.00     0.000 C 
BRANCH  11  12
ATOM     12  C   UNL     1       4.479  47.974   7.859  1.00  0.00     0.000 C 
BRANCH  12  13
ATOM     13  C   UNL     1       5.556  47.366   8.782  1.00  0.00     0.006 C 
BRANCH  13  14
ATOM     14  C   UNL     1       6.166  48.359   9.783  1.00  0.00     0.053 C 
BRANCH  14  15
ATOM     15  C   UNL     1       7.571  48.731   9.419  1.00  0.00     0.041 C 
ATOM     16  O   UNL     1       8.522  47.950   9.688  1.00  0.00    -0.550 OA
ATOM     17  O   UNL     1       7.835  49.954   8.816  1.00  0.00    -0.550 OA
ENDBRANCH  14  15
ENDBRANCH  13  14
ENDBRANCH  12  13
ENDBRANCH  11  12
ENDBRANCH  10  11
ENDBRANCH   9  10
ENDBRANCH   8   9
ENDBRANCH   7   8
ENDBRANCH   6   7
ENDBRANCH   5   6
ENDBRANCH   4   5
ENDBRANCH   3   4
ENDBRANCH   2   3
ENDBRANCH   1   2
BRANCH   1  18
ATOM     18  C   UNL     1       1.881  46.450  10.334  1.00  0.00     0.000 C 
BRANCH  18  19
ATOM     19  C   UNL     1       3.231  45.778  10.023  1.00  0.00     0.000 C 
BRANCH  19  20
ATOM     20  C   UNL     1       3.999  45.360  11.287  1.00  0.00     0.000 C 
BRANCH  20  21
ATOM     21  C   UNL     1       4.603  43.948  11.177  1.00  0.00     0.000 C 
BRANCH  21  22
ATOM     22  C   UNL     1       4.057  43.090  10.018  1.00  0.00     0.000 C 
BRANCH  22  23
ATOM     23  C   UNL     1       2.640  42.522  10.235  1.00  0.00     0.000 C 
BRANCH  23  24
ATOM     24  C   UNL     1       2.314  42.146  11.692  1.00  0.00    -0.000 C 
BRANCH  24  25
ATOM     25  C   UNL     1       1.508  43.236  12.419  1.00  0.00    -0.000 C 
BRANCH  25  26
ATOM     26  C   UNL     1       0.200  42.706  13.033  1.00  0.00    -0.000 C 
BRANCH  26  27
ATOM     27  C   UNL     1       0.375  41.647  14.142  1.00  0.00    -0.000 C 
BRANCH  27  28
ATOM     28  C   UNL     1      -0.636  40.483  14.108  1.00  0.00    -0.000 C 
BRANCH  28  29
ATOM     29  C   UNL     1       0.013  39.085  14.013  1.00  0.00    -0.000 C 
BRANCH  29  30
ATOM     30  C   UNL     1      -0.734  38.117  13.077  1.00  0.00    -0.000 C 
BRANCH  30  31
ATOM     31  C   UNL     1       0.121  36.952  12.549  1.00  0.00    -0.003 C 
ATOM     32  C   UNL     1      -0.715  35.730  12.164  1.00  0.00     0.004 C 
ENDBRANCH  30  31
ENDBRANCH  29  30
ENDBRANCH  28  29
ENDBRANCH  27  28
ENDBRANCH  26  27
ENDBRANCH  25  26
ENDBRANCH  24  25
ENDBRANCH  23  24
ENDBRANCH  22  23
ENDBRANCH  21  22
ENDBRANCH  20  21
ENDBRANCH  19  20
ENDBRANCH  18  19
ENDBRANCH   1  18
TORSDOF 28
ENDMDL
MODEL 7
REMARK VINA RESULT:    -1.827      3.893      9.863
REMARK INTER + INTRA:          -7.288
REMARK INTER:                  -5.855
REMARK INTRA:                  -1.433
REMARK UNBOUND:                -2.469
REMARK SMILES CCCCCCCCCCCCCCCCCCCCCCCCCCCCCC(=O)[O-]
REMARK SMILES IDX 16 1 17 2 18 3 19 4 20 5 21 6 22 7 23 8 24 9 25 10 26 11
REMARK SMILES IDX 27 12 28 13 29 14 30 15 31 16 32 17 15 18 14 19 13 20 12 21
REMARK SMILES IDX 11 22 10 23 9 24 8 25 7 26 6 27 5 28 4 29 3 30 2 31 1 32
REMARK H PARENT
REMARK Flexibility Score: inf
ROOT
ATOM      1  C   UNL     1       3.972  43.090   9.110  1.00  0.00     0.000 C 
ENDROOT
BRANCH   1   2
ATOM      2  C   UNL     1       2.804  42.594   9.988  1.00  0.00     0.000 C 
BRANCH   2   3
ATOM      3  C   UNL     1       1.461  43.307   9.748  1.00  0.00     0.000 C 
BRANCH   3   4
ATOM      4  C   UNL     1       1.369  44.666  10.456  1.00  0.00     0.000 C 
BRANCH   4   5
ATOM      5  C   UNL     1       0.559  44.550  11.756  1.00  0.00     0.000 C 
BRANCH   5   6
ATOM      6  C   UNL     1       1.205  43.599  12.775  1.00  0.00     0.000 C 
BRANCH   6   7
ATOM      7  C   UNL     1       0.342  42.357  13.058  1.00  0.00     0.000 C 
BRANCH   7   8
ATOM      8  C   UNL     1      -0.785  42.638  14.064  1.00  0.00     0.000 C 
BRANCH   8   9
ATOM      9  C   UNL     1      -0.351  42.399  15.520  1.00  0.00     0.000 C 
BRANCH   9  10
ATOM     10  C   UNL     1      -1.125  41.250  16.191  1.00  0.00     0.000 C 
BRANCH  10  11
ATOM     11  C   UNL     1      -0.723  39.836  15.726  1.00  0.00     0.000 C 
BRANCH  11  12
ATOM     12  C   UNL     1      -1.026  39.525  14.246  1.00  0.00     0.000 C 
BRANCH  12  13
ATOM     13  C   UNL     1      -0.039  38.552  13.569  1.00  0.00     0.006 C 
BRANCH  13  14
ATOM     14  C   UNL     1      -0.706  37.369  12.851  1.00  0.00     0.053 C 
BRANCH  14  15
ATOM     15  C   UNL     1       0.290  36.519  12.124  1.00  0.00     0.041 C 
ATOM     16  O   UNL     1       1.494  36.879  12.050  1.00  0.00    -0.550 OA
ATOM     17  O   UNL     1      -0.118  35.348  11.499  1.00  0.00    -0.550 OA
ENDBRANCH  14  15
ENDBRANCH  13  14
ENDBRANCH  12  13
ENDBRANCH  11  12
ENDBRANCH  10  11
ENDBRANCH   9  10
ENDBRANCH   8   9
ENDBRANCH   7   8
ENDBRANCH   6   7
ENDBRANCH   5   6
ENDBRANCH   4   5
ENDBRANCH   3   4
ENDBRANCH   2   3
ENDBRANCH   1   2
BRANCH   1  18
ATOM     18  C   UNL     1       4.298  44.592   9.234  1.00  0.00     0.000 C 
BRANCH  18  19
ATOM     19  C   UNL     1       4.357  45.133  10.674  1.00  0.00     0.000 C 
BRANCH  19  20
ATOM     20  C   UNL     1       4.316  46.668  10.742  1.00  0.00     0.000 C 
BRANCH  20  21
ATOM     21  C   UNL     1       5.606  47.322  10.214  1.00  0.00     0.000 C 
BRANCH  21  22
ATOM     22  C   UNL     1       5.544  47.808   8.751  1.00  0.00     0.000 C 
BRANCH  22  23
ATOM     23  C   UNL     1       4.129  48.133   8.230  1.00  0.00     0.000 C 
BRANCH  23  24
ATOM     24  C   UNL     1       3.970  49.544   7.639  1.00  0.00    -0.000 C 
BRANCH  24  25
ATOM     25  C   UNL     1       2.540  49.823   7.146  1.00  0.00    -0.000 C 
BRANCH  25  26
ATOM     26  C   UNL     1       1.595  50.276   8.274  1.00  0.00    -0.000 C 
BRANCH  26  27
ATOM     27  C   UNL     1       0.307  50.987   7.807  1.00  0.00    -0.000 C 
BRANCH  27  28
ATOM     28  C   UNL     1      -0.995  50.182   7.997  1.00  0.00    -0.000 C 
BRANCH  28  29
ATOM     29  C   UNL     1      -1.098  48.927   7.102  1.00  0.00    -0.000 C 
BRANCH  29  30
ATOM     30  C   UNL     1      -0.825  47.609   7.850  1.00  0.00    -0.000 C 
BRANCH  30  31
ATOM     31  C   UNL     1       0.270  46.733   7.219  1.00  0.00    -0.003 C 
ATOM     32  C   UNL     1      -0.099  45.249   7.193  1.00  0.00     0.004 C 
ENDBRANCH  30  31
ENDBRANCH  29  30
ENDBRANCH  28  29
ENDBRANCH  27  28
ENDBRANCH  26  27
ENDBRANCH  25  26
ENDBRANCH  24  25
ENDBRANCH  23  24
ENDBRANCH  22  23
ENDBRANCH  21  22
ENDBRANCH  20  21
ENDBRANCH  19  20
ENDBRANCH  18  19
ENDBRANCH   1  18
TORSDOF 28
ENDMDL
MODEL 8
REMARK VINA RESULT:    -1.802      4.053      9.561
REMARK INTER + INTRA:          -7.221
REMARK INTER:                  -5.762
REMARK INTRA:                  -1.459
REMARK UNBOUND:                -2.469
REMARK SMILES CCCCCCCCCCCCCCCCCCCCCCCCCCCCCC(=O)[O-]
REMARK SMILES IDX 16 1 17 2 18 3 19 4 20 5 21 6 22 7 23 8 24 9 25 10 26 11
REMARK SMILES IDX 27 12 28 13 29 14 30 15 31 16 32 17 15 18 14 19 13 20 12 21
REMARK SMILES IDX 11 22 10 23 9 24 8 25 7 26 6 27 5 28 4 29 3 30 2 31 1 32
REMARK H PARENT
REMARK Flexibility Score: inf
ROOT
ATOM      1  C   UNL     1       4.230  46.766   8.908  1.00  0.00     0.000 C 
ENDROOT
BRANCH   1   2
ATOM      2  C   UNL     1       4.969  47.224  10.182  1.00  0.00     0.000 C 
BRANCH   2   3
ATOM      3  C   UNL     1       4.834  46.278  11.389  1.00  0.00     0.000 C 
BRANCH   3   4
ATOM      4  C   UNL     1       3.852  45.125  11.139  1.00  0.00     0.000 C 
BRANCH   4   5
ATOM      5  C   UNL     1       3.470  44.439  12.460  1.00  0.00     0.000 C 
BRANCH   5   6
ATOM      6  C   UNL     1       3.203  42.935  12.292  1.00  0.00     0.000 C 
BRANCH   6   7
ATOM      7  C   UNL     1       1.705  42.588  12.354  1.00  0.00     0.000 C 
BRANCH   7   8
ATOM      8  C   UNL     1       1.234  42.257  13.779  1.00  0.00     0.000 C 
BRANCH   8   9
ATOM      9  C   UNL     1      -0.239  42.631  14.016  1.00  0.00     0.000 C 
BRANCH   9  10
ATOM     10  C   UNL     1      -0.921  41.730  15.062  1.00  0.00     0.000 C 
BRANCH  10  11
ATOM     11  C   UNL     1      -1.125  40.266  14.624  1.00  0.00     0.000 C 
BRANCH  11  12
ATOM     12  C   UNL     1      -0.283  39.823  13.410  1.00  0.00     0.000 C 
BRANCH  12  13
ATOM     13  C   UNL     1       0.226  38.368  13.465  1.00  0.00     0.006 C 
BRANCH  13  14
ATOM     14  C   UNL     1      -0.704  37.345  12.796  1.00  0.00     0.053 C 
BRANCH  14  15
ATOM     15  C   UNL     1       0.047  36.157  12.279  1.00  0.00     0.041 C 
ATOM     16  O   UNL     1       1.090  36.317  11.592  1.00  0.00    -0.550 OA
ATOM     17  O   UNL     1      -0.423  34.873  12.526  1.00  0.00    -0.550 OA
ENDBRANCH  14  15
ENDBRANCH  13  14
ENDBRANCH  12  13
ENDBRANCH  11  12
ENDBRANCH  10  11
ENDBRANCH   9  10
ENDBRANCH   8   9
ENDBRANCH   7   8
ENDBRANCH   6   7
ENDBRANCH   5   6
ENDBRANCH   4   5
ENDBRANCH   3   4
ENDBRANCH   2   3
ENDBRANCH   1   2
BRANCH   1  18
ATOM     18  C   UNL     1       3.438  47.867   8.174  1.00  0.00     0.000 C 
BRANCH  18  19
ATOM     19  C   UNL     1       4.260  49.101   7.761  1.00  0.00     0.000 C 
BRANCH  19  20
ATOM     20  C   UNL     1       3.481  50.418   7.909  1.00  0.00     0.000 C 
BRANCH  20  21
ATOM     21  C   UNL     1       2.189  50.444   7.072  1.00  0.00     0.000 C 
BRANCH  21  22
ATOM     22  C   UNL     1       0.967  51.073   7.771  1.00  0.00     0.000 C 
BRANCH  22  23
ATOM     23  C   UNL     1      -0.160  50.084   8.133  1.00  0.00     0.000 C 
BRANCH  23  24
ATOM     24  C   UNL     1      -1.116  49.746   6.976  1.00  0.00    -0.000 C 
BRANCH  24  25
ATOM     25  C   UNL     1      -1.125  48.247   6.631  1.00  0.00    -0.000 C 
BRANCH  25  26
ATOM     26  C   UNL     1      -0.042  47.453   7.384  1.00  0.00    -0.000 C 
BRANCH  26  27
ATOM     27  C   UNL     1      -0.199  47.417   8.919  1.00  0.00    -0.000 C 
BRANCH  27  28
ATOM     28  C   UNL     1      -0.480  46.025   9.520  1.00  0.00    -0.000 C 
BRANCH  28  29
ATOM     29  C   UNL     1       0.792  45.228   9.887  1.00  0.00    -0.000 C 
BRANCH  29  30
ATOM     30  C   UNL     1       1.388  44.436   8.709  1.00  0.00    -0.000 C 
BRANCH  30  31
ATOM     31  C   UNL     1       2.003  43.081   9.097  1.00  0.00    -0.003 C 
ATOM     32  C   UNL     1       3.446  42.924   8.614  1.00  0.00     0.004 C 
ENDBRANCH  30  31
ENDBRANCH  29  30
ENDBRANCH  28  29
ENDBRANCH  27  28
ENDBRANCH  26  27
ENDBRANCH  25  26
ENDBRANCH  24  25
ENDBRANCH  23  24
ENDBRANCH  22  23
ENDBRANCH  21  22
ENDBRANCH  20  21
ENDBRANCH  19  20
ENDBRANCH  18  19
ENDBRANCH   1  18
TORSDOF 28
ENDMDL
MODEL 9
REMARK VINA RESULT:    -1.525      3.986      9.638
REMARK INTER + INTRA:          -6.490
REMARK INTER:                  -4.478
REMARK INTRA:                  -2.012
REMARK UNBOUND:                -2.469
REMARK SMILES CCCCCCCCCCCCCCCCCCCCCCCCCCCCCC(=O)[O-]
REMARK SMILES IDX 16 1 17 2 18 3 19 4 20 5 21 6 22 7 23 8 24 9 25 10 26 11
REMARK SMILES IDX 27 12 28 13 29 14 30 15 31 16 32 17 15 18 14 19 13 20 12 21
REMARK SMILES IDX 11 22 10 23 9 24 8 25 7 26 6 27 5 28 4 29 3 30 2 31 1 32
REMARK H PARENT
REMARK Flexibility Score: inf
ROOT
ATOM      1  C   UNL     1       0.856  43.892   8.243  1.00  0.00     0.000 C 
ENDROOT
BRANCH   1   2
ATOM      2  C   UNL     1       2.266  43.315   8.483  1.00  0.00     0.000 C 
BRANCH   2   3
ATOM      3  C   UNL     1       2.484  42.682   9.869  1.00  0.00     0.000 C 
BRANCH   3   4
ATOM      4  C   UNL     1       3.939  42.779  10.350  1.00  0.00     0.000 C 
BRANCH   4   5
ATOM      5  C   UNL     1       4.001  42.884  11.881  1.00  0.00     0.000 C 
BRANCH   5   6
ATOM      6  C   UNL     1       2.796  43.630  12.475  1.00  0.00     0.000 C 
BRANCH   6   7
ATOM      7  C   UNL     1       1.766  42.682  13.113  1.00  0.00     0.000 C 
BRANCH   7   8
ATOM      8  C   UNL     1       0.318  43.140  12.877  1.00  0.00     0.000 C 
BRANCH   8   9
ATOM      9  C   UNL     1      -0.658  42.579  13.926  1.00  0.00     0.000 C 
BRANCH   9  10
ATOM     10  C   UNL     1      -1.124  41.148  13.600  1.00  0.00     0.000 C 
BRANCH  10  11
ATOM     11  C   UNL     1      -0.579  40.056  14.543  1.00  0.00     0.000 C 
BRANCH  11  12
ATOM     12  C   UNL     1      -1.116  38.635  14.277  1.00  0.00     0.000 C 
BRANCH  12  13
ATOM     13  C   UNL     1      -0.984  38.150  12.819  1.00  0.00     0.006 C 
BRANCH  13  14
ATOM     14  C   UNL     1      -1.058  36.625  12.649  1.00  0.00     0.053 C 
BRANCH  14  15
ATOM     15  C   UNL     1       0.115  36.088  11.888  1.00  0.00     0.041 C 
ATOM     16  O   UNL     1       0.026  34.988  11.282  1.00  0.00    -0.550 OA
ATOM     17  O   UNL     1       1.317  36.784  11.878  1.00  0.00    -0.550 OA
ENDBRANCH  14  15
ENDBRANCH  13  14
ENDBRANCH  12  13
ENDBRANCH  11  12
ENDBRANCH  10  11
ENDBRANCH   9  10
ENDBRANCH   8   9
ENDBRANCH   7   8
ENDBRANCH   6   7
ENDBRANCH   5   6
ENDBRANCH   4   5
ENDBRANCH   3   4
ENDBRANCH   2   3
ENDBRANCH   1   2
BRANCH   1  18
ATOM     18  C   UNL     1       0.818  45.288   7.587  1.00  0.00     0.000 C 
BRANCH  18  19
ATOM     19  C   UNL     1      -0.349  45.522   6.612  1.00  0.00     0.000 C 
BRANCH  19  20
ATOM     20  C   UNL     1      -1.033  46.885   6.808  1.00  0.00     0.000 C 
BRANCH  20  21
ATOM     21  C   UNL     1      -0.825  47.457   8.222  1.00  0.00     0.000 C 
BRANCH  21  22
ATOM     22  C   UNL     1      -0.304  48.908   8.273  1.00  0.00     0.000 C 
BRANCH  22  23
ATOM     23  C   UNL     1       1.201  49.053   8.577  1.00  0.00     0.000 C 
BRANCH  23  24
ATOM     24  C   UNL     1       2.101  49.152   7.333  1.00  0.00    -0.000 C 
BRANCH  24  25
ATOM     25  C   UNL     1       3.262  48.143   7.359  1.00  0.00    -0.000 C 
BRANCH  25  26
ATOM     26  C   UNL     1       4.392  48.553   8.321  1.00  0.00    -0.000 C 
BRANCH  26  27
ATOM     27  C   UNL     1       5.250  47.390   8.862  1.00  0.00    -0.000 C 
BRANCH  27  28
ATOM     28  C   UNL     1       4.458  46.212   9.466  1.00  0.00    -0.000 C 
BRANCH  28  29
ATOM     29  C   UNL     1       3.778  46.534  10.815  1.00  0.00    -0.000 C 
BRANCH  29  30
ATOM     30  C   UNL     1       2.267  46.801  10.699  1.00  0.00    -0.000 C 
BRANCH  30  31
ATOM     31  C   UNL     1       1.387  45.542  10.776  1.00  0.00    -0.003 C 
ATOM     32  C   UNL     1      -0.106  45.864  10.836  1.00  0.00     0.004 C 
ENDBRANCH  30  31
ENDBRANCH  29  30
ENDBRANCH  28  29
ENDBRANCH  27  28
ENDBRANCH  26  27
ENDBRANCH  25  26
ENDBRANCH  24  25
ENDBRANCH  23  24
ENDBRANCH  22  23
ENDBRANCH  21  22
ENDBRANCH  20  21
ENDBRANCH  19  20
ENDBRANCH  18  19
ENDBRANCH   1  18
TORSDOF 28
ENDMDL
