MODEL 1
REMARK VINA RESULT:    -3.883      0.000      0.000
REMARK INTER + INTRA:          -8.199
REMARK INTER:                  -7.061
REMARK INTRA:                  -1.138
REMARK UNBOUND:                -1.138
REMARK SMILES CCCCCCCCCCCCCCCC(=O)[O-]
REMARK SMILES IDX 9 1 10 2 11 3 12 4 13 5 14 6 15 7 16 8 17 9 18 10 8 11 7 12
REMARK SMILES IDX 6 13 5 14 4 15 3 16 2 17 1 18
REMARK H PARENT
REMARK Flexibility Score: inf
ROOT
ATOM      1  C   UNL     1     -24.547 -15.507   3.495  1.00  0.00     0.000 C 
ENDROOT
BRANCH   1   2
ATOM      2  C   UNL     1     -25.833 -15.833   4.275  1.00  0.00     0.000 C 
BRANCH   2   3
ATOM      3  C   UNL     1     -26.893 -16.523   3.390  1.00  0.00     0.000 C 
BRANCH   3   4
ATOM      4  C   UNL     1     -28.203 -15.721   3.254  1.00  0.00     0.000 C 
BRANCH   4   5
ATOM      5  C   UNL     1     -28.044 -14.199   3.404  1.00  0.00     0.000 C 
BRANCH   5   6
ATOM      6  C   UNL     1     -29.356 -13.437   3.148  1.00  0.00     0.006 C 
BRANCH   6   7
ATOM      7  C   UNL     1     -29.142 -12.205   2.258  1.00  0.00     0.053 C 
BRANCH   7   8
ATOM      8  C   UNL     1     -29.987 -12.261   1.023  1.00  0.00     0.041 C 
ATOM      9  O   UNL     1     -31.229 -12.452   1.112  1.00  0.00    -0.550 OA
ATOM     10  O   UNL     1     -29.399 -12.140  -0.231  1.00  0.00    -0.550 OA
ENDBRANCH   7   8
ENDBRANCH   6   7
ENDBRANCH   5   6
ENDBRANCH   4   5
ENDBRANCH   3   4
ENDBRANCH   2   3
ENDBRANCH   1   2
BRANCH   1  11
ATOM     11  C   UNL     1     -24.328 -13.998   3.315  1.00  0.00     0.000 C 
BRANCH  11  12
ATOM     12  C   UNL     1     -24.101 -13.269   4.648  1.00  0.00    -0.000 C 
BRANCH  12  13
ATOM     13  C   UNL     1     -24.960 -12.001   4.735  1.00  0.00    -0.000 C 
BRANCH  13  14
ATOM     14  C   UNL     1     -24.089 -10.739   4.653  1.00  0.00    -0.000 C 
BRANCH  14  15
ATOM     15  C   UNL     1     -22.598 -11.033   4.880  1.00  0.00    -0.000 C 
BRANCH  15  16
ATOM     16  C   UNL     1     -21.689  -9.897   4.385  1.00  0.00    -0.000 C 
BRANCH  16  17
ATOM     17  C   UNL     1     -20.314 -10.436   3.972  1.00  0.00    -0.003 C 
ATOM     18  C   UNL     1     -20.238 -11.949   4.153  1.00  0.00     0.004 C 
ENDBRANCH  16  17
ENDBRANCH  15  16
ENDBRANCH  14  15
ENDBRANCH  13  14
ENDBRANCH  12  13
ENDBRANCH  11  12
ENDBRANCH   1  11
TORSDOF 14
ENDMDL
MODEL 2
REMARK VINA RESULT:    -3.838      3.776      8.088
REMARK INTER + INTRA:          -8.118
REMARK INTER:                  -6.982
REMARK INTRA:                  -1.135
REMARK UNBOUND:                -1.138
REMARK SMILES CCCCCCCCCCCCCCCC(=O)[O-]
REMARK SMILES IDX 9 1 10 2 11 3 12 4 13 5 14 6 15 7 16 8 17 9 18 10 8 11 7 12
REMARK SMILES IDX 6 13 5 14 4 15 3 16 2 17 1 18
REMARK H PARENT
REMARK Flexibility Score: inf
ROOT
ATOM      1  C   UNL     1     -24.638 -14.402   3.369  1.00  0.00     0.000 C 
ENDROOT
BRANCH   1   2
ATOM      2  C   UNL     1     -25.781 -13.469   3.808  1.00  0.00     0.000 C 
BRANCH   2   3
ATOM      3  C   UNL     1     -25.385 -12.589   5.014  1.00  0.00     0.000 C 
BRANCH   3   4
ATOM      4  C   UNL     1     -23.902 -12.718   5.415  1.00  0.00     0.000 C 
BRANCH   4   5
ATOM      5  C   UNL     1     -23.214 -11.389   5.769  1.00  0.00     0.000 C 
BRANCH   5   6
ATOM      6  C   UNL     1     -22.619 -10.683   4.539  1.00  0.00     0.006 C 
BRANCH   6   7
ATOM      7  C   UNL     1     -21.099 -10.504   4.657  1.00  0.00     0.053 C 
BRANCH   7   8
ATOM      8  C   UNL     1     -20.357 -11.539   3.868  1.00  0.00     0.041 C 
ATOM      9  O   UNL     1     -20.933 -12.603   3.519  1.00  0.00    -0.550 OA
ATOM     10  O   UNL     1     -19.018 -11.345   3.549  1.00  0.00    -0.550 OA
ENDBRANCH   7   8
ENDBRANCH   6   7
ENDBRANCH   5   6
ENDBRANCH   4   5
ENDBRANCH   3   4
ENDBRANCH   2   3
ENDBRANCH   1   2
BRANCH   1  11
ATOM     11  C   UNL     1     -25.094 -15.858   3.192  1.00  0.00     0.000 C 
BRANCH  11  12
ATOM     12  C   UNL     1     -26.308 -16.209   4.066  1.00  0.00    -0.000 C 
BRANCH  12  13
ATOM     13  C   UNL     1     -27.502 -16.636   3.203  1.00  0.00    -0.000 C 
BRANCH  13  14
ATOM     14  C   UNL     1     -28.737 -15.773   3.505  1.00  0.00    -0.000 C 
BRANCH  14  15
ATOM     15  C   UNL     1     -29.433 -15.270   2.231  1.00  0.00    -0.000 C 
BRANCH  15  16
ATOM     16  C   UNL     1     -29.902 -16.415   1.321  1.00  0.00    -0.000 C 
BRANCH  16  17
ATOM     17  C   UNL     1     -31.204 -17.033   1.844  1.00  0.00    -0.003 C 
ATOM     18  C   UNL     1     -31.010 -18.501   2.211  1.00  0.00     0.004 C 
ENDBRANCH  16  17
ENDBRANCH  15  16
ENDBRANCH  14  15
ENDBRANCH  13  14
ENDBRANCH  12  13
ENDBRANCH  11  12
ENDBRANCH   1  11
TORSDOF 14
ENDMDL
MODEL 3
REMARK VINA RESULT:    -3.823      1.458      2.141
REMARK INTER + INTRA:          -8.090
REMARK INTER:                  -6.913
REMARK INTRA:                  -1.177
REMARK UNBOUND:                -1.138
REMARK SMILES CCCCCCCCCCCCCCCC(=O)[O-]
REMARK SMILES IDX 9 1 10 2 11 3 12 4 13 5 14 6 15 7 16 8 17 9 18 10 8 11 7 12
REMARK SMILES IDX 6 13 5 14 4 15 3 16 2 17 1 18
REMARK H PARENT
REMARK Flexibility Score: inf
ROOT
ATOM      1  C   UNL     1     -24.480 -15.001   3.310  1.00  0.00     0.000 C 
ENDROOT
BRANCH   1   2
ATOM      2  C   UNL     1     -25.891 -14.882   3.913  1.00  0.00     0.000 C 
BRANCH   2   3
ATOM      3  C   UNL     1     -26.523 -16.262   4.196  1.00  0.00     0.000 C 
BRANCH   3   4
ATOM      4  C   UNL     1     -27.145 -16.926   2.951  1.00  0.00     0.000 C 
BRANCH   4   5
ATOM      5  C   UNL     1     -28.459 -17.681   3.214  1.00  0.00     0.000 C 
BRANCH   5   6
ATOM      6  C   UNL     1     -29.699 -16.781   3.077  1.00  0.00     0.006 C 
BRANCH   6   7
ATOM      7  C   UNL     1     -29.678 -15.967   1.776  1.00  0.00     0.053 C 
BRANCH   7   8
ATOM      8  C   UNL     1     -29.690 -14.494   2.046  1.00  0.00     0.041 C 
ATOM      9  O   UNL     1     -29.780 -13.675   1.094  1.00  0.00    -0.550 OA
ATOM     10  O   UNL     1     -29.563 -14.023   3.348  1.00  0.00    -0.550 OA
ENDBRANCH   7   8
ENDBRANCH   6   7
ENDBRANCH   5   6
ENDBRANCH   4   5
ENDBRANCH   3   4
ENDBRANCH   2   3
ENDBRANCH   1   2
BRANCH   1  11
ATOM     11  C   UNL     1     -23.536 -13.884   3.780  1.00  0.00     0.000 C 
BRANCH  11  12
ATOM     12  C   UNL     1     -24.281 -12.729   4.465  1.00  0.00    -0.000 C 
BRANCH  12  13
ATOM     13  C   UNL     1     -23.791 -12.534   5.905  1.00  0.00    -0.000 C 
BRANCH  13  14
ATOM     14  C   UNL     1     -22.519 -11.674   5.942  1.00  0.00    -0.000 C 
BRANCH  14  15
ATOM     15  C   UNL     1     -22.592 -10.467   4.995  1.00  0.00    -0.000 C 
BRANCH  15  16
ATOM     16  C   UNL     1     -21.308 -10.281   4.172  1.00  0.00    -0.000 C 
BRANCH  16  17
ATOM     17  C   UNL     1     -20.440 -11.543   4.218  1.00  0.00    -0.003 C 
ATOM     18  C   UNL     1     -19.133 -11.343   3.457  1.00  0.00     0.004 C 
ENDBRANCH  16  17
ENDBRANCH  15  16
ENDBRANCH  14  15
ENDBRANCH  13  14
ENDBRANCH  12  13
ENDBRANCH  11  12
ENDBRANCH   1  11
TORSDOF 14
ENDMDL
MODEL 4
REMARK VINA RESULT:    -3.817      1.170      1.842
REMARK INTER + INTRA:          -8.078
REMARK INTER:                  -7.067
REMARK INTRA:                  -1.011
REMARK UNBOUND:                -1.138
REMARK SMILES CCCCCCCCCCCCCCCC(=O)[O-]
REMARK SMILES IDX 9 1 10 2 11 3 12 4 13 5 14 6 15 7 16 8 17 9 18 10 8 11 7 12
REMARK SMILES IDX 6 13 5 14 4 15 3 16 2 17 1 18
REMARK H PARENT
REMARK Flexibility Score: inf
ROOT
ATOM      1  C   UNL     1     -26.186 -16.421   3.051  1.00  0.00     0.000 C 
ENDROOT
BRANCH   1   2
ATOM      2  C   UNL     1     -27.626 -16.369   3.593  1.00  0.00     0.000 C 
BRANCH   2   3
ATOM      3  C   UNL     1     -27.960 -15.004   4.235  1.00  0.00     0.000 C 
BRANCH   3   4
ATOM      4  C   UNL     1     -28.591 -13.996   3.254  1.00  0.00     0.000 C 
BRANCH   4   5
ATOM      5  C   UNL     1     -29.558 -14.614   2.230  1.00  0.00     0.000 C 
BRANCH   5   6
ATOM      6  C   UNL     1     -30.505 -13.575   1.606  1.00  0.00     0.006 C 
BRANCH   6   7
ATOM      7  C   UNL     1     -29.908 -12.934   0.346  1.00  0.00     0.053 C 
BRANCH   7   8
ATOM      8  C   UNL     1     -29.841 -11.442   0.464  1.00  0.00     0.041 C 
ATOM      9  O   UNL     1     -29.981 -10.719  -0.557  1.00  0.00    -0.550 OA
ATOM     10  O   UNL     1     -29.587 -10.851   1.696  1.00  0.00    -0.550 OA
ENDBRANCH   7   8
ENDBRANCH   6   7
ENDBRANCH   5   6
ENDBRANCH   4   5
ENDBRANCH   3   4
ENDBRANCH   2   3
ENDBRANCH   1   2
BRANCH   1  11
ATOM     11  C   UNL     1     -25.173 -15.751   3.990  1.00  0.00     0.000 C 
BRANCH  11  12
ATOM     12  C   UNL     1     -24.425 -14.588   3.322  1.00  0.00    -0.000 C 
BRANCH  12  13
ATOM     13  C   UNL     1     -24.524 -13.312   4.167  1.00  0.00    -0.000 C 
BRANCH  13  14
ATOM     14  C   UNL     1     -23.131 -12.818   4.586  1.00  0.00    -0.000 C 
BRANCH  14  15
ATOM     15  C   UNL     1     -23.057 -11.288   4.706  1.00  0.00    -0.000 C 
BRANCH  15  16
ATOM     16  C   UNL     1     -21.649 -10.740   4.427  1.00  0.00    -0.000 C 
BRANCH  16  17
ATOM     17  C   UNL     1     -20.711 -11.856   3.952  1.00  0.00    -0.003 C 
ATOM     18  C   UNL     1     -19.313 -11.316   3.664  1.00  0.00     0.004 C 
ENDBRANCH  16  17
ENDBRANCH  15  16
ENDBRANCH  14  15
ENDBRANCH  13  14
ENDBRANCH  12  13
ENDBRANCH  11  12
ENDBRANCH   1  11
TORSDOF 14
ENDMDL
MODEL 5
REMARK VINA RESULT:    -3.783      1.577      1.726
REMARK INTER + INTRA:          -8.016
REMARK INTER:                  -6.502
REMARK INTRA:                  -1.515
REMARK UNBOUND:                -1.138
REMARK SMILES CCCCCCCCCCCCCCCC(=O)[O-]
REMARK SMILES IDX 9 1 10 2 11 3 12 4 13 5 14 6 15 7 16 8 17 9 18 10 8 11 7 12
REMARK SMILES IDX 6 13 5 14 4 15 3 16 2 17 1 18
REMARK H PARENT
REMARK Flexibility Score: inf
ROOT
ATOM      1  C   UNL     1     -24.567 -15.085   3.388  1.00  0.00     0.000 C 
ENDROOT
BRANCH   1   2
ATOM      2  C   UNL     1     -25.668 -15.516   4.373  1.00  0.00     0.000 C 
BRANCH   2   3
ATOM      3  C   UNL     1     -27.073 -15.480   3.731  1.00  0.00     0.000 C 
BRANCH   3   4
ATOM      4  C   UNL     1     -27.975 -14.356   4.276  1.00  0.00     0.000 C 
BRANCH   4   5
ATOM      5  C   UNL     1     -28.158 -13.160   3.325  1.00  0.00     0.000 C 
BRANCH   5   6
ATOM      6  C   UNL     1     -29.587 -13.062   2.764  1.00  0.00     0.006 C 
BRANCH   6   7
ATOM      7  C   UNL     1     -29.758 -13.878   1.476  1.00  0.00     0.053 C 
BRANCH   7   8
ATOM      8  C   UNL     1     -30.308 -15.243   1.755  1.00  0.00     0.041 C 
ATOM      9  O   UNL     1     -31.248 -15.391   2.580  1.00  0.00    -0.550 OA
ATOM     10  O   UNL     1     -29.758 -16.357   1.131  1.00  0.00    -0.550 OA
ENDBRANCH   7   8
ENDBRANCH   6   7
ENDBRANCH   5   6
ENDBRANCH   4   5
ENDBRANCH   3   4
ENDBRANCH   2   3
ENDBRANCH   1   2
BRANCH   1  11
ATOM     11  C   UNL     1     -23.798 -13.843   3.862  1.00  0.00     0.000 C 
BRANCH  11  12
ATOM     12  C   UNL     1     -24.491 -13.128   5.031  1.00  0.00    -0.000 C 
BRANCH  12  13
ATOM     13  C   UNL     1     -24.959 -11.727   4.618  1.00  0.00    -0.000 C 
BRANCH  13  14
ATOM     14  C   UNL     1     -24.149 -10.640   5.341  1.00  0.00    -0.000 C 
BRANCH  14  15
ATOM     15  C   UNL     1     -23.093  -9.989   4.436  1.00  0.00    -0.000 C 
BRANCH  15  16
ATOM     16  C   UNL     1     -21.683 -10.032   5.045  1.00  0.00    -0.000 C 
BRANCH  16  17
ATOM     17  C   UNL     1     -20.656 -10.519   4.016  1.00  0.00    -0.003 C 
ATOM     18  C   UNL     1     -20.589 -12.043   3.984  1.00  0.00     0.004 C 
ENDBRANCH  16  17
ENDBRANCH  15  16
ENDBRANCH  14  15
ENDBRANCH  13  14
ENDBRANCH  12  13
ENDBRANCH  11  12
ENDBRANCH   1  11
TORSDOF 14
ENDMDL
MODEL 6
REMARK VINA RESULT:    -3.758      3.524      7.227
REMARK INTER + INTRA:          -7.972
REMARK INTER:                  -6.376
REMARK INTRA:                  -1.595
REMARK UNBOUND:                -1.138
REMARK SMILES CCCCCCCCCCCCCCCC(=O)[O-]
REMARK SMILES IDX 9 1 10 2 11 3 12 4 13 5 14 6 15 7 16 8 17 9 18 10 8 11 7 12
REMARK SMILES IDX 6 13 5 14 4 15 3 16 2 17 1 18
REMARK H PARENT
REMARK Flexibility Score: inf
ROOT
ATOM      1  C   UNL     1     -24.041 -13.804   4.157  1.00  0.00     0.000 C 
ENDROOT
BRANCH   1   2
ATOM      2  C   UNL     1     -24.338 -13.412   5.615  1.00  0.00     0.000 C 
BRANCH   2   3
ATOM      3  C   UNL     1     -24.816 -11.949   5.740  1.00  0.00     0.000 C 
BRANCH   3   4
ATOM      4  C   UNL     1     -24.402 -11.058   4.552  1.00  0.00     0.000 C 
BRANCH   4   5
ATOM      5  C   UNL     1     -23.486  -9.878   4.922  1.00  0.00     0.000 C 
BRANCH   5   6
ATOM      6  C   UNL     1     -22.122  -9.941   4.214  1.00  0.00     0.006 C 
BRANCH   6   7
ATOM      7  C   UNL     1     -21.146 -10.887   4.927  1.00  0.00     0.053 C 
BRANCH   7   8
ATOM      8  C   UNL     1     -20.356 -11.705   3.952  1.00  0.00     0.041 C 
ATOM      9  O   UNL     1     -20.865 -12.727   3.423  1.00  0.00    -0.550 OA
ATOM     10  O   UNL     1     -19.043 -11.359   3.656  1.00  0.00    -0.550 OA
ENDBRANCH   7   8
ENDBRANCH   6   7
ENDBRANCH   5   6
ENDBRANCH   4   5
ENDBRANCH   3   4
ENDBRANCH   2   3
ENDBRANCH   1   2
BRANCH   1  11
ATOM     11  C   UNL     1     -25.277 -14.344   3.423  1.00  0.00     0.000 C 
BRANCH  11  12
ATOM     12  C   UNL     1     -25.292 -15.878   3.339  1.00  0.00    -0.000 C 
BRANCH  12  13
ATOM     13  C   UNL     1     -26.719 -16.422   3.480  1.00  0.00    -0.000 C 
BRANCH  13  14
ATOM     14  C   UNL     1     -27.683 -15.324   3.953  1.00  0.00    -0.000 C 
BRANCH  14  15
ATOM     15  C   UNL     1     -28.843 -15.091   2.972  1.00  0.00    -0.000 C 
BRANCH  15  16
ATOM     16  C   UNL     1     -29.473 -13.698   3.121  1.00  0.00    -0.000 C 
BRANCH  16  17
ATOM     17  C   UNL     1     -28.509 -12.606   2.642  1.00  0.00    -0.003 C 
ATOM     18  C   UNL     1     -28.052 -11.726   3.801  1.00  0.00     0.004 C 
ENDBRANCH  16  17
ENDBRANCH  15  16
ENDBRANCH  14  15
ENDBRANCH  13  14
ENDBRANCH  12  13
ENDBRANCH  11  12
ENDBRANCH   1  11
TORSDOF 14
ENDMDL
MODEL 7
REMARK VINA RESULT:    -3.709     11.826     14.389
REMARK INTER + INTRA:          -7.882
REMARK INTER:                  -6.348
REMARK INTRA:                  -1.534
REMARK UNBOUND:                -1.138
REMARK SMILES CCCCCCCCCCCCCCCC(=O)[O-]
REMARK SMILES IDX 9 1 10 2 11 3 12 4 13 5 14 6 15 7 16 8 17 9 18 10 8 11 7 12
REMARK SMILES IDX 6 13 5 14 4 15 3 16 2 17 1 18
REMARK H PARENT
REMARK Flexibility Score: inf
ROOT
ATOM      1  C   UNL     1     -19.563 -19.408  -3.660  1.00  0.00     0.000 C 
ENDROOT
BRANCH   1   2
ATOM      2  C   UNL     1     -18.472 -18.493  -4.244  1.00  0.00     0.000 C 
BRANCH   2   3
ATOM      3  C   UNL     1     -17.866 -17.553  -3.179  1.00  0.00     0.000 C 
BRANCH   3   4
ATOM      4  C   UNL     1     -16.347 -17.342  -3.331  1.00  0.00     0.000 C 
BRANCH   4   5
ATOM      5  C   UNL     1     -15.877 -17.065  -4.769  1.00  0.00     0.000 C 
BRANCH   5   6
ATOM      6  C   UNL     1     -15.268 -15.661  -4.934  1.00  0.00     0.006 C 
BRANCH   6   7
ATOM      7  C   UNL     1     -16.346 -14.570  -5.000  1.00  0.00     0.053 C 
BRANCH   7   8
ATOM      8  C   UNL     1     -16.291 -13.817  -6.293  1.00  0.00     0.041 C 
ATOM      9  O   UNL     1     -17.336 -13.304  -6.772  1.00  0.00    -0.550 OA
ATOM     10  O   UNL     1     -15.092 -13.712  -6.989  1.00  0.00    -0.550 OA
ENDBRANCH   7   8
ENDBRANCH   6   7
ENDBRANCH   5   6
ENDBRANCH   4   5
ENDBRANCH   3   4
ENDBRANCH   2   3
ENDBRANCH   1   2
BRANCH   1  11
ATOM     11  C   UNL     1     -20.774 -19.559  -4.593  1.00  0.00     0.000 C 
BRANCH  11  12
ATOM     12  C   UNL     1     -21.022 -21.017  -5.009  1.00  0.00    -0.000 C 
BRANCH  12  13
ATOM     13  C   UNL     1     -20.499 -21.989  -3.944  1.00  0.00    -0.000 C 
BRANCH  13  14
ATOM     14  C   UNL     1     -19.593 -23.058  -4.573  1.00  0.00    -0.000 C 
BRANCH  14  15
ATOM     15  C   UNL     1     -19.435 -22.883  -6.091  1.00  0.00    -0.000 C 
BRANCH  15  16
ATOM     16  C   UNL     1     -17.968 -22.738  -6.521  1.00  0.00    -0.000 C 
BRANCH  16  17
ATOM     17  C   UNL     1     -17.298 -21.564  -5.797  1.00  0.00    -0.003 C 
ATOM     18  C   UNL     1     -16.768 -20.534  -6.790  1.00  0.00     0.004 C 
ENDBRANCH  16  17
ENDBRANCH  15  16
ENDBRANCH  14  15
ENDBRANCH  13  14
ENDBRANCH  12  13
ENDBRANCH  11  12
ENDBRANCH   1  11
TORSDOF 14
ENDMDL
MODEL 8
REMARK VINA RESULT:    -3.704      3.631      7.509
REMARK INTER + INTRA:          -7.874
REMARK INTER:                  -6.893
REMARK INTRA:                  -0.981
REMARK UNBOUND:                -1.138
REMARK SMILES CCCCCCCCCCCCCCCC(=O)[O-]
REMARK SMILES IDX 9 1 10 2 11 3 12 4 13 5 14 6 15 7 16 8 17 9 18 10 8 11 7 12
REMARK SMILES IDX 6 13 5 14 4 15 3 16 2 17 1 18
REMARK H PARENT
REMARK Flexibility Score: inf
ROOT
ATOM      1  C   UNL     1     -25.356 -15.411   4.209  1.00  0.00     0.000 C 
ENDROOT
BRANCH   1   2
ATOM      2  C   UNL     1     -24.545 -14.454   3.317  1.00  0.00     0.000 C 
BRANCH   2   3
ATOM      3  C   UNL     1     -23.555 -13.594   4.134  1.00  0.00     0.000 C 
BRANCH   3   4
ATOM      4  C   UNL     1     -24.226 -12.445   4.910  1.00  0.00     0.000 C 
BRANCH   4   5
ATOM      5  C   UNL     1     -23.547 -11.075   4.746  1.00  0.00     0.000 C 
BRANCH   5   6
ATOM      6  C   UNL     1     -22.112 -11.054   5.301  1.00  0.00     0.006 C 
BRANCH   6   7
ATOM      7  C   UNL     1     -21.130 -10.379   4.334  1.00  0.00     0.053 C 
BRANCH   7   8
ATOM      8  C   UNL     1     -20.174 -11.367   3.738  1.00  0.00     0.041 C 
ATOM      9  O   UNL     1     -20.605 -12.420   3.198  1.00  0.00    -0.550 OA
ATOM     10  O   UNL     1     -18.804 -11.143   3.811  1.00  0.00    -0.550 OA
ENDBRANCH   7   8
ENDBRANCH   6   7
ENDBRANCH   5   6
ENDBRANCH   4   5
ENDBRANCH   3   4
ENDBRANCH   2   3
ENDBRANCH   1   2
BRANCH   1  11
ATOM     11  C   UNL     1     -26.867 -15.335   3.941  1.00  0.00     0.000 C 
BRANCH  11  12
ATOM     12  C   UNL     1     -27.495 -14.031   4.455  1.00  0.00    -0.000 C 
BRANCH  12  13
ATOM     13  C   UNL     1     -28.182 -13.266   3.317  1.00  0.00    -0.000 C 
BRANCH  13  14
ATOM     14  C   UNL     1     -29.184 -14.164   2.576  1.00  0.00    -0.000 C 
BRANCH  14  15
ATOM     15  C   UNL     1     -30.043 -13.385   1.568  1.00  0.00    -0.000 C 
BRANCH  15  16
ATOM     16  C   UNL     1     -29.516 -11.964   1.314  1.00  0.00    -0.000 C 
BRANCH  16  17
ATOM     17  C   UNL     1     -30.130 -11.371   0.041  1.00  0.00    -0.003 C 
ATOM     18  C   UNL     1     -29.077 -11.190  -1.047  1.00  0.00     0.004 C 
ENDBRANCH  16  17
ENDBRANCH  15  16
ENDBRANCH  14  15
ENDBRANCH  13  14
ENDBRANCH  12  13
ENDBRANCH  11  12
ENDBRANCH   1  11
TORSDOF 14
ENDMDL
MODEL 9
REMARK VINA RESULT:    -3.671      2.851      6.387
REMARK INTER + INTRA:          -7.814
REMARK INTER:                  -6.072
REMARK INTRA:                  -1.741
REMARK UNBOUND:                -1.138
REMARK SMILES CCCCCCCCCCCCCCCC(=O)[O-]
REMARK SMILES IDX 9 1 10 2 11 3 12 4 13 5 14 6 15 7 16 8 17 9 18 10 8 11 7 12
REMARK SMILES IDX 6 13 5 14 4 15 3 16 2 17 1 18
REMARK H PARENT
REMARK Flexibility Score: inf
ROOT
ATOM      1  C   UNL     1     -25.052 -14.148   3.816  1.00  0.00     0.000 C 
ENDROOT
BRANCH   1   2
ATOM      2  C   UNL     1     -26.369 -13.561   4.355  1.00  0.00     0.000 C 
BRANCH   2   3
ATOM      3  C   UNL     1     -27.164 -12.813   3.262  1.00  0.00     0.000 C 
BRANCH   3   4
ATOM      4  C   UNL     1     -28.692 -12.871   3.459  1.00  0.00     0.000 C 
BRANCH   4   5
ATOM      5  C   UNL     1     -29.494 -11.921   2.554  1.00  0.00     0.000 C 
BRANCH   5   6
ATOM      6  C   UNL     1     -30.506 -12.662   1.663  1.00  0.00     0.006 C 
BRANCH   6   7
ATOM      7  C   UNL     1     -29.982 -12.856   0.234  1.00  0.00     0.053 C 
BRANCH   7   8
ATOM      8  C   UNL     1     -30.046 -11.585  -0.556  1.00  0.00     0.041 C 
ATOM      9  O   UNL     1     -29.117 -11.284  -1.350  1.00  0.00    -0.550 OA
ATOM     10  O   UNL     1     -31.117 -10.714  -0.388  1.00  0.00    -0.550 OA
ENDBRANCH   7   8
ENDBRANCH   6   7
ENDBRANCH   5   6
ENDBRANCH   4   5
ENDBRANCH   3   4
ENDBRANCH   2   3
ENDBRANCH   1   2
BRANCH   1  11
ATOM     11  C   UNL     1     -25.197 -15.605   3.352  1.00  0.00     0.000 C 
BRANCH  11  12
ATOM     12  C   UNL     1     -26.399 -16.314   3.993  1.00  0.00    -0.000 C 
BRANCH  12  13
ATOM     13  C   UNL     1     -27.274 -16.986   2.927  1.00  0.00    -0.000 C 
BRANCH  13  14
ATOM     14  C   UNL     1     -28.755 -16.633   3.128  1.00  0.00    -0.000 C 
BRANCH  14  15
ATOM     15  C   UNL     1     -29.432 -16.160   1.832  1.00  0.00    -0.000 C 
BRANCH  15  16
ATOM     16  C   UNL     1     -30.647 -17.020   1.452  1.00  0.00    -0.000 C 
BRANCH  16  17
ATOM     17  C   UNL     1     -31.653 -17.089   2.607  1.00  0.00    -0.003 C 
ATOM     18  C   UNL     1     -32.243 -15.715   2.908  1.00  0.00     0.004 C 
ENDBRANCH  16  17
ENDBRANCH  15  16
ENDBRANCH  14  15
ENDBRANCH  13  14
ENDBRANCH  12  13
ENDBRANCH  11  12
ENDBRANCH   1  11
TORSDOF 14
ENDMDL
