MODEL 1
REMARK VINA RESULT:    -3.506      0.000      0.000
REMARK INTER + INTRA:          -7.056
REMARK INTER:                  -5.965
REMARK INTRA:                  -1.091
REMARK UNBOUND:                -1.091
REMARK SMILES CCCCCCCCCCCCCC(=O)[O-]
REMARK SMILES IDX 8 1 9 2 10 3 11 4 12 5 13 6 14 7 15 8 16 9 7 10 6 11 5 12
REMARK SMILES IDX 4 13 3 14 2 15 1 16
REMARK H PARENT
REMARK Flexibility Score: inf
ROOT
ATOM      1  C   UNL     1      27.212  21.986  57.740  1.00  0.00     0.000 C 
ENDROOT
BRANCH   1   2
ATOM      2  C   UNL     1      26.722  21.700  56.304  1.00  0.00     0.000 C 
BRANCH   2   3
ATOM      3  C   UNL     1      26.587  20.191  56.029  1.00  0.00     0.000 C 
BRANCH   3   4
ATOM      4  C   UNL     1      25.259  19.829  55.343  1.00  0.00     0.000 C 
BRANCH   4   5
ATOM      5  C   UNL     1      24.148  20.853  55.626  1.00  0.00     0.006 C 
BRANCH   5   6
ATOM      6  C   UNL     1      22.876  20.191  56.172  1.00  0.00     0.053 C 
BRANCH   6   7
ATOM      7  C   UNL     1      23.166  19.320  57.358  1.00  0.00     0.041 C 
ATOM      8  O   UNL     1      22.998  18.074  57.284  1.00  0.00    -0.550 OA
ATOM      9  O   UNL     1      23.594  19.888  58.550  1.00  0.00    -0.550 OA
ENDBRANCH   6   7
ENDBRANCH   5   6
ENDBRANCH   4   5
ENDBRANCH   3   4
ENDBRANCH   2   3
ENDBRANCH   1   2
BRANCH   1  10
ATOM     10  C   UNL     1      26.938  20.838  58.725  1.00  0.00     0.000 C 
BRANCH  10  11
ATOM     11  C   UNL     1      27.718  20.982  60.042  1.00  0.00    -0.000 C 
BRANCH  11  12
ATOM     12  C   UNL     1      27.020  21.921  61.041  1.00  0.00    -0.000 C 
BRANCH  12  13
ATOM     13  C   UNL     1      25.516  21.625  61.176  1.00  0.00    -0.000 C 
BRANCH  13  14
ATOM     14  C   UNL     1      25.104  21.310  62.623  1.00  0.00    -0.000 C 
BRANCH  14  15
ATOM     15  C   UNL     1      26.307  21.020  63.532  1.00  0.00    -0.003 C 
ATOM     16  C   UNL     1      26.327  19.558  63.967  1.00  0.00     0.004 C 
ENDBRANCH  14  15
ENDBRANCH  13  14
ENDBRANCH  12  13
ENDBRANCH  11  12
ENDBRANCH  10  11
ENDBRANCH   1  10
TORSDOF 12
ENDMDL
MODEL 2
REMARK VINA RESULT:    -3.453      1.601      2.826
REMARK INTER + INTRA:          -6.965
REMARK INTER:                  -5.573
REMARK INTRA:                  -1.392
REMARK UNBOUND:                -1.091
REMARK SMILES CCCCCCCCCCCCCC(=O)[O-]
REMARK SMILES IDX 8 1 9 2 10 3 11 4 12 5 13 6 14 7 15 8 16 9 7 10 6 11 5 12
REMARK SMILES IDX 4 13 3 14 2 15 1 16
REMARK H PARENT
REMARK Flexibility Score: inf
ROOT
ATOM      1  C   UNL     1      27.355  20.670  60.433  1.00  0.00     0.000 C 
ENDROOT
BRANCH   1   2
ATOM      2  C   UNL     1      27.003  20.573  58.932  1.00  0.00     0.000 C 
BRANCH   2   3
ATOM      3  C   UNL     1      26.609  21.939  58.341  1.00  0.00     0.000 C 
BRANCH   3   4
ATOM      4  C   UNL     1      25.187  21.945  57.757  1.00  0.00     0.000 C 
BRANCH   4   5
ATOM      5  C   UNL     1      24.428  20.636  58.032  1.00  0.00     0.006 C 
BRANCH   5   6
ATOM      6  C   UNL     1      23.653  20.147  56.802  1.00  0.00     0.053 C 
BRANCH   6   7
ATOM      7  C   UNL     1      24.367  19.033  56.100  1.00  0.00     0.041 C 
ATOM      8  O   UNL     1      24.597  17.950  56.700  1.00  0.00    -0.550 OA
ATOM      9  O   UNL     1      24.803  19.200  54.792  1.00  0.00    -0.550 OA
ENDBRANCH   6   7
ENDBRANCH   5   6
ENDBRANCH   4   5
ENDBRANCH   3   4
ENDBRANCH   2   3
ENDBRANCH   1   2
BRANCH   1  10
ATOM     10  C   UNL     1      26.995  22.025  61.064  1.00  0.00     0.000 C 
BRANCH  10  11
ATOM     11  C   UNL     1      26.781  21.937  62.584  1.00  0.00    -0.000 C 
BRANCH  11  12
ATOM     12  C   UNL     1      26.550  20.495  63.065  1.00  0.00    -0.000 C 
BRANCH  12  13
ATOM     13  C   UNL     1      25.159  20.298  63.692  1.00  0.00    -0.000 C 
BRANCH  13  14
ATOM     14  C   UNL     1      24.311  21.579  63.663  1.00  0.00    -0.000 C 
BRANCH  14  15
ATOM     15  C   UNL     1      23.039  21.430  62.816  1.00  0.00    -0.003 C 
ATOM     16  C   UNL     1      23.348  21.582  61.329  1.00  0.00     0.004 C 
ENDBRANCH  14  15
ENDBRANCH  13  14
ENDBRANCH  12  13
ENDBRANCH  11  12
ENDBRANCH  10  11
ENDBRANCH   1  10
TORSDOF 12
ENDMDL
MODEL 3
REMARK VINA RESULT:    -3.417      1.074      1.847
REMARK INTER + INTRA:          -6.906
REMARK INTER:                  -5.949
REMARK INTRA:                  -0.956
REMARK UNBOUND:                -1.091
REMARK SMILES CCCCCCCCCCCCCC(=O)[O-]
REMARK SMILES IDX 8 1 9 2 10 3 11 4 12 5 13 6 14 7 15 8 16 9 7 10 6 11 5 12
REMARK SMILES IDX 4 13 3 14 2 15 1 16
REMARK H PARENT
REMARK Flexibility Score: inf
ROOT
ATOM      1  C   UNL     1      27.410  21.018  59.612  1.00  0.00     0.000 C 
ENDROOT
BRANCH   1   2
ATOM      2  C   UNL     1      26.655  20.402  58.414  1.00  0.00     0.000 C 
BRANCH   2   3
ATOM      3  C   UNL     1      26.995  21.109  57.090  1.00  0.00     0.000 C 
BRANCH   3   4
ATOM      4  C   UNL     1      26.672  20.249  55.857  1.00  0.00     0.000 C 
BRANCH   4   5
ATOM      5  C   UNL     1      25.390  20.702  55.139  1.00  0.00     0.006 C 
BRANCH   5   6
ATOM      6  C   UNL     1      24.373  19.561  54.996  1.00  0.00     0.053 C 
BRANCH   6   7
ATOM      7  C   UNL     1      24.048  18.935  56.318  1.00  0.00     0.041 C 
ATOM      8  O   UNL     1      24.362  17.738  56.546  1.00  0.00    -0.550 OA
ATOM      9  O   UNL     1      23.373  19.666  57.287  1.00  0.00    -0.550 OA
ENDBRANCH   6   7
ENDBRANCH   5   6
ENDBRANCH   4   5
ENDBRANCH   3   4
ENDBRANCH   2   3
ENDBRANCH   1   2
BRANCH   1  10
ATOM     10  C   UNL     1      26.513  21.854  60.541  1.00  0.00     0.000 C 
BRANCH  10  11
ATOM     11  C   UNL     1      25.035  21.839  60.117  1.00  0.00    -0.000 C 
BRANCH  11  12
ATOM     12  C   UNL     1      24.087  21.573  61.297  1.00  0.00    -0.000 C 
BRANCH  12  13
ATOM     13  C   UNL     1      24.731  21.899  62.656  1.00  0.00    -0.000 C 
BRANCH  13  14
ATOM     14  C   UNL     1      24.809  20.675  63.582  1.00  0.00    -0.000 C 
BRANCH  14  15
ATOM     15  C   UNL     1      26.221  20.076  63.656  1.00  0.00    -0.003 C 
ATOM     16  C   UNL     1      26.205  18.713  64.343  1.00  0.00     0.004 C 
ENDBRANCH  14  15
ENDBRANCH  13  14
ENDBRANCH  12  13
ENDBRANCH  11  12
ENDBRANCH  10  11
ENDBRANCH   1  10
TORSDOF 12
ENDMDL
MODEL 4
REMARK VINA RESULT:    -3.353      2.578      6.036
REMARK INTER + INTRA:          -6.795
REMARK INTER:                  -5.548
REMARK INTRA:                  -1.248
REMARK UNBOUND:                -1.091
REMARK SMILES CCCCCCCCCCCCCC(=O)[O-]
REMARK SMILES IDX 8 1 9 2 10 3 11 4 12 5 13 6 14 7 15 8 16 9 7 10 6 11 5 12
REMARK SMILES IDX 4 13 3 14 2 15 1 16
REMARK H PARENT
REMARK Flexibility Score: inf
ROOT
ATOM      1  C   UNL     1      26.959  20.609  58.952  1.00  0.00     0.000 C 
ENDROOT
BRANCH   1   2
ATOM      2  C   UNL     1      26.151  21.826  59.451  1.00  0.00     0.000 C 
BRANCH   2   3
ATOM      3  C   UNL     1      24.645  21.676  59.170  1.00  0.00     0.000 C 
BRANCH   3   4
ATOM      4  C   UNL     1      23.829  21.383  60.440  1.00  0.00     0.000 C 
BRANCH   4   5
ATOM      5  C   UNL     1      24.462  21.989  61.703  1.00  0.00     0.006 C 
BRANCH   5   6
ATOM      6  C   UNL     1      24.351  21.053  62.913  1.00  0.00     0.053 C 
BRANCH   6   7
ATOM      7  C   UNL     1      25.681  20.483  63.301  1.00  0.00     0.041 C 
ATOM      8  O   UNL     1      26.731  21.159  63.140  1.00  0.00    -0.550 OA
ATOM      9  O   UNL     1      25.763  19.195  63.815  1.00  0.00    -0.550 OA
ENDBRANCH   6   7
ENDBRANCH   5   6
ENDBRANCH   4   5
ENDBRANCH   3   4
ENDBRANCH   2   3
ENDBRANCH   1   2
BRANCH   1  10
ATOM     10  C   UNL     1      26.314  19.889  57.756  1.00  0.00     0.000 C 
BRANCH  10  11
ATOM     11  C   UNL     1      27.023  20.189  56.425  1.00  0.00    -0.000 C 
BRANCH  11  12
ATOM     12  C   UNL     1      26.053  20.680  55.338  1.00  0.00    -0.000 C 
BRANCH  12  13
ATOM     13  C   UNL     1      24.641  20.088  55.497  1.00  0.00    -0.000 C 
BRANCH  13  14
ATOM     14  C   UNL     1      24.478  18.745  54.767  1.00  0.00    -0.000 C 
BRANCH  14  15
ATOM     15  C   UNL     1      23.477  17.811  55.461  1.00  0.00    -0.003 C 
ATOM     16  C   UNL     1      23.026  18.385  56.801  1.00  0.00     0.004 C 
ENDBRANCH  14  15
ENDBRANCH  13  14
ENDBRANCH  12  13
ENDBRANCH  11  12
ENDBRANCH  10  11
ENDBRANCH   1  10
TORSDOF 12
ENDMDL
MODEL 5
REMARK VINA RESULT:    -3.294      1.896      3.550
REMARK INTER + INTRA:          -6.695
REMARK INTER:                  -5.411
REMARK INTRA:                  -1.284
REMARK UNBOUND:                -1.091
REMARK SMILES CCCCCCCCCCCCCC(=O)[O-]
REMARK SMILES IDX 8 1 9 2 10 3 11 4 12 5 13 6 14 7 15 8 16 9 7 10 6 11 5 12
REMARK SMILES IDX 4 13 3 14 2 15 1 16
REMARK H PARENT
REMARK Flexibility Score: inf
ROOT
ATOM      1  C   UNL     1      23.838  21.971  60.086  1.00  0.00     0.000 C 
ENDROOT
BRANCH   1   2
ATOM      2  C   UNL     1      23.353  21.701  58.646  1.00  0.00     0.000 C 
BRANCH   2   3
ATOM      3  C   UNL     1      22.910  20.240  58.448  1.00  0.00     0.000 C 
BRANCH   3   4
ATOM      4  C   UNL     1      23.218  19.711  57.038  1.00  0.00     0.000 C 
BRANCH   4   5
ATOM      5  C   UNL     1      24.196  20.614  56.268  1.00  0.00     0.006 C 
BRANCH   5   6
ATOM      6  C   UNL     1      25.549  19.931  56.031  1.00  0.00     0.053 C 
BRANCH   6   7
ATOM      7  C   UNL     1      26.406  19.949  57.261  1.00  0.00     0.041 C 
ATOM      8  O   UNL     1      27.019  20.999  57.590  1.00  0.00    -0.550 OA
ATOM      9  O   UNL     1      26.549  18.800  58.027  1.00  0.00    -0.550 OA
ENDBRANCH   6   7
ENDBRANCH   5   6
ENDBRANCH   4   5
ENDBRANCH   3   4
ENDBRANCH   2   3
ENDBRANCH   1   2
BRANCH   1  10
ATOM     10  C   UNL     1      23.153  21.089  61.143  1.00  0.00     0.000 C 
BRANCH  10  11
ATOM     11  C   UNL     1      22.875  21.838  62.457  1.00  0.00    -0.000 C 
BRANCH  11  12
ATOM     12  C   UNL     1      24.115  21.919  63.362  1.00  0.00    -0.000 C 
BRANCH  12  13
ATOM     13  C   UNL     1      24.809  20.557  63.535  1.00  0.00    -0.000 C 
BRANCH  13  14
ATOM     14  C   UNL     1      26.337  20.651  63.395  1.00  0.00    -0.000 C 
BRANCH  14  15
ATOM     15  C   UNL     1      26.781  21.818  62.502  1.00  0.00    -0.003 C 
ATOM     16  C   UNL     1      27.015  21.354  61.067  1.00  0.00     0.004 C 
ENDBRANCH  14  15
ENDBRANCH  13  14
ENDBRANCH  12  13
ENDBRANCH  11  12
ENDBRANCH  10  11
ENDBRANCH   1  10
TORSDOF 12
ENDMDL
MODEL 6
REMARK VINA RESULT:    -3.217      2.368      3.662
REMARK INTER + INTRA:          -6.564
REMARK INTER:                  -5.709
REMARK INTRA:                  -0.855
REMARK UNBOUND:                -1.091
REMARK SMILES CCCCCCCCCCCCCC(=O)[O-]
REMARK SMILES IDX 8 1 9 2 10 3 11 4 12 5 13 6 14 7 15 8 16 9 7 10 6 11 5 12
REMARK SMILES IDX 4 13 3 14 2 15 1 16
REMARK H PARENT
REMARK Flexibility Score: inf
ROOT
ATOM      1  C   UNL     1      27.306  21.078  60.592  1.00  0.00     0.000 C 
ENDROOT
BRANCH   1   2
ATOM      2  C   UNL     1      27.331  21.469  59.099  1.00  0.00     0.000 C 
BRANCH   2   3
ATOM      3  C   UNL     1      25.924  21.782  58.558  1.00  0.00     0.000 C 
BRANCH   3   4
ATOM      4  C   UNL     1      25.390  20.685  57.624  1.00  0.00     0.000 C 
BRANCH   4   5
ATOM      5  C   UNL     1      26.511  19.823  57.019  1.00  0.00     0.006 C 
BRANCH   5   6
ATOM      6  C   UNL     1      26.635  20.015  55.502  1.00  0.00     0.053 C 
BRANCH   6   7
ATOM      7  C   UNL     1      26.809  21.458  55.135  1.00  0.00     0.041 C 
ATOM      8  O   UNL     1      25.835  22.119  54.686  1.00  0.00    -0.550 OA
ATOM      9  O   UNL     1      28.052  22.063  55.261  1.00  0.00    -0.550 OA
ENDBRANCH   6   7
ENDBRANCH   5   6
ENDBRANCH   4   5
ENDBRANCH   3   4
ENDBRANCH   2   3
ENDBRANCH   1   2
BRANCH   1  10
ATOM     10  C   UNL     1      26.628  22.125  61.492  1.00  0.00     0.000 C 
BRANCH  10  11
ATOM     11  C   UNL     1      26.865  21.868  62.990  1.00  0.00    -0.000 C 
BRANCH  11  12
ATOM     12  C   UNL     1      26.549  20.419  63.396  1.00  0.00    -0.000 C 
BRANCH  12  13
ATOM     13  C   UNL     1      25.039  20.125  63.402  1.00  0.00    -0.000 C 
BRANCH  13  14
ATOM     14  C   UNL     1      24.194  21.378  63.680  1.00  0.00    -0.000 C 
BRANCH  14  15
ATOM     15  C   UNL     1      22.946  21.462  62.789  1.00  0.00    -0.003 C 
ATOM     16  C   UNL     1      23.327  21.662  61.325  1.00  0.00     0.004 C 
ENDBRANCH  14  15
ENDBRANCH  13  14
ENDBRANCH  12  13
ENDBRANCH  11  12
ENDBRANCH  10  11
ENDBRANCH   1  10
TORSDOF 12
ENDMDL
MODEL 7
REMARK VINA RESULT:    -3.103      1.164      1.710
REMARK INTER + INTRA:          -6.371
REMARK INTER:                  -5.654
REMARK INTRA:                  -0.716
REMARK UNBOUND:                -1.091
REMARK SMILES CCCCCCCCCCCCCC(=O)[O-]
REMARK SMILES IDX 8 1 9 2 10 3 11 4 12 5 13 6 14 7 15 8 16 9 7 10 6 11 5 12
REMARK SMILES IDX 4 13 3 14 2 15 1 16
REMARK H PARENT
REMARK Flexibility Score: inf
ROOT
ATOM      1  C   UNL     1      26.205  20.988  57.572  1.00  0.00     0.000 C 
ENDROOT
BRANCH   1   2
ATOM      2  C   UNL     1      27.000  20.728  56.275  1.00  0.00     0.000 C 
BRANCH   2   3
ATOM      3  C   UNL     1      26.110  20.158  55.155  1.00  0.00     0.000 C 
BRANCH   3   4
ATOM      4  C   UNL     1      24.980  21.117  54.748  1.00  0.00     0.000 C 
BRANCH   4   5
ATOM      5  C   UNL     1      23.617  20.413  54.639  1.00  0.00     0.006 C 
BRANCH   5   6
ATOM      6  C   UNL     1      23.047  20.039  56.013  1.00  0.00     0.053 C 
BRANCH   6   7
ATOM      7  C   UNL     1      23.057  18.557  56.236  1.00  0.00     0.041 C 
ATOM      8  O   UNL     1      22.966  18.092  57.403  1.00  0.00    -0.550 OA
ATOM      9  O   UNL     1      23.194  17.692  55.159  1.00  0.00    -0.550 OA
ENDBRANCH   6   7
ENDBRANCH   5   6
ENDBRANCH   4   5
ENDBRANCH   3   4
ENDBRANCH   2   3
ENDBRANCH   1   2
BRANCH   1  10
ATOM     10  C   UNL     1      26.812  22.091  58.456  1.00  0.00     0.000 C 
BRANCH  10  11
ATOM     11  C   UNL     1      26.205  22.125  59.869  1.00  0.00    -0.000 C 
BRANCH  11  12
ATOM     12  C   UNL     1      27.088  21.412  60.906  1.00  0.00    -0.000 C 
BRANCH  12  13
ATOM     13  C   UNL     1      26.616  21.656  62.350  1.00  0.00    -0.000 C 
BRANCH  13  14
ATOM     14  C   UNL     1      26.632  20.376  63.201  1.00  0.00    -0.000 C 
BRANCH  14  15
ATOM     15  C   UNL     1      25.263  20.058  63.819  1.00  0.00    -0.003 C 
ATOM     16  C   UNL     1      24.318  21.251  63.708  1.00  0.00     0.004 C 
ENDBRANCH  14  15
ENDBRANCH  13  14
ENDBRANCH  12  13
ENDBRANCH  11  12
ENDBRANCH  10  11
ENDBRANCH   1  10
TORSDOF 12
ENDMDL
MODEL 8
REMARK VINA RESULT:    -3.020      2.494      6.015
REMARK INTER + INTRA:          -6.229
REMARK INTER:                  -5.003
REMARK INTRA:                  -1.226
REMARK UNBOUND:                -1.091
REMARK SMILES CCCCCCCCCCCCCC(=O)[O-]
REMARK SMILES IDX 8 1 9 2 10 3 11 4 12 5 13 6 14 7 15 8 16 9 7 10 6 11 5 12
REMARK SMILES IDX 4 13 3 14 2 15 1 16
REMARK H PARENT
REMARK Flexibility Score: inf
ROOT
ATOM      1  C   UNL     1      26.932  21.219  59.903  1.00  0.00     0.000 C 
ENDROOT
BRANCH   1   2
ATOM      2  C   UNL     1      25.727  22.125  60.236  1.00  0.00     0.000 C 
BRANCH   2   3
ATOM      3  C   UNL     1      24.386  21.384  60.083  1.00  0.00     0.000 C 
BRANCH   3   4
ATOM      4  C   UNL     1      23.457  21.581  61.292  1.00  0.00     0.000 C 
BRANCH   4   5
ATOM      5  C   UNL     1      24.201  22.110  62.530  1.00  0.00     0.006 C 
BRANCH   5   6
ATOM      6  C   UNL     1      24.360  21.035  63.613  1.00  0.00     0.053 C 
BRANCH   6   7
ATOM      7  C   UNL     1      25.741  20.453  63.623  1.00  0.00     0.041 C 
ATOM      8  O   UNL     1      26.743  21.199  63.465  1.00  0.00    -0.550 OA
ATOM      9  O   UNL     1      25.919  19.085  63.778  1.00  0.00    -0.550 OA
ENDBRANCH   6   7
ENDBRANCH   5   6
ENDBRANCH   4   5
ENDBRANCH   3   4
ENDBRANCH   2   3
ENDBRANCH   1   2
BRANCH   1  10
ATOM     10  C   UNL     1      27.806  21.753  58.755  1.00  0.00     0.000 C 
BRANCH  10  11
ATOM     11  C   UNL     1      27.096  21.702  57.392  1.00  0.00    -0.000 C 
BRANCH  11  12
ATOM     12  C   UNL     1      26.615  20.287  57.030  1.00  0.00    -0.000 C 
BRANCH  12  13
ATOM     13  C   UNL     1      26.187  20.169  55.557  1.00  0.00    -0.000 C 
BRANCH  13  14
ATOM     14  C   UNL     1      24.890  19.363  55.382  1.00  0.00    -0.000 C 
BRANCH  14  15
ATOM     15  C   UNL     1      23.945  19.490  56.586  1.00  0.00    -0.003 C 
ATOM     16  C   UNL     1      23.124  20.774  56.507  1.00  0.00     0.004 C 
ENDBRANCH  14  15
ENDBRANCH  13  14
ENDBRANCH  12  13
ENDBRANCH  11  12
ENDBRANCH  10  11
ENDBRANCH   1  10
TORSDOF 12
ENDMDL
MODEL 9
REMARK VINA RESULT:    -2.995      2.165      3.036
REMARK INTER + INTRA:          -6.188
REMARK INTER:                  -4.934
REMARK INTRA:                  -1.254
REMARK UNBOUND:                -1.091
REMARK SMILES CCCCCCCCCCCCCC(=O)[O-]
REMARK SMILES IDX 8 1 9 2 10 3 11 4 12 5 13 6 14 7 15 8 16 9 7 10 6 11 5 12
REMARK SMILES IDX 4 13 3 14 2 15 1 16
REMARK H PARENT
REMARK Flexibility Score: inf
ROOT
ATOM      1  C   UNL     1      24.261  21.114  59.132  1.00  0.00     0.000 C 
ENDROOT
BRANCH   1   2
ATOM      2  C   UNL     1      23.035  21.434  58.250  1.00  0.00     0.000 C 
BRANCH   2   3
ATOM      3  C   UNL     1      23.379  21.408  56.749  1.00  0.00     0.000 C 
BRANCH   3   4
ATOM      4  C   UNL     1      23.559  19.982  56.206  1.00  0.00     0.000 C 
BRANCH   4   5
ATOM      5  C   UNL     1      24.604  19.905  55.080  1.00  0.00     0.006 C 
BRANCH   5   6
ATOM      6  C   UNL     1      25.684  20.986  55.218  1.00  0.00     0.053 C 
BRANCH   6   7
ATOM      7  C   UNL     1      26.975  20.422  55.728  1.00  0.00     0.041 C 
ATOM      8  O   UNL     1      26.974  19.598  56.680  1.00  0.00    -0.550 OA
ATOM      9  O   UNL     1      28.181  20.828  55.170  1.00  0.00    -0.550 OA
ENDBRANCH   6   7
ENDBRANCH   5   6
ENDBRANCH   4   5
ENDBRANCH   3   4
ENDBRANCH   2   3
ENDBRANCH   1   2
BRANCH   1  10
ATOM     10  C   UNL     1      25.411  22.124  58.978  1.00  0.00     0.000 C 
BRANCH  10  11
ATOM     11  C   UNL     1      26.758  21.575  59.478  1.00  0.00    -0.000 C 
BRANCH  11  12
ATOM     12  C   UNL     1      27.092  22.043  60.904  1.00  0.00    -0.000 C 
BRANCH  12  13
ATOM     13  C   UNL     1      26.621  21.046  61.977  1.00  0.00    -0.000 C 
BRANCH  13  14
ATOM     14  C   UNL     1      26.420  21.707  63.350  1.00  0.00    -0.000 C 
BRANCH  14  15
ATOM     15  C   UNL     1      25.000  21.514  63.900  1.00  0.00    -0.003 C 
ATOM     16  C   UNL     1      24.022  21.154  62.784  1.00  0.00     0.004 C 
ENDBRANCH  14  15
ENDBRANCH  13  14
ENDBRANCH  12  13
ENDBRANCH  11  12
ENDBRANCH  10  11
ENDBRANCH   1  10
TORSDOF 12
ENDMDL
