MODEL 1
REMARK VINA RESULT:    -5.990      0.000      0.000
REMARK INTER + INTRA:         -13.300
REMARK INTER:                 -10.892
REMARK INTRA:                  -2.408
REMARK UNBOUND:                -2.408
REMARK SMILES CCCCCCCCCCCCCCCC(=O)[O-]
REMARK SMILES IDX 9 1 10 2 11 3 12 4 13 5 14 6 15 7 16 8 17 9 18 10 8 11 7 12
REMARK SMILES IDX 6 13 5 14 4 15 3 16 2 17 1 18
REMARK H PARENT
REMARK Flexibility Score: inf
ROOT
ATOM      1  C   UNL     1       9.941  71.866  -5.811  1.00  0.00     0.000 C 
ENDROOT
BRANCH   1   2
ATOM      2  C   UNL     1       9.470  71.181  -4.520  1.00  0.00     0.000 C 
BRANCH   2   3
ATOM      3  C   UNL     1      10.297  71.595  -3.292  1.00  0.00     0.000 C 
BRANCH   3   4
ATOM      4  C   UNL     1       9.502  72.478  -2.315  1.00  0.00     0.000 C 
BRANCH   4   5
ATOM      5  C   UNL     1      10.067  73.904  -2.214  1.00  0.00     0.000 C 
BRANCH   5   6
ATOM      6  C   UNL     1       8.964  74.977  -2.175  1.00  0.00     0.006 C 
BRANCH   6   7
ATOM      7  C   UNL     1       7.586  74.405  -2.535  1.00  0.00     0.053 C 
BRANCH   7   8
ATOM      8  C   UNL     1       6.530  74.845  -1.567  1.00  0.00     0.041 C 
ATOM      9  O   UNL     1       5.331  74.501  -1.738  1.00  0.00    -0.550 OA
ATOM     10  O   UNL     1       6.866  75.659  -0.492  1.00  0.00    -0.550 OA
ENDBRANCH   7   8
ENDBRANCH   6   7
ENDBRANCH   5   6
ENDBRANCH   4   5
ENDBRANCH   3   4
ENDBRANCH   2   3
ENDBRANCH   1   2
BRANCH   1  11
ATOM     11  C   UNL     1       9.134  73.142  -6.081  1.00  0.00     0.000 C 
BRANCH  11  12
ATOM     12  C   UNL     1       9.999  74.393  -5.883  1.00  0.00    -0.000 C 
BRANCH  12  13
ATOM     13  C   UNL     1      11.472  74.096  -6.187  1.00  0.00    -0.000 C 
BRANCH  13  14
ATOM     14  C   UNL     1      12.370  74.502  -5.012  1.00  0.00    -0.000 C 
BRANCH  14  15
ATOM     15  C   UNL     1      13.147  73.293  -4.471  1.00  0.00    -0.000 C 
BRANCH  15  16
ATOM     16  C   UNL     1      14.167  73.680  -3.389  1.00  0.00    -0.000 C 
BRANCH  16  17
ATOM     17  C   UNL     1      13.918  72.960  -2.056  1.00  0.00    -0.003 C 
ATOM     18  C   UNL     1      13.518  73.948  -0.963  1.00  0.00     0.004 C 
ENDBRANCH  16  17
ENDBRANCH  15  16
ENDBRANCH  14  15
ENDBRANCH  13  14
ENDBRANCH  12  13
ENDBRANCH  11  12
ENDBRANCH   1  11
TORSDOF 14
ENDMDL
MODEL 2
REMARK VINA RESULT:    -5.885      1.193      2.765
REMARK INTER + INTRA:         -13.110
REMARK INTER:                 -10.755
REMARK INTRA:                  -2.355
REMARK UNBOUND:                -2.408
REMARK SMILES CCCCCCCCCCCCCCCC(=O)[O-]
REMARK SMILES IDX 9 1 10 2 11 3 12 4 13 5 14 6 15 7 16 8 17 9 18 10 8 11 7 12
REMARK SMILES IDX 6 13 5 14 4 15 3 16 2 17 1 18
REMARK H PARENT
REMARK Flexibility Score: inf
ROOT
ATOM      1  C   UNL     1      10.296  71.733  -4.813  1.00  0.00     0.000 C 
ENDROOT
BRANCH   1   2
ATOM      2  C   UNL     1       9.255  71.813  -5.940  1.00  0.00     0.000 C 
BRANCH   2   3
ATOM      3  C   UNL     1       8.729  73.239  -6.162  1.00  0.00     0.000 C 
BRANCH   3   4
ATOM      4  C   UNL     1       9.737  74.316  -5.725  1.00  0.00     0.000 C 
BRANCH   4   5
ATOM      5  C   UNL     1       9.272  75.089  -4.480  1.00  0.00     0.000 C 
BRANCH   5   6
ATOM      6  C   UNL     1       7.904  74.610  -3.962  1.00  0.00     0.006 C 
BRANCH   6   7
ATOM      7  C   UNL     1       7.938  74.273  -2.464  1.00  0.00     0.053 C 
BRANCH   7   8
ATOM      8  C   UNL     1       7.268  75.330  -1.640  1.00  0.00     0.041 C 
ATOM      9  O   UNL     1       6.353  75.019  -0.834  1.00  0.00    -0.550 OA
ATOM     10  O   UNL     1       7.636  76.663  -1.783  1.00  0.00    -0.550 OA
ENDBRANCH   7   8
ENDBRANCH   6   7
ENDBRANCH   5   6
ENDBRANCH   4   5
ENDBRANCH   3   4
ENDBRANCH   2   3
ENDBRANCH   1   2
BRANCH   1  11
ATOM     11  C   UNL     1       9.693  71.098  -3.553  1.00  0.00     0.000 C 
BRANCH  11  12
ATOM     12  C   UNL     1      10.476  71.509  -2.300  1.00  0.00    -0.000 C 
BRANCH  12  13
ATOM     13  C   UNL     1      11.365  72.727  -2.582  1.00  0.00    -0.000 C 
BRANCH  13  14
ATOM     14  C   UNL     1      12.746  72.562  -1.937  1.00  0.00    -0.000 C 
BRANCH  14  15
ATOM     15  C   UNL     1      13.840  73.190  -2.813  1.00  0.00    -0.000 C 
BRANCH  15  16
ATOM     16  C   UNL     1      13.318  73.622  -4.192  1.00  0.00    -0.000 C 
BRANCH  16  17
ATOM     17  C   UNL     1      13.612  75.098  -4.500  1.00  0.00    -0.003 C 
ATOM     18  C   UNL     1      12.785  76.021  -3.610  1.00  0.00     0.004 C 
ENDBRANCH  16  17
ENDBRANCH  15  16
ENDBRANCH  14  15
ENDBRANCH  13  14
ENDBRANCH  12  13
ENDBRANCH  11  12
ENDBRANCH   1  11
TORSDOF 14
ENDMDL
MODEL 3
REMARK VINA RESULT:    -5.876      1.112      2.660
REMARK INTER + INTRA:         -13.094
REMARK INTER:                 -10.961
REMARK INTRA:                  -2.132
REMARK UNBOUND:                -2.408
REMARK SMILES CCCCCCCCCCCCCCCC(=O)[O-]
REMARK SMILES IDX 9 1 10 2 11 3 12 4 13 5 14 6 15 7 16 8 17 9 18 10 8 11 7 12
REMARK SMILES IDX 6 13 5 14 4 15 3 16 2 17 1 18
REMARK H PARENT
REMARK Flexibility Score: inf
ROOT
ATOM      1  C   UNL     1       9.274  71.744  -5.907  1.00  0.00     0.000 C 
ENDROOT
BRANCH   1   2
ATOM      2  C   UNL     1       8.744  73.166  -6.142  1.00  0.00     0.000 C 
BRANCH   2   3
ATOM      3  C   UNL     1       9.717  74.252  -5.656  1.00  0.00     0.000 C 
BRANCH   3   4
ATOM      4  C   UNL     1       9.072  75.213  -4.643  1.00  0.00     0.000 C 
BRANCH   4   5
ATOM      5  C   UNL     1       7.801  74.631  -4.003  1.00  0.00     0.000 C 
BRANCH   5   6
ATOM      6  C   UNL     1       7.966  74.362  -2.497  1.00  0.00     0.006 C 
BRANCH   6   7
ATOM      7  C   UNL     1       7.366  75.485  -1.639  1.00  0.00     0.053 C 
BRANCH   7   8
ATOM      8  C   UNL     1       6.169  75.019  -0.868  1.00  0.00     0.041 C 
ATOM      9  O   UNL     1       5.578  73.957  -1.196  1.00  0.00    -0.550 OA
ATOM     10  O   UNL     1       5.688  75.774   0.195  1.00  0.00    -0.550 OA
ENDBRANCH   7   8
ENDBRANCH   6   7
ENDBRANCH   5   6
ENDBRANCH   4   5
ENDBRANCH   3   4
ENDBRANCH   2   3
ENDBRANCH   1   2
BRANCH   1  11
ATOM     11  C   UNL     1      10.348  71.733  -4.811  1.00  0.00     0.000 C 
BRANCH  11  12
ATOM     12  C   UNL     1       9.783  71.191  -3.492  1.00  0.00    -0.000 C 
BRANCH  12  13
ATOM     13  C   UNL     1      10.650  71.622  -2.304  1.00  0.00    -0.000 C 
BRANCH  13  14
ATOM     14  C   UNL     1      11.438  72.897  -2.630  1.00  0.00    -0.000 C 
BRANCH  14  15
ATOM     15  C   UNL     1      12.862  72.823  -2.061  1.00  0.00    -0.000 C 
BRANCH  15  16
ATOM     16  C   UNL     1      13.932  73.216  -3.092  1.00  0.00    -0.000 C 
BRANCH  16  17
ATOM     17  C   UNL     1      13.334  73.882  -4.341  1.00  0.00    -0.003 C 
ATOM     18  C   UNL     1      13.527  75.395  -4.303  1.00  0.00     0.004 C 
ENDBRANCH  16  17
ENDBRANCH  15  16
ENDBRANCH  14  15
ENDBRANCH  13  14
ENDBRANCH  12  13
ENDBRANCH  11  12
ENDBRANCH   1  11
TORSDOF 14
ENDMDL
MODEL 4
REMARK VINA RESULT:    -5.846      0.865      1.795
REMARK INTER + INTRA:         -13.039
REMARK INTER:                 -10.911
REMARK INTRA:                  -2.128
REMARK UNBOUND:                -2.408
REMARK SMILES CCCCCCCCCCCCCCCC(=O)[O-]
REMARK SMILES IDX 9 1 10 2 11 3 12 4 13 5 14 6 15 7 16 8 17 9 18 10 8 11 7 12
REMARK SMILES IDX 6 13 5 14 4 15 3 16 2 17 1 18
REMARK H PARENT
REMARK Flexibility Score: inf
ROOT
ATOM      1  C   UNL     1      10.100  71.388  -3.430  1.00  0.00     0.000 C 
ENDROOT
BRANCH   1   2
ATOM      2  C   UNL     1       9.276  72.221  -2.436  1.00  0.00     0.000 C 
BRANCH   2   3
ATOM      3  C   UNL     1      10.016  73.481  -1.960  1.00  0.00     0.000 C 
BRANCH   3   4
ATOM      4  C   UNL     1       9.371  74.777  -2.483  1.00  0.00     0.000 C 
BRANCH   4   5
ATOM      5  C   UNL     1       8.136  74.510  -3.358  1.00  0.00     0.000 C 
BRANCH   5   6
ATOM      6  C   UNL     1       6.905  75.314  -2.906  1.00  0.00     0.006 C 
BRANCH   6   7
ATOM      7  C   UNL     1       6.856  75.492  -1.382  1.00  0.00     0.053 C 
BRANCH   7   8
ATOM      8  C   UNL     1       5.622  74.883  -0.789  1.00  0.00     0.041 C 
ATOM      9  O   UNL     1       4.927  74.077  -1.461  1.00  0.00    -0.550 OA
ATOM     10  O   UNL     1       5.223  75.231   0.497  1.00  0.00    -0.550 OA
ENDBRANCH   7   8
ENDBRANCH   6   7
ENDBRANCH   5   6
ENDBRANCH   4   5
ENDBRANCH   3   4
ENDBRANCH   2   3
ENDBRANCH   1   2
BRANCH   1  11
ATOM     11  C   UNL     1       9.444  71.381  -4.816  1.00  0.00     0.000 C 
BRANCH  11  12
ATOM     12  C   UNL     1      10.390  71.957  -5.877  1.00  0.00    -0.000 C 
BRANCH  12  13
ATOM     13  C   UNL     1      10.355  73.490  -5.871  1.00  0.00    -0.000 C 
BRANCH  13  14
ATOM     14  C   UNL     1      11.770  74.074  -5.972  1.00  0.00    -0.000 C 
BRANCH  14  15
ATOM     15  C   UNL     1      12.761  73.264  -5.123  1.00  0.00    -0.000 C 
BRANCH  15  16
ATOM     16  C   UNL     1      13.185  74.001  -3.843  1.00  0.00    -0.000 C 
BRANCH  16  17
ATOM     17  C   UNL     1      13.836  73.068  -2.811  1.00  0.00    -0.003 C 
ATOM     18  C   UNL     1      13.591  73.565  -1.389  1.00  0.00     0.004 C 
ENDBRANCH  16  17
ENDBRANCH  15  16
ENDBRANCH  14  15
ENDBRANCH  13  14
ENDBRANCH  12  13
ENDBRANCH  11  12
ENDBRANCH   1  11
TORSDOF 14
ENDMDL
MODEL 5
REMARK VINA RESULT:    -5.744      2.563      5.215
REMARK INTER + INTRA:         -12.853
REMARK INTER:                 -10.430
REMARK INTRA:                  -2.424
REMARK UNBOUND:                -2.408
REMARK SMILES CCCCCCCCCCCCCCCC(=O)[O-]
REMARK SMILES IDX 9 1 10 2 11 3 12 4 13 5 14 6 15 7 16 8 17 9 18 10 8 11 7 12
REMARK SMILES IDX 6 13 5 14 4 15 3 16 2 17 1 18
REMARK H PARENT
REMARK Flexibility Score: inf
ROOT
ATOM      1  C   UNL     1       8.732  72.891  -5.932  1.00  0.00     0.000 C 
ENDROOT
BRANCH   1   2
ATOM      2  C   UNL     1       9.494  74.166  -6.324  1.00  0.00     0.000 C 
BRANCH   2   3
ATOM      3  C   UNL     1      10.681  74.458  -5.392  1.00  0.00     0.000 C 
BRANCH   3   4
ATOM      4  C   UNL     1      12.036  74.129  -6.042  1.00  0.00     0.000 C 
BRANCH   4   5
ATOM      5  C   UNL     1      12.979  73.374  -5.091  1.00  0.00     0.000 C 
BRANCH   5   6
ATOM      6  C   UNL     1      13.344  74.195  -3.842  1.00  0.00     0.006 C 
BRANCH   6   7
ATOM      7  C   UNL     1      13.959  75.555  -4.202  1.00  0.00     0.053 C 
BRANCH   7   8
ATOM      8  C   UNL     1      13.381  76.664  -3.376  1.00  0.00     0.041 C 
ATOM      9  O   UNL     1      12.139  76.732  -3.186  1.00  0.00    -0.550 OA
ATOM     10  O   UNL     1      14.214  77.639  -2.839  1.00  0.00    -0.550 OA
ENDBRANCH   7   8
ENDBRANCH   6   7
ENDBRANCH   5   6
ENDBRANCH   4   5
ENDBRANCH   3   4
ENDBRANCH   2   3
ENDBRANCH   1   2
BRANCH   1  11
ATOM     11  C   UNL     1       9.700  71.725  -5.692  1.00  0.00     0.000 C 
BRANCH  11  12
ATOM     12  C   UNL     1       9.433  71.058  -4.337  1.00  0.00    -0.000 C 
BRANCH  12  13
ATOM     13  C   UNL     1      10.375  71.607  -3.259  1.00  0.00    -0.000 C 
BRANCH  13  14
ATOM     14  C   UNL     1       9.587  72.289  -2.133  1.00  0.00    -0.000 C 
BRANCH  14  15
ATOM     15  C   UNL     1      10.183  73.664  -1.800  1.00  0.00    -0.000 C 
BRANCH  15  16
ATOM     16  C   UNL     1       9.226  74.820  -2.133  1.00  0.00    -0.000 C 
BRANCH  16  17
ATOM     17  C   UNL     1       7.855  74.330  -2.623  1.00  0.00    -0.003 C 
ATOM     18  C   UNL     1       7.138  75.412  -3.425  1.00  0.00     0.004 C 
ENDBRANCH  16  17
ENDBRANCH  15  16
ENDBRANCH  14  15
ENDBRANCH  13  14
ENDBRANCH  12  13
ENDBRANCH  11  12
ENDBRANCH   1  11
TORSDOF 14
ENDMDL
MODEL 6
REMARK VINA RESULT:    -5.661      2.585      5.219
REMARK INTER + INTRA:         -12.703
REMARK INTER:                 -10.113
REMARK INTRA:                  -2.590
REMARK UNBOUND:                -2.408
REMARK SMILES CCCCCCCCCCCCCCCC(=O)[O-]
REMARK SMILES IDX 9 1 10 2 11 3 12 4 13 5 14 6 15 7 16 8 17 9 18 10 8 11 7 12
REMARK SMILES IDX 6 13 5 14 4 15 3 16 2 17 1 18
REMARK H PARENT
REMARK Flexibility Score: inf
ROOT
ATOM      1  C   UNL     1       9.209  73.200  -5.971  1.00  0.00     0.000 C 
ENDROOT
BRANCH   1   2
ATOM      2  C   UNL     1      10.236  74.312  -6.234  1.00  0.00     0.000 C 
BRANCH   2   3
ATOM      3  C   UNL     1      11.672  73.888  -5.889  1.00  0.00     0.000 C 
BRANCH   3   4
ATOM      4  C   UNL     1      12.528  75.061  -5.381  1.00  0.00     0.000 C 
BRANCH   4   5
ATOM      5  C   UNL     1      13.230  74.746  -4.050  1.00  0.00     0.000 C 
BRANCH   5   6
ATOM      6  C   UNL     1      13.519  73.246  -3.872  1.00  0.00     0.006 C 
BRANCH   6   7
ATOM      7  C   UNL     1      14.357  72.962  -2.618  1.00  0.00     0.053 C 
BRANCH   7   8
ATOM      8  C   UNL     1      13.519  72.957  -1.376  1.00  0.00     0.041 C 
ATOM      9  O   UNL     1      12.915  71.911  -1.022  1.00  0.00    -0.550 OA
ATOM     10  O   UNL     1      13.381  74.119  -0.625  1.00  0.00    -0.550 OA
ENDBRANCH   7   8
ENDBRANCH   6   7
ENDBRANCH   5   6
ENDBRANCH   4   5
ENDBRANCH   3   4
ENDBRANCH   2   3
ENDBRANCH   1   2
BRANCH   1  11
ATOM     11  C   UNL     1       9.906  71.851  -5.751  1.00  0.00     0.000 C 
BRANCH  11  12
ATOM     12  C   UNL     1       9.419  71.184  -4.458  1.00  0.00    -0.000 C 
BRANCH  12  13
ATOM     13  C   UNL     1      10.298  71.584  -3.267  1.00  0.00    -0.000 C 
BRANCH  13  14
ATOM     14  C   UNL     1       9.531  72.491  -2.296  1.00  0.00    -0.000 C 
BRANCH  14  15
ATOM     15  C   UNL     1      10.057  73.932  -2.358  1.00  0.00    -0.000 C 
BRANCH  15  16
ATOM     16  C   UNL     1       8.981  74.971  -2.005  1.00  0.00    -0.000 C 
BRANCH  16  17
ATOM     17  C   UNL     1       8.449  75.714  -3.239  1.00  0.00    -0.003 C 
ATOM     18  C   UNL     1       7.060  75.215  -3.626  1.00  0.00     0.004 C 
ENDBRANCH  16  17
ENDBRANCH  15  16
ENDBRANCH  14  15
ENDBRANCH  13  14
ENDBRANCH  12  13
ENDBRANCH  11  12
ENDBRANCH   1  11
TORSDOF 14
ENDMDL
MODEL 7
REMARK VINA RESULT:    -5.633      2.861      5.010
REMARK INTER + INTRA:         -12.650
REMARK INTER:                 -10.640
REMARK INTRA:                  -2.011
REMARK UNBOUND:                -2.408
REMARK SMILES CCCCCCCCCCCCCCCC(=O)[O-]
REMARK SMILES IDX 9 1 10 2 11 3 12 4 13 5 14 6 15 7 16 8 17 9 18 10 8 11 7 12
REMARK SMILES IDX 6 13 5 14 4 15 3 16 2 17 1 18
REMARK H PARENT
REMARK Flexibility Score: inf
ROOT
ATOM      1  C   UNL     1       9.538  71.929  -3.401  1.00  0.00     0.000 C 
ENDROOT
BRANCH   1   2
ATOM      2  C   UNL     1      10.058  70.983  -2.308  1.00  0.00     0.000 C 
BRANCH   2   3
ATOM      3  C   UNL     1      11.252  71.567  -1.537  1.00  0.00     0.000 C 
BRANCH   3   4
ATOM      4  C   UNL     1      11.688  72.941  -2.074  1.00  0.00     0.000 C 
BRANCH   4   5
ATOM      5  C   UNL     1      13.197  73.184  -1.918  1.00  0.00     0.000 C 
BRANCH   5   6
ATOM      6  C   UNL     1      13.935  73.214  -3.269  1.00  0.00     0.006 C 
BRANCH   6   7
ATOM      7  C   UNL     1      12.966  73.213  -4.459  1.00  0.00     0.053 C 
BRANCH   7   8
ATOM      8  C   UNL     1      12.954  74.533  -5.169  1.00  0.00     0.041 C 
ATOM      9  O   UNL     1      12.271  74.683  -6.216  1.00  0.00    -0.550 OA
ATOM     10  O   UNL     1      13.720  75.589  -4.689  1.00  0.00    -0.550 OA
ENDBRANCH   7   8
ENDBRANCH   6   7
ENDBRANCH   5   6
ENDBRANCH   4   5
ENDBRANCH   3   4
ENDBRANCH   2   3
ENDBRANCH   1   2
BRANCH   1  11
ATOM     11  C   UNL     1       9.501  71.225  -4.764  1.00  0.00     0.000 C 
BRANCH  11  12
ATOM     12  C   UNL     1       9.801  72.210  -5.900  1.00  0.00    -0.000 C 
BRANCH  12  13
ATOM     13  C   UNL     1       8.579  73.083  -6.208  1.00  0.00    -0.000 C 
BRANCH  13  14
ATOM     14  C   UNL     1       8.943  74.572  -6.176  1.00  0.00    -0.000 C 
BRANCH  14  15
ATOM     15  C   UNL     1       8.870  75.125  -4.745  1.00  0.00    -0.000 C 
BRANCH  15  16
ATOM     16  C   UNL     1       7.486  74.931  -4.106  1.00  0.00    -0.000 C 
BRANCH  16  17
ATOM     17  C   UNL     1       7.522  75.032  -2.574  1.00  0.00    -0.003 C 
ATOM     18  C   UNL     1       8.935  75.322  -2.075  1.00  0.00     0.004 C 
ENDBRANCH  16  17
ENDBRANCH  15  16
ENDBRANCH  14  15
ENDBRANCH  13  14
ENDBRANCH  12  13
ENDBRANCH  11  12
ENDBRANCH   1  11
TORSDOF 14
ENDMDL
MODEL 8
REMARK VINA RESULT:    -5.616      1.466      2.091
REMARK INTER + INTRA:         -12.620
REMARK INTER:                 -10.049
REMARK INTRA:                  -2.571
REMARK UNBOUND:                -2.408
REMARK SMILES CCCCCCCCCCCCCCCC(=O)[O-]
REMARK SMILES IDX 9 1 10 2 11 3 12 4 13 5 14 6 15 7 16 8 17 9 18 10 8 11 7 12
REMARK SMILES IDX 6 13 5 14 4 15 3 16 2 17 1 18
REMARK H PARENT
REMARK Flexibility Score: inf
ROOT
ATOM      1  C   UNL     1       9.460  71.297  -4.393  1.00  0.00     0.000 C 
ENDROOT
BRANCH   1   2
ATOM      2  C   UNL     1      10.552  71.602  -3.356  1.00  0.00     0.000 C 
BRANCH   2   3
ATOM      3  C   UNL     1       9.993  72.244  -2.077  1.00  0.00     0.000 C 
BRANCH   3   4
ATOM      4  C   UNL     1       8.748  73.108  -2.345  1.00  0.00     0.000 C 
BRANCH   4   5
ATOM      5  C   UNL     1       9.103  74.558  -2.710  1.00  0.00     0.000 C 
BRANCH   5   6
ATOM      6  C   UNL     1      10.232  75.130  -1.835  1.00  0.00     0.006 C 
BRANCH   6   7
ATOM      7  C   UNL     1      10.246  76.665  -1.839  1.00  0.00     0.053 C 
BRANCH   7   8
ATOM      8  C   UNL     1       8.916  77.236  -1.451  1.00  0.00     0.041 C 
ATOM      9  O   UNL     1       8.266  77.940  -2.267  1.00  0.00    -0.550 OA
ATOM     10  O   UNL     1       8.408  77.013  -0.176  1.00  0.00    -0.550 OA
ENDBRANCH   7   8
ENDBRANCH   6   7
ENDBRANCH   5   6
ENDBRANCH   4   5
ENDBRANCH   3   4
ENDBRANCH   2   3
ENDBRANCH   1   2
BRANCH   1  11
ATOM     11  C   UNL     1       9.859  71.820  -5.779  1.00  0.00     0.000 C 
BRANCH  11  12
ATOM     12  C   UNL     1       9.083  73.096  -6.130  1.00  0.00    -0.000 C 
BRANCH  12  13
ATOM     13  C   UNL     1      10.005  74.322  -6.114  1.00  0.00    -0.000 C 
BRANCH  13  14
ATOM     14  C   UNL     1      11.480  73.902  -6.109  1.00  0.00    -0.000 C 
BRANCH  14  15
ATOM     15  C   UNL     1      12.242  74.585  -4.963  1.00  0.00    -0.000 C 
BRANCH  15  16
ATOM     16  C   UNL     1      13.229  73.639  -4.262  1.00  0.00    -0.000 C 
BRANCH  16  17
ATOM     17  C   UNL     1      13.581  74.100  -2.840  1.00  0.00    -0.003 C 
ATOM     18  C   UNL     1      13.825  72.908  -1.919  1.00  0.00     0.004 C 
ENDBRANCH  16  17
ENDBRANCH  15  16
ENDBRANCH  14  15
ENDBRANCH  13  14
ENDBRANCH  12  13
ENDBRANCH  11  12
ENDBRANCH   1  11
TORSDOF 14
ENDMDL
MODEL 9
REMARK VINA RESULT:    -5.566      0.940      3.703
REMARK INTER + INTRA:         -12.530
REMARK INTER:                 -10.467
REMARK INTRA:                  -2.063
REMARK UNBOUND:                -2.408
REMARK SMILES CCCCCCCCCCCCCCCC(=O)[O-]
REMARK SMILES IDX 9 1 10 2 11 3 12 4 13 5 14 6 15 7 16 8 17 9 18 10 8 11 7 12
REMARK SMILES IDX 6 13 5 14 4 15 3 16 2 17 1 18
REMARK H PARENT
REMARK Flexibility Score: inf
ROOT
ATOM      1  C   UNL     1      13.642  73.396  -1.859  1.00  0.00     0.000 C 
ENDROOT
BRANCH   1   2
ATOM      2  C   UNL     1      12.700  72.263  -1.426  1.00  0.00     0.000 C 
BRANCH   2   3
ATOM      3  C   UNL     1      11.387  72.244  -2.225  1.00  0.00     0.000 C 
BRANCH   3   4
ATOM      4  C   UNL     1      10.372  73.283  -1.717  1.00  0.00     0.000 C 
BRANCH   4   5
ATOM      5  C   UNL     1       9.102  73.339  -2.582  1.00  0.00     0.000 C 
BRANCH   5   6
ATOM      6  C   UNL     1       8.573  74.772  -2.764  1.00  0.00     0.006 C 
BRANCH   6   7
ATOM      7  C   UNL     1       7.058  74.803  -3.008  1.00  0.00     0.053 C 
BRANCH   7   8
ATOM      8  C   UNL     1       6.288  74.877  -1.724  1.00  0.00     0.041 C 
ATOM      9  O   UNL     1       6.836  75.318  -0.681  1.00  0.00    -0.550 OA
ATOM     10  O   UNL     1       4.972  74.431  -1.674  1.00  0.00    -0.550 OA
ENDBRANCH   7   8
ENDBRANCH   6   7
ENDBRANCH   5   6
ENDBRANCH   4   5
ENDBRANCH   3   4
ENDBRANCH   2   3
ENDBRANCH   1   2
BRANCH   1  11
ATOM     11  C   UNL     1      13.895  73.351  -3.372  1.00  0.00     0.000 C 
BRANCH  11  12
ATOM     12  C   UNL     1      14.019  74.765  -3.952  1.00  0.00    -0.000 C 
BRANCH  12  13
ATOM     13  C   UNL     1      12.884  75.055  -4.941  1.00  0.00    -0.000 C 
BRANCH  13  14
ATOM     14  C   UNL     1      12.552  73.813  -5.778  1.00  0.00    -0.000 C 
BRANCH  14  15
ATOM     15  C   UNL     1      11.034  73.593  -5.856  1.00  0.00    -0.000 C 
BRANCH  15  16
ATOM     16  C   UNL     1      10.645  72.110  -5.749  1.00  0.00    -0.000 C 
BRANCH  16  17
ATOM     17  C   UNL     1       9.135  71.881  -5.915  1.00  0.00    -0.003 C 
ATOM     18  C   UNL     1       8.417  73.181  -6.267  1.00  0.00     0.004 C 
ENDBRANCH  16  17
ENDBRANCH  15  16
ENDBRANCH  14  15
ENDBRANCH  13  14
ENDBRANCH  12  13
ENDBRANCH  11  12
ENDBRANCH   1  11
TORSDOF 14
ENDMDL
