MODEL 1
REMARK VINA RESULT:    -6.383      0.000      0.000
REMARK INTER + INTRA:          -7.171
REMARK INTER:                  -6.942
REMARK INTRA:                  -0.228
REMARK UNBOUND:                -0.228
REMARK SMILES CC1(C)CC[C@]2(C(=O)[O-])CC[C@]3(C)C(=CC[C@@H]4[C@@]5(C)CC[C@@H](O)C(C)(C)[C@H]5CC[C@@]43C)[C@@H]2C1
REMARK SMILES IDX 6 1 5 2 10 3 32 4 4 5 11 6 14 7 33 8 2 9 12 10 15 11 1 12
REMARK SMILES IDX 3 13 13 14 30 15 16 16 17 17 29 18 31 19 18 20 28 21 27 22
REMARK SMILES IDX 20 23 19 24 24 25 21 26 22 27 25 28 26 29 7 30 8 31 9 32
REMARK SMILES IDX 23 33
REMARK H PARENT 23 34
REMARK Flexibility Score: inf
ROOT
ATOM      1  C   UNL     1       9.802 -10.071  10.506  1.00  0.00     0.017 C 
ATOM      2  C   UNL     1       9.052  -9.078   9.576  1.00  0.00     0.014 C 
ATOM      3  C   UNL     1       9.440  -9.808  11.984  1.00  0.00     0.014 C 
ATOM      4  C   UNL     1      11.347  -9.931  10.342  1.00  0.00     0.028 C 
ATOM      5  C   UNL     1       9.560  -7.633   9.656  1.00  0.00     0.007 C 
ATOM      6  C   UNL     1      10.058 -10.854  12.920  1.00  0.00     0.013 C 
ATOM      7  C   UNL     1      12.129 -10.744  11.378  1.00  0.00    -0.064 C 
ATOM      8  C   UNL     1      11.838  -8.458  10.376  1.00  0.00     0.015 C 
ATOM      9  C   UNL     1      11.082  -7.517   9.408  1.00  0.00    -0.035 C 
ATOM     10  C   UNL     1      11.623 -11.041  12.795  1.00  0.00    -0.006 C 
ATOM     11  C   UNL     1      13.386 -11.086  11.063  1.00  0.00    -0.027 C 
ATOM     12  C   UNL     1      11.434  -7.835   7.934  1.00  0.00     0.011 C 
ATOM     13  C   UNL     1      11.516  -6.062   9.692  1.00  0.00     0.011 C 
ATOM     14  C   UNL     1      12.253  -9.970  13.741  1.00  0.00     0.017 C 
ATOM     15  C   UNL     1      12.096 -12.532  13.210  1.00  0.00    -0.020 C 
ATOM     16  C   UNL     1      14.324 -11.767  12.015  1.00  0.00     0.032 C 
ATOM     17  C   UNL     1      13.682 -12.683  13.131  1.00  0.00     0.006 C 
ATOM     18  C   UNL     1      11.455 -13.635  12.285  1.00  0.00     0.008 C 
ATOM     19  C   UNL     1      11.609 -12.769  14.681  1.00  0.00     0.012 C 
ATOM     20  C   UNL     1      14.244 -14.187  13.036  1.00  0.00    -0.025 C 
ATOM     21  C   UNL     1      12.376 -14.243  11.208  1.00  0.00     0.005 C 
ATOM     22  C   UNL     1      13.726 -14.868  11.707  1.00  0.00     0.003 C 
ATOM     23  C   UNL     1      13.893 -15.058  14.309  1.00  0.00     0.010 C 
ATOM     24  C   UNL     1      15.821 -14.081  13.022  1.00  0.00     0.012 C 
ATOM     25  C   UNL     1      13.740 -16.452  11.737  1.00  0.00    -0.006 C 
ATOM     26  C   UNL     1      12.846 -16.199  14.176  1.00  0.00     0.033 C 
ATOM     27  C   UNL     1      12.778 -16.982  12.838  1.00  0.00     0.120 C 
ATOM     28  C   UNL     1      15.169 -17.002  12.017  1.00  0.00     0.014 C 
ATOM     29  C   UNL     1      13.365 -17.043  10.341  1.00  0.00     0.014 C 
ENDROOT
BRANCH   1  30
ATOM     30  C   UNL     1       9.327 -11.461  10.097  1.00  0.00     0.048 C 
ATOM     31  O   UNL     1      10.031 -12.200   9.356  1.00  0.00    -0.550 OA
ATOM     32  O   UNL     1       8.054 -11.894  10.454  1.00  0.00    -0.550 OA
ENDBRANCH   1  30
BRANCH  27  33
ATOM     33  O   UNL     1      11.444 -16.966  12.384  1.00  0.00    -0.393 OA
ATOM     34  H   UNL     1      11.459 -16.792  11.405  1.00  0.00     0.210 HD
ENDBRANCH  27  33
TORSDOF 2
ENDMDL
MODEL 2
REMARK VINA RESULT:    -6.131      3.775      7.701
REMARK INTER + INTRA:          -6.897
REMARK INTER:                  -6.708
REMARK INTRA:                  -0.190
REMARK UNBOUND:                -0.228
REMARK SMILES CC1(C)CC[C@]2(C(=O)[O-])CC[C@]3(C)C(=CC[C@@H]4[C@@]5(C)CC[C@@H](O)C(C)(C)[C@H]5CC[C@@]43C)[C@@H]2C1
REMARK SMILES IDX 6 1 5 2 10 3 32 4 4 5 11 6 14 7 33 8 2 9 12 10 15 11 1 12
REMARK SMILES IDX 3 13 13 14 30 15 16 16 17 17 29 18 31 19 18 20 28 21 27 22
REMARK SMILES IDX 20 23 19 24 24 25 21 26 22 27 25 28 26 29 7 30 8 31 9 32
REMARK SMILES IDX 23 33
REMARK H PARENT 23 34
REMARK Flexibility Score: inf
ROOT
ATOM      1  C   UNL     1      11.926 -14.946  11.303  1.00  0.00     0.017 C 
ATOM      2  C   UNL     1      12.880 -14.750  12.514  1.00  0.00     0.014 C 
ATOM      3  C   UNL     1      12.137 -16.337  10.665  1.00  0.00     0.014 C 
ATOM      4  C   UNL     1      12.175 -13.858  10.214  1.00  0.00     0.028 C 
ATOM      5  C   UNL     1      14.355 -14.577  12.132  1.00  0.00     0.007 C 
ATOM      6  C   UNL     1      11.121 -16.616   9.551  1.00  0.00     0.013 C 
ATOM      7  C   UNL     1      11.402 -14.126   8.920  1.00  0.00    -0.064 C 
ATOM      8  C   UNL     1      13.678 -13.660   9.876  1.00  0.00     0.015 C 
ATOM      9  C   UNL     1      14.581 -13.436  11.113  1.00  0.00    -0.035 C 
ATOM     10  C   UNL     1      11.046 -15.527   8.407  1.00  0.00    -0.006 C 
ATOM     11  C   UNL     1      11.154 -13.073   8.128  1.00  0.00    -0.027 C 
ATOM     12  C   UNL     1      14.313 -12.052  11.753  1.00  0.00     0.011 C 
ATOM     13  C   UNL     1      16.057 -13.467  10.660  1.00  0.00     0.011 C 
ATOM     14  C   UNL     1      12.143 -15.928   7.370  1.00  0.00     0.017 C 
ATOM     15  C   UNL     1       9.585 -15.467   7.715  1.00  0.00    -0.020 C 
ATOM     16  C   UNL     1      10.524 -13.186   6.771  1.00  0.00     0.032 C 
ATOM     17  C   UNL     1       9.546 -14.403   6.527  1.00  0.00     0.006 C 
ATOM     18  C   UNL     1       8.456 -15.088   8.745  1.00  0.00     0.008 C 
ATOM     19  C   UNL     1       9.289 -16.902   7.156  1.00  0.00     0.012 C 
ATOM     20  C   UNL     1       8.087 -13.891   6.085  1.00  0.00    -0.025 C 
ATOM     21  C   UNL     1       7.932 -13.639   8.683  1.00  0.00     0.005 C 
ATOM     22  C   UNL     1       7.394 -13.145   7.294  1.00  0.00     0.003 C 
ATOM     23  C   UNL     1       7.173 -15.050   5.518  1.00  0.00     0.010 C 
ATOM     24  C   UNL     1       8.303 -12.897   4.875  1.00  0.00     0.012 C 
ATOM     25  C   UNL     1       5.815 -13.069   7.195  1.00  0.00    -0.006 C 
ATOM     26  C   UNL     1       5.963 -15.538   6.364  1.00  0.00     0.033 C 
ATOM     27  C   UNL     1       5.200 -14.496   7.226  1.00  0.00     0.120 C 
ATOM     28  C   UNL     1       5.361 -12.358   5.886  1.00  0.00     0.014 C 
ATOM     29  C   UNL     1       5.223 -12.185   8.339  1.00  0.00     0.014 C 
ENDROOT
BRANCH   1  30
ATOM     30  C   UNL     1      10.513 -14.847  11.869  1.00  0.00     0.048 C 
ATOM     31  O   UNL     1       9.791 -13.836  11.649  1.00  0.00    -0.550 OA
ATOM     32  O   UNL     1      10.037 -15.832  12.728  1.00  0.00    -0.550 OA
ENDBRANCH   1  30
BRANCH  27  33
ATOM     33  O   UNL     1       5.131 -14.982   8.547  1.00  0.00    -0.393 OA
ATOM     34  H   UNL     1       4.192 -15.260   8.718  1.00  0.00     0.210 HD
ENDBRANCH  27  33
TORSDOF 2
ENDMDL
MODEL 3
REMARK VINA RESULT:    -6.023      3.150      6.606
REMARK INTER + INTRA:          -6.780
REMARK INTER:                  -6.551
REMARK INTRA:                  -0.228
REMARK UNBOUND:                -0.228
REMARK SMILES CC1(C)CC[C@]2(C(=O)[O-])CC[C@]3(C)C(=CC[C@@H]4[C@@]5(C)CC[C@@H](O)C(C)(C)[C@H]5CC[C@@]43C)[C@@H]2C1
REMARK SMILES IDX 6 1 5 2 10 3 32 4 4 5 11 6 14 7 33 8 2 9 12 10 15 11 1 12
REMARK SMILES IDX 3 13 13 14 30 15 16 16 17 17 29 18 31 19 18 20 28 21 27 22
REMARK SMILES IDX 20 23 19 24 24 25 21 26 22 27 25 28 26 29 7 30 8 31 9 32
REMARK SMILES IDX 23 33
REMARK H PARENT 23 34
REMARK Flexibility Score: inf
ROOT
ATOM      1  C   UNL     1      12.363 -14.930   6.884  1.00  0.00     0.017 C 
ATOM      2  C   UNL     1      11.987 -15.183   5.397  1.00  0.00     0.014 C 
ATOM      3  C   UNL     1      13.784 -15.458   7.181  1.00  0.00     0.014 C 
ATOM      4  C   UNL     1      11.359 -15.641   7.842  1.00  0.00     0.028 C 
ATOM      5  C   UNL     1      11.733 -16.656   5.054  1.00  0.00     0.007 C 
ATOM      6  C   UNL     1      14.240 -15.106   8.603  1.00  0.00     0.013 C 
ATOM      7  C   UNL     1      11.801 -15.589   9.308  1.00  0.00    -0.064 C 
ATOM      8  C   UNL     1      11.075 -17.116   7.450  1.00  0.00     0.015 C 
ATOM      9  C   UNL     1      10.673 -17.312   5.968  1.00  0.00    -0.035 C 
ATOM     10  C   UNL     1      13.265 -15.559   9.763  1.00  0.00    -0.006 C 
ATOM     11  C   UNL     1      10.844 -15.722  10.238  1.00  0.00    -0.027 C 
ATOM     12  C   UNL     1       9.263 -16.733   5.695  1.00  0.00     0.011 C 
ATOM     13  C   UNL     1      10.628 -18.824   5.662  1.00  0.00     0.011 C 
ATOM     14  C   UNL     1      13.669 -17.028  10.105  1.00  0.00     0.017 C 
ATOM     15  C   UNL     1      13.381 -14.606  11.065  1.00  0.00    -0.020 C 
ATOM     16  C   UNL     1      11.125 -15.821  11.708  1.00  0.00     0.032 C 
ATOM     17  C   UNL     1      12.432 -15.112  12.243  1.00  0.00     0.006 C 
ATOM     18  C   UNL     1      13.001 -13.112  10.742  1.00  0.00     0.008 C 
ATOM     19  C   UNL     1      14.879 -14.652  11.529  1.00  0.00     0.012 C 
ATOM     20  C   UNL     1      12.077 -14.029  13.378  1.00  0.00    -0.025 C 
ATOM     21  C   UNL     1      11.609 -12.643  11.212  1.00  0.00     0.005 C 
ATOM     22  C   UNL     1      11.283 -12.822  12.736  1.00  0.00     0.003 C 
ATOM     23  C   UNL     1      13.350 -13.529  14.173  1.00  0.00     0.010 C 
ATOM     24  C   UNL     1      11.180 -14.772  14.448  1.00  0.00     0.012 C 
ATOM     25  C   UNL     1      11.340 -11.482  13.577  1.00  0.00    -0.006 C 
ATOM     26  C   UNL     1      13.854 -12.075  13.949  1.00  0.00     0.033 C 
ATOM     27  C   UNL     1      12.803 -10.966  13.677  1.00  0.00     0.120 C 
ATOM     28  C   UNL     1      10.785 -11.691  15.017  1.00  0.00     0.014 C 
ATOM     29  C   UNL     1      10.408 -10.392  12.960  1.00  0.00     0.014 C 
ENDROOT
BRANCH   1  30
ATOM     30  C   UNL     1      12.325 -13.416   7.069  1.00  0.00     0.048 C 
ATOM     31  O   UNL     1      11.335 -12.849   7.606  1.00  0.00    -0.550 OA
ATOM     32  O   UNL     1      13.345 -12.627   6.548  1.00  0.00    -0.550 OA
ENDBRANCH   1  30
BRANCH  27  33
ATOM     33  O   UNL     1      13.174 -10.286  12.500  1.00  0.00    -0.393 OA
ATOM     34  H   UNL     1      13.164  -9.311  12.697  1.00  0.00     0.210 HD
ENDBRANCH  27  33
TORSDOF 2
ENDMDL
MODEL 4
REMARK VINA RESULT:    -5.697      2.489      3.853
REMARK INTER + INTRA:          -6.425
REMARK INTER:                  -6.196
REMARK INTRA:                  -0.229
REMARK UNBOUND:                -0.228
REMARK SMILES CC1(C)CC[C@]2(C(=O)[O-])CC[C@]3(C)C(=CC[C@@H]4[C@@]5(C)CC[C@@H](O)C(C)(C)[C@H]5CC[C@@]43C)[C@@H]2C1
REMARK SMILES IDX 6 1 5 2 10 3 32 4 4 5 11 6 14 7 33 8 2 9 12 10 15 11 1 12
REMARK SMILES IDX 3 13 13 14 30 15 16 16 17 17 29 18 31 19 18 20 28 21 27 22
REMARK SMILES IDX 20 23 19 24 24 25 21 26 22 27 25 28 26 29 7 30 8 31 9 32
REMARK SMILES IDX 23 33
REMARK H PARENT 23 34
REMARK Flexibility Score: inf
ROOT
ATOM      1  C   UNL     1      12.158  -9.086  10.706  1.00  0.00     0.017 C 
ATOM      2  C   UNL     1      11.759  -7.596  10.893  1.00  0.00     0.014 C 
ATOM      3  C   UNL     1      13.380  -9.434  11.584  1.00  0.00     0.014 C 
ATOM      4  C   UNL     1      12.515  -9.386   9.218  1.00  0.00     0.028 C 
ATOM      5  C   UNL     1      12.745  -6.598  10.274  1.00  0.00     0.007 C 
ATOM      6  C   UNL     1      13.720 -10.929  11.527  1.00  0.00     0.013 C 
ATOM      7  C   UNL     1      13.105 -10.786   9.020  1.00  0.00    -0.064 C 
ATOM      8  C   UNL     1      13.474  -8.338   8.592  1.00  0.00     0.015 C 
ATOM      9  C   UNL     1      13.016  -6.871   8.776  1.00  0.00    -0.035 C 
ATOM     10  C   UNL     1      13.936 -11.524  10.077  1.00  0.00    -0.006 C 
ATOM     11  C   UNL     1      13.003 -11.324   7.797  1.00  0.00    -0.027 C 
ATOM     12  C   UNL     1      11.764  -6.568   7.917  1.00  0.00     0.011 C 
ATOM     13  C   UNL     1      14.150  -5.935   8.303  1.00  0.00     0.011 C 
ATOM     14  C   UNL     1      15.439 -11.272   9.737  1.00  0.00     0.017 C 
ATOM     15  C   UNL     1      13.579 -13.100  10.005  1.00  0.00    -0.020 C 
ATOM     16  C   UNL     1      13.639 -12.625   7.407  1.00  0.00     0.032 C 
ATOM     17  C   UNL     1      13.857 -13.694   8.550  1.00  0.00     0.006 C 
ATOM     18  C   UNL     1      12.073 -13.385  10.367  1.00  0.00     0.008 C 
ATOM     19  C   UNL     1      14.491 -13.820  11.058  1.00  0.00     0.012 C 
ATOM     20  C   UNL     1      13.112 -15.075   8.197  1.00  0.00    -0.025 C 
ATOM     21  C   UNL     1      11.130 -13.685   9.184  1.00  0.00     0.005 C 
ATOM     22  C   UNL     1      11.546 -14.863   8.234  1.00  0.00     0.003 C 
ATOM     23  C   UNL     1      13.557 -16.272   9.132  1.00  0.00     0.010 C 
ATOM     24  C   UNL     1      13.578 -15.483   6.743  1.00  0.00     0.012 C 
ATOM     25  C   UNL     1      10.711 -16.193   8.440  1.00  0.00    -0.006 C 
ATOM     26  C   UNL     1      12.550 -16.823  10.180  1.00  0.00     0.033 C 
ATOM     27  C   UNL     1      11.042 -16.834   9.817  1.00  0.00     0.120 C 
ATOM     28  C   UNL     1      11.014 -17.232   7.321  1.00  0.00     0.014 C 
ATOM     29  C   UNL     1       9.179 -15.920   8.308  1.00  0.00     0.014 C 
ENDROOT
BRANCH   1  30
ATOM     30  C   UNL     1      10.949  -9.898  11.159  1.00  0.00     0.048 C 
ATOM     31  O   UNL     1      10.160 -10.415  10.322  1.00  0.00    -0.550 OA
ATOM     32  O   UNL     1      10.642  -9.991  12.512  1.00  0.00    -0.550 OA
ENDBRANCH   1  30
BRANCH  27  33
ATOM     33  O   UNL     1      10.335 -16.187  10.851  1.00  0.00    -0.393 OA
ATOM     34  H   UNL     1      10.972 -15.591  11.327  1.00  0.00     0.210 HD
ENDBRANCH  27  33
TORSDOF 2
ENDMDL
MODEL 5
REMARK VINA RESULT:    -5.689      2.921      7.686
REMARK INTER + INTRA:          -6.417
REMARK INTER:                  -6.189
REMARK INTRA:                  -0.228
REMARK UNBOUND:                -0.228
REMARK SMILES CC1(C)CC[C@]2(C(=O)[O-])CC[C@]3(C)C(=CC[C@@H]4[C@@]5(C)CC[C@@H](O)C(C)(C)[C@H]5CC[C@@]43C)[C@@H]2C1
REMARK SMILES IDX 6 1 5 2 10 3 32 4 4 5 11 6 14 7 33 8 2 9 12 10 15 11 1 12
REMARK SMILES IDX 3 13 13 14 30 15 16 16 17 17 29 18 31 19 18 20 28 21 27 22
REMARK SMILES IDX 20 23 19 24 24 25 21 26 22 27 25 28 26 29 7 30 8 31 9 32
REMARK SMILES IDX 23 33
REMARK H PARENT 23 34
REMARK Flexibility Score: inf
ROOT
ATOM      1  C   UNL     1      16.234 -16.083  14.694  1.00  0.00     0.017 C 
ATOM      2  C   UNL     1      17.412 -16.751  15.455  1.00  0.00     0.014 C 
ATOM      3  C   UNL     1      16.407 -16.256  13.168  1.00  0.00     0.014 C 
ATOM      4  C   UNL     1      16.153 -14.559  15.014  1.00  0.00     0.028 C 
ATOM      5  C   UNL     1      18.749 -16.012  15.317  1.00  0.00     0.007 C 
ATOM      6  C   UNL     1      15.195 -15.727  12.390  1.00  0.00     0.013 C 
ATOM      7  C   UNL     1      15.137 -13.822  14.136  1.00  0.00    -0.064 C 
ATOM      8  C   UNL     1      17.525 -13.838  14.919  1.00  0.00     0.015 C 
ATOM      9  C   UNL     1      18.657 -14.522  15.721  1.00  0.00    -0.035 C 
ATOM     10  C   UNL     1      14.787 -14.231  12.700  1.00  0.00    -0.006 C 
ATOM     11  C   UNL     1      14.640 -12.672  14.613  1.00  0.00    -0.027 C 
ATOM     12  C   UNL     1      18.430 -14.368  17.245  1.00  0.00     0.011 C 
ATOM     13  C   UNL     1      19.996 -13.835  15.373  1.00  0.00     0.011 C 
ATOM     14  C   UNL     1      15.656 -13.349  11.748  1.00  0.00     0.017 C 
ATOM     15  C   UNL     1      13.209 -13.965  12.458  1.00  0.00    -0.020 C 
ATOM     16  C   UNL     1      13.738 -11.768  13.826  1.00  0.00     0.032 C 
ATOM     17  C   UNL     1      12.828 -12.439  12.722  1.00  0.00     0.006 C 
ATOM     18  C   UNL     1      12.309 -14.860  13.391  1.00  0.00     0.008 C 
ATOM     19  C   UNL     1      12.910 -14.341  10.965  1.00  0.00     0.012 C 
ATOM     20  C   UNL     1      11.272 -12.136  12.996  1.00  0.00    -0.025 C 
ATOM     21  C   UNL     1      11.672 -14.156  14.607  1.00  0.00     0.005 C 
ATOM     22  C   UNL     1      10.806 -12.882  14.309  1.00  0.00     0.003 C 
ATOM     23  C   UNL     1      10.348 -12.499  11.764  1.00  0.00     0.010 C 
ATOM     24  C   UNL     1      11.139 -10.572  13.174  1.00  0.00     0.012 C 
ATOM     25  C   UNL     1       9.243 -13.119  14.405  1.00  0.00    -0.006 C 
ATOM     26  C   UNL     1       9.396 -13.723  11.871  1.00  0.00     0.033 C 
ATOM     27  C   UNL     1       8.762 -14.044  13.251  1.00  0.00     0.120 C 
ATOM     28  C   UNL     1       8.459 -11.776  14.328  1.00  0.00     0.014 C 
ATOM     29  C   UNL     1       8.850 -13.716  15.794  1.00  0.00     0.014 C 
ENDROOT
BRANCH   1  30
ATOM     30  C   UNL     1      14.976 -16.813  15.156  1.00  0.00     0.048 C 
ATOM     31  O   UNL     1      14.211 -16.308  16.022  1.00  0.00    -0.550 OA
ATOM     32  O   UNL     1      14.712 -18.099  14.700  1.00  0.00    -0.550 OA
ENDBRANCH   1  30
BRANCH  27  33
ATOM     33  O   UNL     1       9.023 -15.395  13.553  1.00  0.00    -0.393 OA
ATOM     34  H   UNL     1       8.198 -15.781  13.953  1.00  0.00     0.210 HD
ENDBRANCH  27  33
TORSDOF 2
ENDMDL
MODEL 6
REMARK VINA RESULT:    -5.629      8.951     12.142
REMARK INTER + INTRA:          -6.351
REMARK INTER:                  -6.124
REMARK INTRA:                  -0.228
REMARK UNBOUND:                -0.228
REMARK SMILES CC1(C)CC[C@]2(C(=O)[O-])CC[C@]3(C)C(=CC[C@@H]4[C@@]5(C)CC[C@@H](O)C(C)(C)[C@H]5CC[C@@]43C)[C@@H]2C1
REMARK SMILES IDX 6 1 5 2 10 3 32 4 4 5 11 6 14 7 33 8 2 9 12 10 15 11 1 12
REMARK SMILES IDX 3 13 13 14 30 15 16 16 17 17 29 18 31 19 18 20 28 21 27 22
REMARK SMILES IDX 20 23 19 24 24 25 21 26 22 27 25 28 26 29 7 30 8 31 9 32
REMARK SMILES IDX 23 33
REMARK H PARENT 23 34
REMARK Flexibility Score: inf
ROOT
ATOM      1  C   UNL     1       7.937 -12.488  17.807  1.00  0.00     0.017 C 
ATOM      2  C   UNL     1       9.019 -12.421  16.693  1.00  0.00     0.014 C 
ATOM      3  C   UNL     1       8.498 -13.188  19.065  1.00  0.00     0.014 C 
ATOM      4  C   UNL     1       6.682 -13.274  17.320  1.00  0.00     0.028 C 
ATOM      5  C   UNL     1       9.341 -13.774  16.046  1.00  0.00     0.007 C 
ATOM      6  C   UNL     1       7.502 -13.154  20.231  1.00  0.00     0.013 C 
ATOM      7  C   UNL     1       5.675 -13.539  18.444  1.00  0.00    -0.064 C 
ATOM      8  C   UNL     1       7.030 -14.617  16.623  1.00  0.00     0.015 C 
ATOM      9  C   UNL     1       8.086 -14.492  15.499  1.00  0.00    -0.035 C 
ATOM     10  C   UNL     1       6.063 -13.728  19.916  1.00  0.00    -0.006 C 
ATOM     11  C   UNL     1       4.402 -13.759  18.084  1.00  0.00    -0.027 C 
ATOM     12  C   UNL     1       7.506 -13.748  14.271  1.00  0.00     0.011 C 
ATOM     13  C   UNL     1       8.492 -15.910  15.041  1.00  0.00     0.011 C 
ATOM     14  C   UNL     1       6.156 -15.266  20.172  1.00  0.00     0.017 C 
ATOM     15  C   UNL     1       4.920 -13.053  20.841  1.00  0.00    -0.020 C 
ATOM     16  C   UNL     1       3.325 -14.159  19.048  1.00  0.00     0.032 C 
ATOM     17  C   UNL     1       3.485 -13.684  20.547  1.00  0.00     0.006 C 
ATOM     18  C   UNL     1       4.821 -11.497  20.619  1.00  0.00     0.008 C 
ATOM     19  C   UNL     1       5.326 -13.320  22.332  1.00  0.00     0.012 C 
ATOM     20  C   UNL     1       2.219 -12.808  21.012  1.00  0.00    -0.025 C 
ATOM     21  C   UNL     1       3.637 -11.001  19.763  1.00  0.00     0.005 C 
ATOM     22  C   UNL     1       2.203 -11.435  20.228  1.00  0.00     0.003 C 
ATOM     23  C   UNL     1       2.166 -12.583  22.577  1.00  0.00     0.010 C 
ATOM     24  C   UNL     1       0.930 -13.654  20.666  1.00  0.00     0.012 C 
ATOM     25  C   UNL     1       1.372 -10.288  20.937  1.00  0.00    -0.006 C 
ATOM     26  C   UNL     1       2.455 -11.164  23.144  1.00  0.00     0.033 C 
ATOM     27  C   UNL     1       2.002  -9.934  22.314  1.00  0.00     0.120 C 
ATOM     28  C   UNL     1      -0.108 -10.714  21.161  1.00  0.00     0.014 C 
ATOM     29  C   UNL     1       1.276  -9.021  20.029  1.00  0.00     0.014 C 
ENDROOT
BRANCH   1  30
ATOM     30  C   UNL     1       7.590 -11.039  18.135  1.00  0.00     0.048 C 
ATOM     31  O   UNL     1       6.561 -10.491  17.652  1.00  0.00    -0.550 OA
ATOM     32  O   UNL     1       8.465 -10.269  18.892  1.00  0.00    -0.550 OA
ENDBRANCH   1  30
BRANCH  27  33
ATOM     33  O   UNL     1       3.111  -9.080  22.151  1.00  0.00    -0.393 OA
ATOM     34  H   UNL     1       3.933  -9.617  22.308  1.00  0.00     0.210 HD
ENDBRANCH  27  33
TORSDOF 2
ENDMDL
MODEL 7
REMARK VINA RESULT:    -5.612      1.898      7.495
REMARK INTER + INTRA:          -6.333
REMARK INTER:                  -6.104
REMARK INTRA:                  -0.229
REMARK UNBOUND:                -0.228
REMARK SMILES CC1(C)CC[C@]2(C(=O)[O-])CC[C@]3(C)C(=CC[C@@H]4[C@@]5(C)CC[C@@H](O)C(C)(C)[C@H]5CC[C@@]43C)[C@@H]2C1
REMARK SMILES IDX 6 1 5 2 10 3 32 4 4 5 11 6 14 7 33 8 2 9 12 10 15 11 1 12
REMARK SMILES IDX 3 13 13 14 30 15 16 16 17 17 29 18 31 19 18 20 28 21 27 22
REMARK SMILES IDX 20 23 19 24 24 25 21 26 22 27 25 28 26 29 7 30 8 31 9 32
REMARK SMILES IDX 23 33
REMARK H PARENT 23 34
REMARK Flexibility Score: inf
ROOT
ATOM      1  C   UNL     1      12.931 -13.348  11.689  1.00  0.00     0.017 C 
ATOM      2  C   UNL     1      13.157 -14.838  12.066  1.00  0.00     0.014 C 
ATOM      3  C   UNL     1      13.966 -12.446  12.397  1.00  0.00     0.014 C 
ATOM      4  C   UNL     1      11.501 -12.878  12.098  1.00  0.00     0.028 C 
ATOM      5  C   UNL     1      12.775 -15.186  13.511  1.00  0.00     0.007 C 
ATOM      6  C   UNL     1      13.858 -10.985  11.944  1.00  0.00     0.013 C 
ATOM      7  C   UNL     1      11.302 -11.369  11.929  1.00  0.00    -0.064 C 
ATOM      8  C   UNL     1      11.113 -13.283  13.546  1.00  0.00     0.015 C 
ATOM      9  C   UNL     1      11.324 -14.783  13.863  1.00  0.00    -0.035 C 
ATOM     10  C   UNL     1      12.424 -10.334  12.079  1.00  0.00    -0.006 C 
ATOM     11  C   UNL     1      10.043 -10.932  11.785  1.00  0.00    -0.027 C 
ATOM     12  C   UNL     1      10.300 -15.661  13.103  1.00  0.00     0.011 C 
ATOM     13  C   UNL     1      11.106 -15.006  15.375  1.00  0.00     0.011 C 
ATOM     14  C   UNL     1      12.347  -9.781  13.538  1.00  0.00     0.017 C 
ATOM     15  C   UNL     1      12.184  -9.154  10.998  1.00  0.00    -0.020 C 
ATOM     16  C   UNL     1       9.669  -9.480  11.738  1.00  0.00     0.032 C 
ATOM     17  C   UNL     1      10.754  -8.472  11.188  1.00  0.00     0.006 C 
ATOM     18  C   UNL     1      12.280  -9.679   9.517  1.00  0.00     0.008 C 
ATOM     19  C   UNL     1      13.316  -8.093  11.226  1.00  0.00     0.012 C 
ATOM     20  C   UNL     1      10.190  -7.652   9.925  1.00  0.00    -0.025 C 
ATOM     21  C   UNL     1      10.943  -9.874   8.772  1.00  0.00     0.005 C 
ATOM     22  C   UNL     1       9.991  -8.629   8.698  1.00  0.00     0.003 C 
ATOM     23  C   UNL     1      11.096  -6.414   9.539  1.00  0.00     0.010 C 
ATOM     24  C   UNL     1       8.804  -7.035  10.367  1.00  0.00     0.012 C 
ATOM     25  C   UNL     1       9.966  -7.910   7.287  1.00  0.00    -0.006 C 
ATOM     26  C   UNL     1      11.929  -6.470   8.227  1.00  0.00     0.033 C 
ATOM     27  C   UNL     1      11.330  -7.218   7.006  1.00  0.00     0.120 C 
ATOM     28  C   UNL     1       8.840  -6.837   7.216  1.00  0.00     0.014 C 
ATOM     29  C   UNL     1       9.611  -8.918   6.149  1.00  0.00     0.014 C 
ENDROOT
BRANCH   1  30
ATOM     30  C   UNL     1      13.126 -13.270  10.178  1.00  0.00     0.048 C 
ATOM     31  O   UNL     1      12.139 -13.243   9.393  1.00  0.00    -0.550 OA
ATOM     32  O   UNL     1      14.406 -13.333   9.638  1.00  0.00    -0.550 OA
ENDBRANCH   1  30
BRANCH  27  33
ATOM     33  O   UNL     1      12.280  -8.154   6.553  1.00  0.00    -0.393 OA
ATOM     34  H   UNL     1      13.130  -7.666   6.383  1.00  0.00     0.210 HD
ENDBRANCH  27  33
TORSDOF 2
ENDMDL
MODEL 8
REMARK VINA RESULT:    -5.595      3.075      8.250
REMARK INTER + INTRA:          -6.314
REMARK INTER:                  -6.085
REMARK INTRA:                  -0.230
REMARK UNBOUND:                -0.228
REMARK SMILES CC1(C)CC[C@]2(C(=O)[O-])CC[C@]3(C)C(=CC[C@@H]4[C@@]5(C)CC[C@@H](O)C(C)(C)[C@H]5CC[C@@]43C)[C@@H]2C1
REMARK SMILES IDX 6 1 5 2 10 3 32 4 4 5 11 6 14 7 33 8 2 9 12 10 15 11 1 12
REMARK SMILES IDX 3 13 13 14 30 15 16 16 17 17 29 18 31 19 18 20 28 21 27 22
REMARK SMILES IDX 20 23 19 24 24 25 21 26 22 27 25 28 26 29 7 30 8 31 9 32
REMARK SMILES IDX 23 33
REMARK H PARENT 23 34
REMARK Flexibility Score: inf
ROOT
ATOM      1  C   UNL     1      16.578 -16.999  15.585  1.00  0.00     0.017 C 
ATOM      2  C   UNL     1      17.369 -17.721  16.710  1.00  0.00     0.014 C 
ATOM      3  C   UNL     1      17.381 -17.010  14.265  1.00  0.00     0.014 C 
ATOM      4  C   UNL     1      16.281 -15.518  15.972  1.00  0.00     0.028 C 
ATOM      5  C   UNL     1      18.596 -16.950  17.212  1.00  0.00     0.007 C 
ATOM      6  C   UNL     1      16.574 -16.424  13.099  1.00  0.00     0.013 C 
ATOM      7  C   UNL     1      15.682 -14.712  14.817  1.00  0.00    -0.064 C 
ATOM      8  C   UNL     1      17.523 -14.767  16.526  1.00  0.00     0.015 C 
ATOM      9  C   UNL     1      18.256 -15.511  17.667  1.00  0.00    -0.035 C 
ATOM     10  C   UNL     1      15.987 -14.975  13.337  1.00  0.00    -0.006 C 
ATOM     11  C   UNL     1      14.964 -13.625  15.138  1.00  0.00    -0.027 C 
ATOM     12  C   UNL     1      17.406 -15.520  18.961  1.00  0.00     0.011 C 
ATOM     13  C   UNL     1      19.575 -14.769  17.975  1.00  0.00     0.011 C 
ATOM     14  C   UNL     1      17.120 -13.986  12.919  1.00  0.00     0.017 C 
ATOM     15  C   UNL     1      14.641 -14.714  12.478  1.00  0.00    -0.020 C 
ATOM     16  C   UNL     1      14.421 -12.661  14.126  1.00  0.00     0.032 C 
ATOM     17  C   UNL     1      14.095 -13.229  12.688  1.00  0.00     0.006 C 
ATOM     18  C   UNL     1      13.488 -15.715  12.864  1.00  0.00     0.008 C 
ATOM     19  C   UNL     1      15.013 -14.938  10.971  1.00  0.00     0.012 C 
ATOM     20  C   UNL     1      12.552 -12.983  12.307  1.00  0.00    -0.025 C 
ATOM     21  C   UNL     1      12.362 -15.152  13.756  1.00  0.00     0.005 C 
ATOM     22  C   UNL     1      11.625 -13.869  13.233  1.00  0.00     0.003 C 
ATOM     23  C   UNL     1      12.248 -13.232  10.775  1.00  0.00     0.010 C 
ATOM     24  C   UNL     1      12.265 -11.448  12.548  1.00  0.00     0.012 C 
ATOM     25  C   UNL     1      10.182 -14.141  12.642  1.00  0.00    -0.006 C 
ATOM     26  C   UNL     1      11.411 -14.477  10.365  1.00  0.00     0.033 C 
ATOM     27  C   UNL     1      10.281 -14.950  11.317  1.00  0.00     0.120 C 
ATOM     28  C   UNL     1       9.423 -12.811  12.359  1.00  0.00     0.014 C 
ATOM     29  C   UNL     1       9.282 -14.885  13.679  1.00  0.00     0.014 C 
ENDROOT
BRANCH   1  30
ATOM     30  C   UNL     1      15.287 -17.794  15.411  1.00  0.00     0.048 C 
ATOM     31  O   UNL     1      14.206 -17.403  15.929  1.00  0.00    -0.550 OA
ATOM     32  O   UNL     1      15.310 -19.022  14.760  1.00  0.00    -0.550 OA
ENDBRANCH   1  30
BRANCH  27  33
ATOM     33  O   UNL     1      10.471 -16.320  11.582  1.00  0.00    -0.393 OA
ATOM     34  H   UNL     1      11.299 -16.608  11.113  1.00  0.00     0.210 HD
ENDBRANCH  27  33
TORSDOF 2
ENDMDL
MODEL 9
REMARK VINA RESULT:    -5.507      2.958      5.170
REMARK INTER + INTRA:          -6.218
REMARK INTER:                  -5.990
REMARK INTRA:                  -0.228
REMARK UNBOUND:                -0.228
REMARK SMILES CC1(C)CC[C@]2(C(=O)[O-])CC[C@]3(C)C(=CC[C@@H]4[C@@]5(C)CC[C@@H](O)C(C)(C)[C@H]5CC[C@@]43C)[C@@H]2C1
REMARK SMILES IDX 6 1 5 2 10 3 32 4 4 5 11 6 14 7 33 8 2 9 12 10 15 11 1 12
REMARK SMILES IDX 3 13 13 14 30 15 16 16 17 17 29 18 31 19 18 20 28 21 27 22
REMARK SMILES IDX 20 23 19 24 24 25 21 26 22 27 25 28 26 29 7 30 8 31 9 32
REMARK SMILES IDX 23 33
REMARK H PARENT 23 34
REMARK Flexibility Score: inf
ROOT
ATOM      1  C   UNL     1      11.004 -14.432  12.254  1.00  0.00     0.017 C 
ATOM      2  C   UNL     1       9.615 -14.003  11.706  1.00  0.00     0.014 C 
ATOM      3  C   UNL     1      10.876 -15.705  13.120  1.00  0.00     0.014 C 
ATOM      4  C   UNL     1      11.634 -13.302  13.125  1.00  0.00     0.028 C 
ATOM      5  C   UNL     1       8.668 -13.432  12.769  1.00  0.00     0.007 C 
ATOM      6  C   UNL     1      12.244 -16.234  13.568  1.00  0.00     0.013 C 
ATOM      7  C   UNL     1      12.907 -13.752  13.849  1.00  0.00    -0.064 C 
ATOM      8  C   UNL     1      10.646 -12.701  14.161  1.00  0.00     0.015 C 
ATOM      9  C   UNL     1       9.290 -12.259  13.560  1.00  0.00    -0.035 C 
ATOM     10  C   UNL     1      13.167 -15.189  14.315  1.00  0.00    -0.006 C 
ATOM     11  C   UNL     1      13.770 -12.794  14.217  1.00  0.00    -0.027 C 
ATOM     12  C   UNL     1       9.461 -11.008  12.664  1.00  0.00     0.011 C 
ATOM     13  C   UNL     1       8.335 -11.884  14.715  1.00  0.00     0.011 C 
ATOM     14  C   UNL     1      12.757 -15.265  15.820  1.00  0.00     0.017 C 
ATOM     15  C   UNL     1      14.740 -15.517  14.124  1.00  0.00    -0.020 C 
ATOM     16  C   UNL     1      14.995 -13.054  15.043  1.00  0.00     0.032 C 
ATOM     17  C   UNL     1      15.652 -14.487  14.931  1.00  0.00     0.006 C 
ATOM     18  C   UNL     1      15.175 -15.471  12.611  1.00  0.00     0.008 C 
ATOM     19  C   UNL     1      14.969 -16.971  14.665  1.00  0.00     0.012 C 
ATOM     20  C   UNL     1      17.186 -14.381  14.459  1.00  0.00    -0.025 C 
ATOM     21  C   UNL     1      15.951 -14.217  12.160  1.00  0.00     0.005 C 
ATOM     22  C   UNL     1      17.252 -13.867  12.965  1.00  0.00     0.003 C 
ATOM     23  C   UNL     1      17.981 -15.737  14.640  1.00  0.00     0.010 C 
ATOM     24  C   UNL     1      17.888 -13.350  15.428  1.00  0.00     0.012 C 
ATOM     25  C   UNL     1      18.600 -14.219  12.212  1.00  0.00    -0.006 C 
ATOM     26  C   UNL     1      18.391 -16.545  13.377  1.00  0.00     0.033 C 
ATOM     27  C   UNL     1      18.768 -15.760  12.092  1.00  0.00     0.120 C 
ATOM     28  C   UNL     1      19.836 -13.639  12.960  1.00  0.00     0.014 C 
ATOM     29  C   UNL     1      18.649 -13.544  10.805  1.00  0.00     0.014 C 
ENDROOT
BRANCH   1  30
ATOM     30  C   UNL     1      11.861 -14.726  11.027  1.00  0.00     0.048 C 
ATOM     31  O   UNL     1      12.704 -13.889  10.604  1.00  0.00    -0.550 OA
ATOM     32  O   UNL     1      11.647 -15.887  10.292  1.00  0.00    -0.550 OA
ENDBRANCH   1  30
BRANCH  27  33
ATOM     33  O   UNL     1      17.997 -16.264  11.026  1.00  0.00    -0.393 OA
ATOM     34  H   UNL     1      18.298 -15.811  10.193  1.00  0.00     0.210 HD
ENDBRANCH  27  33
TORSDOF 2
ENDMDL
