MODEL 1
REMARK VINA RESULT:    -4.546      0.000      0.000
REMARK INTER + INTRA:          -4.998
REMARK INTER:                  -4.944
REMARK INTRA:                  -0.054
REMARK UNBOUND:                -0.054
REMARK SMILES COc1cc2ccc(=O)oc2cc1O
REMARK SMILES IDX 3 1 13 2 12 3 11 4 5 5 4 6 6 7 7 8 8 9 9 10 10 11 2 12 1 13
REMARK SMILES IDX 14 14
REMARK H PARENT 14 15
REMARK Flexibility Score: inf
ROOT
ATOM      1  C   UNL     1       7.785   1.385  32.593  1.00  0.00     0.161 A 
ATOM      2  C   UNL     1       8.527   0.248  32.966  1.00  0.00     0.161 A 
ATOM      3  C   UNL     1       7.899  -0.997  33.085  1.00  0.00     0.098 A 
ATOM      4  C   UNL     1       6.531  -1.125  32.837  1.00  0.00     0.142 A 
ATOM      5  C   UNL     1       5.777   0.007  32.463  1.00  0.00     0.022 A 
ATOM      6  C   UNL     1       6.403   1.256  32.341  1.00  0.00     0.062 A 
ATOM      7  C   UNL     1       4.409  -0.153  32.221  1.00  0.00     0.019 A 
ATOM      8  C   UNL     1       3.833  -1.415  32.354  1.00  0.00     0.094 A 
ATOM      9  C   UNL     1       4.643  -2.493  32.729  1.00  0.00     0.336 A 
ATOM     10  O   UNL     1       4.141  -3.641  32.855  1.00  0.00    -0.246 OA
ATOM     11  O   UNL     1       5.941  -2.313  32.953  1.00  0.00    -0.423 OA
ENDROOT
BRANCH   1  12
ATOM     12  O   UNL     1       8.446   2.619  32.482  1.00  0.00    -0.493 OA
ATOM     13  C   UNL     1       8.052   3.811  33.152  1.00  0.00     0.278 C 
ENDBRANCH   1  12
BRANCH   2  14
ATOM     14  O   UNL     1       9.896   0.335  33.221  1.00  0.00    -0.504 OA
ATOM     15  H   UNL     1      10.413   1.198  33.105  1.00  0.00     0.293 HD
ENDBRANCH   2  14
TORSDOF 2
ENDMDL
MODEL 2
REMARK VINA RESULT:    -4.357      1.255      5.411
REMARK INTER + INTRA:          -4.793
REMARK INTER:                  -4.729
REMARK INTRA:                  -0.064
REMARK UNBOUND:                -0.054
REMARK SMILES COc1cc2ccc(=O)oc2cc1O
REMARK SMILES IDX 3 1 13 2 12 3 11 4 5 5 4 6 6 7 7 8 8 9 9 10 10 11 2 12 1 13
REMARK SMILES IDX 14 14
REMARK H PARENT 14 15
REMARK Flexibility Score: inf
ROOT
ATOM      1  C   UNL     1       5.181  -2.397  32.676  1.00  0.00     0.161 A 
ATOM      2  C   UNL     1       4.304  -1.318  32.451  1.00  0.00     0.161 A 
ATOM      3  C   UNL     1       4.796  -0.010  32.384  1.00  0.00     0.098 A 
ATOM      4  C   UNL     1       6.162   0.240  32.538  1.00  0.00     0.142 A 
ATOM      5  C   UNL     1       7.050  -0.833  32.763  1.00  0.00     0.022 A 
ATOM      6  C   UNL     1       6.561  -2.144  32.831  1.00  0.00     0.062 A 
ATOM      7  C   UNL     1       8.411  -0.550  32.914  1.00  0.00     0.019 A 
ATOM      8  C   UNL     1       8.849   0.771  32.839  1.00  0.00     0.094 A 
ATOM      9  C   UNL     1       7.911   1.783  32.613  1.00  0.00     0.336 A 
ATOM     10  O   UNL     1       8.286   2.983  32.540  1.00  0.00    -0.246 OA
ATOM     11  O   UNL     1       6.621   1.488  32.473  1.00  0.00    -0.423 OA
ENDROOT
BRANCH   1  12
ATOM     12  O   UNL     1       4.654  -3.697  32.737  1.00  0.00    -0.493 OA
ATOM     13  C   UNL     1       4.314  -4.375  33.941  1.00  0.00     0.278 C 
ENDBRANCH   1  12
BRANCH   2  14
ATOM     14  O   UNL     1       2.934  -1.528  32.291  1.00  0.00    -0.504 OA
ATOM     15  H   UNL     1       2.242  -0.973  32.778  1.00  0.00     0.293 HD
ENDBRANCH   2  14
TORSDOF 2
ENDMDL
MODEL 3
REMARK VINA RESULT:    -4.112      9.638     11.243
REMARK INTER + INTRA:          -4.526
REMARK INTER:                  -4.462
REMARK INTRA:                  -0.065
REMARK UNBOUND:                -0.054
REMARK SMILES COc1cc2ccc(=O)oc2cc1O
REMARK SMILES IDX 3 1 13 2 12 3 11 4 5 5 4 6 6 7 7 8 8 9 9 10 10 11 2 12 1 13
REMARK SMILES IDX 14 14
REMARK H PARENT 14 15
REMARK Flexibility Score: inf
ROOT
ATOM      1  C   UNL     1       9.260   2.541  44.147  1.00  0.00     0.161 A 
ATOM      2  C   UNL     1       8.294   1.783  43.458  1.00  0.00     0.161 A 
ATOM      3  C   UNL     1       8.061   2.006  42.096  1.00  0.00     0.098 A 
ATOM      4  C   UNL     1       8.784   2.981  41.406  1.00  0.00     0.142 A 
ATOM      5  C   UNL     1       9.755   3.746  42.086  1.00  0.00     0.022 A 
ATOM      6  C   UNL     1       9.991   3.526  43.449  1.00  0.00     0.062 A 
ATOM      7  C   UNL     1      10.462   4.716  41.367  1.00  0.00     0.019 A 
ATOM      8  C   UNL     1      10.192   4.898  40.012  1.00  0.00     0.094 A 
ATOM      9  C   UNL     1       9.215   4.102  39.404  1.00  0.00     0.336 A 
ATOM     10  O   UNL     1       8.956   4.250  38.181  1.00  0.00    -0.246 OA
ATOM     11  O   UNL     1       8.556   3.187  40.110  1.00  0.00    -0.423 OA
ENDROOT
BRANCH   1  12
ATOM     12  O   UNL     1       9.469   2.291  45.512  1.00  0.00    -0.493 OA
ATOM     13  C   UNL     1       8.970   3.105  46.569  1.00  0.00     0.278 C 
ENDBRANCH   1  12
BRANCH   2  14
ATOM     14  O   UNL     1       7.552   0.799  44.112  1.00  0.00    -0.504 OA
ATOM     15  H   UNL     1       6.792   1.025  44.743  1.00  0.00     0.293 HD
ENDBRANCH   2  14
TORSDOF 2
ENDMDL
MODEL 4
REMARK VINA RESULT:    -4.068      4.847      7.305
REMARK INTER + INTRA:          -4.479
REMARK INTER:                  -4.435
REMARK INTRA:                  -0.044
REMARK UNBOUND:                -0.054
REMARK SMILES COc1cc2ccc(=O)oc2cc1O
REMARK SMILES IDX 3 1 13 2 12 3 11 4 5 5 4 6 6 7 7 8 8 9 9 10 10 11 2 12 1 13
REMARK SMILES IDX 14 14
REMARK H PARENT 14 15
REMARK Flexibility Score: inf
ROOT
ATOM      1  C   UNL     1       2.760  -4.508  34.440  1.00  0.00     0.161 A 
ATOM      2  C   UNL     1       3.518  -3.368  34.109  1.00  0.00     0.161 A 
ATOM      3  C   UNL     1       4.673  -3.054  34.833  1.00  0.00     0.098 A 
ATOM      4  C   UNL     1       5.088  -3.867  35.890  1.00  0.00     0.142 A 
ATOM      5  C   UNL     1       4.337  -5.011  36.230  1.00  0.00     0.022 A 
ATOM      6  C   UNL     1       3.179  -5.330  35.507  1.00  0.00     0.062 A 
ATOM      7  C   UNL     1       4.778  -5.805  37.294  1.00  0.00     0.019 A 
ATOM      8  C   UNL     1       5.936  -5.448  37.982  1.00  0.00     0.094 A 
ATOM      9  C   UNL     1       6.629  -4.298  37.589  1.00  0.00     0.336 A 
ATOM     10  O   UNL     1       7.678  -3.958  38.197  1.00  0.00    -0.246 OA
ATOM     11  O   UNL     1       6.189  -3.560  36.573  1.00  0.00    -0.423 OA
ENDROOT
BRANCH   1  12
ATOM     12  O   UNL     1       1.606  -4.794  33.694  1.00  0.00    -0.493 OA
ATOM     13  C   UNL     1       0.875  -6.014  33.769  1.00  0.00     0.278 C 
ENDBRANCH   1  12
BRANCH   2  14
ATOM     14  O   UNL     1       3.136  -2.532  33.059  1.00  0.00    -0.504 OA
ATOM     15  H   UNL     1       3.089  -1.525  33.160  1.00  0.00     0.293 HD
ENDBRANCH   2  14
TORSDOF 2
ENDMDL
MODEL 5
REMARK VINA RESULT:    -4.062      5.438      7.772
REMARK INTER + INTRA:          -4.472
REMARK INTER:                  -4.428
REMARK INTRA:                  -0.044
REMARK UNBOUND:                -0.054
REMARK SMILES COc1cc2ccc(=O)oc2cc1O
REMARK SMILES IDX 3 1 13 2 12 3 11 4 5 5 4 6 6 7 7 8 8 9 9 10 10 11 2 12 1 13
REMARK SMILES IDX 14 14
REMARK H PARENT 14 15
REMARK Flexibility Score: inf
ROOT
ATOM      1  C   UNL     1       3.705  -4.273  35.307  1.00  0.00     0.161 A 
ATOM      2  C   UNL     1       2.845  -4.058  34.212  1.00  0.00     0.161 A 
ATOM      3  C   UNL     1       1.689  -4.831  34.061  1.00  0.00     0.098 A 
ATOM      4  C   UNL     1       1.374  -5.823  34.992  1.00  0.00     0.142 A 
ATOM      5  C   UNL     1       2.228  -6.047  36.092  1.00  0.00     0.022 A 
ATOM      6  C   UNL     1       3.387  -5.275  36.248  1.00  0.00     0.062 A 
ATOM      7  C   UNL     1       1.886  -7.048  37.008  1.00  0.00     0.019 A 
ATOM      8  C   UNL     1       0.721  -7.789  36.810  1.00  0.00     0.094 A 
ATOM      9  C   UNL     1      -0.077  -7.510  35.695  1.00  0.00     0.336 A 
ATOM     10  O   UNL     1      -1.132  -8.168  35.499  1.00  0.00    -0.246 OA
ATOM     11  O   UNL     1       0.271  -6.553  34.840  1.00  0.00    -0.423 OA
ENDROOT
BRANCH   1  12
ATOM     12  O   UNL     1       4.857  -3.481  35.429  1.00  0.00    -0.493 OA
ATOM     13  C   UNL     1       5.961  -3.783  36.275  1.00  0.00     0.278 C 
ENDBRANCH   1  12
BRANCH   2  14
ATOM     14  O   UNL     1       3.125  -3.076  33.261  1.00  0.00    -0.504 OA
ATOM     15  H   UNL     1       2.395  -2.580  32.766  1.00  0.00     0.293 HD
ENDBRANCH   2  14
TORSDOF 2
ENDMDL
MODEL 6
REMARK VINA RESULT:    -4.018      9.329     10.726
REMARK INTER + INTRA:          -4.424
REMARK INTER:                  -4.359
REMARK INTRA:                  -0.065
REMARK UNBOUND:                -0.054
REMARK SMILES COc1cc2ccc(=O)oc2cc1O
REMARK SMILES IDX 3 1 13 2 12 3 11 4 5 5 4 6 6 7 7 8 8 9 9 10 10 11 2 12 1 13
REMARK SMILES IDX 14 14
REMARK H PARENT 14 15
REMARK Flexibility Score: inf
ROOT
ATOM      1  C   UNL     1       9.265   3.960  39.971  1.00  0.00     0.161 A 
ATOM      2  C   UNL     1      10.217   4.720  40.679  1.00  0.00     0.161 A 
ATOM      3  C   UNL     1      10.362   4.558  42.061  1.00  0.00     0.098 A 
ATOM      4  C   UNL     1       9.565   3.644  42.754  1.00  0.00     0.142 A 
ATOM      5  C   UNL     1       8.609   2.878  42.056  1.00  0.00     0.022 A 
ATOM      6  C   UNL     1       8.461   3.036  40.671  1.00  0.00     0.062 A 
ATOM      7  C   UNL     1       7.826   1.970  42.777  1.00  0.00     0.019 A 
ATOM      8  C   UNL     1       8.011   1.849  44.154  1.00  0.00     0.094 A 
ATOM      9  C   UNL     1       8.979   2.642  44.779  1.00  0.00     0.336 A 
ATOM     10  O   UNL     1       9.162   2.547  46.021  1.00  0.00    -0.246 OA
ATOM     11  O   UNL     1       9.710   3.497  44.069  1.00  0.00    -0.423 OA
ENDROOT
BRANCH   1  12
ATOM     12  O   UNL     1       9.145   4.146  38.585  1.00  0.00    -0.493 OA
ATOM     13  C   UNL     1       9.661   3.255  37.602  1.00  0.00     0.278 C 
ENDBRANCH   1  12
BRANCH   2  14
ATOM     14  O   UNL     1      11.031   5.642  40.022  1.00  0.00    -0.504 OA
ATOM     15  H   UNL     1      11.231   6.557  40.408  1.00  0.00     0.293 HD
ENDBRANCH   2  14
TORSDOF 2
ENDMDL
MODEL 7
REMARK VINA RESULT:    -4.010      5.014      8.903
REMARK INTER + INTRA:          -4.416
REMARK INTER:                  -4.372
REMARK INTRA:                  -0.043
REMARK UNBOUND:                -0.054
REMARK SMILES COc1cc2ccc(=O)oc2cc1O
REMARK SMILES IDX 3 1 13 2 12 3 11 4 5 5 4 6 6 7 7 8 8 9 9 10 10 11 2 12 1 13
REMARK SMILES IDX 14 14
REMARK H PARENT 14 15
REMARK Flexibility Score: inf
ROOT
ATOM      1  C   UNL     1       1.040  -6.764  35.820  1.00  0.00     0.161 A 
ATOM      2  C   UNL     1       0.631  -6.219  34.587  1.00  0.00     0.161 A 
ATOM      3  C   UNL     1       1.366  -5.185  33.995  1.00  0.00     0.098 A 
ATOM      4  C   UNL     1       2.510  -4.684  34.618  1.00  0.00     0.142 A 
ATOM      5  C   UNL     1       2.929  -5.223  35.852  1.00  0.00     0.022 A 
ATOM      6  C   UNL     1       2.197  -6.258  36.449  1.00  0.00     0.062 A 
ATOM      7  C   UNL     1       4.079  -4.699  36.452  1.00  0.00     0.019 A 
ATOM      8  C   UNL     1       4.774  -3.670  35.819  1.00  0.00     0.094 A 
ATOM      9  C   UNL     1       4.299  -3.185  34.596  1.00  0.00     0.336 A 
ATOM     10  O   UNL     1       4.913  -2.256  34.007  1.00  0.00    -0.246 OA
ATOM     11  O   UNL     1       3.203  -3.700  34.047  1.00  0.00    -0.423 OA
ENDROOT
BRANCH   1  12
ATOM     12  O   UNL     1       0.281  -7.800  36.387  1.00  0.00    -0.493 OA
ATOM     13  C   UNL     1       0.579  -8.437  37.624  1.00  0.00     0.278 C 
ENDBRANCH   1  12
BRANCH   2  14
ATOM     14  O   UNL     1      -0.506  -6.693  33.934  1.00  0.00    -0.504 OA
ATOM     15  H   UNL     1      -1.043  -6.118  33.297  1.00  0.00     0.293 HD
ENDBRANCH   2  14
TORSDOF 2
ENDMDL
MODEL 8
REMARK VINA RESULT:    -3.992      4.102      6.522
REMARK INTER + INTRA:          -4.396
REMARK INTER:                  -4.352
REMARK INTRA:                  -0.044
REMARK UNBOUND:                -0.054
REMARK SMILES COc1cc2ccc(=O)oc2cc1O
REMARK SMILES IDX 3 1 13 2 12 3 11 4 5 5 4 6 6 7 7 8 8 9 9 10 10 11 2 12 1 13
REMARK SMILES IDX 14 14
REMARK H PARENT 14 15
REMARK Flexibility Score: inf
ROOT
ATOM      1  C   UNL     1       3.894  -3.140  34.043  1.00  0.00     0.161 A 
ATOM      2  C   UNL     1       2.901  -4.077  34.389  1.00  0.00     0.161 A 
ATOM      3  C   UNL     1       3.107  -4.963  35.452  1.00  0.00     0.098 A 
ATOM      4  C   UNL     1       4.298  -4.930  36.181  1.00  0.00     0.142 A 
ATOM      5  C   UNL     1       5.300  -3.995  35.843  1.00  0.00     0.022 A 
ATOM      6  C   UNL     1       5.097  -3.105  34.779  1.00  0.00     0.062 A 
ATOM      7  C   UNL     1       6.481  -3.985  36.591  1.00  0.00     0.019 A 
ATOM      8  C   UNL     1       6.636  -4.890  37.640  1.00  0.00     0.094 A 
ATOM      9  C   UNL     1       5.599  -5.788  37.917  1.00  0.00     0.336 A 
ATOM     10  O   UNL     1       5.719  -6.613  38.861  1.00  0.00    -0.246 OA
ATOM     11  O   UNL     1       4.485  -5.777  37.190  1.00  0.00    -0.423 OA
ENDROOT
BRANCH   1  12
ATOM     12  O   UNL     1       3.655  -2.265  32.972  1.00  0.00    -0.493 OA
ATOM     13  C   UNL     1       4.414  -1.091  32.701  1.00  0.00     0.278 C 
ENDBRANCH   1  12
BRANCH   2  14
ATOM     14  O   UNL     1       1.698  -4.141  33.686  1.00  0.00    -0.504 OA
ATOM     15  H   UNL     1       1.422  -4.962  33.161  1.00  0.00     0.293 HD
ENDBRANCH   2  14
TORSDOF 2
ENDMDL
MODEL 9
REMARK VINA RESULT:    -3.833      4.242      6.281
REMARK INTER + INTRA:          -4.223
REMARK INTER:                  -4.180
REMARK INTRA:                  -0.043
REMARK UNBOUND:                -0.054
REMARK SMILES COc1cc2ccc(=O)oc2cc1O
REMARK SMILES IDX 3 1 13 2 12 3 11 4 5 5 4 6 6 7 7 8 8 9 9 10 10 11 2 12 1 13
REMARK SMILES IDX 14 14
REMARK H PARENT 14 15
REMARK Flexibility Score: inf
ROOT
ATOM      1  C   UNL     1       4.439  -3.291  34.611  1.00  0.00     0.161 A 
ATOM      2  C   UNL     1       4.830  -3.834  35.851  1.00  0.00     0.161 A 
ATOM      3  C   UNL     1       4.069  -4.844  36.450  1.00  0.00     0.098 A 
ATOM      4  C   UNL     1       2.915  -5.323  35.827  1.00  0.00     0.142 A 
ATOM      5  C   UNL     1       2.514  -4.787  34.585  1.00  0.00     0.022 A 
ATOM      6  C   UNL     1       3.274  -3.776  33.981  1.00  0.00     0.062 A 
ATOM      7  C   UNL     1       1.354  -5.288  33.986  1.00  0.00     0.019 A 
ATOM      8  C   UNL     1       0.632  -6.294  34.626  1.00  0.00     0.094 A 
ATOM      9  C   UNL     1       1.090  -6.778  35.856  1.00  0.00     0.336 A 
ATOM     10  O   UNL     1       0.452  -7.687  36.450  1.00  0.00    -0.246 OA
ATOM     11  O   UNL     1       2.197  -6.284  36.404  1.00  0.00    -0.423 OA
ENDROOT
BRANCH   1  12
ATOM     12  O   UNL     1       5.226  -2.279  34.037  1.00  0.00    -0.493 OA
ATOM     13  C   UNL     1       5.018  -1.730  32.740  1.00  0.00     0.278 C 
ENDBRANCH   1  12
BRANCH   2  14
ATOM     14  O   UNL     1       5.977  -3.382  36.504  1.00  0.00    -0.504 OA
ATOM     15  H   UNL     1       6.234  -3.702  37.429  1.00  0.00     0.293 HD
ENDBRANCH   2  14
TORSDOF 2
ENDMDL
