MODEL 1
REMARK VINA RESULT:    12.039      0.000      0.000
REMARK INTER + INTRA:          28.617
REMARK INTER:                  27.523
REMARK INTRA:                   1.094
REMARK UNBOUND:                 1.094
REMARK SMILES CCCCCCCCCCCCCCCCCCCCCCCC(=O)[O-]
REMARK SMILES IDX 13 1 14 2 15 3 16 4 17 5 18 6 19 7 20 8 21 9 22 10 23 11
REMARK SMILES IDX 24 12 25 13 26 14 12 15 11 16 10 17 9 18 8 19 7 20 6 21 5 22
REMARK SMILES IDX 4 23 3 24 2 25 1 26
REMARK H PARENT
REMARK Flexibility Score: inf
ROOT
ATOM      1  C   UNL     1     -14.429  31.073 -17.345  1.00  0.00     0.000 C 
ENDROOT
BRANCH   1   2
ATOM      2  C   UNL     1     -14.130  29.575 -17.182  1.00  0.00     0.000 C 
BRANCH   2   3
ATOM      3  C   UNL     1     -13.431  29.256 -15.850  1.00  0.00     0.000 C 
BRANCH   3   4
ATOM      4  C   UNL     1     -12.305  28.217 -16.008  1.00  0.00     0.000 C 
BRANCH   4   5
ATOM      5  C   UNL     1     -12.524  27.304 -17.235  1.00  0.00     0.000 C 
BRANCH   5   6
ATOM      6  C   UNL     1     -12.129  27.954 -18.577  1.00  0.00     0.000 C 
BRANCH   6   7
ATOM      7  C   UNL     1     -11.447  27.011 -19.582  1.00  0.00     0.000 C 
BRANCH   7   8
ATOM      8  C   UNL     1     -12.451  26.201 -20.418  1.00  0.00     0.000 C 
BRANCH   8   9
ATOM      9  C   UNL     1     -13.153  25.103 -19.601  1.00  0.00     0.000 C 
BRANCH   9  10
ATOM     10  C   UNL     1     -12.933  23.680 -20.159  1.00  0.00     0.006 C 
BRANCH  10  11
ATOM     11  C   UNL     1     -14.236  23.047 -20.665  1.00  0.00     0.053 C 
BRANCH  11  12
ATOM     12  C   UNL     1     -14.447  21.709 -20.031  1.00  0.00     0.041 C 
ATOM     13  O   UNL     1     -14.981  20.775 -20.686  1.00  0.00    -0.550 OA
ATOM     14  O   UNL     1     -14.088  21.501 -18.704  1.00  0.00    -0.550 OA
ENDBRANCH  11  12
ENDBRANCH  10  11
ENDBRANCH   9  10
ENDBRANCH   8   9
ENDBRANCH   7   8
ENDBRANCH   6   7
ENDBRANCH   5   6
ENDBRANCH   4   5
ENDBRANCH   3   4
ENDBRANCH   2   3
ENDBRANCH   1   2
BRANCH   1  15
ATOM     15  C   UNL     1     -14.299  31.503 -18.813  1.00  0.00     0.000 C 
BRANCH  15  16
ATOM     16  C   UNL     1     -15.633  31.981 -19.418  1.00  0.00     0.000 C 
BRANCH  16  17
ATOM     17  C   UNL     1     -15.788  33.510 -19.520  1.00  0.00     0.000 C 
BRANCH  17  18
ATOM     18  C   UNL     1     -14.574  34.276 -18.971  1.00  0.00    -0.000 C 
BRANCH  18  19
ATOM     19  C   UNL     1     -15.012  35.355 -17.968  1.00  0.00    -0.000 C 
BRANCH  19  20
ATOM     20  C   UNL     1     -16.402  35.931 -18.286  1.00  0.00    -0.000 C 
BRANCH  20  21
ATOM     21  C   UNL     1     -16.834  35.661 -19.738  1.00  0.00    -0.000 C 
BRANCH  21  22
ATOM     22  C   UNL     1     -18.308  36.021 -19.998  1.00  0.00    -0.000 C 
BRANCH  22  23
ATOM     23  C   UNL     1     -19.158  34.894 -20.617  1.00  0.00    -0.000 C 
BRANCH  23  24
ATOM     24  C   UNL     1     -20.678  35.018 -20.390  1.00  0.00    -0.000 C 
BRANCH  24  25
ATOM     25  C   UNL     1     -21.094  36.048 -19.325  1.00  0.00    -0.003 C 
ATOM     26  C   UNL     1     -20.749  35.605 -17.901  1.00  0.00     0.004 C 
ENDBRANCH  24  25
ENDBRANCH  23  24
ENDBRANCH  22  23
ENDBRANCH  21  22
ENDBRANCH  20  21
ENDBRANCH  19  20
ENDBRANCH  18  19
ENDBRANCH  17  18
ENDBRANCH  16  17
ENDBRANCH  15  16
ENDBRANCH   1  15
TORSDOF 22
ENDMDL
MODEL 2
REMARK VINA RESULT:    12.171      3.909     10.862
REMARK INTER + INTRA:          28.918
REMARK INTER:                  29.092
REMARK INTRA:                  -0.174
REMARK UNBOUND:                 1.094
REMARK SMILES CCCCCCCCCCCCCCCCCCCCCCCC(=O)[O-]
REMARK SMILES IDX 13 1 14 2 15 3 16 4 17 5 18 6 19 7 20 8 21 9 22 10 23 11
REMARK SMILES IDX 24 12 25 13 26 14 12 15 11 16 10 17 9 18 8 19 7 20 6 21 5 22
REMARK SMILES IDX 4 23 3 24 2 25 1 26
REMARK H PARENT
REMARK Flexibility Score: inf
ROOT
ATOM      1  C   UNL     1     -14.261  30.342 -17.936  1.00  0.00     0.000 C 
ENDROOT
BRANCH   1   2
ATOM      2  C   UNL     1     -14.202  31.831 -18.315  1.00  0.00     0.000 C 
BRANCH   2   3
ATOM      3  C   UNL     1     -15.563  32.373 -18.780  1.00  0.00     0.000 C 
BRANCH   3   4
ATOM      4  C   UNL     1     -15.426  33.528 -19.789  1.00  0.00     0.000 C 
BRANCH   4   5
ATOM      5  C   UNL     1     -14.965  34.838 -19.114  1.00  0.00     0.000 C 
BRANCH   5   6
ATOM      6  C   UNL     1     -16.022  35.470 -18.186  1.00  0.00     0.000 C 
BRANCH   6   7
ATOM      7  C   UNL     1     -17.277  36.004 -18.896  1.00  0.00     0.000 C 
BRANCH   7   8
ATOM      8  C   UNL     1     -17.509  35.354 -20.270  1.00  0.00     0.000 C 
BRANCH   8   9
ATOM      9  C   UNL     1     -18.531  36.125 -21.125  1.00  0.00     0.000 C 
BRANCH   9  10
ATOM     10  C   UNL     1     -19.992  35.683 -20.890  1.00  0.00     0.006 C 
BRANCH  10  11
ATOM     11  C   UNL     1     -20.220  35.171 -19.461  1.00  0.00     0.053 C 
BRANCH  11  12
ATOM     12  C   UNL     1     -20.807  33.794 -19.487  1.00  0.00     0.041 C 
ATOM     13  O   UNL     1     -20.984  33.161 -18.413  1.00  0.00    -0.550 OA
ATOM     14  O   UNL     1     -21.125  33.195 -20.701  1.00  0.00    -0.550 OA
ENDBRANCH  11  12
ENDBRANCH  10  11
ENDBRANCH   9  10
ENDBRANCH   8   9
ENDBRANCH   7   8
ENDBRANCH   6   7
ENDBRANCH   5   6
ENDBRANCH   4   5
ENDBRANCH   3   4
ENDBRANCH   2   3
ENDBRANCH   1   2
BRANCH   1  15
ATOM     15  C   UNL     1     -13.630  30.102 -16.557  1.00  0.00     0.000 C 
BRANCH  15  16
ATOM     16  C   UNL     1     -13.656  28.620 -16.136  1.00  0.00     0.000 C 
BRANCH  16  17
ATOM     17  C   UNL     1     -13.384  27.617 -17.274  1.00  0.00     0.000 C 
BRANCH  17  18
ATOM     18  C   UNL     1     -11.938  27.671 -17.791  1.00  0.00    -0.000 C 
BRANCH  18  19
ATOM     19  C   UNL     1     -11.892  27.497 -19.317  1.00  0.00    -0.000 C 
BRANCH  19  20
ATOM     20  C   UNL     1     -11.086  26.259 -19.748  1.00  0.00    -0.000 C 
BRANCH  20  21
ATOM     21  C   UNL     1     -11.923  25.272 -20.581  1.00  0.00    -0.000 C 
BRANCH  21  22
ATOM     22  C   UNL     1     -12.980  24.532 -19.742  1.00  0.00    -0.000 C 
BRANCH  22  23
ATOM     23  C   UNL     1     -13.687  23.366 -20.460  1.00  0.00    -0.000 C 
BRANCH  23  24
ATOM     24  C   UNL     1     -14.518  22.440 -19.549  1.00  0.00    -0.000 C 
BRANCH  24  25
ATOM     25  C   UNL     1     -14.403  20.939 -19.869  1.00  0.00    -0.003 C 
ATOM     26  C   UNL     1     -15.760  20.280 -20.127  1.00  0.00     0.004 C 
ENDBRANCH  24  25
ENDBRANCH  23  24
ENDBRANCH  22  23
ENDBRANCH  21  22
ENDBRANCH  20  21
ENDBRANCH  19  20
ENDBRANCH  18  19
ENDBRANCH  17  18
ENDBRANCH  16  17
ENDBRANCH  15  16
ENDBRANCH   1  15
TORSDOF 22
ENDMDL
MODEL 3
REMARK VINA RESULT:    13.438      1.283      2.416
REMARK INTER + INTRA:          31.816
REMARK INTER:                  30.661
REMARK INTRA:                   1.155
REMARK UNBOUND:                 1.094
REMARK SMILES CCCCCCCCCCCCCCCCCCCCCCCC(=O)[O-]
REMARK SMILES IDX 13 1 14 2 15 3 16 4 17 5 18 6 19 7 20 8 21 9 22 10 23 11
REMARK SMILES IDX 24 12 25 13 26 14 12 15 11 16 10 17 9 18 8 19 7 20 6 21 5 22
REMARK SMILES IDX 4 23 3 24 2 25 1 26
REMARK H PARENT
REMARK Flexibility Score: inf
ROOT
ATOM      1  C   UNL     1     -14.911  31.455 -18.100  1.00  0.00     0.000 C 
ENDROOT
BRANCH   1   2
ATOM      2  C   UNL     1     -13.557  30.867 -17.670  1.00  0.00     0.000 C 
BRANCH   2   3
ATOM      3  C   UNL     1     -13.701  29.483 -17.016  1.00  0.00     0.000 C 
BRANCH   3   4
ATOM      4  C   UNL     1     -12.456  28.600 -17.223  1.00  0.00     0.000 C 
BRANCH   4   5
ATOM      5  C   UNL     1     -11.907  28.698 -18.664  1.00  0.00     0.000 C 
BRANCH   5   6
ATOM      6  C   UNL     1     -12.442  27.606 -19.613  1.00  0.00     0.000 C 
BRANCH   6   7
ATOM      7  C   UNL     1     -11.387  26.609 -20.120  1.00  0.00     0.000 C 
BRANCH   7   8
ATOM      8  C   UNL     1     -11.621  25.179 -19.607  1.00  0.00     0.000 C 
BRANCH   8   9
ATOM      9  C   UNL     1     -12.483  24.339 -20.567  1.00  0.00     0.000 C 
BRANCH   9  10
ATOM     10  C   UNL     1     -13.448  23.372 -19.846  1.00  0.00     0.006 C 
BRANCH  10  11
ATOM     11  C   UNL     1     -13.821  22.167 -20.720  1.00  0.00     0.053 C 
BRANCH  11  12
ATOM     12  C   UNL     1     -14.671  21.206 -19.950  1.00  0.00     0.041 C 
ATOM     13  O   UNL     1     -14.229  20.673 -18.898  1.00  0.00    -0.550 OA
ATOM     14  O   UNL     1     -15.938  20.870 -20.412  1.00  0.00    -0.550 OA
ENDBRANCH  11  12
ENDBRANCH  10  11
ENDBRANCH   9  10
ENDBRANCH   8   9
ENDBRANCH   7   8
ENDBRANCH   6   7
ENDBRANCH   5   6
ENDBRANCH   4   5
ENDBRANCH   3   4
ENDBRANCH   2   3
ENDBRANCH   1   2
BRANCH   1  15
ATOM     15  C   UNL     1     -14.770  32.938 -18.474  1.00  0.00     0.000 C 
BRANCH  15  16
ATOM     16  C   UNL     1     -15.934  33.450 -19.343  1.00  0.00     0.000 C 
BRANCH  16  17
ATOM     17  C   UNL     1     -16.492  34.827 -18.935  1.00  0.00     0.000 C 
BRANCH  17  18
ATOM     18  C   UNL     1     -17.401  35.449 -20.006  1.00  0.00    -0.000 C 
BRANCH  18  19
ATOM     19  C   UNL     1     -17.995  34.367 -20.921  1.00  0.00    -0.000 C 
BRANCH  19  20
ATOM     20  C   UNL     1     -19.512  34.530 -21.125  1.00  0.00    -0.000 C 
BRANCH  20  21
ATOM     21  C   UNL     1     -20.250  34.857 -19.815  1.00  0.00    -0.000 C 
BRANCH  21  22
ATOM     22  C   UNL     1     -19.310  34.908 -18.597  1.00  0.00    -0.000 C 
BRANCH  22  23
ATOM     23  C   UNL     1     -19.651  35.987 -17.551  1.00  0.00    -0.000 C 
BRANCH  23  24
ATOM     24  C   UNL     1     -21.057  35.876 -16.928  1.00  0.00    -0.000 C 
BRANCH  24  25
ATOM     25  C   UNL     1     -21.114  36.107 -15.407  1.00  0.00    -0.003 C 
ATOM     26  C   UNL     1     -19.848  35.639 -14.686  1.00  0.00     0.004 C 
ENDBRANCH  24  25
ENDBRANCH  23  24
ENDBRANCH  22  23
ENDBRANCH  21  22
ENDBRANCH  20  21
ENDBRANCH  19  20
ENDBRANCH  18  19
ENDBRANCH  17  18
ENDBRANCH  16  17
ENDBRANCH  15  16
ENDBRANCH   1  15
TORSDOF 22
ENDMDL
MODEL 4
REMARK VINA RESULT:    13.474      0.863      1.459
REMARK INTER + INTRA:          31.896
REMARK INTER:                  32.536
REMARK INTRA:                  -0.640
REMARK UNBOUND:                 1.094
REMARK SMILES CCCCCCCCCCCCCCCCCCCCCCCC(=O)[O-]
REMARK SMILES IDX 13 1 14 2 15 3 16 4 17 5 18 6 19 7 20 8 21 9 22 10 23 11
REMARK SMILES IDX 24 12 25 13 26 14 12 15 11 16 10 17 9 18 8 19 7 20 6 21 5 22
REMARK SMILES IDX 4 23 3 24 2 25 1 26
REMARK H PARENT
REMARK Flexibility Score: inf
ROOT
ATOM      1  C   UNL     1     -15.028  30.704 -17.665  1.00  0.00     0.000 C 
ENDROOT
BRANCH   1   2
ATOM      2  C   UNL     1     -14.189  29.416 -17.654  1.00  0.00     0.000 C 
BRANCH   2   3
ATOM      3  C   UNL     1     -14.098  28.786 -16.255  1.00  0.00     0.000 C 
BRANCH   3   4
ATOM      4  C   UNL     1     -12.643  28.587 -15.790  1.00  0.00     0.000 C 
BRANCH   4   5
ATOM      5  C   UNL     1     -11.723  28.127 -16.942  1.00  0.00     0.000 C 
BRANCH   5   6
ATOM      6  C   UNL     1     -12.393  27.145 -17.925  1.00  0.00     0.000 C 
BRANCH   6   7
ATOM      7  C   UNL     1     -11.591  26.855 -19.204  1.00  0.00     0.000 C 
BRANCH   7   8
ATOM      8  C   UNL     1     -12.269  25.814 -20.110  1.00  0.00     0.000 C 
BRANCH   8   9
ATOM      9  C   UNL     1     -13.346  24.999 -19.373  1.00  0.00     0.000 C 
BRANCH   9  10
ATOM     10  C   UNL     1     -14.210  24.126 -20.309  1.00  0.00     0.006 C 
BRANCH  10  11
ATOM     11  C   UNL     1     -13.557  22.768 -20.603  1.00  0.00     0.053 C 
BRANCH  11  12
ATOM     12  C   UNL     1     -14.300  21.671 -19.910  1.00  0.00     0.041 C 
ATOM     13  O   UNL     1     -14.590  21.776 -18.688  1.00  0.00    -0.550 OA
ATOM     14  O   UNL     1     -14.642  20.515 -20.602  1.00  0.00    -0.550 OA
ENDBRANCH  11  12
ENDBRANCH  10  11
ENDBRANCH   9  10
ENDBRANCH   8   9
ENDBRANCH   7   8
ENDBRANCH   6   7
ENDBRANCH   5   6
ENDBRANCH   4   5
ENDBRANCH   3   4
ENDBRANCH   2   3
ENDBRANCH   1   2
BRANCH   1  15
ATOM     15  C   UNL     1     -14.611  31.621 -18.824  1.00  0.00     0.000 C 
BRANCH  15  16
ATOM     16  C   UNL     1     -15.710  32.624 -19.220  1.00  0.00     0.000 C 
BRANCH  16  17
ATOM     17  C   UNL     1     -15.337  33.574 -20.375  1.00  0.00     0.000 C 
BRANCH  17  18
ATOM     18  C   UNL     1     -15.363  35.055 -19.967  1.00  0.00    -0.000 C 
BRANCH  18  19
ATOM     19  C   UNL     1     -15.414  35.205 -18.439  1.00  0.00    -0.000 C 
BRANCH  19  20
ATOM     20  C   UNL     1     -16.556  36.125 -17.971  1.00  0.00    -0.000 C 
BRANCH  20  21
ATOM     21  C   UNL     1     -17.805  36.012 -18.862  1.00  0.00    -0.000 C 
BRANCH  21  22
ATOM     22  C   UNL     1     -18.990  35.338 -18.145  1.00  0.00    -0.000 C 
BRANCH  22  23
ATOM     23  C   UNL     1     -20.355  36.024 -18.350  1.00  0.00    -0.000 C 
BRANCH  23  24
ATOM     24  C   UNL     1     -20.998  35.805 -19.734  1.00  0.00    -0.000 C 
BRANCH  24  25
ATOM     25  C   UNL     1     -20.247  34.824 -20.651  1.00  0.00    -0.003 C 
ATOM     26  C   UNL     1     -21.122  33.660 -21.123  1.00  0.00     0.004 C 
ENDBRANCH  24  25
ENDBRANCH  23  24
ENDBRANCH  22  23
ENDBRANCH  21  22
ENDBRANCH  20  21
ENDBRANCH  19  20
ENDBRANCH  18  19
ENDBRANCH  17  18
ENDBRANCH  16  17
ENDBRANCH  15  16
ENDBRANCH   1  15
TORSDOF 22
ENDMDL
MODEL 5
REMARK VINA RESULT:    13.609      4.780      5.673
REMARK INTER + INTRA:          32.205
REMARK INTER:                  33.133
REMARK INTRA:                  -0.928
REMARK UNBOUND:                 1.094
REMARK SMILES CCCCCCCCCCCCCCCCCCCCCCCC(=O)[O-]
REMARK SMILES IDX 13 1 14 2 15 3 16 4 17 5 18 6 19 7 20 8 21 9 22 10 23 11
REMARK SMILES IDX 24 12 25 13 26 14 12 15 11 16 10 17 9 18 8 19 7 20 6 21 5 22
REMARK SMILES IDX 4 23 3 24 2 25 1 26
REMARK H PARENT
REMARK Flexibility Score: inf
ROOT
ATOM      1  C   UNL     1     -14.155  29.199 -16.238  1.00  0.00     0.000 C 
ENDROOT
BRANCH   1   2
ATOM      2  C   UNL     1     -12.965  28.478 -15.585  1.00  0.00     0.000 C 
BRANCH   2   3
ATOM      3  C   UNL     1     -12.443  27.314 -16.443  1.00  0.00     0.000 C 
BRANCH   3   4
ATOM      4  C   UNL     1     -10.920  27.125 -16.316  1.00  0.00     0.000 C 
BRANCH   4   5
ATOM      5  C   UNL     1     -10.548  26.137 -15.188  1.00  0.00     0.000 C 
BRANCH   5   6
ATOM      6  C   UNL     1      -9.225  25.382 -15.428  1.00  0.00     0.000 C 
BRANCH   6   7
ATOM      7  C   UNL     1      -7.971  26.271 -15.500  1.00  0.00     0.000 C 
BRANCH   7   8
ATOM      8  C   UNL     1      -6.663  25.464 -15.457  1.00  0.00     0.000 C 
BRANCH   8   9
ATOM      9  C   UNL     1      -6.637  24.439 -14.310  1.00  0.00     0.000 C 
BRANCH   9  10
ATOM     10  C   UNL     1      -5.365  23.564 -14.291  1.00  0.00     0.006 C 
BRANCH  10  11
ATOM     11  C   UNL     1      -5.315  22.638 -13.068  1.00  0.00     0.053 C 
BRANCH  11  12
ATOM     12  C   UNL     1      -5.877  21.294 -13.406  1.00  0.00     0.041 C 
ATOM     13  O   UNL     1      -6.320  20.545 -12.495  1.00  0.00    -0.550 OA
ATOM     14  O   UNL     1      -5.879  20.851 -14.724  1.00  0.00    -0.550 OA
ENDBRANCH  11  12
ENDBRANCH  10  11
ENDBRANCH   9  10
ENDBRANCH   8   9
ENDBRANCH   7   8
ENDBRANCH   6   7
ENDBRANCH   5   6
ENDBRANCH   4   5
ENDBRANCH   3   4
ENDBRANCH   2   3
ENDBRANCH   1   2
BRANCH   1  15
ATOM     15  C   UNL     1     -13.672  30.280 -17.216  1.00  0.00     0.000 C 
BRANCH  15  16
ATOM     16  C   UNL     1     -14.806  30.846 -18.092  1.00  0.00     0.000 C 
BRANCH  16  17
ATOM     17  C   UNL     1     -14.526  32.234 -18.700  1.00  0.00     0.000 C 
BRANCH  17  18
ATOM     18  C   UNL     1     -15.630  32.704 -19.659  1.00  0.00    -0.000 C 
BRANCH  18  19
ATOM     19  C   UNL     1     -15.522  34.214 -19.924  1.00  0.00    -0.000 C 
BRANCH  19  20
ATOM     20  C   UNL     1     -15.255  35.024 -18.644  1.00  0.00    -0.000 C 
BRANCH  20  21
ATOM     21  C   UNL     1     -16.491  35.815 -18.179  1.00  0.00    -0.000 C 
BRANCH  21  22
ATOM     22  C   UNL     1     -17.806  35.257 -18.753  1.00  0.00    -0.000 C 
BRANCH  22  23
ATOM     23  C   UNL     1     -19.083  35.988 -18.293  1.00  0.00    -0.000 C 
BRANCH  23  24
ATOM     24  C   UNL     1     -20.401  35.229 -18.548  1.00  0.00    -0.000 C 
BRANCH  24  25
ATOM     25  C   UNL     1     -20.398  34.319 -19.788  1.00  0.00    -0.003 C 
ATOM     26  C   UNL     1     -20.960  35.007 -21.034  1.00  0.00     0.004 C 
ENDBRANCH  24  25
ENDBRANCH  23  24
ENDBRANCH  22  23
ENDBRANCH  21  22
ENDBRANCH  20  21
ENDBRANCH  19  20
ENDBRANCH  18  19
ENDBRANCH  17  18
ENDBRANCH  16  17
ENDBRANCH  15  16
ENDBRANCH   1  15
TORSDOF 22
ENDMDL
MODEL 6
REMARK VINA RESULT:    13.981      4.137     10.946
REMARK INTER + INTRA:          33.057
REMARK INTER:                  34.066
REMARK INTRA:                  -1.009
REMARK UNBOUND:                 1.094
REMARK SMILES CCCCCCCCCCCCCCCCCCCCCCCC(=O)[O-]
REMARK SMILES IDX 13 1 14 2 15 3 16 4 17 5 18 6 19 7 20 8 21 9 22 10 23 11
REMARK SMILES IDX 24 12 25 13 26 14 12 15 11 16 10 17 9 18 8 19 7 20 6 21 5 22
REMARK SMILES IDX 4 23 3 24 2 25 1 26
REMARK H PARENT
REMARK Flexibility Score: inf
ROOT
ATOM      1  C   UNL     1     -13.296  29.544 -15.974  1.00  0.00     0.000 C 
ENDROOT
BRANCH   1   2
ATOM      2  C   UNL     1     -14.254  29.881 -17.128  1.00  0.00     0.000 C 
BRANCH   2   3
ATOM      3  C   UNL     1     -14.164  31.355 -17.554  1.00  0.00     0.000 C 
BRANCH   3   4
ATOM      4  C   UNL     1     -14.516  31.563 -19.038  1.00  0.00     0.000 C 
BRANCH   4   5
ATOM      5  C   UNL     1     -15.643  32.602 -19.229  1.00  0.00     0.000 C 
BRANCH   5   6
ATOM      6  C   UNL     1     -15.138  34.019 -19.565  1.00  0.00     0.000 C 
BRANCH   6   7
ATOM      7  C   UNL     1     -14.817  34.902 -18.347  1.00  0.00     0.000 C 
BRANCH   7   8
ATOM      8  C   UNL     1     -15.746  36.122 -18.232  1.00  0.00     0.000 C 
BRANCH   8   9
ATOM      9  C   UNL     1     -17.034  35.966 -19.060  1.00  0.00     0.000 C 
BRANCH   9  10
ATOM     10  C   UNL     1     -18.325  36.066 -18.220  1.00  0.00     0.006 C 
BRANCH  10  11
ATOM     11  C   UNL     1     -19.298  34.915 -18.512  1.00  0.00     0.053 C 
BRANCH  11  12
ATOM     12  C   UNL     1     -19.458  34.728 -19.988  1.00  0.00     0.041 C 
ATOM     13  O   UNL     1     -18.675  33.967 -20.618  1.00  0.00    -0.550 OA
ATOM     14  O   UNL     1     -20.448  35.420 -20.675  1.00  0.00    -0.550 OA
ENDBRANCH  11  12
ENDBRANCH  10  11
ENDBRANCH   9  10
ENDBRANCH   8   9
ENDBRANCH   7   8
ENDBRANCH   6   7
ENDBRANCH   5   6
ENDBRANCH   4   5
ENDBRANCH   3   4
ENDBRANCH   2   3
ENDBRANCH   1   2
BRANCH   1  15
ATOM     15  C   UNL     1     -12.409  28.342 -16.330  1.00  0.00     0.000 C 
BRANCH  15  16
ATOM     16  C   UNL     1     -12.715  27.763 -17.724  1.00  0.00     0.000 C 
BRANCH  16  17
ATOM     17  C   UNL     1     -11.538  27.030 -18.395  1.00  0.00     0.000 C 
BRANCH  17  18
ATOM     18  C   UNL     1     -11.683  26.928 -19.921  1.00  0.00    -0.000 C 
BRANCH  18  19
ATOM     19  C   UNL     1     -12.362  25.610 -20.323  1.00  0.00    -0.000 C 
BRANCH  19  20
ATOM     20  C   UNL     1     -13.016  24.892 -19.130  1.00  0.00    -0.000 C 
BRANCH  20  21
ATOM     21  C   UNL     1     -14.362  24.243 -19.498  1.00  0.00    -0.000 C 
BRANCH  21  22
ATOM     22  C   UNL     1     -14.230  23.189 -20.613  1.00  0.00    -0.000 C 
BRANCH  22  23
ATOM     23  C   UNL     1     -13.459  21.913 -20.219  1.00  0.00    -0.000 C 
BRANCH  23  24
ATOM     24  C   UNL     1     -14.325  20.647 -20.058  1.00  0.00    -0.000 C 
BRANCH  24  25
ATOM     25  C   UNL     1     -15.652  20.663 -20.839  1.00  0.00    -0.003 C 
ATOM     26  C   UNL     1     -16.874  20.822 -19.932  1.00  0.00     0.004 C 
ENDBRANCH  24  25
ENDBRANCH  23  24
ENDBRANCH  22  23
ENDBRANCH  21  22
ENDBRANCH  20  21
ENDBRANCH  19  20
ENDBRANCH  18  19
ENDBRANCH  17  18
ENDBRANCH  16  17
ENDBRANCH  15  16
ENDBRANCH   1  15
TORSDOF 22
ENDMDL
MODEL 7
REMARK VINA RESULT:    14.440      1.371      2.241
REMARK INTER + INTRA:          34.105
REMARK INTER:                  32.999
REMARK INTRA:                   1.106
REMARK UNBOUND:                 1.094
REMARK SMILES CCCCCCCCCCCCCCCCCCCCCCCC(=O)[O-]
REMARK SMILES IDX 13 1 14 2 15 3 16 4 17 5 18 6 19 7 20 8 21 9 22 10 23 11
REMARK SMILES IDX 24 12 25 13 26 14 12 15 11 16 10 17 9 18 8 19 7 20 6 21 5 22
REMARK SMILES IDX 4 23 3 24 2 25 1 26
REMARK H PARENT
REMARK Flexibility Score: inf
ROOT
ATOM      1  C   UNL     1     -13.994  28.977 -16.239  1.00  0.00     0.000 C 
ENDROOT
BRANCH   1   2
ATOM      2  C   UNL     1     -12.693  28.160 -16.270  1.00  0.00     0.000 C 
BRANCH   2   3
ATOM      3  C   UNL     1     -12.577  27.288 -17.531  1.00  0.00     0.000 C 
BRANCH   3   4
ATOM      4  C   UNL     1     -11.985  28.056 -18.727  1.00  0.00     0.000 C 
BRANCH   4   5
ATOM      5  C   UNL     1     -11.811  27.154 -19.969  1.00  0.00     0.000 C 
BRANCH   5   6
ATOM      6  C   UNL     1     -11.029  25.853 -19.692  1.00  0.00     0.000 C 
BRANCH   6   7
ATOM      7  C   UNL     1     -11.731  24.562 -20.144  1.00  0.00     0.000 C 
BRANCH   7   8
ATOM      8  C   UNL     1     -13.217  24.774 -20.477  1.00  0.00     0.000 C 
BRANCH   8   9
ATOM      9  C   UNL     1     -13.932  23.464 -20.854  1.00  0.00     0.000 C 
BRANCH   9  10
ATOM     10  C   UNL     1     -13.791  22.354 -19.789  1.00  0.00     0.006 C 
BRANCH  10  11
ATOM     11  C   UNL     1     -15.015  22.276 -18.867  1.00  0.00     0.053 C 
BRANCH  11  12
ATOM     12  C   UNL     1     -15.529  23.648 -18.564  1.00  0.00     0.041 C 
ATOM     13  O   UNL     1     -16.325  24.216 -19.359  1.00  0.00    -0.550 OA
ATOM     14  O   UNL     1     -15.102  24.316 -17.422  1.00  0.00    -0.550 OA
ENDBRANCH  11  12
ENDBRANCH  10  11
ENDBRANCH   9  10
ENDBRANCH   8   9
ENDBRANCH   7   8
ENDBRANCH   6   7
ENDBRANCH   5   6
ENDBRANCH   4   5
ENDBRANCH   3   4
ENDBRANCH   2   3
ENDBRANCH   1   2
BRANCH   1  15
ATOM     15  C   UNL     1     -13.757  30.408 -16.741  1.00  0.00     0.000 C 
BRANCH  15  16
ATOM     16  C   UNL     1     -14.544  30.731 -18.025  1.00  0.00     0.000 C 
BRANCH  16  17
ATOM     17  C   UNL     1     -14.439  32.193 -18.500  1.00  0.00     0.000 C 
BRANCH  17  18
ATOM     18  C   UNL     1     -15.467  32.548 -19.585  1.00  0.00    -0.000 C 
BRANCH  18  19
ATOM     19  C   UNL     1     -15.441  34.052 -19.898  1.00  0.00    -0.000 C 
BRANCH  19  20
ATOM     20  C   UNL     1     -15.484  34.922 -18.630  1.00  0.00    -0.000 C 
BRANCH  20  21
ATOM     21  C   UNL     1     -16.435  36.124 -18.772  1.00  0.00    -0.000 C 
BRANCH  21  22
ATOM     22  C   UNL     1     -17.914  35.705 -18.857  1.00  0.00    -0.000 C 
BRANCH  22  23
ATOM     23  C   UNL     1     -18.390  35.263 -20.255  1.00  0.00    -0.000 C 
BRANCH  23  24
ATOM     24  C   UNL     1     -19.604  34.311 -20.265  1.00  0.00    -0.000 C 
BRANCH  24  25
ATOM     25  C   UNL     1     -20.485  34.370 -19.004  1.00  0.00    -0.003 C 
ATOM     26  C   UNL     1     -20.080  35.492 -18.045  1.00  0.00     0.004 C 
ENDBRANCH  24  25
ENDBRANCH  23  24
ENDBRANCH  22  23
ENDBRANCH  21  22
ENDBRANCH  20  21
ENDBRANCH  19  20
ENDBRANCH  18  19
ENDBRANCH  17  18
ENDBRANCH  16  17
ENDBRANCH  15  16
ENDBRANCH   1  15
TORSDOF 22
ENDMDL
MODEL 8
REMARK VINA RESULT:    14.502      4.223     10.648
REMARK INTER + INTRA:          34.246
REMARK INTER:                  34.653
REMARK INTRA:                  -0.407
REMARK UNBOUND:                 1.094
REMARK SMILES CCCCCCCCCCCCCCCCCCCCCCCC(=O)[O-]
REMARK SMILES IDX 13 1 14 2 15 3 16 4 17 5 18 6 19 7 20 8 21 9 22 10 23 11
REMARK SMILES IDX 24 12 25 13 26 14 12 15 11 16 10 17 9 18 8 19 7 20 6 21 5 22
REMARK SMILES IDX 4 23 3 24 2 25 1 26
REMARK H PARENT
REMARK Flexibility Score: inf
ROOT
ATOM      1  C   UNL     1     -13.553  28.949 -15.853  1.00  0.00     0.000 C 
ENDROOT
BRANCH   1   2
ATOM      2  C   UNL     1     -13.668  30.387 -16.383  1.00  0.00     0.000 C 
BRANCH   2   3
ATOM      3  C   UNL     1     -14.373  30.455 -17.748  1.00  0.00     0.000 C 
BRANCH   3   4
ATOM      4  C   UNL     1     -14.205  31.825 -18.432  1.00  0.00     0.000 C 
BRANCH   4   5
ATOM      5  C   UNL     1     -15.326  32.105 -19.456  1.00  0.00     0.000 C 
BRANCH   5   6
ATOM      6  C   UNL     1     -16.024  33.467 -19.263  1.00  0.00     0.000 C 
BRANCH   6   7
ATOM      7  C   UNL     1     -15.103  34.615 -18.819  1.00  0.00     0.000 C 
BRANCH   7   8
ATOM      8  C   UNL     1     -15.874  35.899 -18.471  1.00  0.00     0.000 C 
BRANCH   8   9
ATOM      9  C   UNL     1     -17.394  35.746 -18.657  1.00  0.00     0.000 C 
BRANCH   9  10
ATOM     10  C   UNL     1     -17.881  36.098 -20.080  1.00  0.00     0.006 C 
BRANCH  10  11
ATOM     11  C   UNL     1     -19.413  36.112 -20.182  1.00  0.00     0.053 C 
BRANCH  11  12
ATOM     12  C   UNL     1     -20.007  35.089 -19.266  1.00  0.00     0.041 C 
ATOM     13  O   UNL     1     -20.010  33.873 -19.593  1.00  0.00    -0.550 OA
ATOM     14  O   UNL     1     -20.590  35.482 -18.067  1.00  0.00    -0.550 OA
ENDBRANCH  11  12
ENDBRANCH  10  11
ENDBRANCH   9  10
ENDBRANCH   8   9
ENDBRANCH   7   8
ENDBRANCH   6   7
ENDBRANCH   5   6
ENDBRANCH   4   5
ENDBRANCH   3   4
ENDBRANCH   2   3
ENDBRANCH   1   2
BRANCH   1  15
ATOM     15  C   UNL     1     -13.102  27.989 -16.964  1.00  0.00     0.000 C 
BRANCH  15  16
ATOM     16  C   UNL     1     -12.108  28.635 -17.948  1.00  0.00     0.000 C 
BRANCH  16  17
ATOM     17  C   UNL     1     -11.995  27.930 -19.313  1.00  0.00     0.000 C 
BRANCH  17  18
ATOM     18  C   UNL     1     -11.785  26.414 -19.191  1.00  0.00    -0.000 C 
BRANCH  18  19
ATOM     19  C   UNL     1     -10.615  25.947 -20.072  1.00  0.00    -0.000 C 
BRANCH  19  20
ATOM     20  C   UNL     1     -10.862  24.566 -20.703  1.00  0.00    -0.000 C 
BRANCH  20  21
ATOM     21  C   UNL     1     -11.964  23.775 -19.977  1.00  0.00    -0.000 C 
BRANCH  21  22
ATOM     22  C   UNL     1     -13.275  23.704 -20.782  1.00  0.00    -0.000 C 
BRANCH  22  23
ATOM     23  C   UNL     1     -14.116  22.433 -20.552  1.00  0.00    -0.000 C 
BRANCH  23  24
ATOM     24  C   UNL     1     -14.829  22.355 -19.187  1.00  0.00    -0.000 C 
BRANCH  24  25
ATOM     25  C   UNL     1     -14.965  23.698 -18.448  1.00  0.00    -0.003 C 
ATOM     26  C   UNL     1     -16.274  24.424 -18.766  1.00  0.00     0.004 C 
ENDBRANCH  24  25
ENDBRANCH  23  24
ENDBRANCH  22  23
ENDBRANCH  21  22
ENDBRANCH  20  21
ENDBRANCH  19  20
ENDBRANCH  18  19
ENDBRANCH  17  18
ENDBRANCH  16  17
ENDBRANCH  15  16
ENDBRANCH   1  15
TORSDOF 22
ENDMDL
