MODEL 1
REMARK VINA RESULT:    -7.180      0.000      0.000
REMARK INTER + INTRA:          -8.574
REMARK INTER:                  -8.439
REMARK INTRA:                  -0.135
REMARK UNBOUND:                -0.135
REMARK SMILES O=C([O-])C=Cc1ccc(O)c(O)c1
REMARK SMILES IDX 6 1 13 2 7 3 11 4 8 5 9 6 5 7 4 8 2 9 1 10 3 11 12 12 10 14
REMARK H PARENT 12 13 10 15
REMARK Flexibility Score: inf
ROOT
ATOM      1  C   UNL     1      33.666  26.169  18.323  1.00  0.00    -0.022 A 
ATOM      2  C   UNL     1      33.193  27.426  17.912  1.00  0.00     0.058 A 
ATOM      3  C   UNL     1      33.852  25.163  17.355  1.00  0.00     0.012 A 
ATOM      4  C   UNL     1      32.885  27.673  16.568  1.00  0.00     0.157 A 
ATOM      5  C   UNL     1      33.546  25.406  16.014  1.00  0.00     0.051 A 
ATOM      6  C   UNL     1      33.059  26.658  15.614  1.00  0.00     0.157 A 
ENDROOT
BRANCH   1   7
ATOM      7  C   UNL     1      33.986  25.966  19.758  1.00  0.00     0.010 C 
ATOM      8  C   UNL     1      33.994  26.952  20.667  1.00  0.00     0.025 C 
BRANCH   8   9
ATOM      9  C   UNL     1      34.328  26.715  22.081  1.00  0.00     0.064 C 
ATOM     10  O   UNL     1      34.900  25.653  22.447  1.00  0.00    -0.545 OA
ATOM     11  O   UNL     1      34.004  27.676  23.029  1.00  0.00    -0.545 OA
ENDBRANCH   8   9
ENDBRANCH   1   7
BRANCH   4  12
ATOM     12  O   UNL     1      32.409  28.931  16.203  1.00  0.00    -0.504 OA
ATOM     13  H   UNL     1      31.461  29.226  16.404  1.00  0.00     0.293 HD
ENDBRANCH   4  12
BRANCH   6  14
ATOM     14  O   UNL     1      32.754  26.896  14.276  1.00  0.00    -0.504 OA
ATOM     15  H   UNL     1      31.808  26.811  13.923  1.00  0.00     0.293 HD
ENDBRANCH   6  14
TORSDOF 4
ENDMDL
MODEL 2
REMARK VINA RESULT:    -6.884      2.832      3.769
REMARK INTER + INTRA:          -8.226
REMARK INTER:                  -8.091
REMARK INTRA:                  -0.136
REMARK UNBOUND:                -0.135
REMARK SMILES O=C([O-])C=Cc1ccc(O)c(O)c1
REMARK SMILES IDX 6 1 13 2 7 3 11 4 8 5 9 6 5 7 4 8 2 9 1 10 3 11 12 12 10 14
REMARK H PARENT 12 13 10 15
REMARK Flexibility Score: inf
ROOT
ATOM      1  C   UNL     1      33.629  25.028  17.708  1.00  0.00    -0.022 A 
ATOM      2  C   UNL     1      33.453  26.229  18.415  1.00  0.00     0.058 A 
ATOM      3  C   UNL     1      33.541  25.046  16.303  1.00  0.00     0.012 A 
ATOM      4  C   UNL     1      33.169  27.423  17.740  1.00  0.00     0.157 A 
ATOM      5  C   UNL     1      33.258  26.236  15.627  1.00  0.00     0.051 A 
ATOM      6  C   UNL     1      33.068  27.427  16.340  1.00  0.00     0.157 A 
ENDROOT
BRANCH   1   7
ATOM      7  C   UNL     1      33.938  23.794  18.473  1.00  0.00     0.010 C 
ATOM      8  C   UNL     1      33.542  22.568  18.102  1.00  0.00     0.025 C 
BRANCH   8   9
ATOM      9  C   UNL     1      33.858  21.367  18.893  1.00  0.00     0.064 C 
ATOM     10  O   UNL     1      33.372  20.243  18.596  1.00  0.00    -0.545 OA
ATOM     11  O   UNL     1      34.704  21.476  19.989  1.00  0.00    -0.545 OA
ENDBRANCH   8   9
ENDBRANCH   1   7
BRANCH   4  12
ATOM     12  O   UNL     1      32.991  28.592  18.479  1.00  0.00    -0.504 OA
ATOM     13  H   UNL     1      32.908  28.583  19.488  1.00  0.00     0.293 HD
ENDBRANCH   4  12
BRANCH   6  14
ATOM     14  O   UNL     1      32.785  28.612  15.662  1.00  0.00    -0.504 OA
ATOM     15  H   UNL     1      33.498  29.111  15.143  1.00  0.00     0.293 HD
ENDBRANCH   6  14
TORSDOF 4
ENDMDL
MODEL 3
REMARK VINA RESULT:    -6.823      1.516      2.445
REMARK INTER + INTRA:          -8.155
REMARK INTER:                  -8.024
REMARK INTRA:                  -0.131
REMARK UNBOUND:                -0.135
REMARK SMILES O=C([O-])C=Cc1ccc(O)c(O)c1
REMARK SMILES IDX 6 1 13 2 7 3 11 4 8 5 9 6 5 7 4 8 2 9 1 10 3 11 12 12 10 14
REMARK H PARENT 12 13 10 15
REMARK Flexibility Score: inf
ROOT
ATOM      1  C   UNL     1      33.671  26.655  19.350  1.00  0.00    -0.022 A 
ATOM      2  C   UNL     1      33.889  25.364  18.841  1.00  0.00     0.058 A 
ATOM      3  C   UNL     1      33.240  27.668  18.472  1.00  0.00     0.012 A 
ATOM      4  C   UNL     1      33.708  25.089  17.480  1.00  0.00     0.157 A 
ATOM      5  C   UNL     1      33.058  27.396  17.113  1.00  0.00     0.051 A 
ATOM      6  C   UNL     1      33.293  26.111  16.611  1.00  0.00     0.157 A 
ENDROOT
BRANCH   1   7
ATOM      7  C   UNL     1      33.869  26.887  20.803  1.00  0.00     0.010 C 
ATOM      8  C   UNL     1      34.730  26.190  21.558  1.00  0.00     0.025 C 
BRANCH   8   9
ATOM      9  C   UNL     1      34.891  26.442  23.000  1.00  0.00     0.064 C 
ATOM     10  O   UNL     1      35.172  27.591  23.435  1.00  0.00    -0.545 OA
ATOM     11  O   UNL     1      34.732  25.393  23.897  1.00  0.00    -0.545 OA
ENDBRANCH   8   9
ENDBRANCH   1   7
BRANCH   4  12
ATOM     12  O   UNL     1      33.945  23.797  17.013  1.00  0.00    -0.504 OA
ATOM     13  H   UNL     1      33.192  23.178  16.736  1.00  0.00     0.293 HD
ENDBRANCH   4  12
BRANCH   6  14
ATOM     14  O   UNL     1      33.111  25.844  15.255  1.00  0.00    -0.504 OA
ATOM     15  H   UNL     1      32.189  25.689  14.862  1.00  0.00     0.293 HD
ENDBRANCH   6  14
TORSDOF 4
ENDMDL
MODEL 4
REMARK VINA RESULT:    -6.676      1.004      5.900
REMARK INTER + INTRA:          -7.982
REMARK INTER:                  -7.844
REMARK INTRA:                  -0.138
REMARK UNBOUND:                -0.135
REMARK SMILES O=C([O-])C=Cc1ccc(O)c(O)c1
REMARK SMILES IDX 6 1 13 2 7 3 11 4 8 5 9 6 5 7 4 8 2 9 1 10 3 11 12 12 10 14
REMARK H PARENT 12 13 10 15
REMARK Flexibility Score: inf
ROOT
ATOM      1  C   UNL     1      33.755  26.748  19.773  1.00  0.00    -0.022 A 
ATOM      2  C   UNL     1      33.514  27.573  20.883  1.00  0.00     0.058 A 
ATOM      3  C   UNL     1      34.487  25.558  19.957  1.00  0.00     0.012 A 
ATOM      4  C   UNL     1      34.011  27.238  22.149  1.00  0.00     0.157 A 
ATOM      5  C   UNL     1      34.984  25.221  21.218  1.00  0.00     0.051 A 
ATOM      6  C   UNL     1      34.753  26.058  22.317  1.00  0.00     0.157 A 
ENDROOT
BRANCH   1   7
ATOM      7  C   UNL     1      33.196  27.146  18.457  1.00  0.00     0.010 C 
ATOM      8  C   UNL     1      33.570  26.598  17.291  1.00  0.00     0.025 C 
BRANCH   8   9
ATOM      9  C   UNL     1      33.000  27.028  16.003  1.00  0.00     0.064 C 
ATOM     10  O   UNL     1      32.870  28.250  15.723  1.00  0.00    -0.545 OA
ATOM     11  O   UNL     1      32.597  26.070  15.082  1.00  0.00    -0.545 OA
ENDBRANCH   8   9
ENDBRANCH   1   7
BRANCH   4  12
ATOM     12  O   UNL     1      33.757  28.090  23.223  1.00  0.00    -0.504 OA
ATOM     13  H   UNL     1      34.093  27.892  24.158  1.00  0.00     0.293 HD
ENDBRANCH   4  12
BRANCH   6  14
ATOM     14  O   UNL     1      35.251  25.719  23.574  1.00  0.00    -0.504 OA
ATOM     15  H   UNL     1      35.762  24.857  23.728  1.00  0.00     0.293 HD
ENDBRANCH   6  14
TORSDOF 4
ENDMDL
MODEL 5
REMARK VINA RESULT:    -6.671      1.076      6.024
REMARK INTER + INTRA:          -7.976
REMARK INTER:                  -7.838
REMARK INTRA:                  -0.139
REMARK UNBOUND:                -0.135
REMARK SMILES O=C([O-])C=Cc1ccc(O)c(O)c1
REMARK SMILES IDX 6 1 13 2 7 3 11 4 8 5 9 6 5 7 4 8 2 9 1 10 3 11 12 12 10 14
REMARK H PARENT 12 13 10 15
REMARK Flexibility Score: inf
ROOT
ATOM      1  C   UNL     1      33.668  26.646  19.392  1.00  0.00    -0.022 A 
ATOM      2  C   UNL     1      34.427  25.948  20.347  1.00  0.00     0.058 A 
ATOM      3  C   UNL     1      33.011  27.830  19.780  1.00  0.00     0.012 A 
ATOM      4  C   UNL     1      34.510  26.403  21.669  1.00  0.00     0.157 A 
ATOM      5  C   UNL     1      33.093  28.286  21.098  1.00  0.00     0.051 A 
ATOM      6  C   UNL     1      33.838  27.575  22.048  1.00  0.00     0.157 A 
ENDROOT
BRANCH   1   7
ATOM      7  C   UNL     1      33.623  26.125  18.003  1.00  0.00     0.010 C 
ATOM      8  C   UNL     1      33.268  26.864  16.941  1.00  0.00     0.025 C 
BRANCH   8   9
ATOM      9  C   UNL     1      33.223  26.309  15.578  1.00  0.00     0.064 C 
ATOM     10  O   UNL     1      32.374  26.710  14.738  1.00  0.00    -0.545 OA
ATOM     11  O   UNL     1      34.131  25.324  15.213  1.00  0.00    -0.545 OA
ENDBRANCH   8   9
ENDBRANCH   1   7
BRANCH   4  12
ATOM     12  O   UNL     1      35.265  25.675  22.588  1.00  0.00    -0.504 OA
ATOM     13  H   UNL     1      35.085  24.696  22.777  1.00  0.00     0.293 HD
ENDBRANCH   4  12
BRANCH   6  14
ATOM     14  O   UNL     1      33.917  28.032  23.362  1.00  0.00    -0.504 OA
ATOM     15  H   UNL     1      34.458  27.541  24.064  1.00  0.00     0.293 HD
ENDBRANCH   6  14
TORSDOF 4
ENDMDL
MODEL 6
REMARK VINA RESULT:    -6.646      3.077      4.290
REMARK INTER + INTRA:          -7.947
REMARK INTER:                  -7.817
REMARK INTRA:                  -0.130
REMARK UNBOUND:                -0.135
REMARK SMILES O=C([O-])C=Cc1ccc(O)c(O)c1
REMARK SMILES IDX 6 1 13 2 7 3 11 4 8 5 9 6 5 7 4 8 2 9 1 10 3 11 12 12 10 14
REMARK H PARENT 12 13 10 15
REMARK Flexibility Score: inf
ROOT
ATOM      1  C   UNL     1      33.703  24.787  18.097  1.00  0.00    -0.022 A 
ATOM      2  C   UNL     1      33.519  24.966  16.715  1.00  0.00     0.058 A 
ATOM      3  C   UNL     1      33.559  25.899  18.951  1.00  0.00     0.012 A 
ATOM      4  C   UNL     1      33.225  26.229  16.188  1.00  0.00     0.157 A 
ATOM      5  C   UNL     1      33.265  27.160  18.427  1.00  0.00     0.051 A 
ATOM      6  C   UNL     1      33.100  27.333  17.047  1.00  0.00     0.157 A 
ENDROOT
BRANCH   1   7
ATOM      7  C   UNL     1      34.003  23.425  18.603  1.00  0.00     0.010 C 
ATOM      8  C   UNL     1      33.547  22.300  18.031  1.00  0.00     0.025 C 
BRANCH   8   9
ATOM      9  C   UNL     1      33.857  20.965  18.569  1.00  0.00     0.064 C 
ATOM     10  O   UNL     1      34.973  20.419  18.357  1.00  0.00    -0.545 OA
ATOM     11  O   UNL     1      32.901  20.294  19.320  1.00  0.00    -0.545 OA
ENDBRANCH   8   9
ENDBRANCH   1   7
BRANCH   4  12
ATOM     12  O   UNL     1      33.060  26.365  14.810  1.00  0.00    -0.504 OA
ATOM     13  H   UNL     1      33.839  26.563  14.192  1.00  0.00     0.293 HD
ENDBRANCH   4  12
BRANCH   6  14
ATOM     14  O   UNL     1      32.807  28.593  16.528  1.00  0.00    -0.504 OA
ATOM     15  H   UNL     1      32.711  28.748  15.531  1.00  0.00     0.293 HD
ENDBRANCH   6  14
TORSDOF 4
ENDMDL
MODEL 7
REMARK VINA RESULT:    -6.355      1.854      6.196
REMARK INTER + INTRA:          -7.605
REMARK INTER:                  -7.465
REMARK INTRA:                  -0.140
REMARK UNBOUND:                -0.135
REMARK SMILES O=C([O-])C=Cc1ccc(O)c(O)c1
REMARK SMILES IDX 6 1 13 2 7 3 11 4 8 5 9 6 5 7 4 8 2 9 1 10 3 11 12 12 10 14
REMARK H PARENT 12 13 10 15
REMARK Flexibility Score: inf
ROOT
ATOM      1  C   UNL     1      34.314  26.215  20.500  1.00  0.00    -0.022 A 
ATOM      2  C   UNL     1      34.763  25.655  21.708  1.00  0.00     0.058 A 
ATOM      3  C   UNL     1      33.965  27.579  20.472  1.00  0.00     0.012 A 
ATOM      4  C   UNL     1      34.839  26.428  22.873  1.00  0.00     0.157 A 
ATOM      5  C   UNL     1      34.040  28.353  21.632  1.00  0.00     0.051 A 
ATOM      6  C   UNL     1      34.473  27.783  22.837  1.00  0.00     0.157 A 
ENDROOT
BRANCH   1   7
ATOM      7  C   UNL     1      34.263  25.352  19.293  1.00  0.00     0.010 C 
ATOM      8  C   UNL     1      33.803  25.763  18.103  1.00  0.00     0.025 C 
BRANCH   8   9
ATOM      9  C   UNL     1      33.756  24.874  16.930  1.00  0.00     0.064 C 
ATOM     10  O   UNL     1      33.793  25.336  15.758  1.00  0.00    -0.545 OA
ATOM     11  O   UNL     1      33.668  23.500  17.118  1.00  0.00    -0.545 OA
ENDBRANCH   8   9
ENDBRANCH   1   7
BRANCH   4  12
ATOM     12  O   UNL     1      35.280  25.831  24.053  1.00  0.00    -0.504 OA
ATOM     13  H   UNL     1      34.730  25.135  24.542  1.00  0.00     0.293 HD
ENDBRANCH   4  12
BRANCH   6  14
ATOM     14  O   UNL     1      34.546  28.558  23.993  1.00  0.00    -0.504 OA
ATOM     15  H   UNL     1      33.779  29.155  24.282  1.00  0.00     0.293 HD
ENDBRANCH   6  14
TORSDOF 4
ENDMDL
MODEL 8
REMARK VINA RESULT:    -6.113      4.070      6.717
REMARK INTER + INTRA:          -7.320
REMARK INTER:                  -7.188
REMARK INTRA:                  -0.132
REMARK UNBOUND:                -0.135
REMARK SMILES O=C([O-])C=Cc1ccc(O)c(O)c1
REMARK SMILES IDX 6 1 13 2 7 3 11 4 8 5 9 6 5 7 4 8 2 9 1 10 3 11 12 12 10 14
REMARK H PARENT 12 13 10 15
REMARK Flexibility Score: inf
ROOT
ATOM      1  C   UNL     1      33.739  22.082  18.555  1.00  0.00    -0.022 A 
ATOM      2  C   UNL     1      34.369  22.292  19.793  1.00  0.00     0.058 A 
ATOM      3  C   UNL     1      33.069  20.864  18.331  1.00  0.00     0.012 A 
ATOM      4  C   UNL     1      34.356  21.301  20.782  1.00  0.00     0.157 A 
ATOM      5  C   UNL     1      33.054  19.873  19.316  1.00  0.00     0.051 A 
ATOM      6  C   UNL     1      33.699  20.084  20.542  1.00  0.00     0.157 A 
ENDROOT
BRANCH   1   7
ATOM      7  C   UNL     1      33.775  23.171  17.547  1.00  0.00     0.010 C 
ATOM      8  C   UNL     1      33.678  24.473  17.852  1.00  0.00     0.025 C 
BRANCH   8   9
ATOM      9  C   UNL     1      33.705  25.526  16.823  1.00  0.00     0.064 C 
ATOM     10  O   UNL     1      33.943  25.252  15.616  1.00  0.00    -0.545 OA
ATOM     11  O   UNL     1      33.468  26.844  17.189  1.00  0.00    -0.545 OA
ENDBRANCH   8   9
ENDBRANCH   1   7
BRANCH   4  12
ATOM     12  O   UNL     1      35.002  21.545  21.993  1.00  0.00    -0.504 OA
ATOM     13  H   UNL     1      35.478  20.813  22.506  1.00  0.00     0.293 HD
ENDBRANCH   4  12
BRANCH   6  14
ATOM     14  O   UNL     1      33.683  19.093  21.521  1.00  0.00    -0.504 OA
ATOM     15  H   UNL     1      32.861  18.918  22.088  1.00  0.00     0.293 HD
ENDBRANCH   6  14
TORSDOF 4
ENDMDL
MODEL 9
REMARK VINA RESULT:    -6.053      1.254      5.914
REMARK INTER + INTRA:          -7.249
REMARK INTER:                  -7.117
REMARK INTRA:                  -0.133
REMARK UNBOUND:                -0.135
REMARK SMILES O=C([O-])C=Cc1ccc(O)c(O)c1
REMARK SMILES IDX 6 1 13 2 7 3 11 4 8 5 9 6 5 7 4 8 2 9 1 10 3 11 12 12 10 14
REMARK H PARENT 12 13 10 15
REMARK Flexibility Score: inf
ROOT
ATOM      1  C   UNL     1      33.462  27.135  19.392  1.00  0.00    -0.022 A 
ATOM      2  C   UNL     1      34.045  25.857  19.415  1.00  0.00     0.058 A 
ATOM      3  C   UNL     1      33.495  27.918  20.563  1.00  0.00     0.012 A 
ATOM      4  C   UNL     1      34.627  25.355  20.585  1.00  0.00     0.157 A 
ATOM      5  C   UNL     1      34.075  27.419  21.731  1.00  0.00     0.051 A 
ATOM      6  C   UNL     1      34.640  26.137  21.750  1.00  0.00     0.157 A 
ENDROOT
BRANCH   1   7
ATOM      7  C   UNL     1      32.867  27.622  18.122  1.00  0.00     0.010 C 
ATOM      8  C   UNL     1      33.235  27.181  16.910  1.00  0.00     0.025 C 
BRANCH   8   9
ATOM      9  C   UNL     1      32.631  27.696  15.670  1.00  0.00     0.064 C 
ATOM     10  O   UNL     1      32.598  26.999  14.621  1.00  0.00    -0.545 OA
ATOM     11  O   UNL     1      32.089  28.975  15.656  1.00  0.00    -0.545 OA
ENDBRANCH   8   9
ENDBRANCH   1   7
BRANCH   4  12
ATOM     12  O   UNL     1      35.186  24.077  20.567  1.00  0.00    -0.504 OA
ATOM     13  H   UNL     1      35.143  23.482  19.749  1.00  0.00     0.293 HD
ENDBRANCH   4  12
BRANCH   6  14
ATOM     14  O   UNL     1      35.218  25.643  22.918  1.00  0.00    -0.504 OA
ATOM     15  H   UNL     1      35.336  24.648  23.073  1.00  0.00     0.293 HD
ENDBRANCH   6  14
TORSDOF 4
ENDMDL
