MODEL 1
REMARK VINA RESULT:    19.203      0.000      0.000
REMARK INTER + INTRA:          49.387
REMARK INTER:                  50.635
REMARK INTRA:                  -1.249
REMARK UNBOUND:                -1.249
REMARK SMILES CCCCCCCCCCCCCCCCCCCCCCCCCCCCCC(=O)[O-]
REMARK SMILES IDX 16 1 17 2 18 3 19 4 20 5 21 6 22 7 23 8 24 9 25 10 26 11
REMARK SMILES IDX 27 12 28 13 29 14 30 15 31 16 32 17 15 18 14 19 13 20 12 21
REMARK SMILES IDX 11 22 10 23 9 24 8 25 7 26 6 27 5 28 4 29 3 30 2 31 1 32
REMARK H PARENT
REMARK Flexibility Score: inf
ROOT
ATOM      1  C   UNL     1      -2.786  16.009  -9.757  1.00  0.00     0.000 C 
ENDROOT
BRANCH   1   2
ATOM      2  C   UNL     1      -3.124  14.561 -10.154  1.00  0.00     0.000 C 
BRANCH   2   3
ATOM      3  C   UNL     1      -4.484  14.433 -10.863  1.00  0.00     0.000 C 
BRANCH   3   4
ATOM      4  C   UNL     1      -5.601  15.351 -10.330  1.00  0.00     0.000 C 
BRANCH   4   5
ATOM      5  C   UNL     1      -6.236  16.228 -11.420  1.00  0.00     0.000 C 
BRANCH   5   6
ATOM      6  C   UNL     1      -6.972  15.402 -12.488  1.00  0.00     0.000 C 
BRANCH   6   7
ATOM      7  C   UNL     1      -8.045  16.205 -13.257  1.00  0.00     0.000 C 
BRANCH   7   8
ATOM      8  C   UNL     1      -9.472  15.873 -12.793  1.00  0.00     0.000 C 
BRANCH   8   9
ATOM      9  C   UNL     1      -9.665  14.385 -12.451  1.00  0.00     0.000 C 
BRANCH   9  10
ATOM     10  C   UNL     1     -10.173  14.127 -11.015  1.00  0.00     0.000 C 
BRANCH  10  11
ATOM     11  C   UNL     1     -10.527  15.412 -10.240  1.00  0.00     0.000 C 
BRANCH  11  12
ATOM     12  C   UNL     1     -10.011  15.412  -8.781  1.00  0.00     0.000 C 
BRANCH  12  13
ATOM     13  C   UNL     1     -10.800  16.362  -7.855  1.00  0.00     0.006 C 
BRANCH  13  14
ATOM     14  C   UNL     1     -12.150  15.788  -7.391  1.00  0.00     0.053 C 
BRANCH  14  15
ATOM     15  C   UNL     1     -12.393  16.013  -5.931  1.00  0.00     0.041 C 
ATOM     16  O   UNL     1     -13.219  15.295  -5.309  1.00  0.00    -0.550 OA
ATOM     17  O   UNL     1     -11.731  17.036  -5.264  1.00  0.00    -0.550 OA
ENDBRANCH  14  15
ENDBRANCH  13  14
ENDBRANCH  12  13
ENDBRANCH  11  12
ENDBRANCH  10  11
ENDBRANCH   9  10
ENDBRANCH   8   9
ENDBRANCH   7   8
ENDBRANCH   6   7
ENDBRANCH   5   6
ENDBRANCH   4   5
ENDBRANCH   3   4
ENDBRANCH   2   3
ENDBRANCH   1   2
BRANCH   1  18
ATOM     18  C   UNL     1      -3.146  17.019 -10.858  1.00  0.00     0.000 C 
BRANCH  18  19
ATOM     19  C   UNL     1      -3.157  18.474 -10.357  1.00  0.00     0.000 C 
BRANCH  19  20
ATOM     20  C   UNL     1      -4.147  19.353 -11.137  1.00  0.00     0.000 C 
BRANCH  20  21
ATOM     21  C   UNL     1      -5.614  18.986 -10.863  1.00  0.00     0.000 C 
BRANCH  21  22
ATOM     22  C   UNL     1      -6.510  20.223 -10.677  1.00  0.00     0.000 C 
BRANCH  22  23
ATOM     23  C   UNL     1      -6.330  21.287 -11.781  1.00  0.00     0.000 C 
BRANCH  23  24
ATOM     24  C   UNL     1      -6.466  20.690 -13.193  1.00  0.00    -0.000 C 
BRANCH  24  25
ATOM     25  C   UNL     1      -6.887  21.745 -14.238  1.00  0.00    -0.000 C 
BRANCH  25  26
ATOM     26  C   UNL     1      -7.012  21.194 -15.670  1.00  0.00    -0.000 C 
BRANCH  26  27
ATOM     27  C   UNL     1      -5.758  20.446 -16.168  1.00  0.00    -0.000 C 
BRANCH  27  28
ATOM     28  C   UNL     1      -5.931  19.887 -17.592  1.00  0.00    -0.000 C 
BRANCH  28  29
ATOM     29  C   UNL     1      -4.944  18.738 -17.889  1.00  0.00    -0.000 C 
BRANCH  29  30
ATOM     30  C   UNL     1      -5.629  17.454 -18.393  1.00  0.00    -0.000 C 
BRANCH  30  31
ATOM     31  C   UNL     1      -7.060  17.294 -17.863  1.00  0.00    -0.003 C 
ATOM     32  C   UNL     1      -7.884  16.382 -18.766  1.00  0.00     0.004 C 
ENDBRANCH  30  31
ENDBRANCH  29  30
ENDBRANCH  28  29
ENDBRANCH  27  28
ENDBRANCH  26  27
ENDBRANCH  25  26
ENDBRANCH  24  25
ENDBRANCH  23  24
ENDBRANCH  22  23
ENDBRANCH  21  22
ENDBRANCH  20  21
ENDBRANCH  19  20
ENDBRANCH  18  19
ENDBRANCH   1  18
TORSDOF 28
ENDMDL
MODEL 2
REMARK VINA RESULT:    19.421      4.310      9.547
REMARK INTER + INTRA:          49.962
REMARK INTER:                  50.780
REMARK INTRA:                  -0.818
REMARK UNBOUND:                -1.249
REMARK SMILES CCCCCCCCCCCCCCCCCCCCCCCCCCCCCC(=O)[O-]
REMARK SMILES IDX 16 1 17 2 18 3 19 4 20 5 21 6 22 7 23 8 24 9 25 10 26 11
REMARK SMILES IDX 27 12 28 13 29 14 30 15 31 16 32 17 15 18 14 19 13 20 12 21
REMARK SMILES IDX 11 22 10 23 9 24 8 25 7 26 6 27 5 28 4 29 3 30 2 31 1 32
REMARK H PARENT
REMARK Flexibility Score: inf
ROOT
ATOM      1  C   UNL     1      -3.428  16.722  -9.895  1.00  0.00     0.000 C 
ENDROOT
BRANCH   1   2
ATOM      2  C   UNL     1      -3.199  17.667 -11.089  1.00  0.00     0.000 C 
BRANCH   2   3
ATOM      3  C   UNL     1      -4.131  18.892 -11.075  1.00  0.00     0.000 C 
BRANCH   3   4
ATOM      4  C   UNL     1      -5.581  18.618 -10.630  1.00  0.00     0.000 C 
BRANCH   4   5
ATOM      5  C   UNL     1      -6.610  18.838 -11.751  1.00  0.00     0.000 C 
BRANCH   5   6
ATOM      6  C   UNL     1      -6.470  20.215 -12.421  1.00  0.00     0.000 C 
BRANCH   6   7
ATOM      7  C   UNL     1      -6.518  21.393 -11.422  1.00  0.00     0.000 C 
BRANCH   7   8
ATOM      8  C   UNL     1      -5.117  21.905 -11.051  1.00  0.00     0.000 C 
BRANCH   8   9
ATOM      9  C   UNL     1      -4.604  23.003 -11.999  1.00  0.00     0.000 C 
BRANCH   9  10
ATOM     10  C   UNL     1      -4.679  24.431 -11.413  1.00  0.00     0.000 C 
BRANCH  10  11
ATOM     11  C   UNL     1      -3.447  25.301 -11.733  1.00  0.00     0.000 C 
BRANCH  11  12
ATOM     12  C   UNL     1      -3.622  26.786 -11.332  1.00  0.00     0.000 C 
BRANCH  12  13
ATOM     13  C   UNL     1      -4.233  26.970  -9.927  1.00  0.00     0.006 C 
BRANCH  13  14
ATOM     14  C   UNL     1      -5.748  27.238  -9.945  1.00  0.00     0.053 C 
BRANCH  14  15
ATOM     15  C   UNL     1      -6.234  27.670 -11.294  1.00  0.00     0.041 C 
ATOM     16  O   UNL     1      -5.800  28.732 -11.813  1.00  0.00    -0.550 OA
ATOM     17  O   UNL     1      -7.190  26.916 -11.964  1.00  0.00    -0.550 OA
ENDBRANCH  14  15
ENDBRANCH  13  14
ENDBRANCH  12  13
ENDBRANCH  11  12
ENDBRANCH  10  11
ENDBRANCH   9  10
ENDBRANCH   8   9
ENDBRANCH   7   8
ENDBRANCH   6   7
ENDBRANCH   5   6
ENDBRANCH   4   5
ENDBRANCH   3   4
ENDBRANCH   2   3
ENDBRANCH   1   2
BRANCH   1  18
ATOM     18  C   UNL     1      -2.742  15.360 -10.084  1.00  0.00     0.000 C 
BRANCH  18  19
ATOM     19  C   UNL     1      -3.743  14.208 -10.284  1.00  0.00     0.000 C 
BRANCH  19  20
ATOM     20  C   UNL     1      -4.550  14.355 -11.583  1.00  0.00     0.000 C 
BRANCH  20  21
ATOM     21  C   UNL     1      -5.808  15.221 -11.409  1.00  0.00     0.000 C 
BRANCH  21  22
ATOM     22  C   UNL     1      -6.901  14.896 -12.442  1.00  0.00     0.000 C 
BRANCH  22  23
ATOM     23  C   UNL     1      -7.915  16.041 -12.648  1.00  0.00     0.000 C 
BRANCH  23  24
ATOM     24  C   UNL     1      -9.366  15.530 -12.702  1.00  0.00    -0.000 C 
BRANCH  24  25
ATOM     25  C   UNL     1      -9.533  14.164 -12.005  1.00  0.00    -0.000 C 
BRANCH  25  26
ATOM     26  C   UNL     1     -10.487  14.189 -10.796  1.00  0.00    -0.000 C 
BRANCH  26  27
ATOM     27  C   UNL     1     -10.683  15.589 -10.178  1.00  0.00    -0.000 C 
BRANCH  27  28
ATOM     28  C   UNL     1     -10.348  15.623  -8.677  1.00  0.00    -0.000 C 
BRANCH  28  29
ATOM     29  C   UNL     1     -11.216  16.642  -7.909  1.00  0.00    -0.000 C 
BRANCH  29  30
ATOM     30  C   UNL     1     -11.130  16.495  -6.379  1.00  0.00    -0.000 C 
BRANCH  30  31
ATOM     31  C   UNL     1     -12.504  16.318  -5.719  1.00  0.00    -0.003 C 
ATOM     32  C   UNL     1     -12.987  14.875  -5.831  1.00  0.00     0.004 C 
ENDBRANCH  30  31
ENDBRANCH  29  30
ENDBRANCH  28  29
ENDBRANCH  27  28
ENDBRANCH  26  27
ENDBRANCH  25  26
ENDBRANCH  24  25
ENDBRANCH  23  24
ENDBRANCH  22  23
ENDBRANCH  21  22
ENDBRANCH  20  21
ENDBRANCH  19  20
ENDBRANCH  18  19
ENDBRANCH   1  18
TORSDOF 28
ENDMDL
MODEL 3
REMARK VINA RESULT:    19.712      3.182      5.449
REMARK INTER + INTRA:          50.731
REMARK INTER:                  49.548
REMARK INTRA:                   1.182
REMARK UNBOUND:                -1.249
REMARK SMILES CCCCCCCCCCCCCCCCCCCCCCCCCCCCCC(=O)[O-]
REMARK SMILES IDX 16 1 17 2 18 3 19 4 20 5 21 6 22 7 23 8 24 9 25 10 26 11
REMARK SMILES IDX 27 12 28 13 29 14 30 15 31 16 32 17 15 18 14 19 13 20 12 21
REMARK SMILES IDX 11 22 10 23 9 24 8 25 7 26 6 27 5 28 4 29 3 30 2 31 1 32
REMARK H PARENT
REMARK Flexibility Score: inf
ROOT
ATOM      1  C   UNL     1      -2.828  16.455  -9.674  1.00  0.00     0.000 C 
ENDROOT
BRANCH   1   2
ATOM      2  C   UNL     1      -2.137  15.213 -10.266  1.00  0.00     0.000 C 
BRANCH   2   3
ATOM      3  C   UNL     1      -2.945  13.918 -10.058  1.00  0.00     0.000 C 
BRANCH   3   4
ATOM      4  C   UNL     1      -4.431  13.991 -10.458  1.00  0.00     0.000 C 
BRANCH   4   5
ATOM      5  C   UNL     1      -4.721  15.068 -11.516  1.00  0.00     0.000 C 
BRANCH   5   6
ATOM      6  C   UNL     1      -6.181  15.043 -11.999  1.00  0.00     0.000 C 
BRANCH   6   7
ATOM      7  C   UNL     1      -6.933  16.370 -11.754  1.00  0.00     0.000 C 
BRANCH   7   8
ATOM      8  C   UNL     1      -8.129  16.551 -12.702  1.00  0.00     0.000 C 
BRANCH   8   9
ATOM      9  C   UNL     1      -8.901  15.244 -12.958  1.00  0.00     0.000 C 
BRANCH   9  10
ATOM     10  C   UNL     1     -10.041  14.976 -11.949  1.00  0.00     0.000 C 
BRANCH  10  11
ATOM     11  C   UNL     1      -9.652  15.253 -10.483  1.00  0.00     0.000 C 
BRANCH  11  12
ATOM     12  C   UNL     1     -10.835  15.109  -9.496  1.00  0.00     0.000 C 
BRANCH  12  13
ATOM     13  C   UNL     1     -10.654  15.934  -8.203  1.00  0.00     0.006 C 
BRANCH  13  14
ATOM     14  C   UNL     1     -11.978  16.442  -7.608  1.00  0.00     0.053 C 
BRANCH  14  15
ATOM     15  C   UNL     1     -12.107  16.124  -6.150  1.00  0.00     0.041 C 
ATOM     16  O   UNL     1     -11.318  16.644  -5.317  1.00  0.00    -0.550 OA
ATOM     17  O   UNL     1     -13.076  15.230  -5.715  1.00  0.00    -0.550 OA
ENDBRANCH  14  15
ENDBRANCH  13  14
ENDBRANCH  12  13
ENDBRANCH  11  12
ENDBRANCH  10  11
ENDBRANCH   9  10
ENDBRANCH   8   9
ENDBRANCH   7   8
ENDBRANCH   6   7
ENDBRANCH   5   6
ENDBRANCH   4   5
ENDBRANCH   3   4
ENDBRANCH   2   3
ENDBRANCH   1   2
BRANCH   1  18
ATOM     18  C   UNL     1      -3.615  17.248 -10.730  1.00  0.00     0.000 C 
BRANCH  18  19
ATOM     19  C   UNL     1      -2.988  18.618 -11.041  1.00  0.00     0.000 C 
BRANCH  19  20
ATOM     20  C   UNL     1      -4.035  19.740 -11.098  1.00  0.00     0.000 C 
BRANCH  20  21
ATOM     21  C   UNL     1      -5.446  19.259 -10.721  1.00  0.00     0.000 C 
BRANCH  21  22
ATOM     22  C   UNL     1      -6.531  19.803 -11.666  1.00  0.00     0.000 C 
BRANCH  22  23
ATOM     23  C   UNL     1      -6.177  21.169 -12.290  1.00  0.00     0.000 C 
BRANCH  23  24
ATOM     24  C   UNL     1      -5.281  22.016 -11.369  1.00  0.00    -0.000 C 
BRANCH  24  25
ATOM     25  C   UNL     1      -5.167  23.480 -11.845  1.00  0.00    -0.000 C 
BRANCH  25  26
ATOM     26  C   UNL     1      -3.804  24.132 -11.548  1.00  0.00    -0.000 C 
BRANCH  26  27
ATOM     27  C   UNL     1      -3.832  25.674 -11.544  1.00  0.00    -0.000 C 
BRANCH  27  28
ATOM     28  C   UNL     1      -4.627  26.246 -10.357  1.00  0.00    -0.000 C 
BRANCH  28  29
ATOM     29  C   UNL     1      -4.996  27.730 -10.564  1.00  0.00    -0.000 C 
BRANCH  29  30
ATOM     30  C   UNL     1      -5.814  27.988 -11.843  1.00  0.00    -0.000 C 
BRANCH  30  31
ATOM     31  C   UNL     1      -6.126  29.474 -12.062  1.00  0.00    -0.003 C 
ATOM     32  C   UNL     1      -4.887  30.235 -12.526  1.00  0.00     0.004 C 
ENDBRANCH  30  31
ENDBRANCH  29  30
ENDBRANCH  28  29
ENDBRANCH  27  28
ENDBRANCH  26  27
ENDBRANCH  25  26
ENDBRANCH  24  25
ENDBRANCH  23  24
ENDBRANCH  22  23
ENDBRANCH  21  22
ENDBRANCH  20  21
ENDBRANCH  19  20
ENDBRANCH  18  19
ENDBRANCH   1  18
TORSDOF 28
ENDMDL
MODEL 4
REMARK VINA RESULT:    20.680      4.179      9.481
REMARK INTER + INTRA:          53.282
REMARK INTER:                  54.378
REMARK INTRA:                  -1.097
REMARK UNBOUND:                -1.249
REMARK SMILES CCCCCCCCCCCCCCCCCCCCCCCCCCCCCC(=O)[O-]
REMARK SMILES IDX 16 1 17 2 18 3 19 4 20 5 21 6 22 7 23 8 24 9 25 10 26 11
REMARK SMILES IDX 27 12 28 13 29 14 30 15 31 16 32 17 15 18 14 19 13 20 12 21
REMARK SMILES IDX 11 22 10 23 9 24 8 25 7 26 6 27 5 28 4 29 3 30 2 31 1 32
REMARK H PARENT
REMARK Flexibility Score: inf
ROOT
ATOM      1  C   UNL     1      -3.295  14.981 -10.657  1.00  0.00     0.000 C 
ENDROOT
BRANCH   1   2
ATOM      2  C   UNL     1      -3.363  16.386 -10.031  1.00  0.00     0.000 C 
BRANCH   2   3
ATOM      3  C   UNL     1      -3.302  17.514 -11.077  1.00  0.00     0.000 C 
BRANCH   3   4
ATOM      4  C   UNL     1      -4.128  18.773 -10.745  1.00  0.00     0.000 C 
BRANCH   4   5
ATOM      5  C   UNL     1      -5.644  18.552 -10.868  1.00  0.00     0.000 C 
BRANCH   5   6
ATOM      6  C   UNL     1      -6.445  19.856 -10.721  1.00  0.00     0.000 C 
BRANCH   6   7
ATOM      7  C   UNL     1      -6.509  20.689 -12.021  1.00  0.00     0.000 C 
BRANCH   7   8
ATOM      8  C   UNL     1      -5.741  22.015 -11.908  1.00  0.00     0.000 C 
BRANCH   8   9
ATOM      9  C   UNL     1      -4.382  21.868 -11.201  1.00  0.00     0.000 C 
BRANCH   9  10
ATOM     10  C   UNL     1      -3.607  23.195 -11.039  1.00  0.00     0.000 C 
BRANCH  10  11
ATOM     11  C   UNL     1      -4.252  24.387 -11.774  1.00  0.00     0.000 C 
BRANCH  11  12
ATOM     12  C   UNL     1      -3.532  25.732 -11.517  1.00  0.00     0.000 C 
BRANCH  12  13
ATOM     13  C   UNL     1      -4.451  26.959 -11.692  1.00  0.00     0.006 C 
BRANCH  13  14
ATOM     14  C   UNL     1      -4.784  27.672 -10.370  1.00  0.00     0.053 C 
BRANCH  14  15
ATOM     15  C   UNL     1      -5.879  26.987  -9.613  1.00  0.00     0.041 C 
ATOM     16  O   UNL     1      -6.834  26.447 -10.232  1.00  0.00    -0.550 OA
ATOM     17  O   UNL     1      -5.863  26.972  -8.225  1.00  0.00    -0.550 OA
ENDBRANCH  14  15
ENDBRANCH  13  14
ENDBRANCH  12  13
ENDBRANCH  11  12
ENDBRANCH  10  11
ENDBRANCH   9  10
ENDBRANCH   8   9
ENDBRANCH   7   8
ENDBRANCH   6   7
ENDBRANCH   5   6
ENDBRANCH   4   5
ENDBRANCH   3   4
ENDBRANCH   2   3
ENDBRANCH   1   2
BRANCH   1  18
ATOM     18  C   UNL     1      -4.686  14.422 -10.997  1.00  0.00     0.000 C 
BRANCH  18  19
ATOM     19  C   UNL     1      -5.766  15.515 -11.086  1.00  0.00     0.000 C 
BRANCH  19  20
ATOM     20  C   UNL     1      -6.604  15.404 -12.369  1.00  0.00     0.000 C 
BRANCH  20  21
ATOM     21  C   UNL     1      -7.832  16.329 -12.360  1.00  0.00     0.000 C 
BRANCH  21  22
ATOM     22  C   UNL     1      -9.073  15.673 -12.990  1.00  0.00     0.000 C 
BRANCH  22  23
ATOM     23  C   UNL     1      -9.809  14.704 -12.041  1.00  0.00     0.000 C 
BRANCH  23  24
ATOM     24  C   UNL     1     -10.250  15.391 -10.735  1.00  0.00    -0.000 C 
BRANCH  24  25
ATOM     25  C   UNL     1      -9.892  14.559  -9.486  1.00  0.00    -0.000 C 
BRANCH  25  26
ATOM     26  C   UNL     1      -9.198  15.366  -8.373  1.00  0.00    -0.000 C 
BRANCH  26  27
ATOM     27  C   UNL     1      -9.727  16.808  -8.219  1.00  0.00    -0.000 C 
BRANCH  27  28
ATOM     28  C   UNL     1     -11.264  16.876  -8.222  1.00  0.00    -0.000 C 
BRANCH  28  29
ATOM     29  C   UNL     1     -11.835  17.204  -6.827  1.00  0.00    -0.000 C 
BRANCH  29  30
ATOM     30  C   UNL     1     -11.586  16.099  -5.785  1.00  0.00    -0.000 C 
BRANCH  30  31
ATOM     31  C   UNL     1     -12.874  15.626  -5.098  1.00  0.00    -0.003 C 
ATOM     32  C   UNL     1     -13.134  14.148  -5.373  1.00  0.00     0.004 C 
ENDBRANCH  30  31
ENDBRANCH  29  30
ENDBRANCH  28  29
ENDBRANCH  27  28
ENDBRANCH  26  27
ENDBRANCH  25  26
ENDBRANCH  24  25
ENDBRANCH  23  24
ENDBRANCH  22  23
ENDBRANCH  21  22
ENDBRANCH  20  21
ENDBRANCH  19  20
ENDBRANCH  18  19
ENDBRANCH   1  18
TORSDOF 28
ENDMDL
MODEL 5
REMARK VINA RESULT:    20.698      1.482      2.161
REMARK INTER + INTRA:          53.330
REMARK INTER:                  52.544
REMARK INTRA:                   0.786
REMARK UNBOUND:                -1.249
REMARK SMILES CCCCCCCCCCCCCCCCCCCCCCCCCCCCCC(=O)[O-]
REMARK SMILES IDX 16 1 17 2 18 3 19 4 20 5 21 6 22 7 23 8 24 9 25 10 26 11
REMARK SMILES IDX 27 12 28 13 29 14 30 15 31 16 32 17 15 18 14 19 13 20 12 21
REMARK SMILES IDX 11 22 10 23 9 24 8 25 7 26 6 27 5 28 4 29 3 30 2 31 1 32
REMARK H PARENT
REMARK Flexibility Score: inf
ROOT
ATOM      1  C   UNL     1      -2.824  17.655 -10.749  1.00  0.00     0.000 C 
ENDROOT
BRANCH   1   2
ATOM      2  C   UNL     1      -3.225  16.438  -9.894  1.00  0.00     0.000 C 
BRANCH   2   3
ATOM      3  C   UNL     1      -2.189  15.300  -9.943  1.00  0.00     0.000 C 
BRANCH   3   4
ATOM      4  C   UNL     1      -2.766  13.884 -10.136  1.00  0.00     0.000 C 
BRANCH   4   5
ATOM      5  C   UNL     1      -4.153  13.881 -10.797  1.00  0.00     0.000 C 
BRANCH   5   6
ATOM      6  C   UNL     1      -4.659  15.297 -11.116  1.00  0.00     0.000 C 
BRANCH   6   7
ATOM      7  C   UNL     1      -6.148  15.341 -11.529  1.00  0.00     0.000 C 
BRANCH   7   8
ATOM      8  C   UNL     1      -6.764  16.739 -11.356  1.00  0.00     0.000 C 
BRANCH   8   9
ATOM      9  C   UNL     1      -7.272  17.003  -9.928  1.00  0.00     0.000 C 
BRANCH   9  10
ATOM     10  C   UNL     1      -8.307  15.972  -9.425  1.00  0.00     0.000 C 
BRANCH  10  11
ATOM     11  C   UNL     1      -8.910  16.316  -8.048  1.00  0.00     0.000 C 
BRANCH  11  12
ATOM     12  C   UNL     1     -10.455  16.233  -8.014  1.00  0.00     0.000 C 
BRANCH  12  13
ATOM     13  C   UNL     1     -11.095  17.198  -6.994  1.00  0.00     0.006 C 
BRANCH  13  14
ATOM     14  C   UNL     1     -11.536  16.513  -5.690  1.00  0.00     0.053 C 
BRANCH  14  15
ATOM     15  C   UNL     1     -12.828  15.772  -5.844  1.00  0.00     0.041 C 
ATOM     16  O   UNL     1     -12.953  14.898  -6.743  1.00  0.00    -0.550 OA
ATOM     17  O   UNL     1     -13.904  16.068  -5.018  1.00  0.00    -0.550 OA
ENDBRANCH  14  15
ENDBRANCH  13  14
ENDBRANCH  12  13
ENDBRANCH  11  12
ENDBRANCH  10  11
ENDBRANCH   9  10
ENDBRANCH   8   9
ENDBRANCH   7   8
ENDBRANCH   6   7
ENDBRANCH   5   6
ENDBRANCH   4   5
ENDBRANCH   3   4
ENDBRANCH   2   3
ENDBRANCH   1   2
BRANCH   1  18
ATOM     18  C   UNL     1      -3.989  18.635 -10.957  1.00  0.00     0.000 C 
BRANCH  18  19
ATOM     19  C   UNL     1      -3.654  20.068 -10.510  1.00  0.00     0.000 C 
BRANCH  19  20
ATOM     20  C   UNL     1      -4.610  21.108 -11.114  1.00  0.00     0.000 C 
BRANCH  20  21
ATOM     21  C   UNL     1      -6.058  20.601 -11.211  1.00  0.00     0.000 C 
BRANCH  21  22
ATOM     22  C   UNL     1      -6.698  20.892 -12.580  1.00  0.00     0.000 C 
BRANCH  22  23
ATOM     23  C   UNL     1      -6.508  22.349 -13.052  1.00  0.00     0.000 C 
BRANCH  23  24
ATOM     24  C   UNL     1      -6.909  22.541 -14.526  1.00  0.00    -0.000 C 
BRANCH  24  25
ATOM     25  C   UNL     1      -7.156  21.199 -15.246  1.00  0.00    -0.000 C 
BRANCH  25  26
ATOM     26  C   UNL     1      -5.902  20.606 -15.915  1.00  0.00    -0.000 C 
BRANCH  26  27
ATOM     27  C   UNL     1      -6.175  19.927 -17.273  1.00  0.00    -0.000 C 
BRANCH  27  28
ATOM     28  C   UNL     1      -5.052  18.959 -17.685  1.00  0.00    -0.000 C 
BRANCH  28  29
ATOM     29  C   UNL     1      -5.549  17.874 -18.664  1.00  0.00    -0.000 C 
BRANCH  29  30
ATOM     30  C   UNL     1      -6.684  17.005 -18.095  1.00  0.00    -0.000 C 
BRANCH  30  31
ATOM     31  C   UNL     1      -7.203  15.968 -19.101  1.00  0.00    -0.003 C 
ATOM     32  C   UNL     1      -8.717  16.067 -19.263  1.00  0.00     0.004 C 
ENDBRANCH  30  31
ENDBRANCH  29  30
ENDBRANCH  28  29
ENDBRANCH  27  28
ENDBRANCH  26  27
ENDBRANCH  25  26
ENDBRANCH  24  25
ENDBRANCH  23  24
ENDBRANCH  22  23
ENDBRANCH  21  22
ENDBRANCH  20  21
ENDBRANCH  19  20
ENDBRANCH  18  19
ENDBRANCH   1  18
TORSDOF 28
ENDMDL
MODEL 6
REMARK VINA RESULT:    20.699      4.183      9.548
REMARK INTER + INTRA:          53.333
REMARK INTER:                  51.560
REMARK INTRA:                   1.774
REMARK UNBOUND:                -1.249
REMARK SMILES CCCCCCCCCCCCCCCCCCCCCCCCCCCCCC(=O)[O-]
REMARK SMILES IDX 16 1 17 2 18 3 19 4 20 5 21 6 22 7 23 8 24 9 25 10 26 11
REMARK SMILES IDX 27 12 28 13 29 14 30 15 31 16 32 17 15 18 14 19 13 20 12 21
REMARK SMILES IDX 11 22 10 23 9 24 8 25 7 26 6 27 5 28 4 29 3 30 2 31 1 32
REMARK H PARENT
REMARK Flexibility Score: inf
ROOT
ATOM      1  C   UNL     1      -3.669  17.219 -11.055  1.00  0.00     0.000 C 
ENDROOT
BRANCH   1   2
ATOM      2  C   UNL     1      -3.090  18.620 -10.790  1.00  0.00     0.000 C 
BRANCH   2   3
ATOM      3  C   UNL     1      -4.154  19.732 -10.842  1.00  0.00     0.000 C 
BRANCH   3   4
ATOM      4  C   UNL     1      -5.617  19.249 -10.898  1.00  0.00     0.000 C 
BRANCH   4   5
ATOM      5  C   UNL     1      -6.372  19.747 -12.140  1.00  0.00     0.000 C 
BRANCH   5   6
ATOM      6  C   UNL     1      -6.685  21.251 -12.077  1.00  0.00     0.000 C 
BRANCH   6   7
ATOM      7  C   UNL     1      -5.669  22.057 -11.236  1.00  0.00     0.000 C 
BRANCH   7   8
ATOM      8  C   UNL     1      -4.839  23.029 -12.090  1.00  0.00     0.000 C 
BRANCH   8   9
ATOM      9  C   UNL     1      -4.133  24.114 -11.258  1.00  0.00     0.000 C 
BRANCH   9  10
ATOM     10  C   UNL     1      -3.737  25.371 -12.064  1.00  0.00     0.000 C 
BRANCH  10  11
ATOM     11  C   UNL     1      -3.534  26.628 -11.195  1.00  0.00     0.000 C 
BRANCH  11  12
ATOM     12  C   UNL     1      -4.736  27.602 -11.231  1.00  0.00     0.000 C 
BRANCH  12  13
ATOM     13  C   UNL     1      -6.102  26.886 -11.213  1.00  0.00     0.006 C 
BRANCH  13  14
ATOM     14  C   UNL     1      -6.603  26.552  -9.798  1.00  0.00     0.053 C 
BRANCH  14  15
ATOM     15  C   UNL     1      -5.712  27.110  -8.732  1.00  0.00     0.041 C 
ATOM     16  O   UNL     1      -6.115  27.175  -7.540  1.00  0.00    -0.550 OA
ATOM     17  O   UNL     1      -4.450  27.588  -9.059  1.00  0.00    -0.550 OA
ENDBRANCH  14  15
ENDBRANCH  13  14
ENDBRANCH  12  13
ENDBRANCH  11  12
ENDBRANCH  10  11
ENDBRANCH   9  10
ENDBRANCH   8   9
ENDBRANCH   7   8
ENDBRANCH   6   7
ENDBRANCH   5   6
ENDBRANCH   4   5
ENDBRANCH   3   4
ENDBRANCH   2   3
ENDBRANCH   1   2
BRANCH   1  18
ATOM     18  C   UNL     1      -3.224  16.191 -10.002  1.00  0.00     0.000 C 
BRANCH  18  19
ATOM     19  C   UNL     1      -3.764  14.777 -10.280  1.00  0.00     0.000 C 
BRANCH  19  20
ATOM     20  C   UNL     1      -4.828  14.765 -11.388  1.00  0.00     0.000 C 
BRANCH  20  21
ATOM     21  C   UNL     1      -6.056  15.623 -11.045  1.00  0.00     0.000 C 
BRANCH  21  22
ATOM     22  C   UNL     1      -6.872  16.017 -12.288  1.00  0.00     0.000 C 
BRANCH  22  23
ATOM     23  C   UNL     1      -7.802  14.895 -12.797  1.00  0.00     0.000 C 
BRANCH  23  24
ATOM     24  C   UNL     1      -9.288  15.212 -12.551  1.00  0.00    -0.000 C 
BRANCH  24  25
ATOM     25  C   UNL     1     -10.051  14.014 -11.948  1.00  0.00    -0.000 C 
BRANCH  25  26
ATOM     26  C   UNL     1     -10.195  14.069 -10.416  1.00  0.00    -0.000 C 
BRANCH  26  27
ATOM     27  C   UNL     1     -10.601  15.454  -9.871  1.00  0.00    -0.000 C 
BRANCH  27  28
ATOM     28  C   UNL     1      -9.745  15.889  -8.668  1.00  0.00    -0.000 C 
BRANCH  28  29
ATOM     29  C   UNL     1     -10.586  16.581  -7.575  1.00  0.00    -0.000 C 
BRANCH  29  30
ATOM     30  C   UNL     1     -12.071  16.177  -7.594  1.00  0.00    -0.000 C 
BRANCH  30  31
ATOM     31  C   UNL     1     -12.598  15.777  -6.209  1.00  0.00    -0.003 C 
ATOM     32  C   UNL     1     -11.865  16.529  -5.102  1.00  0.00     0.004 C 
ENDBRANCH  30  31
ENDBRANCH  29  30
ENDBRANCH  28  29
ENDBRANCH  27  28
ENDBRANCH  26  27
ENDBRANCH  25  26
ENDBRANCH  24  25
ENDBRANCH  23  24
ENDBRANCH  22  23
ENDBRANCH  21  22
ENDBRANCH  20  21
ENDBRANCH  19  20
ENDBRANCH  18  19
ENDBRANCH   1  18
TORSDOF 28
ENDMDL
MODEL 7
REMARK VINA RESULT:    20.853      2.722      5.403
REMARK INTER + INTRA:          53.739
REMARK INTER:                  53.799
REMARK INTRA:                  -0.060
REMARK UNBOUND:                -1.249
REMARK SMILES CCCCCCCCCCCCCCCCCCCCCCCCCCCCCC(=O)[O-]
REMARK SMILES IDX 16 1 17 2 18 3 19 4 20 5 21 6 22 7 23 8 24 9 25 10 26 11
REMARK SMILES IDX 27 12 28 13 29 14 30 15 31 16 32 17 15 18 14 19 13 20 12 21
REMARK SMILES IDX 11 22 10 23 9 24 8 25 7 26 6 27 5 28 4 29 3 30 2 31 1 32
REMARK H PARENT
REMARK Flexibility Score: inf
ROOT
ATOM      1  C   UNL     1      -3.806  14.601 -10.382  1.00  0.00     0.000 C 
ENDROOT
BRANCH   1   2
ATOM      2  C   UNL     1      -4.999  14.744 -11.344  1.00  0.00     0.000 C 
BRANCH   2   3
ATOM      3  C   UNL     1      -5.997  15.834 -10.909  1.00  0.00     0.000 C 
BRANCH   3   4
ATOM      4  C   UNL     1      -7.126  16.139 -11.912  1.00  0.00     0.000 C 
BRANCH   4   5
ATOM      5  C   UNL     1      -7.693  14.880 -12.587  1.00  0.00     0.000 C 
BRANCH   5   6
ATOM      6  C   UNL     1      -9.202  14.984 -12.859  1.00  0.00     0.000 C 
BRANCH   6   7
ATOM      7  C   UNL     1     -10.073  14.335 -11.760  1.00  0.00     0.000 C 
BRANCH   7   8
ATOM      8  C   UNL     1     -10.539  15.350 -10.704  1.00  0.00     0.000 C 
BRANCH   8   9
ATOM      9  C   UNL     1     -10.383  14.836  -9.262  1.00  0.00     0.000 C 
BRANCH   9  10
ATOM     10  C   UNL     1      -9.299  15.572  -8.443  1.00  0.00     0.000 C 
BRANCH  10  11
ATOM     11  C   UNL     1      -9.529  17.092  -8.329  1.00  0.00     0.000 C 
BRANCH  11  12
ATOM     12  C   UNL     1     -10.777  17.464  -7.493  1.00  0.00     0.000 C 
BRANCH  12  13
ATOM     13  C   UNL     1     -11.182  16.371  -6.481  1.00  0.00     0.006 C 
BRANCH  13  14
ATOM     14  C   UNL     1     -12.566  15.759  -6.758  1.00  0.00     0.053 C 
BRANCH  14  15
ATOM     15  C   UNL     1     -13.235  15.275  -5.509  1.00  0.00     0.041 C 
ATOM     16  O   UNL     1     -13.923  16.067  -4.812  1.00  0.00    -0.550 OA
ATOM     17  O   UNL     1     -13.073  13.959  -5.097  1.00  0.00    -0.550 OA
ENDBRANCH  14  15
ENDBRANCH  13  14
ENDBRANCH  12  13
ENDBRANCH  11  12
ENDBRANCH  10  11
ENDBRANCH   9  10
ENDBRANCH   8   9
ENDBRANCH   7   8
ENDBRANCH   6   7
ENDBRANCH   5   6
ENDBRANCH   4   5
ENDBRANCH   3   4
ENDBRANCH   2   3
ENDBRANCH   1   2
BRANCH   1  18
ATOM     18  C   UNL     1      -3.068  15.932 -10.160  1.00  0.00     0.000 C 
BRANCH  18  19
ATOM     19  C   UNL     1      -3.567  17.055 -11.086  1.00  0.00     0.000 C 
BRANCH  19  20
ATOM     20  C   UNL     1      -3.173  18.450 -10.577  1.00  0.00     0.000 C 
BRANCH  20  21
ATOM     21  C   UNL     1      -4.140  19.550 -11.044  1.00  0.00     0.000 C 
BRANCH  21  22
ATOM     22  C   UNL     1      -5.576  19.333 -10.535  1.00  0.00     0.000 C 
BRANCH  22  23
ATOM     23  C   UNL     1      -6.661  19.775 -11.540  1.00  0.00     0.000 C 
BRANCH  23  24
ATOM     24  C   UNL     1      -6.245  21.028 -12.333  1.00  0.00    -0.000 C 
BRANCH  24  25
ATOM     25  C   UNL     1      -5.041  21.752 -11.694  1.00  0.00    -0.000 C 
BRANCH  25  26
ATOM     26  C   UNL     1      -5.091  23.286 -11.825  1.00  0.00    -0.000 C 
BRANCH  26  27
ATOM     27  C   UNL     1      -3.805  23.999 -11.358  1.00  0.00    -0.000 C 
BRANCH  27  28
ATOM     28  C   UNL     1      -3.654  25.404 -11.969  1.00  0.00    -0.000 C 
BRANCH  28  29
ATOM     29  C   UNL     1      -3.623  26.507 -10.891  1.00  0.00    -0.000 C 
BRANCH  29  30
ATOM     30  C   UNL     1      -5.005  27.117 -10.593  1.00  0.00    -0.000 C 
BRANCH  30  31
ATOM     31  C   UNL     1      -5.053  27.859  -9.252  1.00  0.00    -0.003 C 
ATOM     32  C   UNL     1      -5.953  27.137  -8.254  1.00  0.00     0.004 C 
ENDBRANCH  30  31
ENDBRANCH  29  30
ENDBRANCH  28  29
ENDBRANCH  27  28
ENDBRANCH  26  27
ENDBRANCH  25  26
ENDBRANCH  24  25
ENDBRANCH  23  24
ENDBRANCH  22  23
ENDBRANCH  21  22
ENDBRANCH  20  21
ENDBRANCH  19  20
ENDBRANCH  18  19
ENDBRANCH   1  18
TORSDOF 28
ENDMDL
MODEL 8
REMARK VINA RESULT:    20.899      3.190      5.857
REMARK INTER + INTRA:          53.860
REMARK INTER:                  53.762
REMARK INTRA:                   0.098
REMARK UNBOUND:                -1.249
REMARK SMILES CCCCCCCCCCCCCCCCCCCCCCCCCCCCCC(=O)[O-]
REMARK SMILES IDX 16 1 17 2 18 3 19 4 20 5 21 6 22 7 23 8 24 9 25 10 26 11
REMARK SMILES IDX 27 12 28 13 29 14 30 15 31 16 32 17 15 18 14 19 13 20 12 21
REMARK SMILES IDX 11 22 10 23 9 24 8 25 7 26 6 27 5 28 4 29 3 30 2 31 1 32
REMARK H PARENT
REMARK Flexibility Score: inf
ROOT
ATOM      1  C   UNL     1      -4.251  19.363 -10.747  1.00  0.00     0.000 C 
ENDROOT
BRANCH   1   2
ATOM      2  C   UNL     1      -3.160  18.280 -10.828  1.00  0.00     0.000 C 
BRANCH   2   3
ATOM      3  C   UNL     1      -3.734  16.854 -10.929  1.00  0.00     0.000 C 
BRANCH   3   4
ATOM      4  C   UNL     1      -3.068  15.804 -10.019  1.00  0.00     0.000 C 
BRANCH   4   5
ATOM      5  C   UNL     1      -3.800  14.453 -10.016  1.00  0.00     0.000 C 
BRANCH   5   6
ATOM      6  C   UNL     1      -4.603  14.214 -11.306  1.00  0.00     0.000 C 
BRANCH   6   7
ATOM      7  C   UNL     1      -5.861  15.104 -11.422  1.00  0.00     0.000 C 
BRANCH   7   8
ATOM      8  C   UNL     1      -6.684  14.795 -12.683  1.00  0.00     0.000 C 
BRANCH   8   9
ATOM      9  C   UNL     1      -7.664  15.922 -13.055  1.00  0.00     0.000 C 
BRANCH   9  10
ATOM     10  C   UNL     1      -8.957  15.940 -12.209  1.00  0.00     0.000 C 
BRANCH  10  11
ATOM     11  C   UNL     1      -9.598  14.550 -12.023  1.00  0.00     0.000 C 
BRANCH  11  12
ATOM     12  C   UNL     1     -10.314  14.381 -10.661  1.00  0.00     0.000 C 
BRANCH  12  13
ATOM     13  C   UNL     1     -10.207  15.627  -9.756  1.00  0.00     0.006 C 
BRANCH  13  14
ATOM     14  C   UNL     1     -10.505  15.339  -8.275  1.00  0.00     0.053 C 
BRANCH  14  15
ATOM     15  C   UNL     1     -11.265  16.450  -7.620  1.00  0.00     0.041 C 
ATOM     16  O   UNL     1     -11.592  17.470  -8.283  1.00  0.00    -0.550 OA
ATOM     17  O   UNL     1     -11.585  16.374  -6.271  1.00  0.00    -0.550 OA
ENDBRANCH  14  15
ENDBRANCH  13  14
ENDBRANCH  12  13
ENDBRANCH  11  12
ENDBRANCH  10  11
ENDBRANCH   9  10
ENDBRANCH   8   9
ENDBRANCH   7   8
ENDBRANCH   6   7
ENDBRANCH   5   6
ENDBRANCH   4   5
ENDBRANCH   3   4
ENDBRANCH   2   3
ENDBRANCH   1   2
BRANCH   1  18
ATOM     18  C   UNL     1      -5.669  18.768 -10.722  1.00  0.00     0.000 C 
BRANCH  18  19
ATOM     19  C   UNL     1      -6.707  19.665 -11.420  1.00  0.00     0.000 C 
BRANCH  19  20
ATOM     20  C   UNL     1      -6.813  19.373 -12.924  1.00  0.00     0.000 C 
BRANCH  20  21
ATOM     21  C   UNL     1      -7.206  20.613 -13.745  1.00  0.00     0.000 C 
BRANCH  21  22
ATOM     22  C   UNL     1      -6.461  21.882 -13.297  1.00  0.00     0.000 C 
BRANCH  22  23
ATOM     23  C   UNL     1      -6.335  22.016 -11.765  1.00  0.00     0.000 C 
BRANCH  23  24
ATOM     24  C   UNL     1      -4.903  22.371 -11.326  1.00  0.00    -0.000 C 
BRANCH  24  25
ATOM     25  C   UNL     1      -4.387  23.661 -11.997  1.00  0.00    -0.000 C 
BRANCH  25  26
ATOM     26  C   UNL     1      -3.358  24.437 -11.155  1.00  0.00    -0.000 C 
BRANCH  26  27
ATOM     27  C   UNL     1      -3.432  25.969 -11.326  1.00  0.00    -0.000 C 
BRANCH  27  28
ATOM     28  C   UNL     1      -3.893  26.683 -10.043  1.00  0.00    -0.000 C 
BRANCH  28  29
ATOM     29  C   UNL     1      -4.902  27.814 -10.338  1.00  0.00    -0.000 C 
BRANCH  29  30
ATOM     30  C   UNL     1      -6.071  27.376 -11.238  1.00  0.00    -0.000 C 
BRANCH  30  31
ATOM     31  C   UNL     1      -6.662  28.534 -12.053  1.00  0.00    -0.003 C 
ATOM     32  C   UNL     1      -5.630  29.637 -12.272  1.00  0.00     0.004 C 
ENDBRANCH  30  31
ENDBRANCH  29  30
ENDBRANCH  28  29
ENDBRANCH  27  28
ENDBRANCH  26  27
ENDBRANCH  25  26
ENDBRANCH  24  25
ENDBRANCH  23  24
ENDBRANCH  22  23
ENDBRANCH  21  22
ENDBRANCH  20  21
ENDBRANCH  19  20
ENDBRANCH  18  19
ENDBRANCH   1  18
TORSDOF 28
ENDMDL
MODEL 9
REMARK VINA RESULT:    21.184      4.103      6.510
REMARK INTER + INTRA:          54.612
REMARK INTER:                  53.969
REMARK INTRA:                   0.642
REMARK UNBOUND:                -1.249
REMARK SMILES CCCCCCCCCCCCCCCCCCCCCCCCCCCCCC(=O)[O-]
REMARK SMILES IDX 16 1 17 2 18 3 19 4 20 5 21 6 22 7 23 8 24 9 25 10 26 11
REMARK SMILES IDX 27 12 28 13 29 14 30 15 31 16 32 17 15 18 14 19 13 20 12 21
REMARK SMILES IDX 11 22 10 23 9 24 8 25 7 26 6 27 5 28 4 29 3 30 2 31 1 32
REMARK H PARENT
REMARK Flexibility Score: inf
ROOT
ATOM      1  C   UNL     1      -4.091  19.837 -10.863  1.00  0.00     0.000 C 
ENDROOT
BRANCH   1   2
ATOM      2  C   UNL     1      -2.879  18.894 -10.758  1.00  0.00     0.000 C 
BRANCH   2   3
ATOM      3  C   UNL     1      -3.240  17.419 -11.013  1.00  0.00     0.000 C 
BRANCH   3   4
ATOM      4  C   UNL     1      -2.808  16.429  -9.914  1.00  0.00     0.000 C 
BRANCH   4   5
ATOM      5  C   UNL     1      -3.875  15.367  -9.602  1.00  0.00     0.000 C 
BRANCH   5   6
ATOM      6  C   UNL     1      -4.095  14.391 -10.770  1.00  0.00     0.000 C 
BRANCH   6   7
ATOM      7  C   UNL     1      -5.265  14.793 -11.696  1.00  0.00     0.000 C 
BRANCH   7   8
ATOM      8  C   UNL     1      -6.064  15.987 -11.149  1.00  0.00     0.000 C 
BRANCH   8   9
ATOM      9  C   UNL     1      -7.474  15.601 -10.668  1.00  0.00     0.000 C 
BRANCH   9  10
ATOM     10  C   UNL     1      -8.049  16.537  -9.581  1.00  0.00     0.000 C 
BRANCH  10  11
ATOM     11  C   UNL     1      -9.442  16.117  -9.072  1.00  0.00     0.000 C 
BRANCH  11  12
ATOM     12  C   UNL     1      -9.659  16.403  -7.567  1.00  0.00     0.000 C 
BRANCH  12  13
ATOM     13  C   UNL     1     -11.115  16.782  -7.221  1.00  0.00     0.006 C 
BRANCH  13  14
ATOM     14  C   UNL     1     -11.536  16.374  -5.799  1.00  0.00     0.053 C 
BRANCH  14  15
ATOM     15  C   UNL     1     -12.797  15.566  -5.788  1.00  0.00     0.041 C 
ATOM     16  O   UNL     1     -12.797  14.399  -5.317  1.00  0.00    -0.550 OA
ATOM     17  O   UNL     1     -13.965  16.092  -6.327  1.00  0.00    -0.550 OA
ENDBRANCH  14  15
ENDBRANCH  13  14
ENDBRANCH  12  13
ENDBRANCH  11  12
ENDBRANCH  10  11
ENDBRANCH   9  10
ENDBRANCH   8   9
ENDBRANCH   7   8
ENDBRANCH   6   7
ENDBRANCH   5   6
ENDBRANCH   4   5
ENDBRANCH   3   4
ENDBRANCH   2   3
ENDBRANCH   1   2
BRANCH   1  18
ATOM     18  C   UNL     1      -5.425  19.075 -10.926  1.00  0.00     0.000 C 
BRANCH  18  19
ATOM     19  C   UNL     1      -6.649  20.006 -10.883  1.00  0.00     0.000 C 
BRANCH  19  20
ATOM     20  C   UNL     1      -6.797  20.837 -12.166  1.00  0.00     0.000 C 
BRANCH  20  21
ATOM     21  C   UNL     1      -5.548  21.678 -12.478  1.00  0.00     0.000 C 
BRANCH  21  22
ATOM     22  C   UNL     1      -5.240  22.714 -11.383  1.00  0.00     0.000 C 
BRANCH  22  23
ATOM     23  C   UNL     1      -5.097  24.154 -11.919  1.00  0.00     0.000 C 
BRANCH  23  24
ATOM     24  C   UNL     1      -3.781  24.815 -11.471  1.00  0.00    -0.000 C 
BRANCH  24  25
ATOM     25  C   UNL     1      -3.938  26.331 -11.233  1.00  0.00    -0.000 C 
BRANCH  25  26
ATOM     26  C   UNL     1      -4.793  26.688 -10.003  1.00  0.00    -0.000 C 
BRANCH  26  27
ATOM     27  C   UNL     1      -6.263  27.018 -10.332  1.00  0.00    -0.000 C 
BRANCH  27  28
ATOM     28  C   UNL     1      -6.397  28.040 -11.475  1.00  0.00    -0.000 C 
BRANCH  28  29
ATOM     29  C   UNL     1      -5.041  28.675 -11.849  1.00  0.00    -0.000 C 
BRANCH  29  30
ATOM     30  C   UNL     1      -5.168  29.891 -12.785  1.00  0.00    -0.000 C 
BRANCH  30  31
ATOM     31  C   UNL     1      -4.347  31.097 -12.310  1.00  0.00    -0.003 C 
ATOM     32  C   UNL     1      -3.731  31.843 -13.490  1.00  0.00     0.004 C 
ENDBRANCH  30  31
ENDBRANCH  29  30
ENDBRANCH  28  29
ENDBRANCH  27  28
ENDBRANCH  26  27
ENDBRANCH  25  26
ENDBRANCH  24  25
ENDBRANCH  23  24
ENDBRANCH  22  23
ENDBRANCH  21  22
ENDBRANCH  20  21
ENDBRANCH  19  20
ENDBRANCH  18  19
ENDBRANCH   1  18
TORSDOF 28
ENDMDL
