MODEL 1
REMARK VINA RESULT:     9.264      0.000      0.000
REMARK INTER + INTRA:          22.155
REMARK INTER:                  23.344
REMARK INTRA:                  -1.190
REMARK UNBOUND:                -1.190
REMARK SMILES CCCCCCCCCCCCCCCCCCCCCCCCCCCC(=O)[O-]
REMARK SMILES IDX 15 1 16 2 17 3 18 4 19 5 20 6 21 7 22 8 23 9 24 10 25 11
REMARK SMILES IDX 26 12 27 13 28 14 29 15 30 16 14 17 13 18 12 19 11 20 10 21
REMARK SMILES IDX 9 22 8 23 7 24 6 25 5 26 4 27 3 28 2 29 1 30
REMARK H PARENT
REMARK Flexibility Score: inf
ROOT
ATOM      1  C   UNL     1      -3.566  -4.627   2.903  1.00  0.00     0.000 C 
ENDROOT
BRANCH   1   2
ATOM      2  C   UNL     1      -3.129  -4.219   1.488  1.00  0.00     0.000 C 
BRANCH   2   3
ATOM      3  C   UNL     1      -3.810  -5.052   0.391  1.00  0.00     0.000 C 
BRANCH   3   4
ATOM      4  C   UNL     1      -3.069  -4.972  -0.956  1.00  0.00     0.000 C 
BRANCH   4   5
ATOM      5  C   UNL     1      -2.249  -3.679  -1.105  1.00  0.00     0.000 C 
BRANCH   5   6
ATOM      6  C   UNL     1      -3.139  -2.436  -1.284  1.00  0.00     0.000 C 
BRANCH   6   7
ATOM      7  C   UNL     1      -2.366  -1.223  -1.834  1.00  0.00     0.000 C 
BRANCH   7   8
ATOM      8  C   UNL     1      -2.371   0.024  -0.927  1.00  0.00     0.000 C 
BRANCH   8   9
ATOM      9  C   UNL     1      -1.024   0.250  -0.218  1.00  0.00     0.000 C 
BRANCH   9  10
ATOM     10  C   UNL     1      -0.067  -0.951  -0.340  1.00  0.00     0.000 C 
BRANCH  10  11
ATOM     11  C   UNL     1       1.304  -0.638  -0.970  1.00  0.00     0.000 C 
BRANCH  11  12
ATOM     12  C   UNL     1       1.285   0.609  -1.871  1.00  0.00     0.006 C 
BRANCH  12  13
ATOM     13  C   UNL     1       2.572   1.433  -1.748  1.00  0.00     0.053 C 
BRANCH  13  14
ATOM     14  C   UNL     1       2.421   2.557  -0.769  1.00  0.00     0.041 C 
ATOM     15  O   UNL     1       3.426   3.230  -0.416  1.00  0.00    -0.550 OA
ATOM     16  O   UNL     1       1.176   2.838  -0.222  1.00  0.00    -0.550 OA
ENDBRANCH  13  14
ENDBRANCH  12  13
ENDBRANCH  11  12
ENDBRANCH  10  11
ENDBRANCH   9  10
ENDBRANCH   8   9
ENDBRANCH   7   8
ENDBRANCH   6   7
ENDBRANCH   5   6
ENDBRANCH   4   5
ENDBRANCH   3   4
ENDBRANCH   2   3
ENDBRANCH   1   2
BRANCH   1  17
ATOM     17  C   UNL     1      -4.921  -4.001   3.261  1.00  0.00     0.000 C 
BRANCH  17  18
ATOM     18  C   UNL     1      -5.240  -4.087   4.764  1.00  0.00     0.000 C 
BRANCH  18  19
ATOM     19  C   UNL     1      -6.661  -4.584   5.098  1.00  0.00     0.000 C 
BRANCH  19  20
ATOM     20  C   UNL     1      -7.097  -4.381   6.563  1.00  0.00     0.000 C 
BRANCH  20  21
ATOM     21  C   UNL     1      -8.611  -4.180   6.767  1.00  0.00     0.000 C 
BRANCH  21  22
ATOM     22  C   UNL     1      -8.998  -2.703   6.935  1.00  0.00    -0.000 C 
BRANCH  22  23
ATOM     23  C   UNL     1      -9.865  -2.496   8.183  1.00  0.00    -0.000 C 
BRANCH  23  24
ATOM     24  C   UNL     1      -9.306  -3.292   9.373  1.00  0.00    -0.000 C 
BRANCH  24  25
ATOM     25  C   UNL     1     -10.125  -4.555   9.678  1.00  0.00    -0.000 C 
BRANCH  25  26
ATOM     26  C   UNL     1      -9.313  -5.847   9.490  1.00  0.00    -0.000 C 
BRANCH  26  27
ATOM     27  C   UNL     1     -10.125  -6.965   8.813  1.00  0.00    -0.000 C 
BRANCH  27  28
ATOM     28  C   UNL     1      -9.355  -8.300   8.697  1.00  0.00    -0.000 C 
BRANCH  28  29
ATOM     29  C   UNL     1      -9.188  -9.027  10.044  1.00  0.00    -0.003 C 
ATOM     30  C   UNL     1      -7.985  -9.971  10.052  1.00  0.00     0.004 C 
ENDBRANCH  28  29
ENDBRANCH  27  28
ENDBRANCH  26  27
ENDBRANCH  25  26
ENDBRANCH  24  25
ENDBRANCH  23  24
ENDBRANCH  22  23
ENDBRANCH  21  22
ENDBRANCH  20  21
ENDBRANCH  19  20
ENDBRANCH  18  19
ENDBRANCH  17  18
ENDBRANCH   1  17
TORSDOF 26
ENDMDL
MODEL 2
REMARK VINA RESULT:    10.103      7.895     14.074
REMARK INTER + INTRA:          24.270
REMARK INTER:                  25.504
REMARK INTRA:                  -1.234
REMARK UNBOUND:                -1.190
REMARK SMILES CCCCCCCCCCCCCCCCCCCCCCCCCCCC(=O)[O-]
REMARK SMILES IDX 15 1 16 2 17 3 18 4 19 5 20 6 21 7 22 8 23 9 24 10 25 11
REMARK SMILES IDX 26 12 27 13 28 14 29 15 30 16 14 17 13 18 12 19 11 20 10 21
REMARK SMILES IDX 9 22 8 23 7 24 6 25 5 26 4 27 3 28 2 29 1 30
REMARK H PARENT
REMARK Flexibility Score: inf
ROOT
ATOM      1  C   UNL     1       3.342   3.505   2.207  1.00  0.00     0.000 C 
ENDROOT
BRANCH   1   2
ATOM      2  C   UNL     1       3.155   4.270   0.888  1.00  0.00     0.000 C 
BRANCH   2   3
ATOM      3  C   UNL     1       3.608   3.461  -0.338  1.00  0.00     0.000 C 
BRANCH   3   4
ATOM      4  C   UNL     1       3.269   1.964  -0.213  1.00  0.00     0.000 C 
BRANCH   4   5
ATOM      5  C   UNL     1       1.790   1.664  -0.511  1.00  0.00     0.000 C 
BRANCH   5   6
ATOM      6  C   UNL     1       1.609   0.782  -1.759  1.00  0.00     0.000 C 
BRANCH   6   7
ATOM      7  C   UNL     1       0.374  -0.133  -1.669  1.00  0.00     0.000 C 
BRANCH   7   8
ATOM      8  C   UNL     1      -0.386  -0.078  -0.329  1.00  0.00     0.000 C 
BRANCH   8   9
ATOM      9  C   UNL     1      -1.840  -0.566  -0.450  1.00  0.00     0.000 C 
BRANCH   9  10
ATOM     10  C   UNL     1      -2.132  -1.275  -1.786  1.00  0.00     0.000 C 
BRANCH  10  11
ATOM     11  C   UNL     1      -2.155  -2.814  -1.723  1.00  0.00     0.000 C 
BRANCH  11  12
ATOM     12  C   UNL     1      -2.284  -3.358  -0.289  1.00  0.00     0.006 C 
BRANCH  12  13
ATOM     13  C   UNL     1      -3.632  -4.051  -0.051  1.00  0.00     0.053 C 
BRANCH  13  14
ATOM     14  C   UNL     1      -3.606  -5.483  -0.488  1.00  0.00     0.041 C 
ATOM     15  O   UNL     1      -4.596  -6.231  -0.270  1.00  0.00    -0.550 OA
ATOM     16  O   UNL     1      -2.474  -6.000  -1.107  1.00  0.00    -0.550 OA
ENDBRANCH  13  14
ENDBRANCH  12  13
ENDBRANCH  11  12
ENDBRANCH  10  11
ENDBRANCH   9  10
ENDBRANCH   8   9
ENDBRANCH   7   8
ENDBRANCH   6   7
ENDBRANCH   5   6
ENDBRANCH   4   5
ENDBRANCH   3   4
ENDBRANCH   2   3
ENDBRANCH   1   2
BRANCH   1  17
ATOM     17  C   UNL     1       4.188   4.317   3.198  1.00  0.00     0.000 C 
BRANCH  17  18
ATOM     18  C   UNL     1       4.848   3.441   4.277  1.00  0.00     0.000 C 
BRANCH  18  19
ATOM     19  C   UNL     1       5.753   4.202   5.266  1.00  0.00     0.000 C 
BRANCH  19  20
ATOM     20  C   UNL     1       6.417   3.328   6.351  1.00  0.00     0.000 C 
BRANCH  20  21
ATOM     21  C   UNL     1       7.954   3.411   6.399  1.00  0.00     0.000 C 
BRANCH  21  22
ATOM     22  C   UNL     1       8.463   4.807   6.787  1.00  0.00    -0.000 C 
BRANCH  22  23
ATOM     23  C   UNL     1       7.951   5.219   8.172  1.00  0.00    -0.000 C 
BRANCH  23  24
ATOM     24  C   UNL     1       9.112   5.666   9.073  1.00  0.00    -0.000 C 
BRANCH  24  25
ATOM     25  C   UNL     1       9.624   4.539   9.982  1.00  0.00    -0.000 C 
BRANCH  25  26
ATOM     26  C   UNL     1      10.121   3.318   9.189  1.00  0.00    -0.000 C 
BRANCH  26  27
ATOM     27  C   UNL     1      10.061   2.016  10.006  1.00  0.00    -0.000 C 
BRANCH  27  28
ATOM     28  C   UNL     1       9.511   0.813   9.206  1.00  0.00    -0.000 C 
BRANCH  28  29
ATOM     29  C   UNL     1      10.001  -0.547   9.735  1.00  0.00    -0.003 C 
ATOM     30  C   UNL     1       8.846  -1.471  10.124  1.00  0.00     0.004 C 
ENDBRANCH  28  29
ENDBRANCH  27  28
ENDBRANCH  26  27
ENDBRANCH  25  26
ENDBRANCH  24  25
ENDBRANCH  23  24
ENDBRANCH  22  23
ENDBRANCH  21  22
ENDBRANCH  20  21
ENDBRANCH  19  20
ENDBRANCH  18  19
ENDBRANCH  17  18
ENDBRANCH   1  17
TORSDOF 26
ENDMDL
MODEL 3
REMARK VINA RESULT:    10.153      7.762     13.145
REMARK INTER + INTRA:          24.396
REMARK INTER:                  24.477
REMARK INTRA:                  -0.081
REMARK UNBOUND:                -1.190
REMARK SMILES CCCCCCCCCCCCCCCCCCCCCCCCCCCC(=O)[O-]
REMARK SMILES IDX 15 1 16 2 17 3 18 4 19 5 20 6 21 7 22 8 23 9 24 10 25 11
REMARK SMILES IDX 26 12 27 13 28 14 29 15 30 16 14 17 13 18 12 19 11 20 10 21
REMARK SMILES IDX 9 22 8 23 7 24 6 25 5 26 4 27 3 28 2 29 1 30
REMARK H PARENT
REMARK Flexibility Score: inf
ROOT
ATOM      1  C   UNL     1       4.046   4.846   1.513  1.00  0.00     0.000 C 
ENDROOT
BRANCH   1   2
ATOM      2  C   UNL     1       3.823   4.471   0.040  1.00  0.00     0.000 C 
BRANCH   2   3
ATOM      3  C   UNL     1       2.381   4.728  -0.427  1.00  0.00     0.000 C 
BRANCH   3   4
ATOM      4  C   UNL     1       1.501   3.467  -0.342  1.00  0.00     0.000 C 
BRANCH   4   5
ATOM      5  C   UNL     1       2.316   2.193  -0.061  1.00  0.00     0.000 C 
BRANCH   5   6
ATOM      6  C   UNL     1       2.379   1.255  -1.279  1.00  0.00     0.000 C 
BRANCH   6   7
ATOM      7  C   UNL     1       0.986   0.832  -1.779  1.00  0.00     0.000 C 
BRANCH   7   8
ATOM      8  C   UNL     1      -0.196   1.319  -0.917  1.00  0.00     0.000 C 
BRANCH   8   9
ATOM      9  C   UNL     1      -1.561   0.892  -1.483  1.00  0.00     0.000 C 
BRANCH   9  10
ATOM     10  C   UNL     1      -1.602  -0.586  -1.916  1.00  0.00     0.000 C 
BRANCH  10  11
ATOM     11  C   UNL     1      -0.659  -1.525  -1.139  1.00  0.00     0.000 C 
BRANCH  11  12
ATOM     12  C   UNL     1      -1.406  -2.608  -0.341  1.00  0.00     0.006 C 
BRANCH  12  13
ATOM     13  C   UNL     1      -2.432  -3.357  -1.200  1.00  0.00     0.053 C 
BRANCH  13  14
ATOM     14  C   UNL     1      -2.758  -4.703  -0.629  1.00  0.00     0.041 C 
ATOM     15  O   UNL     1      -1.961  -5.666  -0.782  1.00  0.00    -0.550 OA
ATOM     16  O   UNL     1      -3.957  -4.901   0.044  1.00  0.00    -0.550 OA
ENDBRANCH  13  14
ENDBRANCH  12  13
ENDBRANCH  11  12
ENDBRANCH  10  11
ENDBRANCH   9  10
ENDBRANCH   8   9
ENDBRANCH   7   8
ENDBRANCH   6   7
ENDBRANCH   5   6
ENDBRANCH   4   5
ENDBRANCH   3   4
ENDBRANCH   2   3
ENDBRANCH   1   2
BRANCH   1  17
ATOM     17  C   UNL     1       4.104   3.592   2.396  1.00  0.00     0.000 C 
BRANCH  17  18
ATOM     18  C   UNL     1       4.399   3.914   3.871  1.00  0.00     0.000 C 
BRANCH  18  19
ATOM     19  C   UNL     1       5.889   3.851   4.263  1.00  0.00     0.000 C 
BRANCH  19  20
ATOM     20  C   UNL     1       6.165   3.437   5.723  1.00  0.00     0.000 C 
BRANCH  20  21
ATOM     21  C   UNL     1       7.591   3.738   6.224  1.00  0.00     0.000 C 
BRANCH  21  22
ATOM     22  C   UNL     1       7.812   3.308   7.683  1.00  0.00    -0.000 C 
BRANCH  22  23
ATOM     23  C   UNL     1       9.306   3.182   8.002  1.00  0.00    -0.000 C 
BRANCH  23  24
ATOM     24  C   UNL     1       9.725   1.706   8.074  1.00  0.00    -0.000 C 
BRANCH  24  25
ATOM     25  C   UNL     1       9.726   1.160   9.510  1.00  0.00    -0.000 C 
BRANCH  25  26
ATOM     26  C   UNL     1       9.013  -0.197   9.628  1.00  0.00    -0.000 C 
BRANCH  26  27
ATOM     27  C   UNL     1       7.604  -0.183   9.008  1.00  0.00    -0.000 C 
BRANCH  27  28
ATOM     28  C   UNL     1       6.475  -0.373  10.046  1.00  0.00    -0.000 C 
BRANCH  28  29
ATOM     29  C   UNL     1       5.691  -1.685   9.862  1.00  0.00    -0.003 C 
ATOM     30  C   UNL     1       6.554  -2.921  10.124  1.00  0.00     0.004 C 
ENDBRANCH  28  29
ENDBRANCH  27  28
ENDBRANCH  26  27
ENDBRANCH  25  26
ENDBRANCH  24  25
ENDBRANCH  23  24
ENDBRANCH  22  23
ENDBRANCH  21  22
ENDBRANCH  20  21
ENDBRANCH  19  20
ENDBRANCH  18  19
ENDBRANCH  17  18
ENDBRANCH   1  17
TORSDOF 26
ENDMDL
MODEL 4
REMARK VINA RESULT:    10.357      7.775     12.093
REMARK INTER + INTRA:          24.908
REMARK INTER:                  26.397
REMARK INTRA:                  -1.489
REMARK UNBOUND:                -1.190
REMARK SMILES CCCCCCCCCCCCCCCCCCCCCCCCCCCC(=O)[O-]
REMARK SMILES IDX 15 1 16 2 17 3 18 4 19 5 20 6 21 7 22 8 23 9 24 10 25 11
REMARK SMILES IDX 26 12 27 13 28 14 29 15 30 16 14 17 13 18 12 19 11 20 10 21
REMARK SMILES IDX 9 22 8 23 7 24 6 25 5 26 4 27 3 28 2 29 1 30
REMARK H PARENT
REMARK Flexibility Score: inf
ROOT
ATOM      1  C   UNL     1       3.080   2.413  -0.621  1.00  0.00     0.000 C 
ENDROOT
BRANCH   1   2
ATOM      2  C   UNL     1       2.201   3.636  -0.318  1.00  0.00     0.000 C 
BRANCH   2   3
ATOM      3  C   UNL     1       3.024   4.910  -0.065  1.00  0.00     0.000 C 
BRANCH   3   4
ATOM      4  C   UNL     1       4.091   4.716   1.027  1.00  0.00     0.000 C 
BRANCH   4   5
ATOM      5  C   UNL     1       3.636   3.749   2.134  1.00  0.00     0.000 C 
BRANCH   5   6
ATOM      6  C   UNL     1       3.920   4.296   3.544  1.00  0.00     0.000 C 
BRANCH   6   7
ATOM      7  C   UNL     1       4.997   3.489   4.292  1.00  0.00     0.000 C 
BRANCH   7   8
ATOM      8  C   UNL     1       6.320   4.239   4.544  1.00  0.00     0.000 C 
BRANCH   8   9
ATOM      9  C   UNL     1       7.309   3.428   5.400  1.00  0.00     0.000 C 
BRANCH   9  10
ATOM     10  C   UNL     1       7.532   4.031   6.801  1.00  0.00     0.000 C 
BRANCH  10  11
ATOM     11  C   UNL     1       8.823   3.581   7.512  1.00  0.00     0.000 C 
BRANCH  11  12
ATOM     12  C   UNL     1       9.034   4.268   8.873  1.00  0.00     0.006 C 
BRANCH  12  13
ATOM     13  C   UNL     1       9.885   5.539   8.755  1.00  0.00     0.053 C 
BRANCH  13  14
ATOM     14  C   UNL     1       9.229   6.709   9.422  1.00  0.00     0.041 C 
ATOM     15  O   UNL     1       9.913   7.509  10.115  1.00  0.00    -0.550 OA
ATOM     16  O   UNL     1       7.858   6.897   9.305  1.00  0.00    -0.550 OA
ENDBRANCH  13  14
ENDBRANCH  12  13
ENDBRANCH  11  12
ENDBRANCH  10  11
ENDBRANCH   9  10
ENDBRANCH   8   9
ENDBRANCH   7   8
ENDBRANCH   6   7
ENDBRANCH   5   6
ENDBRANCH   4   5
ENDBRANCH   3   4
ENDBRANCH   2   3
ENDBRANCH   1   2
BRANCH   1  17
ATOM     17  C   UNL     1       2.760   1.836  -2.008  1.00  0.00     0.000 C 
BRANCH  17  18
ATOM     18  C   UNL     1       1.898   0.564  -1.941  1.00  0.00     0.000 C 
BRANCH  18  19
ATOM     19  C   UNL     1       1.445   0.162  -0.523  1.00  0.00     0.000 C 
BRANCH  19  20
ATOM     20  C   UNL     1      -0.017   0.514  -0.179  1.00  0.00     0.000 C 
BRANCH  20  21
ATOM     21  C   UNL     1      -0.864   1.003  -1.369  1.00  0.00     0.000 C 
BRANCH  21  22
ATOM     22  C   UNL     1      -1.619  -0.137  -2.069  1.00  0.00    -0.000 C 
BRANCH  22  23
ATOM     23  C   UNL     1      -2.650  -0.777  -1.132  1.00  0.00    -0.000 C 
BRANCH  23  24
ATOM     24  C   UNL     1      -3.122  -2.131  -1.683  1.00  0.00    -0.000 C 
BRANCH  24  25
ATOM     25  C   UNL     1      -3.345  -3.175  -0.578  1.00  0.00    -0.000 C 
BRANCH  25  26
ATOM     26  C   UNL     1      -2.883  -4.582  -0.991  1.00  0.00    -0.000 C 
BRANCH  26  27
ATOM     27  C   UNL     1      -1.869  -5.187  -0.004  1.00  0.00    -0.000 C 
BRANCH  27  28
ATOM     28  C   UNL     1      -0.399  -4.855  -0.352  1.00  0.00    -0.000 C 
BRANCH  28  29
ATOM     29  C   UNL     1      -0.073  -3.354  -0.252  1.00  0.00    -0.003 C 
ATOM     30  C   UNL     1       0.659  -2.833  -1.490  1.00  0.00     0.004 C 
ENDBRANCH  28  29
ENDBRANCH  27  28
ENDBRANCH  26  27
ENDBRANCH  25  26
ENDBRANCH  24  25
ENDBRANCH  23  24
ENDBRANCH  22  23
ENDBRANCH  21  22
ENDBRANCH  20  21
ENDBRANCH  19  20
ENDBRANCH  18  19
ENDBRANCH  17  18
ENDBRANCH   1  17
TORSDOF 26
ENDMDL
MODEL 5
REMARK VINA RESULT:    10.392      7.788     13.413
REMARK INTER + INTRA:          24.997
REMARK INTER:                  25.073
REMARK INTRA:                  -0.076
REMARK UNBOUND:                -1.190
REMARK SMILES CCCCCCCCCCCCCCCCCCCCCCCCCCCC(=O)[O-]
REMARK SMILES IDX 15 1 16 2 17 3 18 4 19 5 20 6 21 7 22 8 23 9 24 10 25 11
REMARK SMILES IDX 26 12 27 13 28 14 29 15 30 16 14 17 13 18 12 19 11 20 10 21
REMARK SMILES IDX 9 22 8 23 7 24 6 25 5 26 4 27 3 28 2 29 1 30
REMARK H PARENT
REMARK Flexibility Score: inf
ROOT
ATOM      1  C   UNL     1       3.996   4.843   1.914  1.00  0.00     0.000 C 
ENDROOT
BRANCH   1   2
ATOM      2  C   UNL     1       4.215   3.900   3.106  1.00  0.00     0.000 C 
BRANCH   2   3
ATOM      3  C   UNL     1       5.175   4.483   4.156  1.00  0.00     0.000 C 
BRANCH   3   4
ATOM      4  C   UNL     1       5.805   3.396   5.046  1.00  0.00     0.000 C 
BRANCH   4   5
ATOM      5  C   UNL     1       6.901   3.950   5.973  1.00  0.00     0.000 C 
BRANCH   5   6
ATOM      6  C   UNL     1       7.412   2.899   6.973  1.00  0.00     0.000 C 
BRANCH   6   7
ATOM      7  C   UNL     1       8.519   3.442   7.896  1.00  0.00     0.000 C 
BRANCH   7   8
ATOM      8  C   UNL     1       9.650   2.445   8.219  1.00  0.00     0.000 C 
BRANCH   8   9
ATOM      9  C   UNL     1       9.253   0.984   7.945  1.00  0.00     0.000 C 
BRANCH   9  10
ATOM     10  C   UNL     1      10.123  -0.033   8.706  1.00  0.00     0.000 C 
BRANCH  10  11
ATOM     11  C   UNL     1       9.634  -0.387  10.123  1.00  0.00     0.000 C 
BRANCH  11  12
ATOM     12  C   UNL     1       8.350  -1.236  10.125  1.00  0.00     0.006 C 
BRANCH  12  13
ATOM     13  C   UNL     1       7.171  -0.506   9.468  1.00  0.00     0.053 C 
BRANCH  13  14
ATOM     14  C   UNL     1       5.859  -1.127   9.836  1.00  0.00     0.041 C 
ATOM     15  O   UNL     1       5.745  -2.381   9.893  1.00  0.00    -0.550 OA
ATOM     16  O   UNL     1       4.754  -0.322  10.082  1.00  0.00    -0.550 OA
ENDBRANCH  13  14
ENDBRANCH  12  13
ENDBRANCH  11  12
ENDBRANCH  10  11
ENDBRANCH   9  10
ENDBRANCH   8   9
ENDBRANCH   7   8
ENDBRANCH   6   7
ENDBRANCH   5   6
ENDBRANCH   4   5
ENDBRANCH   3   4
ENDBRANCH   2   3
ENDBRANCH   1   2
BRANCH   1  17
ATOM     17  C   UNL     1       2.808   4.379   1.058  1.00  0.00     0.000 C 
BRANCH  17  18
ATOM     18  C   UNL     1       3.188   4.145  -0.414  1.00  0.00     0.000 C 
BRANCH  18  19
ATOM     19  C   UNL     1       2.331   3.093  -1.145  1.00  0.00     0.000 C 
BRANCH  19  20
ATOM     20  C   UNL     1       2.701   1.625  -0.847  1.00  0.00     0.000 C 
BRANCH  20  21
ATOM     21  C   UNL     1       2.872   0.734  -2.092  1.00  0.00     0.000 C 
BRANCH  21  22
ATOM     22  C   UNL     1       1.728  -0.277  -2.262  1.00  0.00    -0.000 C 
BRANCH  22  23
ATOM     23  C   UNL     1       0.450   0.212  -1.570  1.00  0.00    -0.000 C 
BRANCH  23  24
ATOM     24  C   UNL     1       0.233  -0.528  -0.242  1.00  0.00    -0.000 C 
BRANCH  24  25
ATOM     25  C   UNL     1      -1.029  -1.404  -0.251  1.00  0.00    -0.000 C 
BRANCH  25  26
ATOM     26  C   UNL     1      -2.132  -0.844  -1.163  1.00  0.00    -0.000 C 
BRANCH  26  27
ATOM     27  C   UNL     1      -3.093  -1.934  -1.671  1.00  0.00    -0.000 C 
BRANCH  27  28
ATOM     28  C   UNL     1      -3.276  -3.104  -0.677  1.00  0.00    -0.000 C 
BRANCH  28  29
ATOM     29  C   UNL     1      -2.135  -4.136  -0.732  1.00  0.00    -0.003 C 
ATOM     30  C   UNL     1      -2.652  -5.575  -0.735  1.00  0.00     0.004 C 
ENDBRANCH  28  29
ENDBRANCH  27  28
ENDBRANCH  26  27
ENDBRANCH  25  26
ENDBRANCH  24  25
ENDBRANCH  23  24
ENDBRANCH  22  23
ENDBRANCH  21  22
ENDBRANCH  20  21
ENDBRANCH  19  20
ENDBRANCH  18  19
ENDBRANCH  17  18
ENDBRANCH   1  17
TORSDOF 26
ENDMDL
MODEL 6
REMARK VINA RESULT:    10.456      7.700     14.731
REMARK INTER + INTRA:          25.159
REMARK INTER:                  24.815
REMARK INTRA:                   0.344
REMARK UNBOUND:                -1.190
REMARK SMILES CCCCCCCCCCCCCCCCCCCCCCCCCCCC(=O)[O-]
REMARK SMILES IDX 15 1 16 2 17 3 18 4 19 5 20 6 21 7 22 8 23 9 24 10 25 11
REMARK SMILES IDX 26 12 27 13 28 14 29 15 30 16 14 17 13 18 12 19 11 20 10 21
REMARK SMILES IDX 9 22 8 23 7 24 6 25 5 26 4 27 3 28 2 29 1 30
REMARK H PARENT
REMARK Flexibility Score: inf
ROOT
ATOM      1  C   UNL     1       3.839   4.524   1.170  1.00  0.00     0.000 C 
ENDROOT
BRANCH   1   2
ATOM      2  C   UNL     1       2.484   4.371   0.463  1.00  0.00     0.000 C 
BRANCH   2   3
ATOM      3  C   UNL     1       2.539   3.393  -0.722  1.00  0.00     0.000 C 
BRANCH   3   4
ATOM      4  C   UNL     1       3.751   2.447  -0.649  1.00  0.00     0.000 C 
BRANCH   4   5
ATOM      5  C   UNL     1       3.629   1.253  -1.611  1.00  0.00     0.000 C 
BRANCH   5   6
ATOM      6  C   UNL     1       2.179   0.758  -1.754  1.00  0.00     0.000 C 
BRANCH   6   7
ATOM      7  C   UNL     1       1.547   0.368  -0.405  1.00  0.00     0.000 C 
BRANCH   7   8
ATOM      8  C   UNL     1       0.331  -0.575  -0.499  1.00  0.00     0.000 C 
BRANCH   8   9
ATOM      9  C   UNL     1      -1.010   0.177  -0.464  1.00  0.00     0.000 C 
BRANCH   9  10
ATOM     10  C   UNL     1      -1.950  -0.206  -1.623  1.00  0.00     0.000 C 
BRANCH  10  11
ATOM     11  C   UNL     1      -3.278  -0.865  -1.203  1.00  0.00     0.000 C 
BRANCH  11  12
ATOM     12  C   UNL     1      -3.308  -2.382  -1.461  1.00  0.00     0.006 C 
BRANCH  12  13
ATOM     13  C   UNL     1      -2.745  -3.182  -0.279  1.00  0.00     0.053 C 
BRANCH  13  14
ATOM     14  C   UNL     1      -2.827  -4.658  -0.520  1.00  0.00     0.041 C 
ATOM     15  O   UNL     1      -3.921  -5.266  -0.368  1.00  0.00    -0.550 OA
ATOM     16  O   UNL     1      -1.688  -5.368  -0.878  1.00  0.00    -0.550 OA
ENDBRANCH  13  14
ENDBRANCH  12  13
ENDBRANCH  11  12
ENDBRANCH  10  11
ENDBRANCH   9  10
ENDBRANCH   8   9
ENDBRANCH   7   8
ENDBRANCH   6   7
ENDBRANCH   5   6
ENDBRANCH   4   5
ENDBRANCH   3   4
ENDBRANCH   2   3
ENDBRANCH   1   2
BRANCH   1  17
ATOM     17  C   UNL     1       3.713   4.220   2.670  1.00  0.00     0.000 C 
BRANCH  17  18
ATOM     18  C   UNL     1       5.070   3.945   3.339  1.00  0.00     0.000 C 
BRANCH  18  19
ATOM     19  C   UNL     1       5.032   3.873   4.879  1.00  0.00     0.000 C 
BRANCH  19  20
ATOM     20  C   UNL     1       6.374   4.164   5.582  1.00  0.00     0.000 C 
BRANCH  20  21
ATOM     21  C   UNL     1       6.820   3.093   6.596  1.00  0.00     0.000 C 
BRANCH  21  22
ATOM     22  C   UNL     1       8.330   3.133   6.877  1.00  0.00    -0.000 C 
BRANCH  22  23
ATOM     23  C   UNL     1       8.740   2.027   7.858  1.00  0.00    -0.000 C 
BRANCH  23  24
ATOM     24  C   UNL     1      10.090   2.354   8.513  1.00  0.00    -0.000 C 
BRANCH  24  25
ATOM     25  C   UNL     1      10.125   3.760   9.130  1.00  0.00    -0.000 C 
BRANCH  25  26
ATOM     26  C   UNL     1       9.354   4.793   8.293  1.00  0.00    -0.000 C 
BRANCH  26  27
ATOM     27  C   UNL     1       8.930   6.024   9.113  1.00  0.00    -0.000 C 
BRANCH  27  28
ATOM     28  C   UNL     1      10.125   6.851   9.643  1.00  0.00    -0.000 C 
BRANCH  28  29
ATOM     29  C   UNL     1       9.766   8.316   9.947  1.00  0.00    -0.003 C 
ATOM     30  C   UNL     1       8.257   8.562   9.929  1.00  0.00     0.004 C 
ENDBRANCH  28  29
ENDBRANCH  27  28
ENDBRANCH  26  27
ENDBRANCH  25  26
ENDBRANCH  24  25
ENDBRANCH  23  24
ENDBRANCH  22  23
ENDBRANCH  21  22
ENDBRANCH  20  21
ENDBRANCH  19  20
ENDBRANCH  18  19
ENDBRANCH  17  18
ENDBRANCH   1  17
TORSDOF 26
ENDMDL
MODEL 7
REMARK VINA RESULT:    10.545      7.100     12.355
REMARK INTER + INTRA:          25.384
REMARK INTER:                  26.150
REMARK INTRA:                  -0.767
REMARK UNBOUND:                -1.190
REMARK SMILES CCCCCCCCCCCCCCCCCCCCCCCCCCCC(=O)[O-]
REMARK SMILES IDX 15 1 16 2 17 3 18 4 19 5 20 6 21 7 22 8 23 9 24 10 25 11
REMARK SMILES IDX 26 12 27 13 28 14 29 15 30 16 14 17 13 18 12 19 11 20 10 21
REMARK SMILES IDX 9 22 8 23 7 24 6 25 5 26 4 27 3 28 2 29 1 30
REMARK H PARENT
REMARK Flexibility Score: inf
ROOT
ATOM      1  C   UNL     1       2.736   3.631  -0.115  1.00  0.00     0.000 C 
ENDROOT
BRANCH   1   2
ATOM      2  C   UNL     1       3.275   4.178   1.215  1.00  0.00     0.000 C 
BRANCH   2   3
ATOM      3  C   UNL     1       3.871   3.079   2.112  1.00  0.00     0.000 C 
BRANCH   3   4
ATOM      4  C   UNL     1       4.127   3.567   3.549  1.00  0.00     0.000 C 
BRANCH   4   5
ATOM      5  C   UNL     1       5.613   3.854   3.822  1.00  0.00     0.000 C 
BRANCH   5   6
ATOM      6  C   UNL     1       5.902   4.087   5.315  1.00  0.00     0.000 C 
BRANCH   6   7
ATOM      7  C   UNL     1       7.346   3.723   5.707  1.00  0.00     0.000 C 
BRANCH   7   8
ATOM      8  C   UNL     1       7.603   3.597   7.222  1.00  0.00     0.000 C 
BRANCH   8   9
ATOM      9  C   UNL     1       7.779   4.962   7.911  1.00  0.00     0.000 C 
BRANCH   9  10
ATOM     10  C   UNL     1       9.248   5.292   8.236  1.00  0.00     0.000 C 
BRANCH  10  11
ATOM     11  C   UNL     1      10.125   4.083   8.616  1.00  0.00     0.000 C 
BRANCH  11  12
ATOM     12  C   UNL     1       9.362   3.009   9.412  1.00  0.00     0.006 C 
BRANCH  12  13
ATOM     13  C   UNL     1      10.082   1.654   9.394  1.00  0.00     0.053 C 
BRANCH  13  14
ATOM     14  C   UNL     1       9.182   0.554   8.921  1.00  0.00     0.041 C 
ATOM     15  O   UNL     1       8.034   0.821   8.476  1.00  0.00    -0.550 OA
ATOM     16  O   UNL     1       9.599  -0.768   9.003  1.00  0.00    -0.550 OA
ENDBRANCH  13  14
ENDBRANCH  12  13
ENDBRANCH  11  12
ENDBRANCH  10  11
ENDBRANCH   9  10
ENDBRANCH   8   9
ENDBRANCH   7   8
ENDBRANCH   6   7
ENDBRANCH   5   6
ENDBRANCH   4   5
ENDBRANCH   3   4
ENDBRANCH   2   3
ENDBRANCH   1   2
BRANCH   1  17
ATOM     17  C   UNL     1       3.382   2.280  -0.456  1.00  0.00     0.000 C 
BRANCH  17  18
ATOM     18  C   UNL     1       2.979   1.759  -1.846  1.00  0.00     0.000 C 
BRANCH  18  19
ATOM     19  C   UNL     1       1.659   0.962  -1.881  1.00  0.00     0.000 C 
BRANCH  19  20
ATOM     20  C   UNL     1       1.421   0.036  -0.670  1.00  0.00     0.000 C 
BRANCH  20  21
ATOM     21  C   UNL     1      -0.014  -0.509  -0.542  1.00  0.00     0.000 C 
BRANCH  21  22
ATOM     22  C   UNL     1      -1.051   0.375  -1.251  1.00  0.00    -0.000 C 
BRANCH  22  23
ATOM     23  C   UNL     1      -2.236  -0.458  -1.755  1.00  0.00    -0.000 C 
BRANCH  23  24
ATOM     24  C   UNL     1      -3.323  -0.569  -0.676  1.00  0.00    -0.000 C 
BRANCH  24  25
ATOM     25  C   UNL     1      -3.756  -2.020  -0.418  1.00  0.00    -0.000 C 
BRANCH  25  26
ATOM     26  C   UNL     1      -3.631  -2.906  -1.668  1.00  0.00    -0.000 C 
BRANCH  26  27
ATOM     27  C   UNL     1      -2.525  -3.967  -1.535  1.00  0.00    -0.000 C 
BRANCH  27  28
ATOM     28  C   UNL     1      -2.429  -4.581  -0.119  1.00  0.00    -0.000 C 
BRANCH  28  29
ATOM     29  C   UNL     1      -3.632  -5.471   0.242  1.00  0.00    -0.003 C 
ATOM     30  C   UNL     1      -3.779  -6.664  -0.704  1.00  0.00     0.004 C 
ENDBRANCH  28  29
ENDBRANCH  27  28
ENDBRANCH  26  27
ENDBRANCH  25  26
ENDBRANCH  24  25
ENDBRANCH  23  24
ENDBRANCH  22  23
ENDBRANCH  21  22
ENDBRANCH  20  21
ENDBRANCH  19  20
ENDBRANCH  18  19
ENDBRANCH  17  18
ENDBRANCH   1  17
TORSDOF 26
ENDMDL
MODEL 8
REMARK VINA RESULT:    10.653      7.915     13.646
REMARK INTER + INTRA:          25.656
REMARK INTER:                  25.851
REMARK INTRA:                  -0.195
REMARK UNBOUND:                -1.190
REMARK SMILES CCCCCCCCCCCCCCCCCCCCCCCCCCCC(=O)[O-]
REMARK SMILES IDX 15 1 16 2 17 3 18 4 19 5 20 6 21 7 22 8 23 9 24 10 25 11
REMARK SMILES IDX 26 12 27 13 28 14 29 15 30 16 14 17 13 18 12 19 11 20 10 21
REMARK SMILES IDX 9 22 8 23 7 24 6 25 5 26 4 27 3 28 2 29 1 30
REMARK H PARENT
REMARK Flexibility Score: inf
ROOT
ATOM      1  C   UNL     1       3.750   3.595   2.851  1.00  0.00     0.000 C 
ENDROOT
BRANCH   1   2
ATOM      2  C   UNL     1       4.521   4.285   3.985  1.00  0.00     0.000 C 
BRANCH   2   3
ATOM      3  C   UNL     1       5.656   3.414   4.549  1.00  0.00     0.000 C 
BRANCH   3   4
ATOM      4  C   UNL     1       6.281   4.014   5.822  1.00  0.00     0.000 C 
BRANCH   4   5
ATOM      5  C   UNL     1       7.577   3.297   6.239  1.00  0.00     0.000 C 
BRANCH   5   6
ATOM      6  C   UNL     1       7.319   2.137   7.216  1.00  0.00     0.000 C 
BRANCH   6   7
ATOM      7  C   UNL     1       8.479   1.920   8.204  1.00  0.00     0.000 C 
BRANCH   7   8
ATOM      8  C   UNL     1       9.806   2.604   7.819  1.00  0.00     0.000 C 
BRANCH   8   9
ATOM      9  C   UNL     1       9.919   4.037   8.367  1.00  0.00     0.000 C 
BRANCH   9  10
ATOM     10  C   UNL     1       8.550   4.696   8.625  1.00  0.00     0.000 C 
BRANCH  10  11
ATOM     11  C   UNL     1       8.459   5.539   9.912  1.00  0.00     0.000 C 
BRANCH  11  12
ATOM     12  C   UNL     1       9.677   6.455  10.122  1.00  0.00     0.006 C 
BRANCH  12  13
ATOM     13  C   UNL     1      10.000   7.286   8.873  1.00  0.00     0.053 C 
BRANCH  13  14
ATOM     14  C   UNL     1       9.485   8.688   8.991  1.00  0.00     0.041 C 
ATOM     15  O   UNL     1      10.116   9.540   9.671  1.00  0.00    -0.550 OA
ATOM     16  O   UNL     1       8.291   9.043   8.376  1.00  0.00    -0.550 OA
ENDBRANCH  13  14
ENDBRANCH  12  13
ENDBRANCH  11  12
ENDBRANCH  10  11
ENDBRANCH   9  10
ENDBRANCH   8   9
ENDBRANCH   7   8
ENDBRANCH   6   7
ENDBRANCH   5   6
ENDBRANCH   4   5
ENDBRANCH   3   4
ENDBRANCH   2   3
ENDBRANCH   1   2
BRANCH   1  17
ATOM     17  C   UNL     1       3.428   4.585   1.723  1.00  0.00     0.000 C 
BRANCH  17  18
ATOM     18  C   UNL     1       3.260   3.900   0.356  1.00  0.00     0.000 C 
BRANCH  18  19
ATOM     19  C   UNL     1       3.262   2.358   0.400  1.00  0.00     0.000 C 
BRANCH  19  20
ATOM     20  C   UNL     1       3.480   1.665  -0.961  1.00  0.00     0.000 C 
BRANCH  20  21
ATOM     21  C   UNL     1       2.537   0.481  -1.245  1.00  0.00     0.000 C 
BRANCH  21  22
ATOM     22  C   UNL     1       1.154   0.653  -0.599  1.00  0.00    -0.000 C 
BRANCH  22  23
ATOM     23  C   UNL     1       0.346  -0.648  -0.666  1.00  0.00    -0.000 C 
BRANCH  23  24
ATOM     24  C   UNL     1      -0.647  -0.614  -1.837  1.00  0.00    -0.000 C 
BRANCH  24  25
ATOM     25  C   UNL     1      -2.003  -0.008  -1.447  1.00  0.00    -0.000 C 
BRANCH  25  26
ATOM     26  C   UNL     1      -2.960  -1.043  -0.833  1.00  0.00    -0.000 C 
BRANCH  26  27
ATOM     27  C   UNL     1      -2.892  -2.407  -1.542  1.00  0.00    -0.000 C 
BRANCH  27  28
ATOM     28  C   UNL     1      -2.621  -3.587  -0.580  1.00  0.00    -0.000 C 
BRANCH  28  29
ATOM     29  C   UNL     1      -3.634  -4.737  -0.725  1.00  0.00    -0.003 C 
ATOM     30  C   UNL     1      -2.954  -6.100  -0.857  1.00  0.00     0.004 C 
ENDBRANCH  28  29
ENDBRANCH  27  28
ENDBRANCH  26  27
ENDBRANCH  25  26
ENDBRANCH  24  25
ENDBRANCH  23  24
ENDBRANCH  22  23
ENDBRANCH  21  22
ENDBRANCH  20  21
ENDBRANCH  19  20
ENDBRANCH  18  19
ENDBRANCH  17  18
ENDBRANCH   1  17
TORSDOF 26
ENDMDL
MODEL 9
REMARK VINA RESULT:    10.746      3.831     13.243
REMARK INTER + INTRA:          25.889
REMARK INTER:                  27.205
REMARK INTRA:                  -1.316
REMARK UNBOUND:                -1.190
REMARK SMILES CCCCCCCCCCCCCCCCCCCCCCCCCCCC(=O)[O-]
REMARK SMILES IDX 15 1 16 2 17 3 18 4 19 5 20 6 21 7 22 8 23 9 24 10 25 11
REMARK SMILES IDX 26 12 27 13 28 14 29 15 30 16 14 17 13 18 12 19 11 20 10 21
REMARK SMILES IDX 9 22 8 23 7 24 6 25 5 26 4 27 3 28 2 29 1 30
REMARK H PARENT
REMARK Flexibility Score: inf
ROOT
ATOM      1  C   UNL     1      -4.028  -4.803   1.770  1.00  0.00     0.000 C 
ENDROOT
BRANCH   1   2
ATOM      2  C   UNL     1      -4.505  -3.794   2.826  1.00  0.00     0.000 C 
BRANCH   2   3
ATOM      3  C   UNL     1      -4.843  -4.457   4.172  1.00  0.00     0.000 C 
BRANCH   3   4
ATOM      4  C   UNL     1      -6.147  -3.914   4.784  1.00  0.00     0.000 C 
BRANCH   4   5
ATOM      5  C   UNL     1      -6.806  -4.911   5.753  1.00  0.00     0.000 C 
BRANCH   5   6
ATOM      6  C   UNL     1      -8.274  -4.558   6.050  1.00  0.00     0.000 C 
BRANCH   6   7
ATOM      7  C   UNL     1      -8.522  -4.233   7.534  1.00  0.00     0.000 C 
BRANCH   7   8
ATOM      8  C   UNL     1      -9.938  -3.724   7.867  1.00  0.00     0.000 C 
BRANCH   8   9
ATOM      9  C   UNL     1      -9.984  -2.205   8.107  1.00  0.00     0.000 C 
BRANCH   9  10
ATOM     10  C   UNL     1      -9.842  -1.821   9.592  1.00  0.00     0.000 C 
BRANCH  10  11
ATOM     11  C   UNL     1     -10.115  -0.340   9.918  1.00  0.00     0.000 C 
BRANCH  11  12
ATOM     12  C   UNL     1      -8.861   0.544   9.806  1.00  0.00     0.006 C 
BRANCH  12  13
ATOM     13  C   UNL     1      -7.574  -0.232  10.115  1.00  0.00     0.053 C 
BRANCH  13  14
ATOM     14  C   UNL     1      -6.385   0.368   9.429  1.00  0.00     0.041 C 
ATOM     15  O   UNL     1      -5.942   1.489   9.794  1.00  0.00    -0.550 OA
ATOM     16  O   UNL     1      -5.788  -0.297   8.366  1.00  0.00    -0.550 OA
ENDBRANCH  13  14
ENDBRANCH  12  13
ENDBRANCH  11  12
ENDBRANCH  10  11
ENDBRANCH   9  10
ENDBRANCH   8   9
ENDBRANCH   7   8
ENDBRANCH   6   7
ENDBRANCH   5   6
ENDBRANCH   4   5
ENDBRANCH   3   4
ENDBRANCH   2   3
ENDBRANCH   1   2
BRANCH   1  17
ATOM     17  C   UNL     1      -2.884  -4.219   0.930  1.00  0.00     0.000 C 
BRANCH  17  18
ATOM     18  C   UNL     1      -3.236  -4.110  -0.564  1.00  0.00     0.000 C 
BRANCH  18  19
ATOM     19  C   UNL     1      -3.484  -2.675  -1.069  1.00  0.00     0.000 C 
BRANCH  19  20
ATOM     20  C   UNL     1      -2.215  -1.890  -1.459  1.00  0.00     0.000 C 
BRANCH  20  21
ATOM     21  C   UNL     1      -2.223  -0.403  -1.057  1.00  0.00     0.000 C 
BRANCH  21  22
ATOM     22  C   UNL     1      -1.139   0.414  -1.778  1.00  0.00    -0.000 C 
BRANCH  22  23
ATOM     23  C   UNL     1       0.239   0.185  -1.147  1.00  0.00    -0.000 C 
BRANCH  23  24
ATOM     24  C   UNL     1       1.349   0.315  -2.200  1.00  0.00    -0.000 C 
BRANCH  24  25
ATOM     25  C   UNL     1       2.711   0.669  -1.585  1.00  0.00    -0.000 C 
BRANCH  25  26
ATOM     26  C   UNL     1       3.049   2.163  -1.713  1.00  0.00    -0.000 C 
BRANCH  26  27
ATOM     27  C   UNL     1       2.980   2.906  -0.367  1.00  0.00    -0.000 C 
BRANCH  27  28
ATOM     28  C   UNL     1       1.603   3.553  -0.092  1.00  0.00    -0.000 C 
BRANCH  28  29
ATOM     29  C   UNL     1       1.476   4.980  -0.655  1.00  0.00    -0.003 C 
ATOM     30  C   UNL     1       2.765   5.788  -0.490  1.00  0.00     0.004 C 
ENDBRANCH  28  29
ENDBRANCH  27  28
ENDBRANCH  26  27
ENDBRANCH  25  26
ENDBRANCH  24  25
ENDBRANCH  23  24
ENDBRANCH  22  23
ENDBRANCH  21  22
ENDBRANCH  20  21
ENDBRANCH  19  20
ENDBRANCH  18  19
ENDBRANCH  17  18
ENDBRANCH   1  17
TORSDOF 26
ENDMDL
