MODEL 1
REMARK VINA RESULT:    -4.599      0.000      0.000
REMARK INTER + INTRA:         -16.618
REMARK INTER:                 -12.126
REMARK INTRA:                  -4.492
REMARK UNBOUND:                -4.492
REMARK SMILES CCCCCCCCCCCCCCCCCCCCCCCCCCCCCC(=O)[O-]
REMARK SMILES IDX 16 1 17 2 18 3 19 4 20 5 21 6 22 7 23 8 24 9 25 10 26 11
REMARK SMILES IDX 27 12 28 13 29 14 30 15 31 16 32 17 15 18 14 19 13 20 12 21
REMARK SMILES IDX 11 22 10 23 9 24 8 25 7 26 6 27 5 28 4 29 3 30 2 31 1 32
REMARK H PARENT
REMARK Flexibility Score: inf
ROOT
ATOM      1  C   UNL     1       0.874  -6.686   4.242  1.00  0.00     0.000 C 
ENDROOT
BRANCH   1   2
ATOM      2  C   UNL     1       1.925  -6.675   5.366  1.00  0.00     0.000 C 
BRANCH   2   3
ATOM      3  C   UNL     1       2.601  -8.041   5.561  1.00  0.00     0.000 C 
BRANCH   3   4
ATOM      4  C   UNL     1       2.517  -8.544   7.014  1.00  0.00     0.000 C 
BRANCH   4   5
ATOM      5  C   UNL     1       1.440  -7.808   7.829  1.00  0.00     0.000 C 
BRANCH   5   6
ATOM      6  C   UNL     1       0.168  -8.650   8.027  1.00  0.00     0.000 C 
BRANCH   6   7
ATOM      7  C   UNL     1      -1.120  -7.851   7.738  1.00  0.00     0.000 C 
BRANCH   7   8
ATOM      8  C   UNL     1      -1.031  -6.360   8.112  1.00  0.00     0.000 C 
BRANCH   8   9
ATOM      9  C   UNL     1      -1.896  -5.414   7.256  1.00  0.00     0.000 C 
BRANCH   9  10
ATOM     10  C   UNL     1      -1.119  -4.331   6.486  1.00  0.00     0.000 C 
BRANCH  10  11
ATOM     11  C   UNL     1      -1.884  -2.997   6.389  1.00  0.00     0.000 C 
BRANCH  11  12
ATOM     12  C   UNL     1      -2.587  -2.821   5.033  1.00  0.00     0.000 C 
BRANCH  12  13
ATOM     13  C   UNL     1      -4.089  -2.535   5.179  1.00  0.00     0.006 C 
BRANCH  13  14
ATOM     14  C   UNL     1      -4.860  -3.820   5.508  1.00  0.00     0.053 C 
BRANCH  14  15
ATOM     15  C   UNL     1      -5.790  -3.610   6.664  1.00  0.00     0.041 C 
ATOM     16  O   UNL     1      -6.562  -2.615   6.684  1.00  0.00    -0.550 OA
ATOM     17  O   UNL     1      -5.820  -4.527   7.709  1.00  0.00    -0.550 OA
ENDBRANCH  14  15
ENDBRANCH  13  14
ENDBRANCH  12  13
ENDBRANCH  11  12
ENDBRANCH  10  11
ENDBRANCH   9  10
ENDBRANCH   8   9
ENDBRANCH   7   8
ENDBRANCH   6   7
ENDBRANCH   5   6
ENDBRANCH   4   5
ENDBRANCH   3   4
ENDBRANCH   2   3
ENDBRANCH   1   2
BRANCH   1  18
ATOM     18  C   UNL     1      -0.121  -7.850   4.389  1.00  0.00     0.000 C 
BRANCH  18  19
ATOM     19  C   UNL     1      -1.538  -7.475   3.919  1.00  0.00     0.000 C 
BRANCH  19  20
ATOM     20  C   UNL     1      -1.586  -6.111   3.217  1.00  0.00     0.000 C 
BRANCH  20  21
ATOM     21  C   UNL     1      -2.999  -5.736   2.737  1.00  0.00     0.000 C 
BRANCH  21  22
ATOM     22  C   UNL     1      -2.990  -4.555   1.747  1.00  0.00     0.000 C 
BRANCH  22  23
ATOM     23  C   UNL     1      -1.670  -3.761   1.729  1.00  0.00     0.000 C 
BRANCH  23  24
ATOM     24  C   UNL     1      -1.115  -3.573   0.305  1.00  0.00    -0.000 C 
BRANCH  24  25
ATOM     25  C   UNL     1      -1.080  -4.890  -0.499  1.00  0.00    -0.000 C 
BRANCH  25  26
ATOM     26  C   UNL     1      -1.850  -4.837  -1.833  1.00  0.00    -0.000 C 
BRANCH  26  27
ATOM     27  C   UNL     1      -2.814  -6.009  -2.079  1.00  0.00    -0.000 C 
BRANCH  27  28
ATOM     28  C   UNL     1      -4.262  -5.685  -1.678  1.00  0.00    -0.000 C 
BRANCH  28  29
ATOM     29  C   UNL     1      -5.230  -6.757  -2.200  1.00  0.00    -0.000 C 
BRANCH  29  30
ATOM     30  C   UNL     1      -6.476  -6.163  -2.884  1.00  0.00    -0.000 C 
BRANCH  30  31
ATOM     31  C   UNL     1      -6.717  -4.668  -2.610  1.00  0.00    -0.003 C 
ATOM     32  C   UNL     1      -7.966  -4.407  -1.767  1.00  0.00     0.004 C 
ENDBRANCH  30  31
ENDBRANCH  29  30
ENDBRANCH  28  29
ENDBRANCH  27  28
ENDBRANCH  26  27
ENDBRANCH  25  26
ENDBRANCH  24  25
ENDBRANCH  23  24
ENDBRANCH  22  23
ENDBRANCH  21  22
ENDBRANCH  20  21
ENDBRANCH  19  20
ENDBRANCH  18  19
ENDBRANCH   1  18
TORSDOF 28
ENDMDL
MODEL 2
REMARK VINA RESULT:    -4.382      1.118      2.409
REMARK INTER + INTRA:         -16.046
REMARK INTER:                 -12.121
REMARK INTRA:                  -3.925
REMARK UNBOUND:                -4.492
REMARK SMILES CCCCCCCCCCCCCCCCCCCCCCCCCCCCCC(=O)[O-]
REMARK SMILES IDX 16 1 17 2 18 3 19 4 20 5 21 6 22 7 23 8 24 9 25 10 26 11
REMARK SMILES IDX 27 12 28 13 29 14 30 15 31 16 32 17 15 18 14 19 13 20 12 21
REMARK SMILES IDX 11 22 10 23 9 24 8 25 7 26 6 27 5 28 4 29 3 30 2 31 1 32
REMARK H PARENT
REMARK Flexibility Score: inf
ROOT
ATOM      1  C   UNL     1      -0.896  -5.860   2.398  1.00  0.00     0.000 C 
ENDROOT
BRANCH   1   2
ATOM      2  C   UNL     1      -0.137  -6.762   3.388  1.00  0.00     0.000 C 
BRANCH   2   3
ATOM      3  C   UNL     1      -1.013  -7.891   3.954  1.00  0.00     0.000 C 
BRANCH   3   4
ATOM      4  C   UNL     1      -0.410  -8.533   5.217  1.00  0.00     0.000 C 
BRANCH   4   5
ATOM      5  C   UNL     1       1.116  -8.364   5.293  1.00  0.00     0.000 C 
BRANCH   5   6
ATOM      6  C   UNL     1       1.634  -8.292   6.739  1.00  0.00     0.000 C 
BRANCH   6   7
ATOM      7  C   UNL     1       0.501  -8.421   7.780  1.00  0.00     0.000 C 
BRANCH   7   8
ATOM      8  C   UNL     1       0.497  -7.308   8.844  1.00  0.00     0.000 C 
BRANCH   8   9
ATOM      9  C   UNL     1      -0.818  -6.514   8.961  1.00  0.00     0.000 C 
BRANCH   9  10
ATOM     10  C   UNL     1      -1.569  -6.289   7.635  1.00  0.00     0.000 C 
BRANCH  10  11
ATOM     11  C   UNL     1      -0.997  -5.120   6.812  1.00  0.00     0.000 C 
BRANCH  11  12
ATOM     12  C   UNL     1      -2.080  -4.383   6.008  1.00  0.00     0.000 C 
BRANCH  12  13
ATOM     13  C   UNL     1      -3.502  -4.733   6.472  1.00  0.00     0.006 C 
BRANCH  13  14
ATOM     14  C   UNL     1      -4.540  -3.857   5.758  1.00  0.00     0.053 C 
BRANCH  14  15
ATOM     15  C   UNL     1      -5.697  -3.547   6.660  1.00  0.00     0.041 C 
ATOM     16  O   UNL     1      -6.031  -4.358   7.565  1.00  0.00    -0.550 OA
ATOM     17  O   UNL     1      -6.392  -2.352   6.515  1.00  0.00    -0.550 OA
ENDBRANCH  14  15
ENDBRANCH  13  14
ENDBRANCH  12  13
ENDBRANCH  11  12
ENDBRANCH  10  11
ENDBRANCH   9  10
ENDBRANCH   8   9
ENDBRANCH   7   8
ENDBRANCH   6   7
ENDBRANCH   5   6
ENDBRANCH   4   5
ENDBRANCH   3   4
ENDBRANCH   2   3
ENDBRANCH   1   2
BRANCH   1  18
ATOM     18  C   UNL     1      -2.405  -5.813   2.695  1.00  0.00     0.000 C 
BRANCH  18  19
ATOM     19  C   UNL     1      -3.007  -4.416   2.458  1.00  0.00     0.000 C 
BRANCH  19  20
ATOM     20  C   UNL     1      -3.207  -4.105   0.968  1.00  0.00     0.000 C 
BRANCH  20  21
ATOM     21  C   UNL     1      -2.706  -2.703   0.579  1.00  0.00     0.000 C 
BRANCH  21  22
ATOM     22  C   UNL     1      -1.256  -2.451   1.034  1.00  0.00     0.000 C 
BRANCH  22  23
ATOM     23  C   UNL     1      -0.190  -3.036   0.090  1.00  0.00     0.000 C 
BRANCH  23  24
ATOM     24  C   UNL     1      -0.695  -3.170  -1.359  1.00  0.00    -0.000 C 
BRANCH  24  25
ATOM     25  C   UNL     1      -0.693  -4.631  -1.857  1.00  0.00    -0.000 C 
BRANCH  25  26
ATOM     26  C   UNL     1      -1.904  -5.001  -2.735  1.00  0.00    -0.000 C 
BRANCH  26  27
ATOM     27  C   UNL     1      -2.669  -6.260  -2.299  1.00  0.00    -0.000 C 
BRANCH  27  28
ATOM     28  C   UNL     1      -4.068  -5.949  -1.747  1.00  0.00    -0.000 C 
BRANCH  28  29
ATOM     29  C   UNL     1      -5.156  -6.647  -2.576  1.00  0.00    -0.000 C 
BRANCH  29  30
ATOM     30  C   UNL     1      -6.479  -5.860  -2.622  1.00  0.00    -0.000 C 
BRANCH  30  31
ATOM     31  C   UNL     1      -6.524  -4.725  -3.660  1.00  0.00    -0.003 C 
ATOM     32  C   UNL     1      -5.484  -4.887  -4.770  1.00  0.00     0.004 C 
ENDBRANCH  30  31
ENDBRANCH  29  30
ENDBRANCH  28  29
ENDBRANCH  27  28
ENDBRANCH  26  27
ENDBRANCH  25  26
ENDBRANCH  24  25
ENDBRANCH  23  24
ENDBRANCH  22  23
ENDBRANCH  21  22
ENDBRANCH  20  21
ENDBRANCH  19  20
ENDBRANCH  18  19
ENDBRANCH   1  18
TORSDOF 28
ENDMDL
MODEL 3
REMARK VINA RESULT:    -4.288     11.476     13.401
REMARK INTER + INTRA:         -15.797
REMARK INTER:                 -11.659
REMARK INTRA:                  -4.138
REMARK UNBOUND:                -4.492
REMARK SMILES CCCCCCCCCCCCCCCCCCCCCCCCCCCCCC(=O)[O-]
REMARK SMILES IDX 16 1 17 2 18 3 19 4 20 5 21 6 22 7 23 8 24 9 25 10 26 11
REMARK SMILES IDX 27 12 28 13 29 14 30 15 31 16 32 17 15 18 14 19 13 20 12 21
REMARK SMILES IDX 11 22 10 23 9 24 8 25 7 26 6 27 5 28 4 29 3 30 2 31 1 32
REMARK H PARENT
REMARK Flexibility Score: inf
ROOT
ATOM      1  C   UNL     1       2.955   4.013   2.262  1.00  0.00     0.000 C 
ENDROOT
BRANCH   1   2
ATOM      2  C   UNL     1       2.831   4.893   3.519  1.00  0.00     0.000 C 
BRANCH   2   3
ATOM      3  C   UNL     1       2.553   6.368   3.188  1.00  0.00     0.000 C 
BRANCH   3   4
ATOM      4  C   UNL     1       1.150   6.821   3.630  1.00  0.00     0.000 C 
BRANCH   4   5
ATOM      5  C   UNL     1       1.160   8.212   4.286  1.00  0.00     0.000 C 
BRANCH   5   6
ATOM      6  C   UNL     1      -0.187   8.570   4.936  1.00  0.00     0.000 C 
BRANCH   6   7
ATOM      7  C   UNL     1      -1.060   7.327   5.210  1.00  0.00     0.000 C 
BRANCH   7   8
ATOM      8  C   UNL     1      -1.036   6.852   6.675  1.00  0.00     0.000 C 
BRANCH   8   9
ATOM      9  C   UNL     1      -0.233   7.744   7.641  1.00  0.00     0.000 C 
BRANCH   9  10
ATOM     10  C   UNL     1       1.124   7.171   8.090  1.00  0.00     0.000 C 
BRANCH  10  11
ATOM     11  C   UNL     1       1.434   5.799   7.462  1.00  0.00     0.000 C 
BRANCH  11  12
ATOM     12  C   UNL     1       2.932   5.612   7.170  1.00  0.00     0.000 C 
BRANCH  12  13
ATOM     13  C   UNL     1       3.449   4.230   7.597  1.00  0.00     0.006 C 
BRANCH  13  14
ATOM     14  C   UNL     1       4.127   3.514   6.421  1.00  0.00     0.053 C 
BRANCH  14  15
ATOM     15  C   UNL     1       5.602   3.378   6.650  1.00  0.00     0.041 C 
ATOM     16  O   UNL     1       6.220   2.368   6.219  1.00  0.00    -0.550 OA
ATOM     17  O   UNL     1       6.298   4.378   7.319  1.00  0.00    -0.550 OA
ENDBRANCH  14  15
ENDBRANCH  13  14
ENDBRANCH  12  13
ENDBRANCH  11  12
ENDBRANCH  10  11
ENDBRANCH   9  10
ENDBRANCH   8   9
ENDBRANCH   7   8
ENDBRANCH   6   7
ENDBRANCH   5   6
ENDBRANCH   4   5
ENDBRANCH   3   4
ENDBRANCH   2   3
ENDBRANCH   1   2
BRANCH   1  18
ATOM     18  C   UNL     1       3.015   4.849   0.972  1.00  0.00     0.000 C 
BRANCH  18  19
ATOM     19  C   UNL     1       2.162   4.247  -0.159  1.00  0.00     0.000 C 
BRANCH  19  20
ATOM     20  C   UNL     1       1.603   5.316  -1.109  1.00  0.00     0.000 C 
BRANCH  20  21
ATOM     21  C   UNL     1       2.338   5.356  -2.460  1.00  0.00     0.000 C 
BRANCH  21  22
ATOM     22  C   UNL     1       3.173   6.638  -2.638  1.00  0.00     0.000 C 
BRANCH  22  23
ATOM     23  C   UNL     1       4.458   6.673  -1.790  1.00  0.00     0.000 C 
BRANCH  23  24
ATOM     24  C   UNL     1       5.725   6.419  -2.627  1.00  0.00    -0.000 C 
BRANCH  24  25
ATOM     25  C   UNL     1       6.557   5.231  -2.101  1.00  0.00    -0.000 C 
BRANCH  25  26
ATOM     26  C   UNL     1       5.720   4.109  -1.456  1.00  0.00    -0.000 C 
BRANCH  26  27
ATOM     27  C   UNL     1       5.778   2.752  -2.176  1.00  0.00    -0.000 C 
BRANCH  27  28
ATOM     28  C   UNL     1       4.608   2.543  -3.150  1.00  0.00    -0.000 C 
BRANCH  28  29
ATOM     29  C   UNL     1       5.041   1.700  -4.358  1.00  0.00    -0.000 C 
BRANCH  29  30
ATOM     30  C   UNL     1       4.810   2.410  -5.705  1.00  0.00    -0.000 C 
BRANCH  30  31
ATOM     31  C   UNL     1       4.729   3.946  -5.623  1.00  0.00    -0.003 C 
ATOM     32  C   UNL     1       6.071   4.631  -5.883  1.00  0.00     0.004 C 
ENDBRANCH  30  31
ENDBRANCH  29  30
ENDBRANCH  28  29
ENDBRANCH  27  28
ENDBRANCH  26  27
ENDBRANCH  25  26
ENDBRANCH  24  25
ENDBRANCH  23  24
ENDBRANCH  22  23
ENDBRANCH  21  22
ENDBRANCH  20  21
ENDBRANCH  19  20
ENDBRANCH  18  19
ENDBRANCH   1  18
TORSDOF 28
ENDMDL
MODEL 4
REMARK VINA RESULT:    -4.285      3.399      8.776
REMARK INTER + INTRA:         -15.790
REMARK INTER:                 -11.742
REMARK INTRA:                  -4.048
REMARK UNBOUND:                -4.492
REMARK SMILES CCCCCCCCCCCCCCCCCCCCCCCCCCCCCC(=O)[O-]
REMARK SMILES IDX 16 1 17 2 18 3 19 4 20 5 21 6 22 7 23 8 24 9 25 10 26 11
REMARK SMILES IDX 27 12 28 13 29 14 30 15 31 16 32 17 15 18 14 19 13 20 12 21
REMARK SMILES IDX 11 22 10 23 9 24 8 25 7 26 6 27 5 28 4 29 3 30 2 31 1 32
REMARK H PARENT
REMARK Flexibility Score: inf
ROOT
ATOM      1  C   UNL     1      -2.487  -6.093   3.502  1.00  0.00     0.000 C 
ENDROOT
BRANCH   1   2
ATOM      2  C   UNL     1      -2.934  -5.683   2.087  1.00  0.00     0.000 C 
BRANCH   2   3
ATOM      3  C   UNL     1      -2.751  -4.181   1.817  1.00  0.00     0.000 C 
BRANCH   3   4
ATOM      4  C   UNL     1      -1.481  -3.876   1.002  1.00  0.00     0.000 C 
BRANCH   4   5
ATOM      5  C   UNL     1      -1.270  -4.868  -0.153  1.00  0.00     0.000 C 
BRANCH   5   6
ATOM      6  C   UNL     1      -1.961  -4.421  -1.452  1.00  0.00     0.000 C 
BRANCH   6   7
ATOM      7  C   UNL     1      -1.993  -5.537  -2.519  1.00  0.00     0.000 C 
BRANCH   7   8
ATOM      8  C   UNL     1      -3.108  -6.577  -2.305  1.00  0.00     0.000 C 
BRANCH   8   9
ATOM      9  C   UNL     1      -4.335  -6.075  -1.521  1.00  0.00     0.000 C 
BRANCH   9  10
ATOM     10  C   UNL     1      -5.555  -5.696  -2.380  1.00  0.00     0.000 C 
BRANCH  10  11
ATOM     11  C   UNL     1      -5.924  -4.205  -2.275  1.00  0.00     0.000 C 
BRANCH  11  12
ATOM     12  C   UNL     1      -5.745  -3.460  -3.608  1.00  0.00     0.000 C 
BRANCH  12  13
ATOM     13  C   UNL     1      -5.273  -4.382  -4.742  1.00  0.00     0.006 C 
BRANCH  13  14
ATOM     14  C   UNL     1      -6.259  -4.350  -5.917  1.00  0.00     0.053 C 
BRANCH  14  15
ATOM     15  C   UNL     1      -7.631  -4.770  -5.482  1.00  0.00     0.041 C 
ATOM     16  O   UNL     1      -7.846  -5.958  -5.120  1.00  0.00    -0.550 OA
ATOM     17  O   UNL     1      -8.667  -3.844  -5.455  1.00  0.00    -0.550 OA
ENDBRANCH  14  15
ENDBRANCH  13  14
ENDBRANCH  12  13
ENDBRANCH  11  12
ENDBRANCH  10  11
ENDBRANCH   9  10
ENDBRANCH   8   9
ENDBRANCH   7   8
ENDBRANCH   6   7
ENDBRANCH   5   6
ENDBRANCH   4   5
ENDBRANCH   3   4
ENDBRANCH   2   3
ENDBRANCH   1   2
BRANCH   1  18
ATOM     18  C   UNL     1      -1.410  -7.191   3.475  1.00  0.00     0.000 C 
BRANCH  18  19
ATOM     19  C   UNL     1       0.017  -6.614   3.441  1.00  0.00     0.000 C 
BRANCH  19  20
ATOM     20  C   UNL     1       0.896  -7.146   4.581  1.00  0.00     0.000 C 
BRANCH  20  21
ATOM     21  C   UNL     1       0.453  -8.533   5.079  1.00  0.00     0.000 C 
BRANCH  21  22
ATOM     22  C   UNL     1       0.030  -8.518   6.561  1.00  0.00     0.000 C 
BRANCH  22  23
ATOM     23  C   UNL     1      -0.167  -7.106   7.144  1.00  0.00     0.000 C 
BRANCH  23  24
ATOM     24  C   UNL     1      -1.652  -6.750   7.338  1.00  0.00    -0.000 C 
BRANCH  24  25
ATOM     25  C   UNL     1      -1.920  -5.234   7.226  1.00  0.00    -0.000 C 
BRANCH  25  26
ATOM     26  C   UNL     1      -3.300  -4.877   6.639  1.00  0.00    -0.000 C 
BRANCH  26  27
ATOM     27  C   UNL     1      -4.235  -4.108   7.586  1.00  0.00    -0.000 C 
BRANCH  27  28
ATOM     28  C   UNL     1      -5.610  -3.821   6.964  1.00  0.00    -0.000 C 
BRANCH  28  29
ATOM     29  C   UNL     1      -5.494  -3.594   5.450  1.00  0.00    -0.000 C 
BRANCH  29  30
ATOM     30  C   UNL     1      -5.403  -2.105   5.067  1.00  0.00    -0.000 C 
BRANCH  30  31
ATOM     31  C   UNL     1      -4.314  -1.766   4.033  1.00  0.00    -0.003 C 
ATOM     32  C   UNL     1      -2.904  -1.762   4.627  1.00  0.00     0.004 C 
ENDBRANCH  30  31
ENDBRANCH  29  30
ENDBRANCH  28  29
ENDBRANCH  27  28
ENDBRANCH  26  27
ENDBRANCH  25  26
ENDBRANCH  24  25
ENDBRANCH  23  24
ENDBRANCH  22  23
ENDBRANCH  21  22
ENDBRANCH  20  21
ENDBRANCH  19  20
ENDBRANCH  18  19
ENDBRANCH   1  18
TORSDOF 28
ENDMDL
MODEL 5
REMARK VINA RESULT:    -4.277      1.671      3.415
REMARK INTER + INTRA:         -15.770
REMARK INTER:                 -12.438
REMARK INTRA:                  -3.332
REMARK UNBOUND:                -4.492
REMARK SMILES CCCCCCCCCCCCCCCCCCCCCCCCCCCCCC(=O)[O-]
REMARK SMILES IDX 16 1 17 2 18 3 19 4 20 5 21 6 22 7 23 8 24 9 25 10 26 11
REMARK SMILES IDX 27 12 28 13 29 14 30 15 31 16 32 17 15 18 14 19 13 20 12 21
REMARK SMILES IDX 11 22 10 23 9 24 8 25 7 26 6 27 5 28 4 29 3 30 2 31 1 32
REMARK H PARENT
REMARK Flexibility Score: inf
ROOT
ATOM      1  C   UNL     1      -2.630  -5.878   3.393  1.00  0.00     0.000 C 
ENDROOT
BRANCH   1   2
ATOM      2  C   UNL     1      -1.206  -6.435   3.570  1.00  0.00     0.000 C 
BRANCH   2   3
ATOM      3  C   UNL     1      -1.191  -7.842   4.188  1.00  0.00     0.000 C 
BRANCH   3   4
ATOM      4  C   UNL     1       0.213  -8.273   4.650  1.00  0.00     0.000 C 
BRANCH   4   5
ATOM      5  C   UNL     1       0.191  -9.000   6.005  1.00  0.00     0.000 C 
BRANCH   5   6
ATOM      6  C   UNL     1       1.098  -8.331   7.051  1.00  0.00     0.000 C 
BRANCH   6   7
ATOM      7  C   UNL     1       0.337  -7.959   8.342  1.00  0.00     0.000 C 
BRANCH   7   8
ATOM      8  C   UNL     1      -1.178  -7.767   8.144  1.00  0.00     0.000 C 
BRANCH   8   9
ATOM      9  C   UNL     1      -1.600  -6.397   7.581  1.00  0.00     0.000 C 
BRANCH   9  10
ATOM     10  C   UNL     1      -2.692  -5.665   8.383  1.00  0.00     0.000 C 
BRANCH  10  11
ATOM     11  C   UNL     1      -3.747  -4.991   7.486  1.00  0.00     0.000 C 
BRANCH  11  12
ATOM     12  C   UNL     1      -3.117  -4.081   6.420  1.00  0.00     0.000 C 
BRANCH  12  13
ATOM     13  C   UNL     1      -3.957  -2.825   6.144  1.00  0.00     0.006 C 
BRANCH  13  14
ATOM     14  C   UNL     1      -4.962  -3.079   5.013  1.00  0.00     0.053 C 
BRANCH  14  15
ATOM     15  C   UNL     1      -6.368  -3.076   5.530  1.00  0.00     0.041 C 
ATOM     16  O   UNL     1      -6.589  -2.987   6.767  1.00  0.00    -0.550 OA
ATOM     17  O   UNL     1      -7.437  -3.149   4.643  1.00  0.00    -0.550 OA
ENDBRANCH  14  15
ENDBRANCH  13  14
ENDBRANCH  12  13
ENDBRANCH  11  12
ENDBRANCH  10  11
ENDBRANCH   9  10
ENDBRANCH   8   9
ENDBRANCH   7   8
ENDBRANCH   6   7
ENDBRANCH   5   6
ENDBRANCH   4   5
ENDBRANCH   3   4
ENDBRANCH   2   3
ENDBRANCH   1   2
BRANCH   1  18
ATOM     18  C   UNL     1      -2.845  -5.269   1.997  1.00  0.00     0.000 C 
BRANCH  18  19
ATOM     19  C   UNL     1      -1.610  -5.424   1.091  1.00  0.00     0.000 C 
BRANCH  19  20
ATOM     20  C   UNL     1      -1.488  -4.292   0.060  1.00  0.00     0.000 C 
BRANCH  20  21
ATOM     21  C   UNL     1      -1.092  -4.799  -1.337  1.00  0.00     0.000 C 
BRANCH  21  22
ATOM     22  C   UNL     1      -2.300  -4.902  -2.289  1.00  0.00     0.000 C 
BRANCH  22  23
ATOM     23  C   UNL     1      -2.830  -6.335  -2.478  1.00  0.00     0.000 C 
BRANCH  23  24
ATOM     24  C   UNL     1      -4.281  -6.496  -1.989  1.00  0.00    -0.000 C 
BRANCH  24  25
ATOM     25  C   UNL     1      -4.861  -5.190  -1.406  1.00  0.00    -0.000 C 
BRANCH  25  26
ATOM     26  C   UNL     1      -6.179  -4.735  -2.064  1.00  0.00    -0.000 C 
BRANCH  26  27
ATOM     27  C   UNL     1      -6.272  -3.232  -2.372  1.00  0.00    -0.000 C 
BRANCH  27  28
ATOM     28  C   UNL     1      -6.285  -2.931  -3.879  1.00  0.00    -0.000 C 
BRANCH  28  29
ATOM     29  C   UNL     1      -5.148  -3.671  -4.598  1.00  0.00    -0.000 C 
BRANCH  29  30
ATOM     30  C   UNL     1      -5.652  -4.716  -5.611  1.00  0.00    -0.000 C 
BRANCH  30  31
ATOM     31  C   UNL     1      -7.183  -4.825  -5.723  1.00  0.00    -0.003 C 
ATOM     32  C   UNL     1      -7.706  -4.516  -7.127  1.00  0.00     0.004 C 
ENDBRANCH  30  31
ENDBRANCH  29  30
ENDBRANCH  28  29
ENDBRANCH  27  28
ENDBRANCH  26  27
ENDBRANCH  25  26
ENDBRANCH  24  25
ENDBRANCH  23  24
ENDBRANCH  22  23
ENDBRANCH  21  22
ENDBRANCH  20  21
ENDBRANCH  19  20
ENDBRANCH  18  19
ENDBRANCH   1  18
TORSDOF 28
ENDMDL
MODEL 6
REMARK VINA RESULT:    -4.268     10.563     13.673
REMARK INTER + INTRA:         -15.745
REMARK INTER:                 -12.218
REMARK INTRA:                  -3.528
REMARK UNBOUND:                -4.492
REMARK SMILES CCCCCCCCCCCCCCCCCCCCCCCCCCCCCC(=O)[O-]
REMARK SMILES IDX 16 1 17 2 18 3 19 4 20 5 21 6 22 7 23 8 24 9 25 10 26 11
REMARK SMILES IDX 27 12 28 13 29 14 30 15 31 16 32 17 15 18 14 19 13 20 12 21
REMARK SMILES IDX 11 22 10 23 9 24 8 25 7 26 6 27 5 28 4 29 3 30 2 31 1 32
REMARK H PARENT
REMARK Flexibility Score: inf
ROOT
ATOM      1  C   UNL     1       2.171   6.740   3.463  1.00  0.00     0.000 C 
ENDROOT
BRANCH   1   2
ATOM      2  C   UNL     1       1.063   7.724   3.881  1.00  0.00     0.000 C 
BRANCH   2   3
ATOM      3  C   UNL     1      -0.328   7.071   3.919  1.00  0.00     0.000 C 
BRANCH   3   4
ATOM      4  C   UNL     1      -1.332   7.862   4.776  1.00  0.00     0.000 C 
BRANCH   4   5
ATOM      5  C   UNL     1      -0.642   8.871   5.710  1.00  0.00     0.000 C 
BRANCH   5   6
ATOM      6  C   UNL     1      -1.153   8.783   7.158  1.00  0.00     0.000 C 
BRANCH   6   7
ATOM      7  C   UNL     1      -0.061   8.312   8.143  1.00  0.00     0.000 C 
BRANCH   7   8
ATOM      8  C   UNL     1       1.195   7.739   7.460  1.00  0.00     0.000 C 
BRANCH   8   9
ATOM      9  C   UNL     1       1.284   6.201   7.433  1.00  0.00     0.000 C 
BRANCH   9  10
ATOM     10  C   UNL     1       2.676   5.630   7.107  1.00  0.00     0.000 C 
BRANCH  10  11
ATOM     11  C   UNL     1       2.642   4.555   6.003  1.00  0.00     0.000 C 
BRANCH  11  12
ATOM     12  C   UNL     1       4.036   4.263   5.425  1.00  0.00     0.000 C 
BRANCH  12  13
ATOM     13  C   UNL     1       4.083   2.949   4.630  1.00  0.00     0.006 C 
BRANCH  13  14
ATOM     14  C   UNL     1       5.518   2.413   4.547  1.00  0.00     0.053 C 
BRANCH  14  15
ATOM     15  C   UNL     1       6.050   2.081   5.907  1.00  0.00     0.041 C 
ATOM     16  O   UNL     1       5.888   0.927   6.388  1.00  0.00    -0.550 OA
ATOM     17  O   UNL     1       6.746   3.039   6.636  1.00  0.00    -0.550 OA
ENDBRANCH  14  15
ENDBRANCH  13  14
ENDBRANCH  12  13
ENDBRANCH  11  12
ENDBRANCH  10  11
ENDBRANCH   9  10
ENDBRANCH   8   9
ENDBRANCH   7   8
ENDBRANCH   6   7
ENDBRANCH   5   6
ENDBRANCH   4   5
ENDBRANCH   3   4
ENDBRANCH   2   3
ENDBRANCH   1   2
BRANCH   1  18
ATOM     18  C   UNL     1       1.741   5.848   2.286  1.00  0.00     0.000 C 
BRANCH  18  19
ATOM     19  C   UNL     1       2.942   5.308   1.489  1.00  0.00     0.000 C 
BRANCH  19  20
ATOM     20  C   UNL     1       2.922   3.779   1.353  1.00  0.00     0.000 C 
BRANCH  20  21
ATOM     21  C   UNL     1       1.522   3.228   1.027  1.00  0.00     0.000 C 
BRANCH  21  22
ATOM     22  C   UNL     1       1.474   2.518  -0.340  1.00  0.00     0.000 C 
BRANCH  22  23
ATOM     23  C   UNL     1       0.531   3.183  -1.360  1.00  0.00     0.000 C 
BRANCH  23  24
ATOM     24  C   UNL     1       0.858   4.671  -1.584  1.00  0.00    -0.000 C 
BRANCH  24  25
ATOM     25  C   UNL     1       2.239   4.884  -2.238  1.00  0.00    -0.000 C 
BRANCH  25  26
ATOM     26  C   UNL     1       2.743   6.340  -2.189  1.00  0.00    -0.000 C 
BRANCH  26  27
ATOM     27  C   UNL     1       4.238   6.526  -2.496  1.00  0.00    -0.000 C 
BRANCH  27  28
ATOM     28  C   UNL     1       5.107   5.384  -1.949  1.00  0.00    -0.000 C 
BRANCH  28  29
ATOM     29  C   UNL     1       6.582   5.585  -2.325  1.00  0.00    -0.000 C 
BRANCH  29  30
ATOM     30  C   UNL     1       7.311   4.265  -2.639  1.00  0.00    -0.000 C 
BRANCH  30  31
ATOM     31  C   UNL     1       8.226   3.746  -1.515  1.00  0.00    -0.003 C 
ATOM     32  C   UNL     1       9.555   4.497  -1.428  1.00  0.00     0.004 C 
ENDBRANCH  30  31
ENDBRANCH  29  30
ENDBRANCH  28  29
ENDBRANCH  27  28
ENDBRANCH  26  27
ENDBRANCH  25  26
ENDBRANCH  24  25
ENDBRANCH  23  24
ENDBRANCH  22  23
ENDBRANCH  21  22
ENDBRANCH  20  21
ENDBRANCH  19  20
ENDBRANCH  18  19
ENDBRANCH   1  18
TORSDOF 28
ENDMDL
MODEL 7
REMARK VINA RESULT:    -4.238     10.925     14.912
REMARK INTER + INTRA:         -15.668
REMARK INTER:                 -11.937
REMARK INTRA:                  -3.731
REMARK UNBOUND:                -4.492
REMARK SMILES CCCCCCCCCCCCCCCCCCCCCCCCCCCCCC(=O)[O-]
REMARK SMILES IDX 16 1 17 2 18 3 19 4 20 5 21 6 22 7 23 8 24 9 25 10 26 11
REMARK SMILES IDX 27 12 28 13 29 14 30 15 31 16 32 17 15 18 14 19 13 20 12 21
REMARK SMILES IDX 11 22 10 23 9 24 8 25 7 26 6 27 5 28 4 29 3 30 2 31 1 32
REMARK H PARENT
REMARK Flexibility Score: inf
ROOT
ATOM      1  C   UNL     1      -1.735   8.224   5.100  1.00  0.00     0.000 C 
ENDROOT
BRANCH   1   2
ATOM      2  C   UNL     1      -1.895   6.732   4.755  1.00  0.00     0.000 C 
BRANCH   2   3
ATOM      3  C   UNL     1      -0.598   6.103   4.221  1.00  0.00     0.000 C 
BRANCH   3   4
ATOM      4  C   UNL     1       0.228   7.082   3.367  1.00  0.00     0.000 C 
BRANCH   4   5
ATOM      5  C   UNL     1       1.652   7.282   3.911  1.00  0.00     0.000 C 
BRANCH   5   6
ATOM      6  C   UNL     1       2.452   5.970   3.975  1.00  0.00     0.000 C 
BRANCH   6   7
ATOM      7  C   UNL     1       2.997   5.542   2.596  1.00  0.00     0.000 C 
BRANCH   7   8
ATOM      8  C   UNL     1       2.330   4.278   2.022  1.00  0.00     0.000 C 
BRANCH   8   9
ATOM      9  C   UNL     1       2.367   4.153   0.487  1.00  0.00     0.000 C 
BRANCH   9  10
ATOM     10  C   UNL     1       1.819   5.368  -0.284  1.00  0.00     0.000 C 
BRANCH  10  11
ATOM     11  C   UNL     1       2.115   5.305  -1.794  1.00  0.00     0.000 C 
BRANCH  11  12
ATOM     12  C   UNL     1       3.170   6.334  -2.229  1.00  0.00     0.000 C 
BRANCH  12  13
ATOM     13  C   UNL     1       4.560   6.037  -1.646  1.00  0.00     0.006 C 
BRANCH  13  14
ATOM     14  C   UNL     1       5.652   6.770  -2.438  1.00  0.00     0.053 C 
BRANCH  14  15
ATOM     15  C   UNL     1       6.760   5.836  -2.819  1.00  0.00     0.041 C 
ATOM     16  O   UNL     1       7.420   6.033  -3.875  1.00  0.00    -0.550 OA
ATOM     17  O   UNL     1       7.079   4.760  -1.998  1.00  0.00    -0.550 OA
ENDBRANCH  14  15
ENDBRANCH  13  14
ENDBRANCH  12  13
ENDBRANCH  11  12
ENDBRANCH  10  11
ENDBRANCH   9  10
ENDBRANCH   8   9
ENDBRANCH   7   8
ENDBRANCH   6   7
ENDBRANCH   5   6
ENDBRANCH   4   5
ENDBRANCH   3   4
ENDBRANCH   2   3
ENDBRANCH   1   2
BRANCH   1  18
ATOM     18  C   UNL     1      -1.444   8.446   6.594  1.00  0.00     0.000 C 
BRANCH  18  19
ATOM     19  C   UNL     1      -0.020   8.974   6.843  1.00  0.00     0.000 C 
BRANCH  19  20
ATOM     20  C   UNL     1       0.824   8.018   7.699  1.00  0.00     0.000 C 
BRANCH  20  21
ATOM     21  C   UNL     1       0.162   6.641   7.882  1.00  0.00     0.000 C 
BRANCH  21  22
ATOM     22  C   UNL     1       1.124   5.480   7.563  1.00  0.00     0.000 C 
BRANCH  22  23
ATOM     23  C   UNL     1       2.610   5.885   7.536  1.00  0.00     0.000 C 
BRANCH  23  24
ATOM     24  C   UNL     1       3.511   4.872   8.266  1.00  0.00    -0.000 C 
BRANCH  24  25
ATOM     25  C   UNL     1       4.965   4.890   7.751  1.00  0.00    -0.000 C 
BRANCH  25  26
ATOM     26  C   UNL     1       5.335   3.688   6.859  1.00  0.00    -0.000 C 
BRANCH  26  27
ATOM     27  C   UNL     1       5.559   4.019   5.375  1.00  0.00    -0.000 C 
BRANCH  27  28
ATOM     28  C   UNL     1       4.972   2.959   4.431  1.00  0.00    -0.000 C 
BRANCH  28  29
ATOM     29  C   UNL     1       5.991   1.846   4.150  1.00  0.00    -0.000 C 
BRANCH  29  30
ATOM     30  C   UNL     1       6.005   1.396   2.677  1.00  0.00    -0.000 C 
BRANCH  30  31
ATOM     31  C   UNL     1       6.694   0.044   2.418  1.00  0.00    -0.003 C 
ATOM     32  C   UNL     1       5.915  -1.144   2.984  1.00  0.00     0.004 C 
ENDBRANCH  30  31
ENDBRANCH  29  30
ENDBRANCH  28  29
ENDBRANCH  27  28
ENDBRANCH  26  27
ENDBRANCH  25  26
ENDBRANCH  24  25
ENDBRANCH  23  24
ENDBRANCH  22  23
ENDBRANCH  21  22
ENDBRANCH  20  21
ENDBRANCH  19  20
ENDBRANCH  18  19
ENDBRANCH   1  18
TORSDOF 28
ENDMDL
MODEL 8
REMARK VINA RESULT:    -4.231      9.819     12.839
REMARK INTER + INTRA:         -15.649
REMARK INTER:                 -10.043
REMARK INTRA:                  -5.607
REMARK UNBOUND:                -4.492
REMARK SMILES CCCCCCCCCCCCCCCCCCCCCCCCCCCCCC(=O)[O-]
REMARK SMILES IDX 16 1 17 2 18 3 19 4 20 5 21 6 22 7 23 8 24 9 25 10 26 11
REMARK SMILES IDX 27 12 28 13 29 14 30 15 31 16 32 17 15 18 14 19 13 20 12 21
REMARK SMILES IDX 11 22 10 23 9 24 8 25 7 26 6 27 5 28 4 29 3 30 2 31 1 32
REMARK H PARENT
REMARK Flexibility Score: inf
ROOT
ATOM      1  C   UNL     1       5.658   3.612   6.770  1.00  0.00     0.000 C 
ENDROOT
BRANCH   1   2
ATOM      2  C   UNL     1       6.008   3.363   5.292  1.00  0.00     0.000 C 
BRANCH   2   3
ATOM      3  C   UNL     1       5.997   1.872   4.921  1.00  0.00     0.000 C 
BRANCH   3   4
ATOM      4  C   UNL     1       5.585   0.971   6.099  1.00  0.00     0.000 C 
BRANCH   4   5
ATOM      5  C   UNL     1       4.122   0.506   6.002  1.00  0.00     0.000 C 
BRANCH   5   6
ATOM      6  C   UNL     1       3.542   0.664   4.587  1.00  0.00     0.000 C 
BRANCH   6   7
ATOM      7  C   UNL     1       2.111   1.242   4.595  1.00  0.00     0.000 C 
BRANCH   7   8
ATOM      8  C   UNL     1       2.041   2.752   4.303  1.00  0.00     0.000 C 
BRANCH   8   9
ATOM      9  C   UNL     1       2.886   3.231   3.107  1.00  0.00     0.000 C 
BRANCH   9  10
ATOM     10  C   UNL     1       3.393   4.682   3.199  1.00  0.00     0.000 C 
BRANCH  10  11
ATOM     11  C   UNL     1       2.511   5.677   2.422  1.00  0.00     0.000 C 
BRANCH  11  12
ATOM     12  C   UNL     1       2.207   5.199   0.993  1.00  0.00     0.000 C 
BRANCH  12  13
ATOM     13  C   UNL     1       3.435   5.272   0.071  1.00  0.00     0.006 C 
BRANCH  13  14
ATOM     14  C   UNL     1       3.153   4.578  -1.268  1.00  0.00     0.053 C 
BRANCH  14  15
ATOM     15  C   UNL     1       2.279   5.425  -2.142  1.00  0.00     0.041 C 
ATOM     16  O   UNL     1       1.124   5.032  -2.455  1.00  0.00    -0.550 OA
ATOM     17  O   UNL     1       2.733   6.660  -2.592  1.00  0.00    -0.550 OA
ENDBRANCH  14  15
ENDBRANCH  13  14
ENDBRANCH  12  13
ENDBRANCH  11  12
ENDBRANCH  10  11
ENDBRANCH   9  10
ENDBRANCH   8   9
ENDBRANCH   7   8
ENDBRANCH   6   7
ENDBRANCH   5   6
ENDBRANCH   4   5
ENDBRANCH   3   4
ENDBRANCH   2   3
ENDBRANCH   1   2
BRANCH   1  18
ATOM     18  C   UNL     1       4.492   4.602   6.932  1.00  0.00     0.000 C 
BRANCH  18  19
ATOM     19  C   UNL     1       3.618   4.286   8.159  1.00  0.00     0.000 C 
BRANCH  19  20
ATOM     20  C   UNL     1       2.306   3.582   7.784  1.00  0.00     0.000 C 
BRANCH  20  21
ATOM     21  C   UNL     1       1.211   4.564   7.333  1.00  0.00     0.000 C 
BRANCH  21  22
ATOM     22  C   UNL     1       1.272   5.903   8.094  1.00  0.00     0.000 C 
BRANCH  22  23
ATOM     23  C   UNL     1       1.470   7.132   7.188  1.00  0.00     0.000 C 
BRANCH  23  24
ATOM     24  C   UNL     1       1.428   6.774   5.691  1.00  0.00    -0.000 C 
BRANCH  24  25
ATOM     25  C   UNL     1       0.837   7.906   4.825  1.00  0.00    -0.000 C 
BRANCH  25  26
ATOM     26  C   UNL     1      -0.010   8.927   5.610  1.00  0.00    -0.000 C 
BRANCH  26  27
ATOM     27  C   UNL     1      -1.532   8.746   5.487  1.00  0.00    -0.000 C 
BRANCH  27  28
ATOM     28  C   UNL     1      -2.158   8.095   6.730  1.00  0.00    -0.000 C 
BRANCH  28  29
ATOM     29  C   UNL     1      -2.200   6.566   6.589  1.00  0.00    -0.000 C 
BRANCH  29  30
ATOM     30  C   UNL     1      -2.645   6.100   5.190  1.00  0.00    -0.000 C 
BRANCH  30  31
ATOM     31  C   UNL     1      -2.184   4.684   4.801  1.00  0.00    -0.003 C 
ATOM     32  C   UNL     1      -0.934   4.681   3.919  1.00  0.00     0.004 C 
ENDBRANCH  30  31
ENDBRANCH  29  30
ENDBRANCH  28  29
ENDBRANCH  27  28
ENDBRANCH  26  27
ENDBRANCH  25  26
ENDBRANCH  24  25
ENDBRANCH  23  24
ENDBRANCH  22  23
ENDBRANCH  21  22
ENDBRANCH  20  21
ENDBRANCH  19  20
ENDBRANCH  18  19
ENDBRANCH   1  18
TORSDOF 28
ENDMDL
MODEL 9
REMARK VINA RESULT:    -4.225     10.219     13.868
REMARK INTER + INTRA:         -15.632
REMARK INTER:                 -10.555
REMARK INTRA:                  -5.077
REMARK UNBOUND:                -4.492
REMARK SMILES CCCCCCCCCCCCCCCCCCCCCCCCCCCCCC(=O)[O-]
REMARK SMILES IDX 16 1 17 2 18 3 19 4 20 5 21 6 22 7 23 8 24 9 25 10 26 11
REMARK SMILES IDX 27 12 28 13 29 14 30 15 31 16 32 17 15 18 14 19 13 20 12 21
REMARK SMILES IDX 11 22 10 23 9 24 8 25 7 26 6 27 5 28 4 29 3 30 2 31 1 32
REMARK H PARENT
REMARK Flexibility Score: inf
ROOT
ATOM      1  C   UNL     1       1.278   7.838   4.201  1.00  0.00     0.000 C 
ENDROOT
BRANCH   1   2
ATOM      2  C   UNL     1       0.568   6.945   3.167  1.00  0.00     0.000 C 
BRANCH   2   3
ATOM      3  C   UNL     1       1.512   5.919   2.520  1.00  0.00     0.000 C 
BRANCH   3   4
ATOM      4  C   UNL     1       2.956   6.030   3.042  1.00  0.00     0.000 C 
BRANCH   4   5
ATOM      5  C   UNL     1       3.508   4.685   3.541  1.00  0.00     0.000 C 
BRANCH   5   6
ATOM      6  C   UNL     1       2.400   3.650   3.802  1.00  0.00     0.000 C 
BRANCH   6   7
ATOM      7  C   UNL     1       2.766   2.247   3.272  1.00  0.00     0.000 C 
BRANCH   7   8
ATOM      8  C   UNL     1       3.202   2.228   1.795  1.00  0.00     0.000 C 
BRANCH   8   9
ATOM      9  C   UNL     1       2.084   2.513   0.775  1.00  0.00     0.000 C 
BRANCH   9  10
ATOM     10  C   UNL     1       2.500   2.403  -0.704  1.00  0.00     0.000 C 
BRANCH  10  11
ATOM     11  C   UNL     1       3.496   3.498  -1.131  1.00  0.00     0.000 C 
BRANCH  11  12
ATOM     12  C   UNL     1       3.001   4.911  -0.782  1.00  0.00     0.000 C 
BRANCH  12  13
ATOM     13  C   UNL     1       4.083   5.983  -0.982  1.00  0.00     0.006 C 
BRANCH  13  14
ATOM     14  C   UNL     1       4.572   5.998  -2.436  1.00  0.00     0.053 C 
BRANCH  14  15
ATOM     15  C   UNL     1       6.068   6.064  -2.501  1.00  0.00     0.041 C 
ATOM     16  O   UNL     1       6.765   5.104  -2.077  1.00  0.00    -0.550 OA
ATOM     17  O   UNL     1       6.693   7.178  -3.051  1.00  0.00    -0.550 OA
ENDBRANCH  14  15
ENDBRANCH  13  14
ENDBRANCH  12  13
ENDBRANCH  11  12
ENDBRANCH  10  11
ENDBRANCH   9  10
ENDBRANCH   8   9
ENDBRANCH   7   8
ENDBRANCH   6   7
ENDBRANCH   5   6
ENDBRANCH   4   5
ENDBRANCH   3   4
ENDBRANCH   2   3
ENDBRANCH   1   2
BRANCH   1  18
ATOM     18  C   UNL     1       0.312   8.360   5.278  1.00  0.00     0.000 C 
BRANCH  18  19
ATOM     19  C   UNL     1       0.731   7.938   6.698  1.00  0.00     0.000 C 
BRANCH  19  20
ATOM     20  C   UNL     1       1.072   6.444   6.793  1.00  0.00     0.000 C 
BRANCH  20  21
ATOM     21  C   UNL     1       2.283   6.166   7.701  1.00  0.00     0.000 C 
BRANCH  21  22
ATOM     22  C   UNL     1       3.314   5.233   7.036  1.00  0.00     0.000 C 
BRANCH  22  23
ATOM     23  C   UNL     1       3.138   3.746   7.392  1.00  0.00     0.000 C 
BRANCH  23  24
ATOM     24  C   UNL     1       4.274   2.868   6.837  1.00  0.00    -0.000 C 
BRANCH  24  25
ATOM     25  C   UNL     1       5.576   3.661   6.597  1.00  0.00    -0.000 C 
BRANCH  25  26
ATOM     26  C   UNL     1       6.390   3.185   5.378  1.00  0.00    -0.000 C 
BRANCH  26  27
ATOM     27  C   UNL     1       6.056   1.771   4.878  1.00  0.00    -0.000 C 
BRANCH  27  28
ATOM     28  C   UNL     1       6.513   1.524   3.433  1.00  0.00    -0.000 C 
BRANCH  28  29
ATOM     29  C   UNL     1       6.161   0.100   2.979  1.00  0.00    -0.000 C 
BRANCH  29  30
ATOM     30  C   UNL     1       5.120  -0.583   3.886  1.00  0.00    -0.000 C 
BRANCH  30  31
ATOM     31  C   UNL     1       4.441  -1.823   3.276  1.00  0.00    -0.003 C 
ATOM     32  C   UNL     1       3.522  -1.485   2.100  1.00  0.00     0.004 C 
ENDBRANCH  30  31
ENDBRANCH  29  30
ENDBRANCH  28  29
ENDBRANCH  27  28
ENDBRANCH  26  27
ENDBRANCH  25  26
ENDBRANCH  24  25
ENDBRANCH  23  24
ENDBRANCH  22  23
ENDBRANCH  21  22
ENDBRANCH  20  21
ENDBRANCH  19  20
ENDBRANCH  18  19
ENDBRANCH   1  18
TORSDOF 28
ENDMDL
