MODEL 1
REMARK VINA RESULT:    -4.450      0.000      0.000
REMARK INTER + INTRA:          -8.655
REMARK INTER:                  -7.051
REMARK INTRA:                  -1.603
REMARK UNBOUND:                -1.603
REMARK SMILES CCCCCCCCCCCC(=O)[O-]
REMARK SMILES IDX 7 1 8 2 9 3 10 4 11 5 12 6 13 7 14 8 6 9 5 10 4 11 3 12 2 13
REMARK SMILES IDX 1 14
REMARK H PARENT
REMARK Flexibility Score: inf
ROOT
ATOM      1  C   UNL     1     182.893 180.235 182.535  1.00  0.00     0.000 C 
ENDROOT
BRANCH   1   2
ATOM      2  C   UNL     1     182.384 179.407 181.344  1.00  0.00     0.000 C 
BRANCH   2   3
ATOM      3  C   UNL     1     180.945 179.773 180.941  1.00  0.00     0.000 C 
BRANCH   3   4
ATOM      4  C   UNL     1     180.403 180.981 181.720  1.00  0.00     0.006 C 
BRANCH   4   5
ATOM      5  C   UNL     1     179.366 181.783 180.925  1.00  0.00     0.053 C 
BRANCH   5   6
ATOM      6  C   UNL     1     178.695 182.788 181.807  1.00  0.00     0.041 C 
ATOM      7  O   UNL     1     177.458 182.998 181.702  1.00  0.00    -0.550 OA
ATOM      8  O   UNL     1     179.444 183.530 182.712  1.00  0.00    -0.550 OA
ENDBRANCH   5   6
ENDBRANCH   4   5
ENDBRANCH   3   4
ENDBRANCH   2   3
ENDBRANCH   1   2
BRANCH   1   9
ATOM      9  C   UNL     1     184.389 180.568 182.431  1.00  0.00     0.000 C 
BRANCH   9  10
ATOM     10  C   UNL     1     184.646 181.599 181.324  1.00  0.00    -0.000 C 
BRANCH  10  11
ATOM     11  C   UNL     1     183.830 182.878 181.563  1.00  0.00    -0.000 C 
BRANCH  11  12
ATOM     12  C   UNL     1     183.013 183.297 180.330  1.00  0.00    -0.000 C 
BRANCH  12  13
ATOM     13  C   UNL     1     183.301 182.420 179.103  1.00  0.00    -0.003 C 
ATOM     14  C   UNL     1     182.031 182.173 178.294  1.00  0.00     0.004 C 
ENDBRANCH  12  13
ENDBRANCH  11  12
ENDBRANCH  10  11
ENDBRANCH   9  10
ENDBRANCH   1   9
TORSDOF 10
ENDMDL
MODEL 2
REMARK VINA RESULT:    -4.435      2.724      4.950
REMARK INTER + INTRA:          -8.631
REMARK INTER:                  -7.023
REMARK INTRA:                  -1.608
REMARK UNBOUND:                -1.603
REMARK SMILES CCCCCCCCCCCC(=O)[O-]
REMARK SMILES IDX 7 1 8 2 9 3 10 4 11 5 12 6 13 7 14 8 6 9 5 10 4 11 3 12 2 13
REMARK SMILES IDX 1 14
REMARK H PARENT
REMARK Flexibility Score: inf
ROOT
ATOM      1  C   UNL     1     181.239 183.854 182.464  1.00  0.00     0.000 C 
ENDROOT
BRANCH   1   2
ATOM      2  C   UNL     1     181.668 184.560 181.167  1.00  0.00     0.000 C 
BRANCH   2   3
ATOM      3  C   UNL     1     183.034 184.074 180.654  1.00  0.00     0.000 C 
BRANCH   3   4
ATOM      4  C   UNL     1     183.743 183.145 181.652  1.00  0.00     0.006 C 
BRANCH   4   5
ATOM      5  C   UNL     1     184.376 181.922 180.977  1.00  0.00     0.053 C 
BRANCH   5   6
ATOM      6  C   UNL     1     184.759 180.901 182.001  1.00  0.00     0.041 C 
ATOM      7  O   UNL     1     183.893 180.115 182.468  1.00  0.00    -0.550 OA
ATOM      8  O   UNL     1     186.063 180.849 182.478  1.00  0.00    -0.550 OA
ENDBRANCH   5   6
ENDBRANCH   4   5
ENDBRANCH   3   4
ENDBRANCH   2   3
ENDBRANCH   1   2
BRANCH   1   9
ATOM      9  C   UNL     1     179.754 183.460 182.462  1.00  0.00     0.000 C 
BRANCH   9  10
ATOM     10  C   UNL     1     179.433 182.532 181.283  1.00  0.00    -0.000 C 
BRANCH  10  11
ATOM     11  C   UNL     1     180.070 181.149 181.483  1.00  0.00    -0.000 C 
BRANCH  11  12
ATOM     12  C   UNL     1     180.973 180.739 180.309  1.00  0.00    -0.000 C 
BRANCH  12  13
ATOM     13  C   UNL     1     180.559 181.399 178.985  1.00  0.00    -0.003 C 
ATOM     14  C   UNL     1     181.782 181.787 178.159  1.00  0.00     0.004 C 
ENDBRANCH  12  13
ENDBRANCH  11  12
ENDBRANCH  10  11
ENDBRANCH   9  10
ENDBRANCH   1   9
TORSDOF 10
ENDMDL
MODEL 3
REMARK VINA RESULT:    -4.258      1.087      3.022
REMARK INTER + INTRA:          -8.350
REMARK INTER:                  -6.970
REMARK INTRA:                  -1.380
REMARK UNBOUND:                -1.603
REMARK SMILES CCCCCCCCCCCC(=O)[O-]
REMARK SMILES IDX 7 1 8 2 9 3 10 4 11 5 12 6 13 7 14 8 6 9 5 10 4 11 3 12 2 13
REMARK SMILES IDX 1 14
REMARK H PARENT
REMARK Flexibility Score: inf
ROOT
ATOM      1  C   UNL     1     183.120 182.917 180.073  1.00  0.00     0.000 C 
ENDROOT
BRANCH   1   2
ATOM      2  C   UNL     1     181.769 183.581 180.386  1.00  0.00     0.000 C 
BRANCH   2   3
ATOM      3  C   UNL     1     181.625 183.958 181.871  1.00  0.00     0.000 C 
BRANCH   3   4
ATOM      4  C   UNL     1     180.278 183.516 182.463  1.00  0.00     0.006 C 
BRANCH   4   5
ATOM      5  C   UNL     1     179.304 182.996 181.399  1.00  0.00     0.053 C 
BRANCH   5   6
ATOM      6  C   UNL     1     178.020 182.563 182.032  1.00  0.00     0.041 C 
ATOM      7  O   UNL     1     177.459 183.293 182.891  1.00  0.00    -0.550 OA
ATOM      8  O   UNL     1     177.467 181.329 181.712  1.00  0.00    -0.550 OA
ENDBRANCH   5   6
ENDBRANCH   4   5
ENDBRANCH   3   4
ENDBRANCH   2   3
ENDBRANCH   1   2
BRANCH   1   9
ATOM      9  C   UNL     1     184.015 182.778 181.314  1.00  0.00     0.000 C 
BRANCH   9  10
ATOM     10  C   UNL     1     184.763 181.439 181.304  1.00  0.00    -0.000 C 
BRANCH  10  11
ATOM     11  C   UNL     1     184.317 180.551 182.474  1.00  0.00    -0.000 C 
BRANCH  11  12
ATOM     12  C   UNL     1     182.794 180.347 182.515  1.00  0.00    -0.000 C 
BRANCH  12  13
ATOM     13  C   UNL     1     182.289 179.438 181.385  1.00  0.00    -0.003 C 
ATOM     14  C   UNL     1     180.828 179.731 181.057  1.00  0.00     0.004 C 
ENDBRANCH  12  13
ENDBRANCH  11  12
ENDBRANCH  10  11
ENDBRANCH   9  10
ENDBRANCH   1   9
TORSDOF 10
ENDMDL
MODEL 4
REMARK VINA RESULT:    -4.240      1.371      3.358
REMARK INTER + INTRA:          -8.322
REMARK INTER:                  -6.736
REMARK INTRA:                  -1.586
REMARK UNBOUND:                -1.603
REMARK SMILES CCCCCCCCCCCC(=O)[O-]
REMARK SMILES IDX 7 1 8 2 9 3 10 4 11 5 12 6 13 7 14 8 6 9 5 10 4 11 3 12 2 13
REMARK SMILES IDX 1 14
REMARK H PARENT
REMARK Flexibility Score: inf
ROOT
ATOM      1  C   UNL     1     180.541 180.923 180.126  1.00  0.00     0.000 C 
ENDROOT
BRANCH   1   2
ATOM      2  C   UNL     1     181.670 181.367 179.181  1.00  0.00     0.000 C 
BRANCH   2   3
ATOM      3  C   UNL     1     182.195 182.776 179.509  1.00  0.00     0.000 C 
BRANCH   3   4
ATOM      4  C   UNL     1     181.273 183.539 180.473  1.00  0.00     0.006 C 
BRANCH   4   5
ATOM      5  C   UNL     1     181.881 183.701 181.872  1.00  0.00     0.053 C 
BRANCH   5   6
ATOM      6  C   UNL     1     180.861 183.402 182.923  1.00  0.00     0.041 C 
ATOM      7  O   UNL     1     181.222 183.110 184.094  1.00  0.00    -0.550 OA
ATOM      8  O   UNL     1     179.509 183.393 182.599  1.00  0.00    -0.550 OA
ENDBRANCH   5   6
ENDBRANCH   4   5
ENDBRANCH   3   4
ENDBRANCH   2   3
ENDBRANCH   1   2
BRANCH   1   9
ATOM      9  C   UNL     1     180.906 179.674 180.942  1.00  0.00     0.000 C 
BRANCH   9  10
ATOM     10  C   UNL     1     182.419 179.600 181.185  1.00  0.00    -0.000 C 
BRANCH  10  11
ATOM     11  C   UNL     1     182.780 180.149 182.573  1.00  0.00    -0.000 C 
BRANCH  11  12
ATOM     12  C   UNL     1     184.212 180.703 182.636  1.00  0.00    -0.000 C 
BRANCH  12  13
ATOM     13  C   UNL     1     184.820 180.931 181.245  1.00  0.00    -0.003 C 
ATOM     14  C   UNL     1     185.703 182.176 181.228  1.00  0.00     0.004 C 
ENDBRANCH  12  13
ENDBRANCH  11  12
ENDBRANCH  10  11
ENDBRANCH   9  10
ENDBRANCH   1   9
TORSDOF 10
ENDMDL
MODEL 5
REMARK VINA RESULT:    -4.237      3.309      4.957
REMARK INTER + INTRA:          -8.318
REMARK INTER:                  -6.983
REMARK INTRA:                  -1.334
REMARK UNBOUND:                -1.603
REMARK SMILES CCCCCCCCCCCC(=O)[O-]
REMARK SMILES IDX 7 1 8 2 9 3 10 4 11 5 12 6 13 7 14 8 6 9 5 10 4 11 3 12 2 13
REMARK SMILES IDX 1 14
REMARK H PARENT
REMARK Flexibility Score: inf
ROOT
ATOM      1  C   UNL     1     180.627 180.620 180.394  1.00  0.00     0.000 C 
ENDROOT
BRANCH   1   2
ATOM      2  C   UNL     1     182.140 180.475 180.628  1.00  0.00     0.000 C 
BRANCH   2   3
ATOM      3  C   UNL     1     182.481 180.087 182.077  1.00  0.00     0.000 C 
BRANCH   3   4
ATOM      4  C   UNL     1     183.777 180.744 182.575  1.00  0.00     0.006 C 
BRANCH   4   5
ATOM      5  C   UNL     1     184.269 181.862 181.647  1.00  0.00     0.053 C 
BRANCH   5   6
ATOM      6  C   UNL     1     185.760 181.975 181.710  1.00  0.00     0.041 C 
ATOM      7  O   UNL     1     186.479 180.948 181.597  1.00  0.00    -0.550 OA
ATOM      8  O   UNL     1     186.354 183.208 181.946  1.00  0.00    -0.550 OA
ENDBRANCH   5   6
ENDBRANCH   4   5
ENDBRANCH   3   4
ENDBRANCH   2   3
ENDBRANCH   1   2
BRANCH   1   9
ATOM      9  C   UNL     1     179.866 181.022 181.666  1.00  0.00     0.000 C 
BRANCH   9  10
ATOM     10  C   UNL     1     179.153 182.367 181.478  1.00  0.00    -0.000 C 
BRANCH  10  11
ATOM     11  C   UNL     1     179.630 183.392 182.518  1.00  0.00    -0.000 C 
BRANCH  11  12
ATOM     12  C   UNL     1     181.120 183.736 182.369  1.00  0.00    -0.000 C 
BRANCH  12  13
ATOM     13  C   UNL     1     181.466 184.282 180.977  1.00  0.00    -0.003 C 
ATOM     14  C   UNL     1     182.530 185.373 181.063  1.00  0.00     0.004 C 
ENDBRANCH  12  13
ENDBRANCH  11  12
ENDBRANCH  10  11
ENDBRANCH   9  10
ENDBRANCH   1   9
TORSDOF 10
ENDMDL
MODEL 6
REMARK VINA RESULT:    -4.210      1.216      3.591
REMARK INTER + INTRA:          -8.274
REMARK INTER:                  -6.590
REMARK INTRA:                  -1.685
REMARK UNBOUND:                -1.603
REMARK SMILES CCCCCCCCCCCC(=O)[O-]
REMARK SMILES IDX 7 1 8 2 9 3 10 4 11 5 12 6 13 7 14 8 6 9 5 10 4 11 3 12 2 13
REMARK SMILES IDX 1 14
REMARK H PARENT
REMARK Flexibility Score: inf
ROOT
ATOM      1  C   UNL     1     182.132 183.003 179.420  1.00  0.00     0.000 C 
ENDROOT
BRANCH   1   2
ATOM      2  C   UNL     1     183.064 183.455 180.557  1.00  0.00     0.000 C 
BRANCH   2   3
ATOM      3  C   UNL     1     182.324 183.629 181.894  1.00  0.00     0.000 C 
BRANCH   3   4
ATOM      4  C   UNL     1     180.823 183.897 181.708  1.00  0.00     0.006 C 
BRANCH   4   5
ATOM      5  C   UNL     1     179.949 183.057 182.647  1.00  0.00     0.053 C 
BRANCH   5   6
ATOM      6  C   UNL     1     178.525 183.073 182.189  1.00  0.00     0.041 C 
ATOM      7  O   UNL     1     178.242 182.819 180.989  1.00  0.00    -0.550 OA
ATOM      8  O   UNL     1     177.513 183.418 183.076  1.00  0.00    -0.550 OA
ENDBRANCH   5   6
ENDBRANCH   4   5
ENDBRANCH   3   4
ENDBRANCH   2   3
ENDBRANCH   1   2
BRANCH   1   9
ATOM      9  C   UNL     1     182.147 181.481 179.210  1.00  0.00     0.000 C 
BRANCH   9  10
ATOM     10  C   UNL     1     180.811 180.855 179.629  1.00  0.00    -0.000 C 
BRANCH  10  11
ATOM     11  C   UNL     1     180.972 180.020 180.908  1.00  0.00    -0.000 C 
BRANCH  11  12
ATOM     12  C   UNL     1     182.435 179.638 181.184  1.00  0.00    -0.000 C 
BRANCH  12  13
ATOM     13  C   UNL     1     182.929 180.134 182.551  1.00  0.00    -0.003 C 
ATOM     14  C   UNL     1     184.393 180.558 182.486  1.00  0.00     0.004 C 
ENDBRANCH  12  13
ENDBRANCH  11  12
ENDBRANCH  10  11
ENDBRANCH   9  10
ENDBRANCH   1   9
TORSDOF 10
ENDMDL
MODEL 7
REMARK VINA RESULT:    -4.200      1.289      1.856
REMARK INTER + INTRA:          -8.259
REMARK INTER:                  -6.795
REMARK INTRA:                  -1.464
REMARK UNBOUND:                -1.603
REMARK SMILES CCCCCCCCCCCC(=O)[O-]
REMARK SMILES IDX 7 1 8 2 9 3 10 4 11 5 12 6 13 7 14 8 6 9 5 10 4 11 3 12 2 13
REMARK SMILES IDX 1 14
REMARK H PARENT
REMARK Flexibility Score: inf
ROOT
ATOM      1  C   UNL     1     182.788 180.011 182.397  1.00  0.00     0.000 C 
ENDROOT
BRANCH   1   2
ATOM      2  C   UNL     1     182.508 179.772 180.904  1.00  0.00     0.000 C 
BRANCH   2   3
ATOM      3  C   UNL     1     181.240 180.496 180.417  1.00  0.00     0.000 C 
BRANCH   3   4
ATOM      4  C   UNL     1     180.332 180.937 181.575  1.00  0.00     0.006 C 
BRANCH   4   5
ATOM      5  C   UNL     1     179.860 182.390 181.438  1.00  0.00     0.053 C 
BRANCH   5   6
ATOM      6  C   UNL     1     179.967 183.100 182.750  1.00  0.00     0.041 C 
ATOM      7  O   UNL     1     181.002 182.976 183.457  1.00  0.00    -0.550 OA
ATOM      8  O   UNL     1     178.902 183.859 183.220  1.00  0.00    -0.550 OA
ENDBRANCH   5   6
ENDBRANCH   4   5
ENDBRANCH   3   4
ENDBRANCH   2   3
ENDBRANCH   1   2
BRANCH   1   9
ATOM      9  C   UNL     1     184.190 180.584 182.654  1.00  0.00     0.000 C 
BRANCH   9  10
ATOM     10  C   UNL     1     184.900 180.912 181.335  1.00  0.00    -0.000 C 
BRANCH  10  11
ATOM     11  C   UNL     1     185.224 182.410 181.242  1.00  0.00    -0.000 C 
BRANCH  11  12
ATOM     12  C   UNL     1     184.086 183.295 181.775  1.00  0.00    -0.000 C 
BRANCH  12  13
ATOM     13  C   UNL     1     183.160 183.803 180.661  1.00  0.00    -0.003 C 
ATOM     14  C   UNL     1     182.550 185.154 181.026  1.00  0.00     0.004 C 
ENDBRANCH  12  13
ENDBRANCH  11  12
ENDBRANCH  10  11
ENDBRANCH   9  10
ENDBRANCH   1   9
TORSDOF 10
ENDMDL
MODEL 8
REMARK VINA RESULT:    -4.195      3.242      5.382
REMARK INTER + INTRA:          -8.251
REMARK INTER:                  -6.741
REMARK INTRA:                  -1.510
REMARK UNBOUND:                -1.603
REMARK SMILES CCCCCCCCCCCC(=O)[O-]
REMARK SMILES IDX 7 1 8 2 9 3 10 4 11 5 12 6 13 7 14 8 6 9 5 10 4 11 3 12 2 13
REMARK SMILES IDX 1 14
REMARK H PARENT
REMARK Flexibility Score: inf
ROOT
ATOM      1  C   UNL     1     181.784 181.726 178.488  1.00  0.00     0.000 C 
ENDROOT
BRANCH   1   2
ATOM      2  C   UNL     1     183.055 182.198 179.214  1.00  0.00     0.000 C 
BRANCH   2   3
ATOM      3  C   UNL     1     182.812 183.446 180.080  1.00  0.00     0.000 C 
BRANCH   3   4
ATOM      4  C   UNL     1     183.742 183.506 181.302  1.00  0.00     0.006 C 
BRANCH   4   5
ATOM      5  C   UNL     1     184.271 182.127 181.712  1.00  0.00     0.053 C 
BRANCH   5   6
ATOM      6  C   UNL     1     185.766 182.132 181.754  1.00  0.00     0.041 C 
ATOM      7  O   UNL     1     186.397 183.222 181.759  1.00  0.00    -0.550 OA
ATOM      8  O   UNL     1     186.467 180.932 181.736  1.00  0.00    -0.550 OA
ENDBRANCH   5   6
ENDBRANCH   4   5
ENDBRANCH   3   4
ENDBRANCH   2   3
ENDBRANCH   1   2
BRANCH   1   9
ATOM      9  C   UNL     1     180.584 181.566 179.434  1.00  0.00     0.000 C 
BRANCH   9  10
ATOM     10  C   UNL     1     180.889 180.546 180.539  1.00  0.00    -0.000 C 
BRANCH  10  11
ATOM     11  C   UNL     1     180.531 181.109 181.922  1.00  0.00    -0.000 C 
BRANCH  11  12
ATOM     12  C   UNL     1     179.542 182.283 181.844  1.00  0.00    -0.000 C 
BRANCH  12  13
ATOM     13  C   UNL     1     180.059 183.542 182.554  1.00  0.00    -0.003 C 
ATOM     14  C   UNL     1     180.958 183.179 183.732  1.00  0.00     0.004 C 
ENDBRANCH  12  13
ENDBRANCH  11  12
ENDBRANCH  10  11
ENDBRANCH   9  10
ENDBRANCH   1   9
TORSDOF 10
ENDMDL
MODEL 9
REMARK VINA RESULT:    -4.141      3.262      5.351
REMARK INTER + INTRA:          -8.165
REMARK INTER:                  -6.584
REMARK INTRA:                  -1.581
REMARK UNBOUND:                -1.603
REMARK SMILES CCCCCCCCCCCC(=O)[O-]
REMARK SMILES IDX 7 1 8 2 9 3 10 4 11 5 12 6 13 7 14 8 6 9 5 10 4 11 3 12 2 13
REMARK SMILES IDX 1 14
REMARK H PARENT
REMARK Flexibility Score: inf
ROOT
ATOM      1  C   UNL     1     181.089 184.018 181.676  1.00  0.00     0.000 C 
ENDROOT
BRANCH   1   2
ATOM      2  C   UNL     1     182.471 183.343 181.687  1.00  0.00     0.000 C 
BRANCH   2   3
ATOM      3  C   UNL     1     182.639 182.359 182.857  1.00  0.00     0.000 C 
BRANCH   3   4
ATOM      4  C   UNL     1     183.463 181.120 182.471  1.00  0.00     0.006 C 
BRANCH   4   5
ATOM      5  C   UNL     1     184.412 181.382 181.296  1.00  0.00     0.053 C 
BRANCH   5   6
ATOM      6  C   UNL     1     185.778 181.731 181.795  1.00  0.00     0.041 C 
ATOM      7  O   UNL     1     186.511 180.846 182.311  1.00  0.00    -0.550 OA
ATOM      8  O   UNL     1     186.225 183.046 181.738  1.00  0.00    -0.550 OA
ENDBRANCH   5   6
ENDBRANCH   4   5
ENDBRANCH   3   4
ENDBRANCH   2   3
ENDBRANCH   1   2
BRANCH   1   9
ATOM      9  C   UNL     1     180.178 183.525 182.811  1.00  0.00     0.000 C 
BRANCH   9  10
ATOM     10  C   UNL     1     178.806 183.102 182.270  1.00  0.00    -0.000 C 
BRANCH  10  11
ATOM     11  C   UNL     1     178.951 182.016 181.193  1.00  0.00    -0.000 C 
BRANCH  11  12
ATOM     12  C   UNL     1     179.421 180.671 181.768  1.00  0.00    -0.000 C 
BRANCH  12  13
ATOM     13  C   UNL     1     180.493 179.998 180.901  1.00  0.00    -0.003 C 
ATOM     14  C   UNL     1     180.822 180.847 179.676  1.00  0.00     0.004 C 
ENDBRANCH  12  13
ENDBRANCH  11  12
ENDBRANCH  10  11
ENDBRANCH   9  10
ENDBRANCH   1   9
TORSDOF 10
ENDMDL
