MODEL 1
REMARK VINA RESULT:    -5.647      0.000      0.000
REMARK INTER + INTRA:         -11.110
REMARK INTER:                  -9.279
REMARK INTRA:                  -1.832
REMARK UNBOUND:                -1.832
REMARK SMILES C[C@@H]1O[C@@H](OC[C@H]2O[C@H](Oc3c(-c4ccc(O)c(O)c4)oc4cc(O)cc(O)c4c3=O)[C@@H](O)[C@H](O)[C@H]2O)[C@H](O)[C@H](O)[C@H]1O
REMARK SMILES IDX 7 1 36 2 34 3 32 4 9 5 8 6 6 7 5 8 4 9 1 10 2 11 42 12 3 13
REMARK SMILES IDX 40 14 38 15 43 16 41 18 39 20 37 22 35 24 10 26 11 27 12 28
REMARK SMILES IDX 30 29 21 30 29 31 31 32 22 33 27 34 23 35 26 36 24 37 13 38
REMARK SMILES IDX 20 39 14 40 18 41 15 42 16 43 19 44 17 46 28 48 25 50 33 52
REMARK H PARENT 43 17 41 19 39 21 37 23 35 25 19 45 17 47 28 49 25 51 33 53
REMARK Flexibility Score: inf
ROOT
ATOM      1  C   UNL     1      17.528  46.048  74.453  1.00  0.00     0.180 C 
ATOM      2  C   UNL     1      17.945  45.336  73.125  1.00  0.00     0.177 C 
ATOM      3  C   UNL     1      19.473  45.108  73.075  1.00  0.00     0.180 C 
ATOM      4  C   UNL     1      19.998  44.410  74.355  1.00  0.00     0.214 C 
ATOM      5  C   UNL     1      19.084  44.676  75.572  1.00  0.00     0.339 C 
ATOM      6  O   UNL     1      18.496  45.961  75.489  1.00  0.00    -0.332 OA
ENDROOT
BRANCH   1   7
ATOM      7  C   UNL     1      16.131  45.658  74.980  1.00  0.00     0.198 C 
BRANCH   7   8
ATOM      8  O   UNL     1      15.113  46.136  74.119  1.00  0.00    -0.347 OA
BRANCH   8   9
ATOM      9  C   UNL     1      15.188  47.546  73.929  1.00  0.00     0.281 C 
ATOM     10  C   UNL     1      12.204  48.510  75.859  1.00  0.00     0.041 C 
ATOM     11  C   UNL     1      12.995  47.835  74.736  1.00  0.00     0.150 C 
ATOM     12  C   UNL     1      12.431  48.239  73.352  1.00  0.00     0.174 C 
ATOM     13  O   UNL     1      14.357  48.221  74.864  1.00  0.00    -0.344 OA
ATOM     14  C   UNL     1      13.296  47.625  72.238  1.00  0.00     0.179 C 
ATOM     15  C   UNL     1      14.796  47.895  72.476  1.00  0.00     0.202 C 
BRANCH  12  16
ATOM     16  O   UNL     1      11.117  47.761  73.208  1.00  0.00    -0.388 OA
ATOM     17  H   UNL     1      10.947  47.136  73.965  1.00  0.00     0.211 HD
ENDBRANCH  12  16
BRANCH  14  18
ATOM     18  O   UNL     1      12.891  48.073  70.966  1.00  0.00    -0.387 OA
ATOM     19  H   UNL     1      13.656  48.557  70.551  1.00  0.00     0.211 HD
ENDBRANCH  14  18
BRANCH  15  20
ATOM     20  O   UNL     1      15.148  49.220  72.162  1.00  0.00    -0.385 OA
ATOM     21  H   UNL     1      14.323  49.704  71.885  1.00  0.00     0.211 HD
ENDBRANCH  15  20
ENDBRANCH   8   9
ENDBRANCH   7   8
ENDBRANCH   1   7
BRANCH   2  22
ATOM     22  O   UNL     1      17.236  44.141  72.896  1.00  0.00    -0.387 OA
ATOM     23  H   UNL     1      17.862  43.455  72.556  1.00  0.00     0.211 HD
ENDBRANCH   2  22
BRANCH   3  24
ATOM     24  O   UNL     1      20.125  46.345  72.934  1.00  0.00    -0.387 OA
ATOM     25  H   UNL     1      21.085  46.181  73.114  1.00  0.00     0.211 HD
ENDBRANCH   3  24
BRANCH   5  26
ATOM     26  O   UNL     1      19.826  44.558  76.793  1.00  0.00    -0.454 OA
BRANCH  26  27
ATOM     27  C   UNL     1      19.217  44.462  78.052  1.00  0.00     0.214 A 
ATOM     28  C   UNL     1      18.641  43.254  78.499  1.00  0.00     0.180 A 
ATOM     29  C   UNL     1      19.155  45.586  78.884  1.00  0.00     0.239 A 
ATOM     30  O   UNL     1      17.971  43.226  79.645  1.00  0.00    -0.452 OA
ATOM     31  C   UNL     1      18.438  45.519  80.096  1.00  0.00     0.111 A 
ATOM     32  O   UNL     1      19.734  46.650  78.527  1.00  0.00    -0.285 OA
ATOM     33  C   UNL     1      17.834  44.284  80.437  1.00  0.00     0.146 A 
ATOM     34  C   UNL     1      18.274  46.629  80.961  1.00  0.00     0.134 A 
ATOM     35  C   UNL     1      17.084  44.165  81.611  1.00  0.00     0.094 A 
ATOM     36  C   UNL     1      17.516  46.490  82.134  1.00  0.00     0.093 A 
ATOM     37  C   UNL     1      16.917  45.269  82.455  1.00  0.00     0.123 A 
BRANCH  28  38
ATOM     38  C   UNL     1      18.756  42.001  77.723  1.00  0.00     0.025 A 
ATOM     39  C   UNL     1      17.926  41.755  76.617  1.00  0.00     0.062 A 
ATOM     40  C   UNL     1      19.696  41.033  78.104  1.00  0.00     0.016 A 
ATOM     41  C   UNL     1      18.037  40.561  75.896  1.00  0.00     0.158 A 
ATOM     42  C   UNL     1      19.791  39.827  77.403  1.00  0.00     0.051 A 
ATOM     43  C   UNL     1      18.970  39.588  76.292  1.00  0.00     0.157 A 
BRANCH  41  44
ATOM     44  O   UNL     1      17.215  40.362  74.783  1.00  0.00    -0.504 OA
ATOM     45  H   UNL     1      17.078  41.081  74.087  1.00  0.00     0.293 HD
ENDBRANCH  41  44
BRANCH  43  46
ATOM     46  O   UNL     1      19.075  38.392  75.582  1.00  0.00    -0.504 OA
ATOM     47  H   UNL     1      18.466  38.187  74.799  1.00  0.00     0.293 HD
ENDBRANCH  43  46
ENDBRANCH  28  38
BRANCH  34  48
ATOM     48  O   UNL     1      18.846  47.866  80.656  1.00  0.00    -0.507 OA
ATOM     49  H   UNL     1      18.688  48.686  81.232  1.00  0.00     0.293 HD
ENDBRANCH  34  48
BRANCH  37  50
ATOM     50  O   UNL     1      16.147  45.166  83.610  1.00  0.00    -0.508 OA
ATOM     51  H   UNL     1      16.572  45.131  84.530  1.00  0.00     0.293 HD
ENDBRANCH  37  50
ENDBRANCH  26  27
ENDBRANCH   5  26
BRANCH   4  52
ATOM     52  O   UNL     1      20.098  43.023  74.149  1.00  0.00    -0.384 OA
ATOM     53  H   UNL     1      21.066  42.796  74.162  1.00  0.00     0.211 HD
ENDBRANCH   4  52
TORSDOF 16
ENDMDL
MODEL 2
REMARK VINA RESULT:    -5.349      2.044      5.545
REMARK INTER + INTRA:         -10.621
REMARK INTER:                 -10.185
REMARK INTRA:                  -0.436
REMARK UNBOUND:                -1.832
REMARK SMILES C[C@@H]1O[C@@H](OC[C@H]2O[C@H](Oc3c(-c4ccc(O)c(O)c4)oc4cc(O)cc(O)c4c3=O)[C@@H](O)[C@H](O)[C@H]2O)[C@H](O)[C@H](O)[C@H]1O
REMARK SMILES IDX 7 1 36 2 34 3 32 4 9 5 8 6 6 7 5 8 4 9 1 10 2 11 42 12 3 13
REMARK SMILES IDX 40 14 38 15 43 16 41 18 39 20 37 22 35 24 10 26 11 27 12 28
REMARK SMILES IDX 30 29 21 30 29 31 31 32 22 33 27 34 23 35 26 36 24 37 13 38
REMARK SMILES IDX 20 39 14 40 18 41 15 42 16 43 19 44 17 46 28 48 25 50 33 52
REMARK H PARENT 43 17 41 19 39 21 37 23 35 25 19 45 17 47 28 49 25 51 33 53
REMARK Flexibility Score: inf
ROOT
ATOM      1  C   UNL     1      15.749  47.094  74.351  1.00  0.00     0.180 C 
ATOM      2  C   UNL     1      15.918  48.054  73.128  1.00  0.00     0.177 C 
ATOM      3  C   UNL     1      17.360  48.606  73.051  1.00  0.00     0.180 C 
ATOM      4  C   UNL     1      18.418  47.476  73.116  1.00  0.00     0.214 C 
ATOM      5  C   UNL     1      17.882  46.226  73.850  1.00  0.00     0.339 C 
ATOM      6  O   UNL     1      16.973  46.594  74.870  1.00  0.00    -0.332 OA
ENDROOT
BRANCH   1   7
ATOM      7  C   UNL     1      14.740  45.948  74.135  1.00  0.00     0.198 C 
BRANCH   7   8
ATOM      8  O   UNL     1      13.558  46.165  74.884  1.00  0.00    -0.347 OA
BRANCH   8   9
ATOM      9  C   UNL     1      12.677  47.083  74.245  1.00  0.00     0.281 C 
ATOM     10  C   UNL     1      13.640  50.124  76.084  1.00  0.00     0.041 C 
ATOM     11  C   UNL     1      13.077  48.714  75.896  1.00  0.00     0.150 C 
ATOM     12  C   UNL     1      11.648  48.614  76.484  1.00  0.00     0.174 C 
ATOM     13  O   UNL     1      13.077  48.423  74.504  1.00  0.00    -0.344 OA
ATOM     14  C   UNL     1      11.066  47.218  76.202  1.00  0.00     0.179 C 
ATOM     15  C   UNL     1      11.229  46.828  74.719  1.00  0.00     0.202 C 
BRANCH  12  16
ATOM     16  O   UNL     1      11.685  48.806  77.876  1.00  0.00    -0.388 OA
ATOM     17  H   UNL     1      10.953  49.442  78.104  1.00  0.00     0.211 HD
ENDBRANCH  12  16
BRANCH  14  18
ATOM     18  O   UNL     1       9.721  47.129  76.610  1.00  0.00    -0.387 OA
ATOM     19  H   UNL     1       9.706  47.000  77.597  1.00  0.00     0.211 HD
ENDBRANCH  14  18
BRANCH  15  20
ATOM     20  O   UNL     1      10.303  47.495  73.896  1.00  0.00    -0.385 OA
ATOM     21  H   UNL     1       9.500  46.915  73.797  1.00  0.00     0.211 HD
ENDBRANCH  15  20
ENDBRANCH   8   9
ENDBRANCH   7   8
ENDBRANCH   1   7
BRANCH   2  22
ATOM     22  O   UNL     1      15.523  47.465  71.910  1.00  0.00    -0.387 OA
ATOM     23  H   UNL     1      14.694  47.901  71.596  1.00  0.00     0.211 HD
ENDBRANCH   2  22
BRANCH   3  24
ATOM     24  O   UNL     1      17.577  49.492  74.120  1.00  0.00    -0.387 OA
ATOM     25  H   UNL     1      17.188  49.064  74.925  1.00  0.00     0.211 HD
ENDBRANCH   3  24
BRANCH   5  26
ATOM     26  O   UNL     1      18.965  45.471  74.411  1.00  0.00    -0.454 OA
BRANCH  26  27
ATOM     27  C   UNL     1      18.777  44.446  75.349  1.00  0.00     0.214 A 
ATOM     28  C   UNL     1      18.980  44.667  76.728  1.00  0.00     0.180 A 
ATOM     29  C   UNL     1      18.401  43.169  74.919  1.00  0.00     0.239 A 
ATOM     30  O   UNL     1      18.906  43.648  77.577  1.00  0.00    -0.452 OA
ATOM     31  C   UNL     1      18.330  42.112  75.850  1.00  0.00     0.111 A 
ATOM     32  O   UNL     1      18.143  42.980  73.697  1.00  0.00    -0.285 OA
ATOM     33  C   UNL     1      18.613  42.407  77.205  1.00  0.00     0.146 A 
ATOM     34  C   UNL     1      18.020  40.778  75.485  1.00  0.00     0.134 A 
ATOM     35  C   UNL     1      18.589  41.394  78.169  1.00  0.00     0.094 A 
ATOM     36  C   UNL     1      18.001  39.775  76.465  1.00  0.00     0.093 A 
ATOM     37  C   UNL     1      18.292  40.077  77.799  1.00  0.00     0.123 A 
BRANCH  28  38
ATOM     38  C   UNL     1      19.278  46.010  77.267  1.00  0.00     0.025 A 
ATOM     39  C   UNL     1      18.968  46.343  78.596  1.00  0.00     0.062 A 
ATOM     40  C   UNL     1      19.866  46.976  76.437  1.00  0.00     0.016 A 
ATOM     41  C   UNL     1      19.245  47.622  79.092  1.00  0.00     0.158 A 
ATOM     42  C   UNL     1      20.119  48.263  76.921  1.00  0.00     0.051 A 
ATOM     43  C   UNL     1      19.819  48.590  78.251  1.00  0.00     0.157 A 
BRANCH  41  44
ATOM     44  O   UNL     1      18.949  47.910  80.427  1.00  0.00    -0.504 OA
ATOM     45  H   UNL     1      19.426  47.448  81.189  1.00  0.00     0.293 HD
ENDBRANCH  41  44
BRANCH  43  46
ATOM     46  O   UNL     1      20.087  49.869  78.740  1.00  0.00    -0.504 OA
ATOM     47  H   UNL     1      20.897  50.393  78.433  1.00  0.00     0.293 HD
ENDBRANCH  43  46
ENDBRANCH  28  38
BRANCH  34  48
ATOM     48  O   UNL     1      17.743  40.444  74.156  1.00  0.00    -0.507 OA
ATOM     49  H   UNL     1      16.802  40.238  73.840  1.00  0.00     0.293 HD
ENDBRANCH  34  48
BRANCH  37  50
ATOM     50  O   UNL     1      18.295  39.058  78.747  1.00  0.00    -0.508 OA
ATOM     51  H   UNL     1      17.502  38.899  79.359  1.00  0.00     0.293 HD
ENDBRANCH  37  50
ENDBRANCH  26  27
ENDBRANCH   5  26
BRANCH   4  52
ATOM     52  O   UNL     1      18.822  47.109  71.819  1.00  0.00    -0.384 OA
ATOM     53  H   UNL     1      18.370  46.249  71.607  1.00  0.00     0.211 HD
ENDBRANCH   4  52
TORSDOF 16
ENDMDL
MODEL 3
REMARK VINA RESULT:    -5.173      2.426      7.750
REMARK INTER + INTRA:         -10.331
REMARK INTER:                  -9.579
REMARK INTRA:                  -0.752
REMARK UNBOUND:                -1.832
REMARK SMILES C[C@@H]1O[C@@H](OC[C@H]2O[C@H](Oc3c(-c4ccc(O)c(O)c4)oc4cc(O)cc(O)c4c3=O)[C@@H](O)[C@H](O)[C@H]2O)[C@H](O)[C@H](O)[C@H]1O
REMARK SMILES IDX 7 1 36 2 34 3 32 4 9 5 8 6 6 7 5 8 4 9 1 10 2 11 42 12 3 13
REMARK SMILES IDX 40 14 38 15 43 16 41 18 39 20 37 22 35 24 10 26 11 27 12 28
REMARK SMILES IDX 30 29 21 30 29 31 31 32 22 33 27 34 23 35 26 36 24 37 13 38
REMARK SMILES IDX 20 39 14 40 18 41 15 42 16 43 19 44 17 46 28 48 25 50 33 52
REMARK H PARENT 43 17 41 19 39 21 37 23 35 25 19 45 17 47 28 49 25 51 33 53
REMARK Flexibility Score: inf
ROOT
ATOM      1  C   UNL     1      16.739  42.946  75.125  1.00  0.00     0.180 C 
ATOM      2  C   UNL     1      15.375  42.978  74.362  1.00  0.00     0.177 C 
ATOM      3  C   UNL     1      14.677  44.348  74.532  1.00  0.00     0.180 C 
ATOM      4  C   UNL     1      15.621  45.527  74.185  1.00  0.00     0.214 C 
ATOM      5  C   UNL     1      17.107  45.151  74.377  1.00  0.00     0.339 C 
ATOM      6  O   UNL     1      17.259  44.230  75.442  1.00  0.00    -0.332 OA
ENDROOT
BRANCH   1   7
ATOM      7  C   UNL     1      17.822  42.066  74.468  1.00  0.00     0.198 C 
BRANCH   7   8
ATOM      8  O   UNL     1      18.361  41.145  75.399  1.00  0.00    -0.347 OA
BRANCH   8   9
ATOM      9  C   UNL     1      17.402  40.177  75.814  1.00  0.00     0.281 C 
ATOM     10  C   UNL     1      19.582  38.153  77.984  1.00  0.00     0.041 C 
ATOM     11  C   UNL     1      19.090  38.782  76.678  1.00  0.00     0.150 C 
ATOM     12  C   UNL     1      18.891  37.697  75.592  1.00  0.00     0.174 C 
ATOM     13  O   UNL     1      17.872  39.463  76.949  1.00  0.00    -0.344 OA
ATOM     14  C   UNL     1      18.309  38.337  74.319  1.00  0.00     0.179 C 
ATOM     15  C   UNL     1      17.088  39.222  74.641  1.00  0.00     0.202 C 
BRANCH  12  16
ATOM     16  O   UNL     1      20.124  37.106  75.267  1.00  0.00    -0.388 OA
ATOM     17  H   UNL     1      20.490  37.602  74.485  1.00  0.00     0.211 HD
ENDBRANCH  12  16
BRANCH  14  18
ATOM     18  O   UNL     1      17.994  37.363  73.352  1.00  0.00    -0.387 OA
ATOM     19  H   UNL     1      18.377  36.495  73.652  1.00  0.00     0.211 HD
ENDBRANCH  14  18
BRANCH  15  20
ATOM     20  O   UNL     1      15.939  38.456  74.907  1.00  0.00    -0.385 OA
ATOM     21  H   UNL     1      15.945  37.665  74.302  1.00  0.00     0.211 HD
ENDBRANCH  15  20
ENDBRANCH   8   9
ENDBRANCH   7   8
ENDBRANCH   1   7
BRANCH   2  22
ATOM     22  O   UNL     1      15.497  42.624  73.004  1.00  0.00    -0.387 OA
ATOM     23  H   UNL     1      15.269  41.668  72.899  1.00  0.00     0.211 HD
ENDBRANCH   2  22
BRANCH   3  24
ATOM     24  O   UNL     1      14.246  44.489  75.861  1.00  0.00    -0.387 OA
ATOM     25  H   UNL     1      13.703  43.686  76.069  1.00  0.00     0.211 HD
ENDBRANCH   3  24
BRANCH   5  26
ATOM     26  O   UNL     1      17.893  46.323  74.633  1.00  0.00    -0.454 OA
BRANCH  26  27
ATOM     27  C   UNL     1      17.852  47.022  75.847  1.00  0.00     0.214 A 
ATOM     28  C   UNL     1      17.109  48.214  75.984  1.00  0.00     0.180 A 
ATOM     29  C   UNL     1      18.575  46.549  76.948  1.00  0.00     0.239 A 
ATOM     30  O   UNL     1      17.184  48.912  77.111  1.00  0.00    -0.452 OA
ATOM     31  C   UNL     1      18.629  47.315  78.130  1.00  0.00     0.111 A 
ATOM     32  O   UNL     1      19.181  45.444  76.859  1.00  0.00    -0.285 OA
ATOM     33  C   UNL     1      17.907  48.533  78.160  1.00  0.00     0.146 A 
ATOM     34  C   UNL     1      19.390  46.938  79.264  1.00  0.00     0.134 A 
ATOM     35  C   UNL     1      17.947  49.351  79.292  1.00  0.00     0.094 A 
ATOM     36  C   UNL     1      19.420  47.772  80.391  1.00  0.00     0.093 A 
ATOM     37  C   UNL     1      18.710  48.977  80.405  1.00  0.00     0.123 A 
BRANCH  28  38
ATOM     38  C   UNL     1      16.241  48.721  74.901  1.00  0.00     0.025 A 
ATOM     39  C   UNL     1      14.851  48.527  74.935  1.00  0.00     0.062 A 
ATOM     40  C   UNL     1      16.814  49.392  73.810  1.00  0.00     0.016 A 
ATOM     41  C   UNL     1      14.041  49.002  73.898  1.00  0.00     0.158 A 
ATOM     42  C   UNL     1      16.011  49.844  72.759  1.00  0.00     0.051 A 
ATOM     43  C   UNL     1      14.621  49.660  72.801  1.00  0.00     0.157 A 
BRANCH  41  44
ATOM     44  O   UNL     1      12.658  48.817  73.979  1.00  0.00    -0.504 OA
ATOM     45  H   UNL     1      12.057  49.487  74.439  1.00  0.00     0.293 HD
ENDBRANCH  41  44
BRANCH  43  46
ATOM     46  O   UNL     1      13.817  50.125  71.760  1.00  0.00    -0.504 OA
ATOM     47  H   UNL     1      12.815  50.223  71.870  1.00  0.00     0.293 HD
ENDBRANCH  43  46
ENDBRANCH  28  38
BRANCH  34  48
ATOM     48  O   UNL     1      20.125  45.749  79.271  1.00  0.00    -0.507 OA
ATOM     49  H   UNL     1      19.867  44.964  79.859  1.00  0.00     0.293 HD
ENDBRANCH  34  48
BRANCH  37  50
ATOM     50  O   UNL     1      18.779  49.800  81.524  1.00  0.00    -0.508 OA
ATOM     51  H   UNL     1      19.376  50.620  81.545  1.00  0.00     0.293 HD
ENDBRANCH  37  50
ENDBRANCH  26  27
ENDBRANCH   5  26
BRANCH   4  52
ATOM     52  O   UNL     1      15.420  45.939  72.855  1.00  0.00    -0.384 OA
ATOM     53  H   UNL     1      16.087  46.654  72.669  1.00  0.00     0.211 HD
ENDBRANCH   4  52
TORSDOF 16
ENDMDL
MODEL 4
REMARK VINA RESULT:    -5.062      2.352      5.531
REMARK INTER + INTRA:         -10.150
REMARK INTER:                  -8.411
REMARK INTRA:                  -1.739
REMARK UNBOUND:                -1.832
REMARK SMILES C[C@@H]1O[C@@H](OC[C@H]2O[C@H](Oc3c(-c4ccc(O)c(O)c4)oc4cc(O)cc(O)c4c3=O)[C@@H](O)[C@H](O)[C@H]2O)[C@H](O)[C@H](O)[C@H]1O
REMARK SMILES IDX 7 1 36 2 34 3 32 4 9 5 8 6 6 7 5 8 4 9 1 10 2 11 42 12 3 13
REMARK SMILES IDX 40 14 38 15 43 16 41 18 39 20 37 22 35 24 10 26 11 27 12 28
REMARK SMILES IDX 30 29 21 30 29 31 31 32 22 33 27 34 23 35 26 36 24 37 13 38
REMARK SMILES IDX 20 39 14 40 18 41 15 42 16 43 19 44 17 46 28 48 25 50 33 52
REMARK H PARENT 43 17 41 19 39 21 37 23 35 25 19 45 17 47 28 49 25 51 33 53
REMARK Flexibility Score: inf
ROOT
ATOM      1  C   UNL     1      17.527  48.970  74.591  1.00  0.00     0.180 C 
ATOM      2  C   UNL     1      17.929  49.031  73.081  1.00  0.00     0.177 C 
ATOM      3  C   UNL     1      19.457  48.869  72.907  1.00  0.00     0.180 C 
ATOM      4  C   UNL     1      19.997  47.623  73.653  1.00  0.00     0.214 C 
ATOM      5  C   UNL     1      19.097  47.230  74.846  1.00  0.00     0.339 C 
ATOM      6  O   UNL     1      18.509  48.377  75.431  1.00  0.00    -0.332 OA
ENDROOT
BRANCH   1   7
ATOM      7  C   UNL     1      16.138  48.358  74.862  1.00  0.00     0.198 C 
BRANCH   7   8
ATOM      8  O   UNL     1      16.223  46.953  75.016  1.00  0.00    -0.347 OA
BRANCH   8   9
ATOM      9  C   UNL     1      15.721  46.256  73.880  1.00  0.00     0.281 C 
ATOM     10  C   UNL     1      12.134  46.400  74.698  1.00  0.00     0.041 C 
ATOM     11  C   UNL     1      13.604  46.016  74.882  1.00  0.00     0.150 C 
ATOM     12  C   UNL     1      13.750  44.485  75.061  1.00  0.00     0.174 C 
ATOM     13  O   UNL     1      14.322  46.468  73.741  1.00  0.00    -0.344 OA
ATOM     14  C   UNL     1      15.240  44.112  75.150  1.00  0.00     0.179 C 
ATOM     15  C   UNL     1      16.052  44.752  74.006  1.00  0.00     0.202 C 
BRANCH  12  16
ATOM     16  O   UNL     1      13.118  44.075  76.247  1.00  0.00    -0.388 OA
ATOM     17  H   UNL     1      12.296  44.628  76.348  1.00  0.00     0.211 HD
ENDBRANCH  12  16
BRANCH  14  18
ATOM     18  O   UNL     1      15.419  42.716  75.186  1.00  0.00    -0.387 OA
ATOM     19  H   UNL     1      15.695  42.463  76.108  1.00  0.00     0.211 HD
ENDBRANCH  14  18
BRANCH  15  20
ATOM     20  O   UNL     1      15.851  44.087  72.783  1.00  0.00    -0.385 OA
ATOM     21  H   UNL     1      16.158  43.146  72.887  1.00  0.00     0.211 HD
ENDBRANCH  15  20
ENDBRANCH   8   9
ENDBRANCH   7   8
ENDBRANCH   1   7
BRANCH   2  22
ATOM     22  O   UNL     1      17.217  48.111  72.286  1.00  0.00    -0.387 OA
ATOM     23  H   UNL     1      16.987  47.322  72.836  1.00  0.00     0.211 HD
ENDBRANCH   2  22
BRANCH   3  24
ATOM     24  O   UNL     1      20.106  50.012  73.405  1.00  0.00    -0.387 OA
ATOM     25  H   UNL     1      19.874  50.071  74.367  1.00  0.00     0.211 HD
ENDBRANCH   3  24
BRANCH   5  26
ATOM     26  O   UNL     1      19.854  46.515  75.833  1.00  0.00    -0.454 OA
BRANCH  26  27
ATOM     27  C   UNL     1      19.378  45.365  76.476  1.00  0.00     0.214 A 
ATOM     28  C   UNL     1      19.081  45.365  77.856  1.00  0.00     0.180 A 
ATOM     29  C   UNL     1      19.210  44.180  75.751  1.00  0.00     0.239 A 
ATOM     30  O   UNL     1      18.744  44.231  78.458  1.00  0.00    -0.452 OA
ATOM     31  C   UNL     1      18.847  42.995  76.424  1.00  0.00     0.111 A 
ATOM     32  O   UNL     1      19.400  44.188  74.503  1.00  0.00    -0.285 OA
ATOM     33  C   UNL     1      18.631  43.070  77.821  1.00  0.00     0.146 A 
ATOM     34  C   UNL     1      18.720  41.743  75.773  1.00  0.00     0.134 A 
ATOM     35  C   UNL     1      18.300  41.923  78.548  1.00  0.00     0.094 A 
ATOM     36  C   UNL     1      18.387  40.602  76.519  1.00  0.00     0.093 A 
ATOM     37  C   UNL     1      18.186  40.687  77.900  1.00  0.00     0.123 A 
BRANCH  28  38
ATOM     38  C   UNL     1      19.137  46.600  78.666  1.00  0.00     0.025 A 
ATOM     39  C   UNL     1      18.317  47.700  78.366  1.00  0.00     0.062 A 
ATOM     40  C   UNL     1      20.033  46.685  79.741  1.00  0.00     0.016 A 
ATOM     41  C   UNL     1      18.386  48.869  79.133  1.00  0.00     0.158 A 
ATOM     42  C   UNL     1      20.125  47.860  80.493  1.00  0.00     0.051 A 
ATOM     43  C   UNL     1      19.297  48.953  80.199  1.00  0.00     0.157 A 
BRANCH  41  44
ATOM     44  O   UNL     1      17.536  49.934  78.825  1.00  0.00    -0.504 OA
ATOM     45  H   UNL     1      17.163  50.065  77.895  1.00  0.00     0.293 HD
ENDBRANCH  41  44
BRANCH  43  46
ATOM     46  O   UNL     1      19.376  50.121  80.959  1.00  0.00    -0.504 OA
ATOM     47  H   UNL     1      19.116  51.021  80.573  1.00  0.00     0.293 HD
ENDBRANCH  43  46
ENDBRANCH  28  38
BRANCH  34  48
ATOM     48  O   UNL     1      18.933  41.625  74.397  1.00  0.00    -0.507 OA
ATOM     49  H   UNL     1      18.918  42.430  73.781  1.00  0.00     0.293 HD
ENDBRANCH  34  48
BRANCH  37  50
ATOM     50  O   UNL     1      17.886  39.535  78.620  1.00  0.00    -0.508 OA
ATOM     51  H   UNL     1      18.067  38.611  78.244  1.00  0.00     0.293 HD
ENDBRANCH  37  50
ENDBRANCH  26  27
ENDBRANCH   5  26
BRANCH   4  52
ATOM     52  O   UNL     1      20.095  46.531  72.773  1.00  0.00    -0.384 OA
ATOM     53  H   UNL     1      19.838  46.862  71.870  1.00  0.00     0.211 HD
ENDBRANCH   4  52
TORSDOF 16
ENDMDL
MODEL 5
REMARK VINA RESULT:    -5.061     16.986     19.408
REMARK INTER + INTRA:         -10.147
REMARK INTER:                  -8.976
REMARK INTRA:                  -1.171
REMARK UNBOUND:                -1.832
REMARK SMILES C[C@@H]1O[C@@H](OC[C@H]2O[C@H](Oc3c(-c4ccc(O)c(O)c4)oc4cc(O)cc(O)c4c3=O)[C@@H](O)[C@H](O)[C@H]2O)[C@H](O)[C@H](O)[C@H]1O
REMARK SMILES IDX 7 1 36 2 34 3 32 4 9 5 8 6 6 7 5 8 4 9 1 10 2 11 42 12 3 13
REMARK SMILES IDX 40 14 38 15 43 16 41 18 39 20 37 22 35 24 10 26 11 27 12 28
REMARK SMILES IDX 30 29 21 30 29 31 31 32 22 33 27 34 23 35 26 36 24 37 13 38
REMARK SMILES IDX 20 39 14 40 18 41 15 42 16 43 19 44 17 46 28 48 25 50 33 52
REMARK H PARENT 43 17 41 19 39 21 37 23 35 25 19 45 17 47 28 49 25 51 33 53
REMARK Flexibility Score: inf
ROOT
ATOM      1  C   UNL     1       7.410  33.951  69.394  1.00  0.00     0.180 C 
ATOM      2  C   UNL     1       7.581  34.240  67.867  1.00  0.00     0.177 C 
ATOM      3  C   UNL     1       8.145  33.004  67.128  1.00  0.00     0.180 C 
ATOM      4  C   UNL     1       7.333  31.722  67.440  1.00  0.00     0.214 C 
ATOM      5  C   UNL     1       6.621  31.809  68.809  1.00  0.00     0.339 C 
ATOM      6  O   UNL     1       7.386  32.570  69.725  1.00  0.00    -0.332 OA
ENDROOT
BRANCH   1   7
ATOM      7  C   UNL     1       6.233  34.692  70.060  1.00  0.00     0.198 C 
BRANCH   7   8
ATOM      8  O   UNL     1       4.992  34.216  69.572  1.00  0.00    -0.347 OA
BRANCH   8   9
ATOM      9  C   UNL     1       4.117  35.278  69.204  1.00  0.00     0.281 C 
ATOM     10  C   UNL     1       2.553  35.850  72.488  1.00  0.00     0.041 C 
ATOM     11  C   UNL     1       2.919  35.074  71.221  1.00  0.00     0.150 C 
ATOM     12  C   UNL     1       1.646  34.529  70.528  1.00  0.00     0.174 C 
ATOM     13  O   UNL     1       3.634  35.951  70.359  1.00  0.00    -0.344 OA
ATOM     14  C   UNL     1       2.029  33.833  69.210  1.00  0.00     0.179 C 
ATOM     15  C   UNL     1       2.954  34.720  68.352  1.00  0.00     0.202 C 
BRANCH  12  16
ATOM     16  O   UNL     1       1.010  33.589  71.357  1.00  0.00    -0.388 OA
ATOM     17  H   UNL     1       0.265  34.062  71.819  1.00  0.00     0.211 HD
ENDBRANCH  12  16
BRANCH  14  18
ATOM     18  O   UNL     1       0.888  33.435  68.488  1.00  0.00    -0.387 OA
ATOM     19  H   UNL     1       0.949  33.826  67.574  1.00  0.00     0.211 HD
ENDBRANCH  14  18
BRANCH  15  20
ATOM     20  O   UNL     1       2.247  35.759  67.720  1.00  0.00    -0.385 OA
ATOM     21  H   UNL     1       1.907  36.377  68.423  1.00  0.00     0.211 HD
ENDBRANCH  15  20
ENDBRANCH   8   9
ENDBRANCH   7   8
ENDBRANCH   1   7
BRANCH   2  22
ATOM     22  O   UNL     1       6.399  34.710  67.261  1.00  0.00    -0.387 OA
ATOM     23  H   UNL     1       6.530  35.650  66.985  1.00  0.00     0.211 HD
ENDBRANCH   2  22
BRANCH   3  24
ATOM     24  O   UNL     1       9.480  32.800  67.515  1.00  0.00    -0.387 OA
ATOM     25  H   UNL     1       9.581  33.211  68.411  1.00  0.00     0.211 HD
ENDBRANCH   3  24
BRANCH   5  26
ATOM     26  O   UNL     1       6.391  30.496  69.340  1.00  0.00    -0.454 OA
BRANCH  26  27
ATOM     27  C   UNL     1       5.894  30.270  70.631  1.00  0.00     0.214 A 
ATOM     28  C   UNL     1       4.508  30.162  70.876  1.00  0.00     0.180 A 
ATOM     29  C   UNL     1       6.779  30.167  71.710  1.00  0.00     0.239 A 
ATOM     30  O   UNL     1       4.065  30.064  72.124  1.00  0.00    -0.452 OA
ATOM     31  C   UNL     1       6.272  30.060  73.021  1.00  0.00     0.111 A 
ATOM     32  O   UNL     1       8.023  30.186  71.492  1.00  0.00    -0.285 OA
ATOM     33  C   UNL     1       4.866  30.025  73.183  1.00  0.00     0.146 A 
ATOM     34  C   UNL     1       7.099  30.016  74.170  1.00  0.00     0.134 A 
ATOM     35  C   UNL     1       4.303  29.951  74.461  1.00  0.00     0.094 A 
ATOM     36  C   UNL     1       6.517  29.943  75.445  1.00  0.00     0.093 A 
ATOM     37  C   UNL     1       5.127  29.919  75.592  1.00  0.00     0.123 A 
BRANCH  28  38
ATOM     38  C   UNL     1       3.520  30.159  69.777  1.00  0.00     0.025 A 
ATOM     39  C   UNL     1       2.156  30.375  70.028  1.00  0.00     0.062 A 
ATOM     40  C   UNL     1       3.946  29.920  68.462  1.00  0.00     0.016 A 
ATOM     41  C   UNL     1       1.228  30.358  68.981  1.00  0.00     0.158 A 
ATOM     42  C   UNL     1       3.019  29.875  67.417  1.00  0.00     0.051 A 
ATOM     43  C   UNL     1       1.658  30.103  67.669  1.00  0.00     0.157 A 
BRANCH  41  44
ATOM     44  O   UNL     1      -0.118  30.606  69.264  1.00  0.00    -0.504 OA
ATOM     45  H   UNL     1      -0.750  29.865  69.533  1.00  0.00     0.293 HD
ENDBRANCH  41  44
BRANCH  43  46
ATOM     46  O   UNL     1       0.734  30.075  66.624  1.00  0.00    -0.504 OA
ATOM     47  H   UNL     1       0.335  30.926  66.248  1.00  0.00     0.293 HD
ENDBRANCH  43  46
ENDBRANCH  28  38
BRANCH  34  48
ATOM     48  O   UNL     1       8.491  30.058  74.054  1.00  0.00    -0.507 OA
ATOM     49  H   UNL     1       8.960  29.902  73.168  1.00  0.00     0.293 HD
ENDBRANCH  34  48
BRANCH  37  50
ATOM     50  O   UNL     1       4.574  29.875  76.868  1.00  0.00    -0.508 OA
ATOM     51  H   UNL     1       3.946  30.599  77.200  1.00  0.00     0.293 HD
ENDBRANCH  37  50
ENDBRANCH  26  27
ENDBRANCH   5  26
BRANCH   4  52
ATOM     52  O   UNL     1       6.373  31.495  66.437  1.00  0.00    -0.384 OA
ATOM     53  H   UNL     1       5.627  32.133  66.601  1.00  0.00     0.211 HD
ENDBRANCH   4  52
TORSDOF 16
ENDMDL
MODEL 6
REMARK VINA RESULT:    -4.891      1.556      5.097
REMARK INTER + INTRA:          -9.868
REMARK INTER:                  -9.402
REMARK INTRA:                  -0.466
REMARK UNBOUND:                -1.832
REMARK SMILES C[C@@H]1O[C@@H](OC[C@H]2O[C@H](Oc3c(-c4ccc(O)c(O)c4)oc4cc(O)cc(O)c4c3=O)[C@@H](O)[C@H](O)[C@H]2O)[C@H](O)[C@H](O)[C@H]1O
REMARK SMILES IDX 7 1 36 2 34 3 32 4 9 5 8 6 6 7 5 8 4 9 1 10 2 11 42 12 3 13
REMARK SMILES IDX 40 14 38 15 43 16 41 18 39 20 37 22 35 24 10 26 11 27 12 28
REMARK SMILES IDX 30 29 21 30 29 31 31 32 22 33 27 34 23 35 26 36 24 37 13 38
REMARK SMILES IDX 20 39 14 40 18 41 15 42 16 43 19 44 17 46 28 48 25 50 33 52
REMARK H PARENT 43 17 41 19 39 21 37 23 35 25 19 45 17 47 28 49 25 51 33 53
REMARK Flexibility Score: inf
ROOT
ATOM      1  C   UNL     1      16.226  46.961  74.764  1.00  0.00     0.180 C 
ATOM      2  C   UNL     1      17.048  47.800  73.731  1.00  0.00     0.177 C 
ATOM      3  C   UNL     1      18.393  48.263  74.338  1.00  0.00     0.180 C 
ATOM      4  C   UNL     1      19.182  47.086  74.965  1.00  0.00     0.214 C 
ATOM      5  C   UNL     1      18.249  45.936  75.406  1.00  0.00     0.339 C 
ATOM      6  O   UNL     1      16.999  46.441  75.837  1.00  0.00    -0.332 OA
ENDROOT
BRANCH   1   7
ATOM      7  C   UNL     1      15.346  45.859  74.141  1.00  0.00     0.198 C 
BRANCH   7   8
ATOM      8  O   UNL     1      13.995  46.274  74.058  1.00  0.00    -0.347 OA
BRANCH   8   9
ATOM      9  C   UNL     1      13.844  47.667  74.317  1.00  0.00     0.281 C 
ATOM     10  C   UNL     1      10.430  47.594  75.692  1.00  0.00     0.041 C 
ATOM     11  C   UNL     1      11.525  47.421  74.637  1.00  0.00     0.150 C 
ATOM     12  C   UNL     1      11.162  48.190  73.343  1.00  0.00     0.174 C 
ATOM     13  O   UNL     1      12.745  47.897  75.189  1.00  0.00    -0.344 OA
ATOM     14  C   UNL     1      12.317  48.079  72.332  1.00  0.00     0.179 C 
ATOM     15  C   UNL     1      13.671  48.426  72.983  1.00  0.00     0.202 C 
BRANCH  12  16
ATOM     16  O   UNL     1      10.008  47.638  72.761  1.00  0.00    -0.388 OA
ATOM     17  H   UNL     1       9.726  48.252  72.029  1.00  0.00     0.211 HD
ENDBRANCH  12  16
BRANCH  14  18
ATOM     18  O   UNL     1      12.079  48.871  71.192  1.00  0.00    -0.387 OA
ATOM     19  H   UNL     1      11.319  48.469  70.690  1.00  0.00     0.211 HD
ENDBRANCH  14  18
BRANCH  15  20
ATOM     20  O   UNL     1      13.826  49.812  73.166  1.00  0.00    -0.385 OA
ATOM     21  H   UNL     1      13.278  50.085  73.951  1.00  0.00     0.211 HD
ENDBRANCH  15  20
ENDBRANCH   8   9
ENDBRANCH   7   8
ENDBRANCH   1   7
BRANCH   2  22
ATOM     22  O   UNL     1      17.236  47.130  72.506  1.00  0.00    -0.387 OA
ATOM     23  H   UNL     1      16.466  47.318  71.916  1.00  0.00     0.211 HD
ENDBRANCH   2  22
BRANCH   3  24
ATOM     24  O   UNL     1      18.149  49.225  75.333  1.00  0.00    -0.387 OA
ATOM     25  H   UNL     1      17.823  50.036  74.867  1.00  0.00     0.211 HD
ENDBRANCH   3  24
BRANCH   5  26
ATOM     26  O   UNL     1      18.855  45.174  76.459  1.00  0.00    -0.454 OA
BRANCH  26  27
ATOM     27  C   UNL     1      18.614  43.806  76.649  1.00  0.00     0.214 A 
ATOM     28  C   UNL     1      18.514  43.251  77.943  1.00  0.00     0.180 A 
ATOM     29  C   UNL     1      18.488  42.960  75.542  1.00  0.00     0.239 A 
ATOM     30  O   UNL     1      18.402  41.936  78.090  1.00  0.00    -0.452 OA
ATOM     31  C   UNL     1      18.366  41.569  75.736  1.00  0.00     0.111 A 
ATOM     32  O   UNL     1      18.500  43.458  74.381  1.00  0.00    -0.285 OA
ATOM     33  C   UNL     1      18.340  41.089  77.068  1.00  0.00     0.146 A 
ATOM     34  C   UNL     1      18.299  40.641  74.667  1.00  0.00     0.134 A 
ATOM     35  C   UNL     1      18.252  39.717  77.323  1.00  0.00     0.094 A 
ATOM     36  C   UNL     1      18.212  39.268  74.943  1.00  0.00     0.093 A 
ATOM     37  C   UNL     1      18.197  38.806  76.262  1.00  0.00     0.123 A 
BRANCH  28  38
ATOM     38  C   UNL     1      18.535  44.093  79.157  1.00  0.00     0.025 A 
ATOM     39  C   UNL     1      17.560  43.948  80.157  1.00  0.00     0.062 A 
ATOM     40  C   UNL     1      19.533  45.067  79.309  1.00  0.00     0.016 A 
ATOM     41  C   UNL     1      17.584  44.758  81.298  1.00  0.00     0.158 A 
ATOM     42  C   UNL     1      19.544  45.898  80.433  1.00  0.00     0.051 A 
ATOM     43  C   UNL     1      18.576  45.742  81.436  1.00  0.00     0.157 A 
BRANCH  41  44
ATOM     44  O   UNL     1      16.615  44.566  82.286  1.00  0.00    -0.504 OA
ATOM     45  H   UNL     1      16.598  43.735  82.860  1.00  0.00     0.293 HD
ENDBRANCH  41  44
BRANCH  43  46
ATOM     46  O   UNL     1      18.596  46.560  82.567  1.00  0.00    -0.504 OA
ATOM     47  H   UNL     1      17.864  46.513  83.266  1.00  0.00     0.293 HD
ENDBRANCH  43  46
ENDBRANCH  28  38
BRANCH  34  48
ATOM     48  O   UNL     1      18.331  41.073  73.339  1.00  0.00    -0.507 OA
ATOM     49  H   UNL     1      18.475  40.429  72.569  1.00  0.00     0.293 HD
ENDBRANCH  34  48
BRANCH  37  50
ATOM     50  O   UNL     1      18.140  37.437  76.508  1.00  0.00    -0.508 OA
ATOM     51  H   UNL     1      18.925  36.936  76.908  1.00  0.00     0.293 HD
ENDBRANCH  37  50
ENDBRANCH  26  27
ENDBRANCH   5  26
BRANCH   4  52
ATOM     52  O   UNL     1      20.124  46.586  74.048  1.00  0.00    -0.384 OA
ATOM     53  H   UNL     1      20.115  45.595  74.133  1.00  0.00     0.211 HD
ENDBRANCH   4  52
TORSDOF 16
ENDMDL
MODEL 7
REMARK VINA RESULT:    -4.876      2.151      8.037
REMARK INTER + INTRA:          -9.844
REMARK INTER:                  -9.281
REMARK INTRA:                  -0.563
REMARK UNBOUND:                -1.832
REMARK SMILES C[C@@H]1O[C@@H](OC[C@H]2O[C@H](Oc3c(-c4ccc(O)c(O)c4)oc4cc(O)cc(O)c4c3=O)[C@@H](O)[C@H](O)[C@H]2O)[C@H](O)[C@H](O)[C@H]1O
REMARK SMILES IDX 7 1 36 2 34 3 32 4 9 5 8 6 6 7 5 8 4 9 1 10 2 11 42 12 3 13
REMARK SMILES IDX 40 14 38 15 43 16 41 18 39 20 37 22 35 24 10 26 11 27 12 28
REMARK SMILES IDX 30 29 21 30 29 31 31 32 22 33 27 34 23 35 26 36 24 37 13 38
REMARK SMILES IDX 20 39 14 40 18 41 15 42 16 43 19 44 17 46 28 48 25 50 33 52
REMARK H PARENT 43 17 41 19 39 21 37 23 35 25 19 45 17 47 28 49 25 51 33 53
REMARK Flexibility Score: inf
ROOT
ATOM      1  C   UNL     1      18.844  47.580  77.089  1.00  0.00     0.180 C 
ATOM      2  C   UNL     1      18.309  49.005  77.447  1.00  0.00     0.177 C 
ATOM      3  C   UNL     1      17.898  49.779  76.173  1.00  0.00     0.180 C 
ATOM      4  C   UNL     1      16.942  48.953  75.276  1.00  0.00     0.214 C 
ATOM      5  C   UNL     1      17.122  47.434  75.486  1.00  0.00     0.339 C 
ATOM      6  O   UNL     1      18.469  47.126  75.797  1.00  0.00    -0.332 OA
ENDROOT
BRANCH   1   7
ATOM      7  C   UNL     1      18.557  46.500  78.152  1.00  0.00     0.198 C 
BRANCH   7   8
ATOM      8  O   UNL     1      18.189  47.089  79.386  1.00  0.00    -0.347 OA
BRANCH   8   9
ATOM      9  C   UNL     1      19.024  46.658  80.457  1.00  0.00     0.281 C 
ATOM     10  C   UNL     1      16.765  44.149  81.927  1.00  0.00     0.041 C 
ATOM     11  C   UNL     1      17.229  45.541  81.493  1.00  0.00     0.150 C 
ATOM     12  C   UNL     1      17.165  46.533  82.680  1.00  0.00     0.174 C 
ATOM     13  O   UNL     1      18.555  45.428  80.993  1.00  0.00    -0.344 OA
ATOM     14  C   UNL     1      17.721  47.901  82.246  1.00  0.00     0.179 C 
ATOM     15  C   UNL     1      19.085  47.756  81.542  1.00  0.00     0.202 C 
BRANCH  12  16
ATOM     16  O   UNL     1      15.832  46.707  83.093  1.00  0.00    -0.388 OA
ATOM     17  H   UNL     1      15.254  46.520  82.305  1.00  0.00     0.211 HD
ENDBRANCH  12  16
BRANCH  14  18
ATOM     18  O   UNL     1      17.798  48.793  83.333  1.00  0.00    -0.387 OA
ATOM     19  H   UNL     1      17.813  48.257  84.171  1.00  0.00     0.211 HD
ENDBRANCH  14  18
BRANCH  15  20
ATOM     20  O   UNL     1      20.125  47.506  82.456  1.00  0.00    -0.385 OA
ATOM     21  H   UNL     1      20.953  47.938  82.111  1.00  0.00     0.211 HD
ENDBRANCH  15  20
ENDBRANCH   8   9
ENDBRANCH   7   8
ENDBRANCH   1   7
BRANCH   2  22
ATOM     22  O   UNL     1      17.266  48.978  78.394  1.00  0.00    -0.387 OA
ATOM     23  H   UNL     1      17.619  48.631  79.251  1.00  0.00     0.211 HD
ENDBRANCH   2  22
BRANCH   3  24
ATOM     24  O   UNL     1      19.048  50.102  75.433  1.00  0.00    -0.387 OA
ATOM     25  H   UNL     1      19.491  50.848  75.910  1.00  0.00     0.211 HD
ENDBRANCH   3  24
BRANCH   5  26
ATOM     26  O   UNL     1      16.715  46.712  74.315  1.00  0.00    -0.454 OA
BRANCH  26  27
ATOM     27  C   UNL     1      16.635  45.313  74.268  1.00  0.00     0.214 A 
ATOM     28  C   UNL     1      15.408  44.642  74.462  1.00  0.00     0.180 A 
ATOM     29  C   UNL     1      17.790  44.556  74.047  1.00  0.00     0.239 A 
ATOM     30  O   UNL     1      15.386  43.316  74.527  1.00  0.00    -0.452 OA
ATOM     31  C   UNL     1      17.727  43.149  74.120  1.00  0.00     0.111 A 
ATOM     32  O   UNL     1      18.877  45.148  73.798  1.00  0.00    -0.285 OA
ATOM     33  C   UNL     1      16.468  42.558  74.383  1.00  0.00     0.146 A 
ATOM     34  C   UNL     1      18.863  42.315  73.972  1.00  0.00     0.134 A 
ATOM     35  C   UNL     1      16.349  41.170  74.498  1.00  0.00     0.094 A 
ATOM     36  C   UNL     1      18.724  40.923  74.092  1.00  0.00     0.093 A 
ATOM     37  C   UNL     1      17.477  40.353  74.361  1.00  0.00     0.123 A 
BRANCH  28  38
ATOM     38  C   UNL     1      14.132  45.374  74.600  1.00  0.00     0.025 A 
ATOM     39  C   UNL     1      13.963  46.649  74.038  1.00  0.00     0.062 A 
ATOM     40  C   UNL     1      13.074  44.794  75.316  1.00  0.00     0.016 A 
ATOM     41  C   UNL     1      12.753  47.337  74.184  1.00  0.00     0.158 A 
ATOM     42  C   UNL     1      11.873  45.489  75.488  1.00  0.00     0.051 A 
ATOM     43  C   UNL     1      11.704  46.759  74.916  1.00  0.00     0.157 A 
BRANCH  41  44
ATOM     44  O   UNL     1      12.611  48.593  73.588  1.00  0.00    -0.504 OA
ATOM     45  H   UNL     1      12.992  49.429  74.010  1.00  0.00     0.293 HD
ENDBRANCH  41  44
BRANCH  43  46
ATOM     46  O   UNL     1      10.500  47.447  75.073  1.00  0.00    -0.504 OA
ATOM     47  H   UNL     1       9.617  46.956  75.149  1.00  0.00     0.293 HD
ENDBRANCH  43  46
ENDBRANCH  28  38
BRANCH  34  48
ATOM     48  O   UNL     1      20.125  42.859  73.720  1.00  0.00    -0.507 OA
ATOM     49  H   UNL     1      20.315  43.848  73.839  1.00  0.00     0.293 HD
ENDBRANCH  34  48
BRANCH  37  50
ATOM     50  O   UNL     1      17.372  38.973  74.504  1.00  0.00    -0.508 OA
ATOM     51  H   UNL     1      18.133  38.352  74.250  1.00  0.00     0.293 HD
ENDBRANCH  37  50
ENDBRANCH  26  27
ENDBRANCH   5  26
BRANCH   4  52
ATOM     52  O   UNL     1      15.604  49.298  75.540  1.00  0.00    -0.384 OA
ATOM     53  H   UNL     1      15.424  50.151  75.060  1.00  0.00     0.211 HD
ENDBRANCH   4  52
TORSDOF 16
ENDMDL
MODEL 8
REMARK VINA RESULT:    -4.623      2.385      4.826
REMARK INTER + INTRA:          -9.428
REMARK INTER:                  -7.283
REMARK INTRA:                  -2.145
REMARK UNBOUND:                -1.832
REMARK SMILES C[C@@H]1O[C@@H](OC[C@H]2O[C@H](Oc3c(-c4ccc(O)c(O)c4)oc4cc(O)cc(O)c4c3=O)[C@@H](O)[C@H](O)[C@H]2O)[C@H](O)[C@H](O)[C@H]1O
REMARK SMILES IDX 7 1 36 2 34 3 32 4 9 5 8 6 6 7 5 8 4 9 1 10 2 11 42 12 3 13
REMARK SMILES IDX 40 14 38 15 43 16 41 18 39 20 37 22 35 24 10 26 11 27 12 28
REMARK SMILES IDX 30 29 21 30 29 31 31 32 22 33 27 34 23 35 26 36 24 37 13 38
REMARK SMILES IDX 20 39 14 40 18 41 15 42 16 43 19 44 17 46 28 48 25 50 33 52
REMARK H PARENT 43 17 41 19 39 21 37 23 35 25 19 45 17 47 28 49 25 51 33 53
REMARK Flexibility Score: inf
ROOT
ATOM      1  C   UNL     1      16.490  44.750  73.715  1.00  0.00     0.180 C 
ATOM      2  C   UNL     1      16.398  43.217  74.007  1.00  0.00     0.177 C 
ATOM      3  C   UNL     1      17.806  42.598  74.173  1.00  0.00     0.180 C 
ATOM      4  C   UNL     1      18.668  43.383  75.193  1.00  0.00     0.214 C 
ATOM      5  C   UNL     1      18.223  44.858  75.309  1.00  0.00     0.339 C 
ATOM      6  O   UNL     1      17.735  45.336  74.069  1.00  0.00    -0.332 OA
ENDROOT
BRANCH   1   7
ATOM      7  C   UNL     1      15.318  45.582  74.274  1.00  0.00     0.198 C 
BRANCH   7   8
ATOM      8  O   UNL     1      14.553  46.148  73.226  1.00  0.00    -0.347 OA
BRANCH   8   9
ATOM      9  C   UNL     1      14.592  47.572  73.241  1.00  0.00     0.281 C 
ATOM     10  C   UNL     1      11.899  48.161  75.683  1.00  0.00     0.041 C 
ATOM     11  C   UNL     1      12.531  47.681  74.374  1.00  0.00     0.150 C 
ATOM     12  C   UNL     1      11.777  48.269  73.156  1.00  0.00     0.174 C 
ATOM     13  O   UNL     1      13.895  48.080  74.371  1.00  0.00    -0.344 OA
ATOM     14  C   UNL     1      12.483  47.849  71.855  1.00  0.00     0.179 C 
ATOM     15  C   UNL     1      14.000  48.121  71.924  1.00  0.00     0.202 C 
BRANCH  12  16
ATOM     16  O   UNL     1      10.459  47.782  73.122  1.00  0.00    -0.388 OA
ATOM     17  H   UNL     1       9.889  48.444  73.601  1.00  0.00     0.211 HD
ENDBRANCH  12  16
BRANCH  14  18
ATOM     18  O   UNL     1      11.903  48.469  70.732  1.00  0.00    -0.387 OA
ATOM     19  H   UNL     1      11.906  49.452  70.885  1.00  0.00     0.211 HD
ENDBRANCH  14  18
BRANCH  15  20
ATOM     20  O   UNL     1      14.296  49.487  71.767  1.00  0.00    -0.385 OA
ATOM     21  H   UNL     1      14.867  49.591  70.958  1.00  0.00     0.211 HD
ENDBRANCH  15  20
ENDBRANCH   8   9
ENDBRANCH   7   8
ENDBRANCH   1   7
BRANCH   2  22
ATOM     22  O   UNL     1      15.569  42.916  75.106  1.00  0.00    -0.387 OA
ATOM     23  H   UNL     1      15.311  41.962  75.063  1.00  0.00     0.211 HD
ENDBRANCH   2  22
BRANCH   3  24
ATOM     24  O   UNL     1      18.463  42.597  72.931  1.00  0.00    -0.387 OA
ATOM     25  H   UNL     1      19.412  42.817  73.113  1.00  0.00     0.211 HD
ENDBRANCH   3  24
BRANCH   5  26
ATOM     26  O   UNL     1      19.313  45.679  75.751  1.00  0.00    -0.454 OA
BRANCH  26  27
ATOM     27  C   UNL     1      19.223  46.545  76.850  1.00  0.00     0.214 A 
ATOM     28  C   UNL     1      18.896  47.908  76.685  1.00  0.00     0.180 A 
ATOM     29  C   UNL     1      19.480  46.065  78.139  1.00  0.00     0.239 A 
ATOM     30  O   UNL     1      18.931  48.726  77.731  1.00  0.00    -0.452 OA
ATOM     31  C   UNL     1      19.506  46.962  79.226  1.00  0.00     0.111 A 
ATOM     32  O   UNL     1      19.698  44.832  78.306  1.00  0.00    -0.285 OA
ATOM     33  C   UNL     1      19.230  48.325  78.962  1.00  0.00     0.146 A 
ATOM     34  C   UNL     1      19.821  46.566  80.549  1.00  0.00     0.134 A 
ATOM     35  C   UNL     1      19.272  49.267  79.994  1.00  0.00     0.094 A 
ATOM     36  C   UNL     1      19.859  47.526  81.572  1.00  0.00     0.093 A 
ATOM     37  C   UNL     1      19.595  48.871  81.297  1.00  0.00     0.123 A 
BRANCH  28  38
ATOM     38  C   UNL     1      18.512  48.465  75.371  1.00  0.00     0.025 A 
ATOM     39  C   UNL     1      19.320  48.272  74.239  1.00  0.00     0.062 A 
ATOM     40  C   UNL     1      17.332  49.213  75.253  1.00  0.00     0.016 A 
ATOM     41  C   UNL     1      18.952  48.813  73.002  1.00  0.00     0.158 A 
ATOM     42  C   UNL     1      16.975  49.779  74.025  1.00  0.00     0.051 A 
ATOM     43  C   UNL     1      17.777  49.574  72.893  1.00  0.00     0.157 A 
BRANCH  41  44
ATOM     44  O   UNL     1      19.765  48.577  71.890  1.00  0.00    -0.504 OA
ATOM     45  H   UNL     1      19.761  49.191  71.088  1.00  0.00     0.293 HD
ENDBRANCH  41  44
BRANCH  43  46
ATOM     46  O   UNL     1      17.414  50.125  71.663  1.00  0.00    -0.504 OA
ATOM     47  H   UNL     1      16.942  51.019  71.603  1.00  0.00     0.293 HD
ENDBRANCH  43  46
ENDBRANCH  28  38
BRANCH  34  48
ATOM     48  O   UNL     1      20.108  45.232  80.850  1.00  0.00    -0.507 OA
ATOM     49  H   UNL     1      19.494  44.669  81.428  1.00  0.00     0.293 HD
ENDBRANCH  34  48
BRANCH  37  50
ATOM     50  O   UNL     1      19.667  49.807  82.324  1.00  0.00    -0.508 OA
ATOM     51  H   UNL     1      18.838  50.122  82.815  1.00  0.00     0.293 HD
ENDBRANCH  37  50
ENDBRANCH  26  27
ENDBRANCH   5  26
BRANCH   4  52
ATOM     52  O   UNL     1      18.595  42.780  76.462  1.00  0.00    -0.384 OA
ATOM     53  H   UNL     1      19.528  42.581  76.743  1.00  0.00     0.211 HD
ENDBRANCH   4  52
TORSDOF 16
ENDMDL
MODEL 9
REMARK VINA RESULT:    -3.892      2.283      7.683
REMARK INTER + INTRA:          -8.227
REMARK INTER:                  -7.014
REMARK INTRA:                  -1.212
REMARK UNBOUND:                -1.832
REMARK SMILES C[C@@H]1O[C@@H](OC[C@H]2O[C@H](Oc3c(-c4ccc(O)c(O)c4)oc4cc(O)cc(O)c4c3=O)[C@@H](O)[C@H](O)[C@H]2O)[C@H](O)[C@H](O)[C@H]1O
REMARK SMILES IDX 7 1 36 2 34 3 32 4 9 5 8 6 6 7 5 8 4 9 1 10 2 11 42 12 3 13
REMARK SMILES IDX 40 14 38 15 43 16 41 18 39 20 37 22 35 24 10 26 11 27 12 28
REMARK SMILES IDX 30 29 21 30 29 31 31 32 22 33 27 34 23 35 26 36 24 37 13 38
REMARK SMILES IDX 20 39 14 40 18 41 15 42 16 43 19 44 17 46 28 48 25 50 33 52
REMARK H PARENT 43 17 41 19 39 21 37 23 35 25 19 45 17 47 28 49 25 51 33 53
REMARK Flexibility Score: inf
ROOT
ATOM      1  C   UNL     1      16.144  42.657  75.063  1.00  0.00     0.180 C 
ATOM      2  C   UNL     1      14.742  42.792  74.384  1.00  0.00     0.177 C 
ATOM      3  C   UNL     1      14.188  44.228  74.538  1.00  0.00     0.180 C 
ATOM      4  C   UNL     1      15.213  45.297  74.084  1.00  0.00     0.214 C 
ATOM      5  C   UNL     1      16.667  44.787  74.200  1.00  0.00     0.339 C 
ATOM      6  O   UNL     1      16.801  43.895  75.291  1.00  0.00    -0.332 OA
ENDROOT
BRANCH   1   7
ATOM      7  C   UNL     1      17.094  41.653  74.378  1.00  0.00     0.198 C 
BRANCH   7   8
ATOM      8  O   UNL     1      17.615  40.727  75.314  1.00  0.00    -0.347 OA
BRANCH   8   9
ATOM      9  C   UNL     1      18.905  41.106  75.785  1.00  0.00     0.281 C 
ATOM     10  C   UNL     1      20.120  37.773  76.770  1.00  0.00     0.041 C 
ATOM     11  C   UNL     1      19.218  39.008  76.808  1.00  0.00     0.150 C 
ATOM     12  C   UNL     1      19.138  39.583  78.243  1.00  0.00     0.174 C 
ATOM     13  O   UNL     1      19.748  39.968  75.903  1.00  0.00    -0.344 OA
ATOM     14  C   UNL     1      18.303  40.875  78.240  1.00  0.00     0.179 C 
ATOM     15  C   UNL     1      18.768  41.845  77.135  1.00  0.00     0.202 C 
BRANCH  12  16
ATOM     16  O   UNL     1      18.519  38.657  79.101  1.00  0.00    -0.388 OA
ATOM     17  H   UNL     1      18.712  37.749  78.740  1.00  0.00     0.211 HD
ENDBRANCH  12  16
BRANCH  14  18
ATOM     18  O   UNL     1      18.313  41.497  79.504  1.00  0.00    -0.387 OA
ATOM     19  H   UNL     1      19.161  41.250  79.962  1.00  0.00     0.211 HD
ENDBRANCH  14  18
BRANCH  15  20
ATOM     20  O   UNL     1      19.967  42.496  77.478  1.00  0.00    -0.385 OA
ATOM     21  H   UNL     1      20.191  43.138  76.751  1.00  0.00     0.211 HD
ENDBRANCH  15  20
ENDBRANCH   8   9
ENDBRANCH   7   8
ENDBRANCH   1   7
BRANCH   2  22
ATOM     22  O   UNL     1      14.741  42.379  73.038  1.00  0.00    -0.387 OA
ATOM     23  H   UNL     1      14.164  41.581  72.946  1.00  0.00     0.211 HD
ENDBRANCH   2  22
BRANCH   3  24
ATOM     24  O   UNL     1      13.859  44.459  75.885  1.00  0.00    -0.387 OA
ATOM     25  H   UNL     1      13.997  43.600  76.360  1.00  0.00     0.211 HD
ENDBRANCH   3  24
BRANCH   5  26
ATOM     26  O   UNL     1      17.574  45.887  74.356  1.00  0.00    -0.454 OA
BRANCH  26  27
ATOM     27  C   UNL     1      17.692  46.618  75.547  1.00  0.00     0.214 A 
ATOM     28  C   UNL     1      17.066  47.873  75.703  1.00  0.00     0.180 A 
ATOM     29  C   UNL     1      18.462  46.113  76.601  1.00  0.00     0.239 A 
ATOM     30  O   UNL     1      17.292  48.591  76.796  1.00  0.00    -0.452 OA
ATOM     31  C   UNL     1      18.677  46.903  77.749  1.00  0.00     0.111 A 
ATOM     32  O   UNL     1      18.964  44.959  76.501  1.00  0.00    -0.285 OA
ATOM     33  C   UNL     1      18.064  48.178  77.795  1.00  0.00     0.146 A 
ATOM     34  C   UNL     1      19.495  46.491  78.830  1.00  0.00     0.134 A 
ATOM     35  C   UNL     1      18.266  49.020  78.894  1.00  0.00     0.094 A 
ATOM     36  C   UNL     1      19.687  47.350  79.923  1.00  0.00     0.093 A 
ATOM     37  C   UNL     1      19.084  48.610  79.953  1.00  0.00     0.123 A 
BRANCH  28  38
ATOM     38  C   UNL     1      16.157  48.424  74.676  1.00  0.00     0.025 A 
ATOM     39  C   UNL     1      14.763  48.351  74.827  1.00  0.00     0.062 A 
ATOM     40  C   UNL     1      16.692  49.015  73.522  1.00  0.00     0.016 A 
ATOM     41  C   UNL     1      13.912  48.867  73.843  1.00  0.00     0.158 A 
ATOM     42  C   UNL     1      15.845  49.507  72.523  1.00  0.00     0.051 A 
ATOM     43  C   UNL     1      14.453  49.444  72.682  1.00  0.00     0.157 A 
BRANCH  41  44
ATOM     44  O   UNL     1      12.530  48.803  74.040  1.00  0.00    -0.504 OA
ATOM     45  H   UNL     1      11.928  48.278  73.422  1.00  0.00     0.293 HD
ENDBRANCH  41  44
BRANCH  43  46
ATOM     46  O   UNL     1      13.608  49.948  71.694  1.00  0.00    -0.504 OA
ATOM     47  H   UNL     1      12.698  49.539  71.517  1.00  0.00     0.293 HD
ENDBRANCH  43  46
ENDBRANCH  28  38
BRANCH  34  48
ATOM     48  O   UNL     1      20.125  45.244  78.818  1.00  0.00    -0.507 OA
ATOM     49  H   UNL     1      19.991  44.583  78.061  1.00  0.00     0.293 HD
ENDBRANCH  34  48
BRANCH  37  50
ATOM     50  O   UNL     1      19.314  49.454  81.036  1.00  0.00    -0.508 OA
ATOM     51  H   UNL     1      20.172  49.987  81.121  1.00  0.00     0.293 HD
ENDBRANCH  37  50
ENDBRANCH  26  27
ENDBRANCH   5  26
BRANCH   4  52
ATOM     52  O   UNL     1      14.965  45.677  72.753  1.00  0.00    -0.384 OA
ATOM     53  H   UNL     1      14.388  44.973  72.352  1.00  0.00     0.211 HD
ENDBRANCH   4  52
TORSDOF 16
ENDMDL
