MODEL 1
REMARK VINA RESULT:    -6.434      0.000      0.000
REMARK INTER + INTRA:         -11.292
REMARK INTER:                  -9.443
REMARK INTRA:                  -1.849
REMARK UNBOUND:                -1.849
REMARK SMILES C[C@@H]1O[C@@H](OC[C@@H]2O[C@H](Oc3c(-c4ccc(O)c(O)c4)oc4cc(O)cc(O)c4c3=O)[C@@H](O)[C@@H](O)[C@H]2O)[C@@H](O)[C@@H](O)[C@H]1O
REMARK SMILES IDX 7 1 36 2 34 3 32 4 9 5 8 6 6 7 5 8 4 9 1 10 2 11 42 12 3 13
REMARK SMILES IDX 40 14 38 15 43 16 41 18 39 20 37 22 35 24 10 26 11 27 12 28
REMARK SMILES IDX 30 29 21 30 29 31 31 32 22 33 27 34 23 35 26 36 24 37 13 38
REMARK SMILES IDX 20 39 14 40 18 41 15 42 16 43 19 44 17 46 28 48 25 50 33 52
REMARK H PARENT 43 17 41 19 39 21 37 23 35 25 19 45 17 47 28 49 25 51 33 53
REMARK Flexibility Score: inf
ROOT
ATOM      1  C   UNL     1      -0.824  12.733  -6.385  1.00  0.00     0.180 C 
ATOM      2  C   UNL     1      -1.060  12.175  -4.911  1.00  0.00     0.177 C 
ATOM      3  C   UNL     1      -1.748  10.828  -4.895  1.00  0.00     0.180 C 
ATOM      4  C   UNL     1      -1.403  10.084  -6.169  1.00  0.00     0.214 C 
ATOM      5  C   UNL     1      -2.196  11.030  -7.303  1.00  0.00     0.339 C 
ATOM      6  O   UNL     1      -1.754  12.363  -7.363  1.00  0.00    -0.332 OA
ENDROOT
BRANCH   1   7
ATOM      7  C   UNL     1      -0.911  14.220  -6.360  1.00  0.00     0.198 C 
BRANCH   7   8
ATOM      8  O   UNL     1      -1.379  14.790  -5.076  1.00  0.00    -0.347 OA
BRANCH   8   9
ATOM      9  C   UNL     1      -0.542  15.664  -4.163  1.00  0.00     0.281 C 
ATOM     10  C   UNL     1      -1.552  19.607  -2.943  1.00  0.00     0.041 C 
ATOM     11  C   UNL     1      -0.403  18.889  -3.561  1.00  0.00     0.150 C 
ATOM     12  C   UNL     1       1.488  18.943  -3.044  1.00  0.00     0.174 C 
ATOM     13  O   UNL     1      -1.144  17.323  -4.049  1.00  0.00    -0.344 OA
ATOM     14  C   UNL     1       2.419  17.080  -3.133  1.00  0.00     0.179 C 
ATOM     15  C   UNL     1       1.256  15.413  -3.750  1.00  0.00     0.202 C 
BRANCH  12  16
ATOM     16  O   UNL     1       2.270  19.987  -3.657  1.00  0.00    -0.388 OA
ATOM     17  H   UNL     1       2.561  19.690  -4.585  1.00  0.00     0.211 HD
ENDBRANCH  12  16
BRANCH  14  18
ATOM     18  O   UNL     1       3.729  17.000  -3.600  1.00  0.00    -0.387 OA
ATOM     19  H   UNL     1       4.463  16.679  -2.965  1.00  0.00     0.211 HD
ENDBRANCH  14  18
BRANCH  15  20
ATOM     20  O   UNL     1       1.759  14.563  -4.746  1.00  0.00    -0.385 OA
ATOM     21  H   UNL     1       1.608  15.088  -5.562  1.00  0.00     0.211 HD
ENDBRANCH  15  20
ENDBRANCH   8   9
ENDBRANCH   7   8
ENDBRANCH   1   7
BRANCH   2  22
ATOM     22  O   UNL     1       0.136  11.962  -4.210  1.00  0.00    -0.387 OA
ATOM     23  H   UNL     1       0.015  12.107  -3.233  1.00  0.00     0.211 HD
ENDBRANCH   2  22
BRANCH   3  24
ATOM     24  O   UNL     1      -1.881  10.252  -3.607  1.00  0.00    -0.387 OA
ATOM     25  H   UNL     1      -2.049   9.295  -3.711  1.00  0.00     0.211 HD
ENDBRANCH   3  24
BRANCH   5  26
ATOM     26  O   UNL     1      -3.682  11.182  -7.368  1.00  0.00    -0.454 OA
BRANCH  26  27
ATOM     27  C   UNL     1      -4.755  10.298  -6.926  1.00  0.00     0.214 A 
ATOM     28  C   UNL     1      -4.958   9.417  -5.609  1.00  0.00     0.180 A 
ATOM     29  C   UNL     1      -5.987  10.729  -7.511  1.00  0.00     0.239 A 
ATOM     30  O   UNL     1      -6.075  10.138  -5.098  1.00  0.00    -0.452 OA
ATOM     31  C   UNL     1      -6.664  11.622  -6.789  1.00  0.00     0.111 A 
ATOM     32  O   UNL     1      -6.735   9.898  -8.077  1.00  0.00    -0.285 OA
ATOM     33  C   UNL     1      -6.619  11.283  -5.448  1.00  0.00     0.146 A 
ATOM     34  C   UNL     1      -6.949  12.963  -7.186  1.00  0.00     0.134 A 
ATOM     35  C   UNL     1      -6.883  12.203  -4.450  1.00  0.00     0.094 A 
ATOM     36  C   UNL     1      -7.075  13.897  -6.166  1.00  0.00     0.093 A 
ATOM     37  C   UNL     1      -6.973  13.550  -4.786  1.00  0.00     0.123 A 
BRANCH  28  38
ATOM     38  C   UNL     1      -3.749   7.443  -4.215  1.00  0.00     0.025 A 
ATOM     39  C   UNL     1      -2.195   6.764  -3.999  1.00  0.00     0.062 A 
ATOM     40  C   UNL     1      -4.322   6.439  -3.050  1.00  0.00     0.016 A 
ATOM     41  C   UNL     1      -2.034   5.417  -3.860  1.00  0.00     0.158 A 
ATOM     42  C   UNL     1      -4.097   4.977  -3.328  1.00  0.00     0.051 A 
ATOM     43  C   UNL     1      -3.060   4.566  -4.127  1.00  0.00     0.157 A 
BRANCH  41  44
ATOM     44  O   UNL     1      -1.165   4.893  -2.876  1.00  0.00    -0.504 OA
ATOM     45  H   UNL     1      -0.442   5.469  -2.422  1.00  0.00     0.293 HD
ENDBRANCH  41  44
BRANCH  43  46
ATOM     46  O   UNL     1      -2.921   3.237  -4.740  1.00  0.00    -0.504 OA
ATOM     47  H   UNL     1      -2.290   2.539  -4.298  1.00  0.00     0.293 HD
ENDBRANCH  43  46
ENDBRANCH  28  38
BRANCH  34  48
ATOM     48  O   UNL     1      -6.991  13.273  -8.540  1.00  0.00    -0.507 OA
ATOM     49  H   UNL     1      -6.592  12.703  -9.222  1.00  0.00     0.293 HD
ENDBRANCH  34  48
BRANCH  37  50
ATOM     50  O   UNL     1      -7.125  14.599  -3.832  1.00  0.00    -0.508 OA
ATOM     51  H   UNL     1      -6.307  15.213  -3.650  1.00  0.00     0.293 HD
ENDBRANCH  37  50
ENDBRANCH  26  27
ENDBRANCH   5  26
BRANCH   4  52
ATOM     52  O   UNL     1      -0.080  10.067  -6.551  1.00  0.00    -0.384 OA
ATOM     53  H   UNL     1       0.400  11.023  -6.462  1.00  0.00     0.211 HD
ENDBRANCH   4  52
TORSDOF 16
ENDMDL
MODEL 2
REMARK VINA RESULT:    -6.221      3.061      5.442
REMARK INTER + INTRA:         -10.979
REMARK INTER:                  -9.284
REMARK INTRA:                  -1.695
REMARK UNBOUND:                -1.849
REMARK SMILES C[C@@H]1O[C@@H](OC[C@@H]2O[C@H](Oc3c(-c4ccc(O)c(O)c4)oc4cc(O)cc(O)c4c3=O)[C@@H](O)[C@@H](O)[C@H]2O)[C@@H](O)[C@@H](O)[C@H]1O
REMARK SMILES IDX 7 1 36 2 34 3 32 4 9 5 8 6 6 7 5 8 4 9 1 10 2 11 42 12 3 13
REMARK SMILES IDX 40 14 38 15 43 16 41 18 39 20 37 22 35 24 10 26 11 27 12 28
REMARK SMILES IDX 30 29 21 30 29 31 31 32 22 33 27 34 23 35 26 36 24 37 13 38
REMARK SMILES IDX 20 39 14 40 18 41 15 42 16 43 19 44 17 46 28 48 25 50 33 52
REMARK H PARENT 43 17 41 19 39 21 37 23 35 25 19 45 17 47 28 49 25 51 33 53
REMARK Flexibility Score: inf
ROOT
ATOM      1  C   UNL     1      -2.916  11.981  -4.543  1.00  0.00     0.180 C 
ATOM      2  C   UNL     1      -4.068  13.042  -4.248  1.00  0.00     0.177 C 
ATOM      3  C   UNL     1      -5.424  12.590  -4.743  1.00  0.00     0.180 C 
ATOM      4  C   UNL     1      -5.474  11.077  -4.728  1.00  0.00     0.214 C 
ATOM      5  C   UNL     1      -4.365  10.719  -5.933  1.00  0.00     0.339 C 
ATOM      6  O   UNL     1      -3.061  11.181  -5.682  1.00  0.00    -0.332 OA
ENDROOT
BRANCH   1   7
ATOM      7  C   UNL     1      -1.637  12.707  -4.783  1.00  0.00     0.198 C 
BRANCH   7   8
ATOM      8  O   UNL     1      -0.785  12.870  -3.583  1.00  0.00    -0.347 OA
BRANCH   8   9
ATOM      9  C   UNL     1      -0.051  14.144  -3.211  1.00  0.00     0.281 C 
ATOM     10  C   UNL     1      -1.827  17.991  -2.887  1.00  0.00     0.041 C 
ATOM     11  C   UNL     1      -0.675  17.347  -3.577  1.00  0.00     0.150 C 
ATOM     12  C   UNL     1       1.194  17.938  -3.637  1.00  0.00     0.174 C 
ATOM     13  O   UNL     1      -1.045  15.595  -3.394  1.00  0.00    -0.344 OA
ATOM     14  C   UNL     1       2.558  16.371  -3.467  1.00  0.00     0.179 C 
ATOM     15  C   UNL     1       1.792  14.400  -3.259  1.00  0.00     0.202 C 
BRANCH  12  16
ATOM     16  O   UNL     1       1.522  18.850  -4.703  1.00  0.00    -0.388 OA
ATOM     17  H   UNL     1       0.840  19.605  -4.723  1.00  0.00     0.211 HD
ENDBRANCH  12  16
BRANCH  14  18
ATOM     18  O   UNL     1       3.719  16.397  -4.237  1.00  0.00    -0.387 OA
ATOM     19  H   UNL     1       3.855  15.682  -4.954  1.00  0.00     0.211 HD
ENDBRANCH  14  18
BRANCH  15  20
ATOM     20  O   UNL     1       2.296  13.383  -4.083  1.00  0.00    -0.385 OA
ATOM     21  H   UNL     1       2.224  12.594  -3.504  1.00  0.00     0.211 HD
ENDBRANCH  15  20
ENDBRANCH   8   9
ENDBRANCH   7   8
ENDBRANCH   1   7
BRANCH   2  22
ATOM     22  O   UNL     1      -4.258  13.274  -2.878  1.00  0.00    -0.387 OA
ATOM     23  H   UNL     1      -5.192  13.073  -2.603  1.00  0.00     0.211 HD
ENDBRANCH   2  22
BRANCH   3  24
ATOM     24  O   UNL     1      -6.490  13.460  -4.407  1.00  0.00    -0.387 OA
ATOM     25  H   UNL     1      -6.789  13.249  -3.501  1.00  0.00     0.211 HD
ENDBRANCH   3  24
BRANCH   5  26
ATOM     26  O   UNL     1      -4.558  11.068  -7.373  1.00  0.00    -0.454 OA
BRANCH  26  27
ATOM     27  C   UNL     1      -3.637  11.016  -8.503  1.00  0.00     0.214 A 
ATOM     28  C   UNL     1      -2.188  10.370  -8.690  1.00  0.00     0.180 A 
ATOM     29  C   UNL     1      -4.385  11.082  -9.721  1.00  0.00     0.239 A 
ATOM     30  O   UNL     1      -2.567   9.388  -9.650  1.00  0.00    -0.452 OA
ATOM     31  C   UNL     1      -4.767   9.898 -10.204  1.00  0.00     0.111 A 
ATOM     32  O   UNL     1      -4.047  11.885 -10.621  1.00  0.00    -0.285 OA
ATOM     33  C   UNL     1      -3.742   8.978 -10.074  1.00  0.00     0.146 A 
ATOM     34  C   UNL     1      -6.117   9.461 -10.351  1.00  0.00     0.134 A 
ATOM     35  C   UNL     1      -3.972   7.615 -10.119  1.00  0.00     0.094 A 
ATOM     36  C   UNL     1      -6.338   8.094 -10.256  1.00  0.00     0.093 A 
ATOM     37  C   UNL     1      -5.283   7.153 -10.067  1.00  0.00     0.123 A 
BRANCH  28  38
ATOM     38  C   UNL     1       0.290  10.463  -7.616  1.00  0.00     0.025 A 
ATOM     39  C   UNL     1       1.303  11.550  -6.771  1.00  0.00     0.062 A 
ATOM     40  C   UNL     1       1.431   9.296  -7.433  1.00  0.00     0.016 A 
ATOM     41  C   UNL     1       2.642  11.599  -7.027  1.00  0.00     0.158 A 
ATOM     42  C   UNL     1       2.779   9.656  -7.997  1.00  0.00     0.051 A 
ATOM     43  C   UNL     1       3.164  10.968  -8.113  1.00  0.00     0.157 A 
BRANCH  41  44
ATOM     44  O   UNL     1       3.576  11.670  -5.968  1.00  0.00    -0.504 OA
ATOM     45  H   UNL     1       4.326  10.974  -5.853  1.00  0.00     0.293 HD
ENDBRANCH  41  44
BRANCH  43  46
ATOM     46  O   UNL     1       4.280  11.468  -8.929  1.00  0.00    -0.504 OA
ATOM     47  H   UNL     1       4.078  12.103  -9.727  1.00  0.00     0.293 HD
ENDBRANCH  43  46
ENDBRANCH  28  38
BRANCH  34  48
ATOM     48  O   UNL     1      -7.125  10.409 -10.483  1.00  0.00    -0.507 OA
ATOM     49  H   UNL     1      -6.944  11.365 -10.530  1.00  0.00     0.293 HD
ENDBRANCH  34  48
BRANCH  37  50
ATOM     50  O   UNL     1      -5.638   5.774  -9.989  1.00  0.00    -0.508 OA
ATOM     51  H   UNL     1      -6.594   5.501 -10.286  1.00  0.00     0.293 HD
ENDBRANCH  37  50
ENDBRANCH  26  27
ENDBRANCH   5  26
BRANCH   4  52
ATOM     52  O   UNL     1      -5.018  10.441  -3.595  1.00  0.00    -0.384 OA
ATOM     53  H   UNL     1      -4.376  11.056  -2.992  1.00  0.00     0.211 HD
ENDBRANCH   4  52
TORSDOF 16
ENDMDL
MODEL 3
REMARK VINA RESULT:    -6.151      1.366      2.016
REMARK INTER + INTRA:         -10.876
REMARK INTER:                  -9.218
REMARK INTRA:                  -1.658
REMARK UNBOUND:                -1.849
REMARK SMILES C[C@@H]1O[C@@H](OC[C@@H]2O[C@H](Oc3c(-c4ccc(O)c(O)c4)oc4cc(O)cc(O)c4c3=O)[C@@H](O)[C@@H](O)[C@H]2O)[C@@H](O)[C@@H](O)[C@H]1O
REMARK SMILES IDX 7 1 36 2 34 3 32 4 9 5 8 6 6 7 5 8 4 9 1 10 2 11 42 12 3 13
REMARK SMILES IDX 40 14 38 15 43 16 41 18 39 20 37 22 35 24 10 26 11 27 12 28
REMARK SMILES IDX 30 29 21 30 29 31 31 32 22 33 27 34 23 35 26 36 24 37 13 38
REMARK SMILES IDX 20 39 14 40 18 41 15 42 16 43 19 44 17 46 28 48 25 50 33 52
REMARK H PARENT 43 17 41 19 39 21 37 23 35 25 19 45 17 47 28 49 25 51 33 53
REMARK Flexibility Score: inf
ROOT
ATOM      1  C   UNL     1      -2.140  12.288  -5.833  1.00  0.00     0.180 C 
ATOM      2  C   UNL     1      -0.745  11.747  -6.381  1.00  0.00     0.177 C 
ATOM      3  C   UNL     1      -0.753  11.505  -7.874  1.00  0.00     0.180 C 
ATOM      4  C   UNL     1      -1.748  12.447  -8.520  1.00  0.00     0.214 C 
ATOM      5  C   UNL     1      -3.187  11.839  -7.913  1.00  0.00     0.339 C 
ATOM      6  O   UNL     1      -3.293  11.879  -6.512  1.00  0.00    -0.332 OA
ENDROOT
BRANCH   1   7
ATOM      7  C   UNL     1      -2.347  11.780  -4.448  1.00  0.00     0.198 C 
BRANCH   7   8
ATOM      8  O   UNL     1      -2.455  12.834  -3.414  1.00  0.00    -0.347 OA
BRANCH   8   9
ATOM      9  C   UNL     1      -1.331  13.770  -3.013  1.00  0.00     0.281 C 
ATOM     10  C   UNL     1      -1.569  18.012  -2.977  1.00  0.00     0.041 C 
ATOM     11  C   UNL     1      -0.690  16.948  -3.534  1.00  0.00     0.150 C 
ATOM     12  C   UNL     1       1.264  16.806  -3.433  1.00  0.00     0.174 C 
ATOM     13  O   UNL     1      -1.697  15.470  -3.333  1.00  0.00    -0.344 OA
ATOM     14  C   UNL     1       1.930  14.861  -3.086  1.00  0.00     0.179 C 
ATOM     15  C   UNL     1       0.473  13.327  -2.892  1.00  0.00     0.202 C 
BRANCH  12  16
ATOM     16  O   UNL     1       1.990  17.463  -4.490  1.00  0.00    -0.388 OA
ATOM     17  H   UNL     1       2.975  17.515  -4.242  1.00  0.00     0.211 HD
ENDBRANCH  12  16
BRANCH  14  18
ATOM     18  O   UNL     1       3.074  14.410  -3.742  1.00  0.00    -0.387 OA
ATOM     19  H   UNL     1       3.934  14.959  -3.674  1.00  0.00     0.211 HD
ENDBRANCH  14  18
BRANCH  15  20
ATOM     20  O   UNL     1       0.625  12.146  -3.633  1.00  0.00    -0.385 OA
ATOM     21  H   UNL     1       0.744  12.489  -4.545  1.00  0.00     0.211 HD
ENDBRANCH  15  20
ENDBRANCH   8   9
ENDBRANCH   7   8
ENDBRANCH   1   7
BRANCH   2  22
ATOM     22  O   UNL     1       0.307  12.654  -6.182  1.00  0.00    -0.387 OA
ATOM     23  H   UNL     1       1.148  12.330  -6.604  1.00  0.00     0.211 HD
ENDBRANCH   2  22
BRANCH   3  24
ATOM     24  O   UNL     1       0.500  11.123  -8.414  1.00  0.00    -0.387 OA
ATOM     25  H   UNL     1       1.196  11.667  -7.995  1.00  0.00     0.211 HD
ENDBRANCH   3  24
BRANCH   5  26
ATOM     26  O   UNL     1      -3.720  10.480  -8.236  1.00  0.00    -0.454 OA
BRANCH  26  27
ATOM     27  C   UNL     1      -4.751   9.677  -7.589  1.00  0.00     0.214 A 
ATOM     28  C   UNL     1      -4.863   9.028  -6.134  1.00  0.00     0.180 A 
ATOM     29  C   UNL     1      -6.022   9.995  -8.163  1.00  0.00     0.239 A 
ATOM     30  O   UNL     1      -5.961   9.818  -5.685  1.00  0.00    -0.452 OA
ATOM     31  C   UNL     1      -6.670  10.993  -7.561  1.00  0.00     0.111 A 
ATOM     32  O   UNL     1      -6.788   9.076  -8.536  1.00  0.00    -0.285 OA
ATOM     33  C   UNL     1      -6.543  10.883  -6.188  1.00  0.00     0.146 A 
ATOM     34  C   UNL     1      -6.999  12.246  -8.159  1.00  0.00     0.134 A 
ATOM     35  C   UNL     1      -6.763  11.957  -5.344  1.00  0.00     0.094 A 
ATOM     36  C   UNL     1      -7.081  13.337  -7.304  1.00  0.00     0.093 A 
ATOM     37  C   UNL     1      -6.894  13.228  -5.894  1.00  0.00     0.123 A 
BRANCH  28  38
ATOM     38  C   UNL     1      -3.544   7.324  -4.503  1.00  0.00     0.025 A 
ATOM     39  C   UNL     1      -1.956   6.752  -4.227  1.00  0.00     0.062 A 
ATOM     40  C   UNL     1      -4.053   6.466  -3.199  1.00  0.00     0.016 A 
ATOM     41  C   UNL     1      -1.730   5.446  -3.905  1.00  0.00     0.158 A 
ATOM     42  C   UNL     1      -3.763   4.992  -3.277  1.00  0.00     0.051 A 
ATOM     43  C   UNL     1      -2.718   4.520  -4.032  1.00  0.00     0.157 A 
BRANCH  41  44
ATOM     44  O   UNL     1      -0.824   5.104  -2.876  1.00  0.00    -0.504 OA
ATOM     45  H   UNL     1      -0.110   5.762  -2.535  1.00  0.00     0.293 HD
ENDBRANCH  41  44
BRANCH  43  46
ATOM     46  O   UNL     1      -2.525   3.127  -4.458  1.00  0.00    -0.504 OA
ATOM     47  H   UNL     1      -3.316   2.620  -4.902  1.00  0.00     0.293 HD
ENDBRANCH  43  46
ENDBRANCH  28  38
BRANCH  34  48
ATOM     48  O   UNL     1      -7.124  12.324  -9.541  1.00  0.00    -0.507 OA
ATOM     49  H   UNL     1      -7.410  13.135  -9.998  1.00  0.00     0.293 HD
ENDBRANCH  34  48
BRANCH  37  50
ATOM     50  O   UNL     1      -7.007  14.421  -5.122  1.00  0.00    -0.508 OA
ATOM     51  H   UNL     1      -6.292  15.160  -5.261  1.00  0.00     0.293 HD
ENDBRANCH  37  50
ENDBRANCH  26  27
ENDBRANCH   5  26
BRANCH   4  52
ATOM     52  O   UNL     1      -1.706  13.769  -8.137  1.00  0.00    -0.384 OA
ATOM     53  H   UNL     1      -2.024  13.928  -7.124  1.00  0.00     0.211 HD
ENDBRANCH   4  52
TORSDOF 16
ENDMDL
MODEL 4
REMARK VINA RESULT:    -6.070      3.315      8.192
REMARK INTER + INTRA:         -10.758
REMARK INTER:                  -8.349
REMARK INTRA:                  -2.409
REMARK UNBOUND:                -1.849
REMARK SMILES C[C@@H]1O[C@@H](OC[C@@H]2O[C@H](Oc3c(-c4ccc(O)c(O)c4)oc4cc(O)cc(O)c4c3=O)[C@@H](O)[C@@H](O)[C@H]2O)[C@@H](O)[C@@H](O)[C@H]1O
REMARK SMILES IDX 7 1 36 2 34 3 32 4 9 5 8 6 6 7 5 8 4 9 1 10 2 11 42 12 3 13
REMARK SMILES IDX 40 14 38 15 43 16 41 18 39 20 37 22 35 24 10 26 11 27 12 28
REMARK SMILES IDX 30 29 21 30 29 31 31 32 22 33 27 34 23 35 26 36 24 37 13 38
REMARK SMILES IDX 20 39 14 40 18 41 15 42 16 43 19 44 17 46 28 48 25 50 33 52
REMARK H PARENT 43 17 41 19 39 21 37 23 35 25 19 45 17 47 28 49 25 51 33 53
REMARK Flexibility Score: inf
ROOT
ATOM      1  C   UNL     1      -2.339  11.464  -4.256  1.00  0.00     0.180 C 
ATOM      2  C   UNL     1      -1.634  12.670  -5.021  1.00  0.00     0.177 C 
ATOM      3  C   UNL     1      -2.583  13.432  -5.919  1.00  0.00     0.180 C 
ATOM      4  C   UNL     1      -3.984  13.331  -5.353  1.00  0.00     0.214 C 
ATOM      5  C   UNL     1      -4.292  11.699  -5.581  1.00  0.00     0.339 C 
ATOM      6  O   UNL     1      -3.412  10.839  -4.902  1.00  0.00    -0.332 OA
ENDROOT
BRANCH   1   7
ATOM      7  C   UNL     1      -1.352  10.364  -4.069  1.00  0.00     0.198 C 
BRANCH   7   8
ATOM      8  O   UNL     1      -1.586   9.520  -2.875  1.00  0.00    -0.347 OA
BRANCH   8   9
ATOM      9  C   UNL     1      -2.206   8.137  -2.904  1.00  0.00     0.281 C 
ATOM     10  C   UNL     1      -0.163   4.556  -3.934  1.00  0.00     0.041 C 
ATOM     11  C   UNL     1      -1.402   5.286  -4.321  1.00  0.00     0.150 C 
ATOM     12  C   UNL     1      -3.227   4.587  -4.480  1.00  0.00     0.174 C 
ATOM     13  O   UNL     1      -1.135   6.911  -3.596  1.00  0.00    -0.344 OA
ATOM     14  C   UNL     1      -4.675   5.894  -3.745  1.00  0.00     0.179 C 
ATOM     15  C   UNL     1      -4.027   7.753  -2.943  1.00  0.00     0.202 C 
BRANCH  12  16
ATOM     16  O   UNL     1      -3.573   4.040  -5.768  1.00  0.00    -0.388 OA
ATOM     17  H   UNL     1      -4.433   4.472  -6.098  1.00  0.00     0.211 HD
ENDBRANCH  12  16
BRANCH  14  18
ATOM     18  O   UNL     1      -5.885   6.017  -4.424  1.00  0.00    -0.387 OA
ATOM     19  H   UNL     1      -6.556   5.246  -4.385  1.00  0.00     0.211 HD
ENDBRANCH  14  18
BRANCH  15  20
ATOM     20  O   UNL     1      -4.655   8.933  -3.367  1.00  0.00    -0.385 OA
ATOM     21  H   UNL     1      -3.975   9.612  -3.166  1.00  0.00     0.211 HD
ENDBRANCH  15  20
ENDBRANCH   8   9
ENDBRANCH   7   8
ENDBRANCH   1   7
BRANCH   2  22
ATOM     22  O   UNL     1      -1.123  13.644  -4.150  1.00  0.00    -0.387 OA
ATOM     23  H   UNL     1      -0.876  13.249  -3.271  1.00  0.00     0.211 HD
ENDBRANCH   2  22
BRANCH   3  24
ATOM     24  O   UNL     1      -2.016  14.576  -6.535  1.00  0.00    -0.387 OA
ATOM     25  H   UNL     1      -1.688  15.174  -5.836  1.00  0.00     0.211 HD
ENDBRANCH   3  24
BRANCH   5  26
ATOM     26  O   UNL     1      -4.401  11.052  -6.924  1.00  0.00    -0.454 OA
BRANCH  26  27
ATOM     27  C   UNL     1      -3.538  11.129  -8.097  1.00  0.00     0.214 A 
ATOM     28  C   UNL     1      -2.106  10.504  -8.430  1.00  0.00     0.180 A 
ATOM     29  C   UNL     1      -4.345  11.339  -9.260  1.00  0.00     0.239 A 
ATOM     30  O   UNL     1      -2.541   9.643  -9.478  1.00  0.00    -0.452 OA
ATOM     31  C   UNL     1      -4.761  10.222  -9.858  1.00  0.00     0.111 A 
ATOM     32  O   UNL     1      -4.044  12.241 -10.076  1.00  0.00    -0.285 OA
ATOM     33  C   UNL     1      -3.739   9.289  -9.887  1.00  0.00     0.146 A 
ATOM     34  C   UNL     1      -6.120   9.809  -9.987  1.00  0.00     0.134 A 
ATOM     35  C   UNL     1      -3.983   7.941 -10.080  1.00  0.00     0.094 A 
ATOM     36  C   UNL     1      -6.349   8.441 -10.041  1.00  0.00     0.093 A 
ATOM     37  C   UNL     1      -5.294   7.481 -10.016  1.00  0.00     0.123 A 
BRANCH  28  38
ATOM     38  C   UNL     1       0.423  10.463  -7.478  1.00  0.00     0.025 A 
ATOM     39  C   UNL     1       1.496  11.453  -6.589  1.00  0.00     0.062 A 
ATOM     40  C   UNL     1       1.550   9.269  -7.462  1.00  0.00     0.016 A 
ATOM     41  C   UNL     1       2.821  11.507  -6.906  1.00  0.00     0.158 A 
ATOM     42  C   UNL     1       2.875   9.661  -8.057  1.00  0.00     0.051 A 
ATOM     43  C   UNL     1       3.278  10.973  -8.070  1.00  0.00     0.157 A 
BRANCH  41  44
ATOM     44  O   UNL     1       3.807  11.467  -5.893  1.00  0.00    -0.504 OA
ATOM     45  H   UNL     1       3.774  12.090  -5.075  1.00  0.00     0.293 HD
ENDBRANCH  41  44
BRANCH  43  46
ATOM     46  O   UNL     1       4.362  11.532  -8.892  1.00  0.00    -0.504 OA
ATOM     47  H   UNL     1       4.159  11.814  -9.872  1.00  0.00     0.293 HD
ENDBRANCH  43  46
ENDBRANCH  28  38
BRANCH  34  48
ATOM     48  O   UNL     1      -7.124  10.769  -9.957  1.00  0.00    -0.507 OA
ATOM     49  H   UNL     1      -7.699  10.905  -9.183  1.00  0.00     0.293 HD
ENDBRANCH  34  48
BRANCH  37  50
ATOM     50  O   UNL     1      -5.657   6.103 -10.082  1.00  0.00    -0.508 OA
ATOM     51  H   UNL     1      -5.571   5.536  -9.217  1.00  0.00     0.293 HD
ENDBRANCH  37  50
ENDBRANCH  26  27
ENDBRANCH   5  26
BRANCH   4  52
ATOM     52  O   UNL     1      -4.138  13.559  -4.004  1.00  0.00    -0.384 OA
ATOM     53  H   UNL     1      -3.207  13.595  -3.470  1.00  0.00     0.211 HD
ENDBRANCH   4  52
TORSDOF 16
ENDMDL
MODEL 5
REMARK VINA RESULT:    -4.661      2.643      4.358
REMARK INTER + INTRA:          -8.690
REMARK INTER:                  -7.786
REMARK INTRA:                  -0.904
REMARK UNBOUND:                -1.849
REMARK SMILES C[C@@H]1O[C@@H](OC[C@@H]2O[C@H](Oc3c(-c4ccc(O)c(O)c4)oc4cc(O)cc(O)c4c3=O)[C@@H](O)[C@@H](O)[C@H]2O)[C@@H](O)[C@@H](O)[C@H]1O
REMARK SMILES IDX 7 1 36 2 34 3 32 4 9 5 8 6 6 7 5 8 4 9 1 10 2 11 42 12 3 13
REMARK SMILES IDX 40 14 38 15 43 16 41 18 39 20 37 22 35 24 10 26 11 27 12 28
REMARK SMILES IDX 30 29 21 30 29 31 31 32 22 33 27 34 23 35 26 36 24 37 13 38
REMARK SMILES IDX 20 39 14 40 18 41 15 42 16 43 19 44 17 46 28 48 25 50 33 52
REMARK H PARENT 43 17 41 19 39 21 37 23 35 25 19 45 17 47 28 49 25 51 33 53
REMARK Flexibility Score: inf
ROOT
ATOM      1  C   UNL     1      -1.468  13.021  -7.374  1.00  0.00     0.180 C 
ATOM      2  C   UNL     1      -1.425  11.431  -7.279  1.00  0.00     0.177 C 
ATOM      3  C   UNL     1      -2.712  10.779  -7.735  1.00  0.00     0.180 C 
ATOM      4  C   UNL     1      -3.378  11.671  -8.762  1.00  0.00     0.214 C 
ATOM      5  C   UNL     1      -3.799  12.982  -7.807  1.00  0.00     0.339 C 
ATOM      6  O   UNL     1      -2.713  13.636  -7.202  1.00  0.00    -0.332 OA
ENDROOT
BRANCH   1   7
ATOM      7  C   UNL     1      -0.637  13.595  -6.279  1.00  0.00     0.198 C 
BRANCH   7   8
ATOM      8  O   UNL     1      -1.326  14.607  -5.447  1.00  0.00    -0.347 OA
BRANCH   8   9
ATOM      9  C   UNL     1      -0.630  15.560  -4.494  1.00  0.00     0.281 C 
ATOM     10  C   UNL     1      -1.721  19.617  -3.855  1.00  0.00     0.041 C 
ATOM     11  C   UNL     1      -0.505  18.828  -4.195  1.00  0.00     0.150 C 
ATOM     12  C   UNL     1       1.273  18.913  -3.370  1.00  0.00     0.174 C 
ATOM     13  O   UNL     1      -1.196  17.229  -4.646  1.00  0.00    -0.344 OA
ATOM     14  C   UNL     1       2.153  17.041  -3.117  1.00  0.00     0.179 C 
ATOM     15  C   UNL     1       1.064  15.332  -3.758  1.00  0.00     0.202 C 
BRANCH  12  16
ATOM     16  O   UNL     1       2.175  19.881  -3.940  1.00  0.00    -0.388 OA
ATOM     17  H   UNL     1       2.758  19.428  -4.640  1.00  0.00     0.211 HD
ENDBRANCH  12  16
BRANCH  14  18
ATOM     18  O   UNL     1       3.520  16.899  -3.344  1.00  0.00    -0.387 OA
ATOM     19  H   UNL     1       3.931  15.963  -3.329  1.00  0.00     0.211 HD
ENDBRANCH  14  18
BRANCH  15  20
ATOM     20  O   UNL     1       1.704  14.381  -4.566  1.00  0.00    -0.385 OA
ATOM     21  H   UNL     1       1.957  13.692  -3.913  1.00  0.00     0.211 HD
ENDBRANCH  15  20
ENDBRANCH   8   9
ENDBRANCH   7   8
ENDBRANCH   1   7
BRANCH   2  22
ATOM     22  O   UNL     1      -0.439  10.862  -8.098  1.00  0.00    -0.387 OA
ATOM     23  H   UNL     1       0.069  10.156  -7.616  1.00  0.00     0.211 HD
ENDBRANCH   2  22
BRANCH   3  24
ATOM     24  O   UNL     1      -2.674   9.363  -7.764  1.00  0.00    -0.387 OA
ATOM     25  H   UNL     1      -3.538   9.024  -7.459  1.00  0.00     0.211 HD
ENDBRANCH   3  24
BRANCH   5  26
ATOM     26  O   UNL     1      -4.795  12.915  -6.694  1.00  0.00    -0.454 OA
BRANCH  26  27
ATOM     27  C   UNL     1      -5.296  11.782  -5.924  1.00  0.00     0.214 A 
ATOM     28  C   UNL     1      -5.244  10.203  -6.163  1.00  0.00     0.180 A 
ATOM     29  C   UNL     1      -5.344  12.141  -4.540  1.00  0.00     0.239 A 
ATOM     30  O   UNL     1      -4.409   9.895  -5.050  1.00  0.00    -0.452 OA
ATOM     31  C   UNL     1      -4.226  11.883  -3.859  1.00  0.00     0.111 A 
ATOM     32  O   UNL     1      -6.379  11.918  -3.871  1.00  0.00    -0.285 OA
ATOM     33  C   UNL     1      -3.712  10.655  -4.235  1.00  0.00     0.146 A 
ATOM     34  C   UNL     1      -3.387  12.861  -3.245  1.00  0.00     0.134 A 
ATOM     35  C   UNL     1      -2.393  10.310  -4.000  1.00  0.00     0.094 A 
ATOM     36  C   UNL     1      -2.039  12.544  -3.145  1.00  0.00     0.093 A 
ATOM     37  C   UNL     1      -1.505  11.297  -3.585  1.00  0.00     0.123 A 
BRANCH  28  38
ATOM     38  C   UNL     1      -5.970   8.346  -7.986  1.00  0.00     0.025 A 
ATOM     39  C   UNL     1      -5.630   6.721  -8.397  1.00  0.00     0.062 A 
ATOM     40  C   UNL     1      -7.125   8.373  -9.153  1.00  0.00     0.016 A 
ATOM     41  C   UNL     1      -5.554   6.332  -9.702  1.00  0.00     0.158 A 
ATOM     42  C   UNL     1      -6.621   8.038 -10.530  1.00  0.00     0.051 A 
ATOM     43  C   UNL     1      -5.506   7.256 -10.699  1.00  0.00     0.157 A 
BRANCH  41  44
ATOM     44  O   UNL     1      -6.165   5.132 -10.133  1.00  0.00    -0.504 OA
ATOM     45  H   UNL     1      -7.089   4.836  -9.790  1.00  0.00     0.293 HD
ENDBRANCH  41  44
BRANCH  43  46
ATOM     46  O   UNL     1      -4.726   7.126 -11.939  1.00  0.00    -0.504 OA
ATOM     47  H   UNL     1      -4.823   6.262 -12.508  1.00  0.00     0.293 HD
ENDBRANCH  43  46
ENDBRANCH  28  38
BRANCH  34  48
ATOM     48  O   UNL     1      -3.933  14.084  -2.875  1.00  0.00    -0.507 OA
ATOM     49  H   UNL     1      -3.474  14.707  -2.284  1.00  0.00     0.293 HD
ENDBRANCH  34  48
BRANCH  37  50
ATOM     50  O   UNL     1      -0.104  11.089  -3.424  1.00  0.00    -0.508 OA
ATOM     51  H   UNL     1       0.336  10.310  -3.951  1.00  0.00     0.293 HD
ENDBRANCH  37  50
ENDBRANCH  26  27
ENDBRANCH   5  26
BRANCH   4  52
ATOM     52  O   UNL     1      -2.584  12.177  -9.768  1.00  0.00    -0.384 OA
ATOM     53  H   UNL     1      -3.073  12.930 -10.357  1.00  0.00     0.211 HD
ENDBRANCH   4  52
TORSDOF 16
ENDMDL
MODEL 6
REMARK VINA RESULT:    -4.586      3.028      5.731
REMARK INTER + INTRA:          -8.580
REMARK INTER:                  -6.742
REMARK INTRA:                  -1.838
REMARK UNBOUND:                -1.849
REMARK SMILES C[C@@H]1O[C@@H](OC[C@@H]2O[C@H](Oc3c(-c4ccc(O)c(O)c4)oc4cc(O)cc(O)c4c3=O)[C@@H](O)[C@@H](O)[C@H]2O)[C@@H](O)[C@@H](O)[C@H]1O
REMARK SMILES IDX 7 1 36 2 34 3 32 4 9 5 8 6 6 7 5 8 4 9 1 10 2 11 42 12 3 13
REMARK SMILES IDX 40 14 38 15 43 16 41 18 39 20 37 22 35 24 10 26 11 27 12 28
REMARK SMILES IDX 30 29 21 30 29 31 31 32 22 33 27 34 23 35 26 36 24 37 13 38
REMARK SMILES IDX 20 39 14 40 18 41 15 42 16 43 19 44 17 46 28 48 25 50 33 52
REMARK H PARENT 43 17 41 19 39 21 37 23 35 25 19 45 17 47 28 49 25 51 33 53
REMARK Flexibility Score: inf
ROOT
ATOM      1  C   UNL     1      -2.471  11.447  -4.688  1.00  0.00     0.180 C 
ATOM      2  C   UNL     1      -3.478  12.608  -4.266  1.00  0.00     0.177 C 
ATOM      3  C   UNL     1      -4.890  12.369  -4.753  1.00  0.00     0.180 C 
ATOM      4  C   UNL     1      -5.125  10.877  -4.866  1.00  0.00     0.214 C 
ATOM      5  C   UNL     1      -4.095  10.497  -6.132  1.00  0.00     0.339 C 
ATOM      6  O   UNL     1      -2.740  10.775  -5.886  1.00  0.00    -0.332 OA
ENDROOT
BRANCH   1   7
ATOM      7  C   UNL     1      -1.119  12.033  -4.907  1.00  0.00     0.198 C 
BRANCH   7   8
ATOM      8  O   UNL     1      -0.739  13.086  -3.939  1.00  0.00    -0.347 OA
BRANCH   8   9
ATOM      9  C   UNL     1      -0.363  14.507  -4.312  1.00  0.00     0.281 C 
ATOM     10  C   UNL     1       3.605  15.943  -4.809  1.00  0.00     0.041 C 
ATOM     11  C   UNL     1       2.373  16.304  -4.055  1.00  0.00     0.150 C 
ATOM     12  C   UNL     1       1.489  18.050  -3.933  1.00  0.00     0.174 C 
ATOM     13  O   UNL     1       1.376  14.814  -4.209  1.00  0.00    -0.344 OA
ATOM     14  C   UNL     1      -0.591  17.926  -4.005  1.00  0.00     0.179 C 
ATOM     15  C   UNL     1      -1.469  16.000  -4.194  1.00  0.00     0.202 C 
BRANCH  12  16
ATOM     16  O   UNL     1       1.959  18.912  -2.878  1.00  0.00    -0.388 OA
ATOM     17  H   UNL     1       1.186  19.140  -2.258  1.00  0.00     0.211 HD
ENDBRANCH  12  16
BRANCH  14  18
ATOM     18  O   UNL     1      -1.348  18.763  -3.188  1.00  0.00    -0.387 OA
ATOM     19  H   UNL     1      -2.037  19.384  -3.618  1.00  0.00     0.211 HD
ENDBRANCH  14  18
BRANCH  15  20
ATOM     20  O   UNL     1      -2.507  15.636  -3.324  1.00  0.00    -0.385 OA
ATOM     21  H   UNL     1      -3.298  15.987  -3.787  1.00  0.00     0.211 HD
ENDBRANCH  15  20
ENDBRANCH   8   9
ENDBRANCH   7   8
ENDBRANCH   1   7
BRANCH   2  22
ATOM     22  O   UNL     1      -3.607  12.739  -2.875  1.00  0.00    -0.387 OA
ATOM     23  H   UNL     1      -4.338  13.370  -2.637  1.00  0.00     0.211 HD
ENDBRANCH   2  22
BRANCH   3  24
ATOM     24  O   UNL     1      -5.834  13.327  -4.307  1.00  0.00    -0.387 OA
ATOM     25  H   UNL     1      -5.557  14.208  -4.628  1.00  0.00     0.211 HD
ENDBRANCH   3  24
BRANCH   5  26
ATOM     26  O   UNL     1      -4.276  10.994  -7.531  1.00  0.00    -0.454 OA
BRANCH  26  27
ATOM     27  C   UNL     1      -3.444  10.836  -8.718  1.00  0.00     0.214 A 
ATOM     28  C   UNL     1      -2.049  10.102  -8.973  1.00  0.00     0.180 A 
ATOM     29  C   UNL     1      -4.276  10.885  -9.882  1.00  0.00     0.239 A 
ATOM     30  O   UNL     1      -2.549   9.098  -9.852  1.00  0.00    -0.452 OA
ATOM     31  C   UNL     1      -4.753   9.703 -10.275  1.00  0.00     0.111 A 
ATOM     32  O   UNL     1      -3.963  11.624 -10.844  1.00  0.00    -0.285 OA
ATOM     33  C   UNL     1      -3.771   8.735 -10.170  1.00  0.00     0.146 A 
ATOM     34  C   UNL     1      -6.131   9.336 -10.303  1.00  0.00     0.134 A 
ATOM     35  C   UNL     1      -4.074   7.386 -10.128  1.00  0.00     0.094 A 
ATOM     36  C   UNL     1      -6.416   7.989 -10.122  1.00  0.00     0.093 A 
ATOM     37  C   UNL     1      -5.401   7.001  -9.959  1.00  0.00     0.123 A 
BRANCH  28  38
ATOM     38  C   UNL     1       0.502  10.108  -8.083  1.00  0.00     0.025 A 
ATOM     39  C   UNL     1       1.512  10.998  -7.029  1.00  0.00     0.062 A 
ATOM     40  C   UNL     1       1.730   9.044  -8.320  1.00  0.00     0.016 A 
ATOM     41  C   UNL     1       2.817  11.236  -7.347  1.00  0.00     0.158 A 
ATOM     42  C   UNL     1       2.996   9.666  -8.843  1.00  0.00     0.051 A 
ATOM     43  C   UNL     1       3.282  10.986  -8.601  1.00  0.00     0.157 A 
BRANCH  41  44
ATOM     44  O   UNL     1       3.834  11.088  -6.376  1.00  0.00    -0.504 OA
ATOM     45  H   UNL     1       3.996  11.793  -5.644  1.00  0.00     0.293 HD
ENDBRANCH  41  44
BRANCH  43  46
ATOM     46  O   UNL     1       4.285  11.793  -9.309  1.00  0.00    -0.504 OA
ATOM     47  H   UNL     1       4.138  12.819  -9.398  1.00  0.00     0.293 HD
ENDBRANCH  43  46
ENDBRANCH  28  38
BRANCH  34  48
ATOM     48  O   UNL     1      -7.095  10.331 -10.413  1.00  0.00    -0.507 OA
ATOM     49  H   UNL     1      -7.024  11.063 -11.052  1.00  0.00     0.293 HD
ENDBRANCH  34  48
BRANCH  37  50
ATOM     50  O   UNL     1      -5.820   5.649  -9.785  1.00  0.00    -0.508 OA
ATOM     51  H   UNL     1      -6.832   5.439  -9.879  1.00  0.00     0.293 HD
ENDBRANCH  37  50
ENDBRANCH  26  27
ENDBRANCH   5  26
BRANCH   4  52
ATOM     52  O   UNL     1      -4.725  10.092  -3.807  1.00  0.00    -0.384 OA
ATOM     53  H   UNL     1      -3.829   9.534  -4.006  1.00  0.00     0.211 HD
ENDBRANCH   4  52
TORSDOF 16
ENDMDL
MODEL 7
REMARK VINA RESULT:    -4.146      1.980      2.628
REMARK INTER + INTRA:          -7.933
REMARK INTER:                  -7.013
REMARK INTRA:                  -0.920
REMARK UNBOUND:                -1.849
REMARK SMILES C[C@@H]1O[C@@H](OC[C@@H]2O[C@H](Oc3c(-c4ccc(O)c(O)c4)oc4cc(O)cc(O)c4c3=O)[C@@H](O)[C@@H](O)[C@H]2O)[C@@H](O)[C@@H](O)[C@H]1O
REMARK SMILES IDX 7 1 36 2 34 3 32 4 9 5 8 6 6 7 5 8 4 9 1 10 2 11 42 12 3 13
REMARK SMILES IDX 40 14 38 15 43 16 41 18 39 20 37 22 35 24 10 26 11 27 12 28
REMARK SMILES IDX 30 29 21 30 29 31 31 32 22 33 27 34 23 35 26 36 24 37 13 38
REMARK SMILES IDX 20 39 14 40 18 41 15 42 16 43 19 44 17 46 28 48 25 50 33 52
REMARK H PARENT 43 17 41 19 39 21 37 23 35 25 19 45 17 47 28 49 25 51 33 53
REMARK Flexibility Score: inf
ROOT
ATOM      1  C   UNL     1       1.404  12.914  -6.126  1.00  0.00     0.180 C 
ATOM      2  C   UNL     1       1.999  11.465  -6.417  1.00  0.00     0.177 C 
ATOM      3  C   UNL     1       1.101  10.627  -7.301  1.00  0.00     0.180 C 
ATOM      4  C   UNL     1       0.302  11.546  -8.202  1.00  0.00     0.214 C 
ATOM      5  C   UNL     1      -0.681  12.304  -7.077  1.00  0.00     0.339 C 
ATOM      6  O   UNL     1       0.010  13.037  -6.097  1.00  0.00    -0.332 OA
ENDROOT
BRANCH   1   7
ATOM      7  C   UNL     1       1.824  13.346  -4.763  1.00  0.00     0.198 C 
BRANCH   7   8
ATOM      8  O   UNL     1       1.573  14.774  -4.463  1.00  0.00    -0.347 OA
BRANCH   8   9
ATOM      9  C   UNL     1       2.511  15.669  -3.678  1.00  0.00     0.281 C 
ATOM     10  C   UNL     1       1.904  19.811  -2.944  1.00  0.00     0.041 C 
ATOM     11  C   UNL     1       2.964  18.916  -3.485  1.00  0.00     0.150 C 
ATOM     12  C   UNL     1       4.865  18.853  -3.005  1.00  0.00     0.174 C 
ATOM     13  O   UNL     1       2.069  17.380  -3.763  1.00  0.00    -0.344 OA
ATOM     14  C   UNL     1       5.616  16.912  -2.876  1.00  0.00     0.179 C 
ATOM     15  C   UNL     1       4.288  15.300  -3.263  1.00  0.00     0.202 C 
BRANCH  12  16
ATOM     16  O   UNL     1       5.724  19.734  -3.755  1.00  0.00    -0.388 OA
ATOM     17  H   UNL     1       5.367  20.685  -3.694  1.00  0.00     0.211 HD
ENDBRANCH  12  16
BRANCH  14  18
ATOM     18  O   UNL     1       6.901  16.651  -3.348  1.00  0.00    -0.387 OA
ATOM     19  H   UNL     1       7.201  17.073  -4.229  1.00  0.00     0.211 HD
ENDBRANCH  14  18
BRANCH  15  20
ATOM     20  O   UNL     1       4.683  14.291  -4.153  1.00  0.00    -0.385 OA
ATOM     21  H   UNL     1       5.620  14.145  -3.896  1.00  0.00     0.211 HD
ENDBRANCH  15  20
ENDBRANCH   8   9
ENDBRANCH   7   8
ENDBRANCH   1   7
BRANCH   2  22
ATOM     22  O   UNL     1       3.222  11.505  -7.102  1.00  0.00    -0.387 OA
ATOM     23  H   UNL     1       3.991  11.472  -6.473  1.00  0.00     0.211 HD
ENDBRANCH   2  22
BRANCH   3  24
ATOM     24  O   UNL     1       1.645   9.371  -7.667  1.00  0.00    -0.387 OA
ATOM     25  H   UNL     1       2.619   9.450  -7.691  1.00  0.00     0.211 HD
ENDBRANCH   3  24
BRANCH   5  26
ATOM     26  O   UNL     1      -1.725  11.598  -6.272  1.00  0.00    -0.454 OA
BRANCH  26  27
ATOM     27  C   UNL     1      -2.697  10.578  -6.650  1.00  0.00     0.214 A 
ATOM     28  C   UNL     1      -3.404   9.401  -5.835  1.00  0.00     0.180 A 
ATOM     29  C   UNL     1      -3.492  11.069  -7.734  1.00  0.00     0.239 A 
ATOM     30  O   UNL     1      -4.729   9.920  -5.910  1.00  0.00    -0.452 OA
ATOM     31  C   UNL     1      -4.591  11.729  -7.364  1.00  0.00     0.111 A 
ATOM     32  O   UNL     1      -3.674  10.358  -8.749  1.00  0.00    -0.285 OA
ATOM     33  C   UNL     1      -5.198  11.084  -6.301  1.00  0.00     0.146 A 
ATOM     34  C   UNL     1      -4.853  13.108  -7.618  1.00  0.00     0.134 A 
ATOM     35  C   UNL     1      -6.102  11.726  -5.475  1.00  0.00     0.094 A 
ATOM     36  C   UNL     1      -5.656  13.765  -6.696  1.00  0.00     0.093 A 
ATOM     37  C   UNL     1      -6.234  13.107  -5.570  1.00  0.00     0.123 A 
BRANCH  28  38
ATOM     38  C   UNL     1      -2.785   7.220  -4.365  1.00  0.00     0.025 A 
ATOM     39  C   UNL     1      -1.457   6.185  -4.065  1.00  0.00     0.062 A 
ATOM     40  C   UNL     1      -3.641   6.411  -3.222  1.00  0.00     0.016 A 
ATOM     41  C   UNL     1      -1.639   4.843  -3.906  1.00  0.00     0.158 A 
ATOM     42  C   UNL     1      -3.770   4.933  -3.476  1.00  0.00     0.051 A 
ATOM     43  C   UNL     1      -2.830   4.264  -4.218  1.00  0.00     0.157 A 
BRANCH  41  44
ATOM     44  O   UNL     1      -0.973   4.142  -2.875  1.00  0.00    -0.504 OA
ATOM     45  H   UNL     1      -1.094   4.386  -1.882  1.00  0.00     0.293 HD
ENDBRANCH  41  44
BRANCH  43  46
ATOM     46  O   UNL     1      -2.993   2.929  -4.812  1.00  0.00    -0.504 OA
ATOM     47  H   UNL     1      -3.682   2.271  -4.395  1.00  0.00     0.293 HD
ENDBRANCH  43  46
ENDBRANCH  28  38
BRANCH  34  48
ATOM     48  O   UNL     1      -4.231  13.727  -8.696  1.00  0.00    -0.507 OA
ATOM     49  H   UNL     1      -3.479  13.328  -9.169  1.00  0.00     0.293 HD
ENDBRANCH  34  48
BRANCH  37  50
ATOM     50  O   UNL     1      -7.044  13.891  -4.696  1.00  0.00    -0.508 OA
ATOM     51  H   UNL     1      -6.964  14.924  -4.755  1.00  0.00     0.293 HD
ENDBRANCH  37  50
ENDBRANCH  26  27
ENDBRANCH   5  26
BRANCH   4  52
ATOM     52  O   UNL     1       0.988  12.554  -8.843  1.00  0.00    -0.384 OA
ATOM     53  H   UNL     1       2.043  12.543  -8.643  1.00  0.00     0.211 HD
ENDBRANCH   4  52
TORSDOF 16
ENDMDL
MODEL 8
REMARK VINA RESULT:    -3.920      3.053      5.205
REMARK INTER + INTRA:          -7.603
REMARK INTER:                  -7.435
REMARK INTRA:                  -0.167
REMARK UNBOUND:                -1.849
REMARK SMILES C[C@@H]1O[C@@H](OC[C@@H]2O[C@H](Oc3c(-c4ccc(O)c(O)c4)oc4cc(O)cc(O)c4c3=O)[C@@H](O)[C@@H](O)[C@H]2O)[C@@H](O)[C@@H](O)[C@H]1O
REMARK SMILES IDX 7 1 36 2 34 3 32 4 9 5 8 6 6 7 5 8 4 9 1 10 2 11 42 12 3 13
REMARK SMILES IDX 40 14 38 15 43 16 41 18 39 20 37 22 35 24 10 26 11 27 12 28
REMARK SMILES IDX 30 29 21 30 29 31 31 32 22 33 27 34 23 35 26 36 24 37 13 38
REMARK SMILES IDX 20 39 14 40 18 41 15 42 16 43 19 44 17 46 28 48 25 50 33 52
REMARK H PARENT 43 17 41 19 39 21 37 23 35 25 19 45 17 47 28 49 25 51 33 53
REMARK Flexibility Score: inf
ROOT
ATOM      1  C   UNL     1      -3.621  10.285  -9.001  1.00  0.00     0.180 C 
ATOM      2  C   UNL     1      -3.822   8.820  -9.595  1.00  0.00     0.177 C 
ATOM      3  C   UNL     1      -5.273   8.396  -9.635  1.00  0.00     0.180 C 
ATOM      4  C   UNL     1      -6.142   9.629  -9.781  1.00  0.00     0.214 C 
ATOM      5  C   UNL     1      -5.884  10.365  -8.298  1.00  0.00     0.339 C 
ATOM      6  O   UNL     1      -4.548  10.718  -8.046  1.00  0.00    -0.332 OA
ENDROOT
BRANCH   1   7
ATOM      7  C   UNL     1      -2.319  10.340  -8.279  1.00  0.00     0.198 C 
BRANCH   7   8
ATOM      8  O   UNL     1      -1.581  11.615  -8.433  1.00  0.00    -0.347 OA
BRANCH   8   9
ATOM      9  C   UNL     1      -0.143  11.837  -8.008  1.00  0.00     0.281 C 
ATOM     10  C   UNL     1       3.197   9.611  -9.402  1.00  0.00     0.041 C 
ATOM     11  C   UNL     1       2.590  10.020  -8.105  1.00  0.00     0.150 C 
ATOM     12  C   UNL     1       3.467  10.844  -6.556  1.00  0.00     0.174 C 
ATOM     13  O   UNL     1       0.958  10.588  -8.605  1.00  0.00    -0.344 OA
ATOM     14  C   UNL     1       2.324  12.342  -5.664  1.00  0.00     0.179 C 
ATOM     15  C   UNL     1       0.422  12.780  -6.505  1.00  0.00     0.202 C 
BRANCH  12  16
ATOM     16  O   UNL     1       4.026   9.924  -5.597  1.00  0.00    -0.388 OA
ATOM     17  H   UNL     1       3.348   9.193  -5.395  1.00  0.00     0.211 HD
ENDBRANCH  12  16
BRANCH  14  18
ATOM     18  O   UNL     1       2.314  12.450  -4.276  1.00  0.00    -0.387 OA
ATOM     19  H   UNL     1       1.424  12.378  -3.779  1.00  0.00     0.211 HD
ENDBRANCH  14  18
BRANCH  15  20
ATOM     20  O   UNL     1      -0.695  12.853  -5.661  1.00  0.00    -0.385 OA
ATOM     21  H   UNL     1      -0.938  11.908  -5.557  1.00  0.00     0.211 HD
ENDBRANCH  15  20
ENDBRANCH   8   9
ENDBRANCH   7   8
ENDBRANCH   1   7
BRANCH   2  22
ATOM     22  O   UNL     1      -3.389   8.707 -10.924  1.00  0.00    -0.387 OA
ATOM     23  H   UNL     1      -2.662   8.034 -11.012  1.00  0.00     0.211 HD
ENDBRANCH   2  22
BRANCH   3  24
ATOM     24  O   UNL     1      -5.501   7.142 -10.254  1.00  0.00    -0.387 OA
ATOM     25  H   UNL     1      -4.651   6.662 -10.304  1.00  0.00     0.211 HD
ENDBRANCH   3  24
BRANCH   5  26
ATOM     26  O   UNL     1      -6.313   9.778  -6.991  1.00  0.00    -0.454 OA
BRANCH  26  27
ATOM     27  C   UNL     1      -5.911  10.090  -5.624  1.00  0.00     0.214 A 
ATOM     28  C   UNL     1      -4.680   9.618  -4.723  1.00  0.00     0.180 A 
ATOM     29  C   UNL     1      -6.395  11.391  -5.279  1.00  0.00     0.239 A 
ATOM     30  O   UNL     1      -4.050  10.892  -4.622  1.00  0.00    -0.452 OA
ATOM     31  C   UNL     1      -5.558  12.390  -5.565  1.00  0.00     0.111 A 
ATOM     32  O   UNL     1      -7.005  11.566  -4.199  1.00  0.00    -0.285 OA
ATOM     33  C   UNL     1      -4.261  12.030  -5.245  1.00  0.00     0.146 A 
ATOM     34  C   UNL     1      -5.809  13.437  -6.501  1.00  0.00     0.134 A 
ATOM     35  C   UNL     1      -3.167  12.685  -5.781  1.00  0.00     0.094 A 
ATOM     36  C   UNL     1      -4.698  13.986  -7.127  1.00  0.00     0.093 A 
ATOM     37  C   UNL     1      -3.364  13.572  -6.834  1.00  0.00     0.123 A 
BRANCH  28  38
ATOM     38  C   UNL     1      -3.542   7.362  -3.765  1.00  0.00     0.025 A 
ATOM     39  C   UNL     1      -2.003   6.626  -3.652  1.00  0.00     0.062 A 
ATOM     40  C   UNL     1      -4.168   6.131  -2.877  1.00  0.00     0.016 A 
ATOM     41  C   UNL     1      -1.858   5.279  -3.813  1.00  0.00     0.158 A 
ATOM     42  C   UNL     1      -3.944   4.765  -3.468  1.00  0.00     0.051 A 
ATOM     43  C   UNL     1      -2.880   4.526  -4.301  1.00  0.00     0.157 A 
BRANCH  41  44
ATOM     44  O   UNL     1      -1.033   4.533  -2.941  1.00  0.00    -0.504 OA
ATOM     45  H   UNL     1      -1.038   4.683  -1.923  1.00  0.00     0.293 HD
ENDBRANCH  41  44
BRANCH  43  46
ATOM     46  O   UNL     1      -2.729   3.367  -5.192  1.00  0.00    -0.504 OA
ATOM     47  H   UNL     1      -1.776   3.091  -5.505  1.00  0.00     0.293 HD
ENDBRANCH  43  46
ENDBRANCH  28  38
BRANCH  34  48
ATOM     48  O   UNL     1      -7.122  13.778  -6.799  1.00  0.00    -0.507 OA
ATOM     49  H   UNL     1      -7.354  14.423  -7.491  1.00  0.00     0.293 HD
ENDBRANCH  34  48
BRANCH  37  50
ATOM     50  O   UNL     1      -2.306  14.215  -7.541  1.00  0.00    -0.508 OA
ATOM     51  H   UNL     1      -1.963  15.125  -7.180  1.00  0.00     0.293 HD
ENDBRANCH  37  50
ENDBRANCH  26  27
ENDBRANCH   5  26
BRANCH   4  52
ATOM     52  O   UNL     1      -5.770  10.554 -10.731  1.00  0.00    -0.384 OA
ATOM     53  H   UNL     1      -6.605  11.010 -11.229  1.00  0.00     0.211 HD
ENDBRANCH   4  52
TORSDOF 16
ENDMDL
