MODEL 1
REMARK VINA RESULT:    -1.976      0.000      0.000
REMARK INTER + INTRA:          -5.496
REMARK INTER:                  -5.209
REMARK INTRA:                  -0.286
REMARK UNBOUND:                -0.286
REMARK SMILES CCCCCCCCCCCCCCCCCCCCCCCCCCCCCC(=O)[O-]
REMARK SMILES IDX 16 1 17 2 18 3 19 4 20 5 21 6 22 7 23 8 24 9 25 10 26 11
REMARK SMILES IDX 27 12 28 13 29 14 30 15 31 16 32 17 15 18 14 19 13 20 12 21
REMARK SMILES IDX 11 22 10 23 9 24 8 25 7 26 6 27 5 28 4 29 3 30 2 31 1 32
REMARK H PARENT
REMARK Flexibility Score: inf
ROOT
ATOM      1  C   UNL     1      26.575  27.023  23.617  1.00  0.00     0.000 C 
ENDROOT
BRANCH   1   2
ATOM      2  C   UNL     1      26.521  26.139  22.354  1.00  0.00     0.000 C 
BRANCH   2   3
ATOM      3  C   UNL     1      27.739  25.211  22.164  1.00  0.00     0.000 C 
BRANCH   3   4
ATOM      4  C   UNL     1      28.096  24.414  23.433  1.00  0.00     0.000 C 
BRANCH   4   5
ATOM      5  C   UNL     1      27.731  22.922  23.317  1.00  0.00     0.000 C 
BRANCH   5   6
ATOM      6  C   UNL     1      26.602  22.455  24.261  1.00  0.00     0.000 C 
BRANCH   6   7
ATOM      7  C   UNL     1      25.354  21.875  23.564  1.00  0.00     0.000 C 
BRANCH   7   8
ATOM      8  C   UNL     1      24.096  22.764  23.641  1.00  0.00     0.000 C 
BRANCH   8   9
ATOM      9  C   UNL     1      23.109  22.580  22.474  1.00  0.00     0.000 C 
BRANCH   9  10
ATOM     10  C   UNL     1      22.387  23.866  22.018  1.00  0.00     0.000 C 
BRANCH  10  11
ATOM     11  C   UNL     1      22.720  24.291  20.572  1.00  0.00     0.000 C 
BRANCH  11  12
ATOM     12  C   UNL     1      23.867  25.314  20.504  1.00  0.00     0.000 C 
BRANCH  12  13
ATOM     13  C   UNL     1      25.204  24.661  20.872  1.00  0.00     0.006 C 
BRANCH  13  14
ATOM     14  C   UNL     1      25.566  23.546  19.879  1.00  0.00     0.053 C 
BRANCH  14  15
ATOM     15  C   UNL     1      26.866  23.805  19.172  1.00  0.00     0.041 C 
ATOM     16  O   UNL     1      26.932  24.731  18.320  1.00  0.00    -0.550 OA
ATOM     17  O   UNL     1      27.991  23.029  19.425  1.00  0.00    -0.550 OA
ENDBRANCH  14  15
ENDBRANCH  13  14
ENDBRANCH  12  13
ENDBRANCH  11  12
ENDBRANCH  10  11
ENDBRANCH   9  10
ENDBRANCH   8   9
ENDBRANCH   7   8
ENDBRANCH   6   7
ENDBRANCH   5   6
ENDBRANCH   4   5
ENDBRANCH   3   4
ENDBRANCH   2   3
ENDBRANCH   1   2
BRANCH   1  18
ATOM     18  C   UNL     1      27.205  28.414  23.433  1.00  0.00     0.000 C 
BRANCH  18  19
ATOM     19  C   UNL     1      28.048  28.937  24.616  1.00  0.00     0.000 C 
BRANCH  19  20
ATOM     20  C   UNL     1      28.080  30.475  24.745  1.00  0.00     0.000 C 
BRANCH  20  21
ATOM     21  C   UNL     1      26.675  31.105  24.810  1.00  0.00     0.000 C 
BRANCH  21  22
ATOM     22  C   UNL     1      26.712  32.555  25.327  1.00  0.00     0.000 C 
BRANCH  22  23
ATOM     23  C   UNL     1      28.023  33.289  24.984  1.00  0.00     0.000 C 
BRANCH  23  24
ATOM     24  C   UNL     1      27.943  34.012  23.626  1.00  0.00    -0.000 C 
BRANCH  24  25
ATOM     25  C   UNL     1      28.101  35.536  23.754  1.00  0.00    -0.000 C 
BRANCH  25  26
ATOM     26  C   UNL     1      27.353  36.300  22.650  1.00  0.00    -0.000 C 
BRANCH  26  27
ATOM     27  C   UNL     1      28.121  37.538  22.155  1.00  0.00    -0.000 C 
BRANCH  27  28
ATOM     28  C   UNL     1      27.988  38.743  23.100  1.00  0.00    -0.000 C 
BRANCH  28  29
ATOM     29  C   UNL     1      26.682  38.670  23.907  1.00  0.00    -0.000 C 
BRANCH  29  30
ATOM     30  C   UNL     1      26.704  39.555  25.168  1.00  0.00    -0.000 C 
BRANCH  30  31
ATOM     31  C   UNL     1      28.094  39.739  25.803  1.00  0.00    -0.003 C 
ATOM     32  C   UNL     1      28.116  39.425  27.299  1.00  0.00     0.004 C 
ENDBRANCH  30  31
ENDBRANCH  29  30
ENDBRANCH  28  29
ENDBRANCH  27  28
ENDBRANCH  26  27
ENDBRANCH  25  26
ENDBRANCH  24  25
ENDBRANCH  23  24
ENDBRANCH  22  23
ENDBRANCH  21  22
ENDBRANCH  20  21
ENDBRANCH  19  20
ENDBRANCH  18  19
ENDBRANCH   1  18
TORSDOF 28
ENDMDL
MODEL 2
REMARK VINA RESULT:     0.835      3.710     11.664
REMARK INTER + INTRA:           1.915
REMARK INTER:                   0.408
REMARK INTRA:                   1.507
REMARK UNBOUND:                -0.286
REMARK SMILES CCCCCCCCCCCCCCCCCCCCCCCCCCCCCC(=O)[O-]
REMARK SMILES IDX 16 1 17 2 18 3 19 4 20 5 21 6 22 7 23 8 24 9 25 10 26 11
REMARK SMILES IDX 27 12 28 13 29 14 30 15 31 16 32 17 15 18 14 19 13 20 12 21
REMARK SMILES IDX 11 22 10 23 9 24 8 25 7 26 6 27 5 28 4 29 3 30 2 31 1 32
REMARK H PARENT
REMARK Flexibility Score: inf
ROOT
ATOM      1  C   UNL     1      24.042  26.116  21.231  1.00  0.00     0.000 C 
ENDROOT
BRANCH   1   2
ATOM      2  C   UNL     1      24.654  26.665  22.536  1.00  0.00     0.000 C 
BRANCH   2   3
ATOM      3  C   UNL     1      26.130  26.278  22.769  1.00  0.00     0.000 C 
BRANCH   3   4
ATOM      4  C   UNL     1      27.123  27.288  22.161  1.00  0.00     0.000 C 
BRANCH   4   5
ATOM      5  C   UNL     1      28.038  27.929  23.221  1.00  0.00     0.000 C 
BRANCH   5   6
ATOM      6  C   UNL     1      27.532  29.273  23.786  1.00  0.00     0.000 C 
BRANCH   6   7
ATOM      7  C   UNL     1      25.999  29.423  23.864  1.00  0.00     0.000 C 
BRANCH   7   8
ATOM      8  C   UNL     1      25.462  29.916  25.224  1.00  0.00     0.000 C 
BRANCH   8   9
ATOM      9  C   UNL     1      26.219  31.119  25.814  1.00  0.00     0.000 C 
BRANCH   9  10
ATOM     10  C   UNL     1      27.259  31.764  24.875  1.00  0.00     0.000 C 
BRANCH  10  11
ATOM     11  C   UNL     1      26.810  33.115  24.279  1.00  0.00     0.000 C 
BRANCH  11  12
ATOM     12  C   UNL     1      27.866  34.220  24.451  1.00  0.00     0.000 C 
BRANCH  12  13
ATOM     13  C   UNL     1      28.121  34.945  23.125  1.00  0.00     0.006 C 
BRANCH  13  14
ATOM     14  C   UNL     1      27.309  36.246  23.041  1.00  0.00     0.053 C 
BRANCH  14  15
ATOM     15  C   UNL     1      27.677  37.078  21.847  1.00  0.00     0.041 C 
ATOM     16  O   UNL     1      28.061  36.508  20.791  1.00  0.00    -0.550 OA
ATOM     17  O   UNL     1      27.622  38.467  21.891  1.00  0.00    -0.550 OA
ENDBRANCH  14  15
ENDBRANCH  13  14
ENDBRANCH  12  13
ENDBRANCH  11  12
ENDBRANCH  10  11
ENDBRANCH   9  10
ENDBRANCH   8   9
ENDBRANCH   7   8
ENDBRANCH   6   7
ENDBRANCH   5   6
ENDBRANCH   4   5
ENDBRANCH   3   4
ENDBRANCH   2   3
ENDBRANCH   1   2
BRANCH   1  18
ATOM     18  C   UNL     1      24.545  24.733  20.786  1.00  0.00     0.000 C 
BRANCH  18  19
ATOM     19  C   UNL     1      25.189  24.666  19.385  1.00  0.00     0.000 C 
BRANCH  19  20
ATOM     20  C   UNL     1      26.071  23.420  19.148  1.00  0.00     0.000 C 
BRANCH  20  21
ATOM     21  C   UNL     1      27.573  23.694  19.359  1.00  0.00     0.000 C 
BRANCH  21  22
ATOM     22  C   UNL     1      28.075  23.169  20.716  1.00  0.00     0.000 C 
BRANCH  22  23
ATOM     23  C   UNL     1      27.365  21.877  21.168  1.00  0.00     0.000 C 
BRANCH  23  24
ATOM     24  C   UNL     1      26.935  21.941  22.646  1.00  0.00    -0.000 C 
BRANCH  24  25
ATOM     25  C   UNL     1      28.124  22.120  23.604  1.00  0.00    -0.000 C 
BRANCH  25  26
ATOM     26  C   UNL     1      27.680  22.472  25.033  1.00  0.00    -0.000 C 
BRANCH  26  27
ATOM     27  C   UNL     1      26.171  22.752  25.138  1.00  0.00    -0.000 C 
BRANCH  27  28
ATOM     28  C   UNL     1      25.336  21.906  24.164  1.00  0.00    -0.000 C 
BRANCH  28  29
ATOM     29  C   UNL     1      24.508  22.800  23.227  1.00  0.00    -0.000 C 
BRANCH  29  30
ATOM     30  C   UNL     1      23.179  22.152  22.796  1.00  0.00    -0.000 C 
BRANCH  30  31
ATOM     31  C   UNL     1      22.055  22.223  23.845  1.00  0.00    -0.003 C 
ATOM     32  C   UNL     1      20.679  21.879  23.276  1.00  0.00     0.004 C 
ENDBRANCH  30  31
ENDBRANCH  29  30
ENDBRANCH  28  29
ENDBRANCH  27  28
ENDBRANCH  26  27
ENDBRANCH  25  26
ENDBRANCH  24  25
ENDBRANCH  23  24
ENDBRANCH  22  23
ENDBRANCH  21  22
ENDBRANCH  20  21
ENDBRANCH  19  20
ENDBRANCH  18  19
ENDBRANCH   1  18
TORSDOF 28
ENDMDL
