MODEL 1
REMARK VINA RESULT:   135.156      0.000      0.000
REMARK INTER + INTRA:         148.230
REMARK INTER:                 147.008
REMARK INTRA:                   1.222
REMARK UNBOUND:                 1.222
REMARK SMILES CC1(C)CC[C@@]2(C(=O)[O-])CC[C@]3(C)C(=CC[C@@H]4[C@]5(C)CC[C@@H](O)C(C)(C)[C@H]5CC[C@@]43C)[C@H]2C1
REMARK SMILES IDX 6 1 5 2 10 3 32 4 4 5 11 6 14 7 33 8 2 9 12 10 15 11 1 12
REMARK SMILES IDX 3 13 13 14 30 15 16 16 17 17 29 18 31 19 18 20 28 21 27 22
REMARK SMILES IDX 20 23 19 24 24 25 21 26 22 27 25 28 26 29 7 30 8 31 9 32
REMARK SMILES IDX 23 33
REMARK H PARENT 23 34
REMARK Flexibility Score: inf
ROOT
ATOM      1  C   UNL     1      -8.656  14.281 -16.619  1.00  0.00     0.017 C 
ATOM      2  C   UNL     1      -9.599  13.704 -15.510  1.00  0.00     0.014 C 
ATOM      3  C   UNL     1      -7.231  14.352 -16.034  1.00  0.00     0.014 C 
ATOM      4  C   UNL     1      -8.615  13.351 -17.885  1.00  0.00     0.028 C 
ATOM      5  C   UNL     1     -10.751  12.885 -16.100  1.00  0.00     0.007 C 
ATOM      6  C   UNL     1      -6.235  15.022 -16.977  1.00  0.00     0.013 C 
ATOM      7  C   UNL     1      -7.358  13.506 -18.756  1.00  0.00    -0.064 C 
ATOM      8  C   UNL     1      -8.816  11.867 -17.463  1.00  0.00     0.015 C 
ATOM      9  C   UNL     1     -10.230  11.619 -16.846  1.00  0.00    -0.035 C 
ATOM     10  C   UNL     1      -6.225  14.505 -18.476  1.00  0.00    -0.006 C 
ATOM     11  C   UNL     1      -7.351  12.838 -19.921  1.00  0.00    -0.027 C 
ATOM     12  C   UNL     1     -11.231  11.248 -17.963  1.00  0.00     0.011 C 
ATOM     13  C   UNL     1     -10.146  10.431 -15.861  1.00  0.00     0.011 C 
ATOM     14  C   UNL     1      -6.541  15.740 -19.378  1.00  0.00     0.017 C 
ATOM     15  C   UNL     1      -4.800  13.872 -18.881  1.00  0.00    -0.020 C 
ATOM     16  C   UNL     1      -6.133  12.579 -20.743  1.00  0.00     0.032 C 
ATOM     17  C   UNL     1      -4.813  13.340 -20.385  1.00  0.00     0.006 C 
ATOM     18  C   UNL     1      -4.468  12.667 -17.940  1.00  0.00     0.008 C 
ATOM     19  C   UNL     1      -3.709  14.991 -18.715  1.00  0.00     0.012 C 
ATOM     20  C   UNL     1      -3.511  12.501 -20.821  1.00  0.00    -0.025 C 
ATOM     21  C   UNL     1      -3.211  11.868 -18.331  1.00  0.00     0.005 C 
ATOM     22  C   UNL     1      -3.285  11.335 -19.781  1.00  0.00     0.003 C 
ATOM     23  C   UNL     1      -3.701  11.871 -22.248  1.00  0.00     0.010 C 
ATOM     24  C   UNL     1      -2.285  13.469 -20.933  1.00  0.00     0.012 C 
ATOM     25  C   UNL     1      -2.174  10.270 -20.162  1.00  0.00    -0.006 C 
ATOM     26  C   UNL     1      -2.598  10.874 -22.642  1.00  0.00     0.033 C 
ATOM     27  C   UNL     1      -2.448   9.749 -21.613  1.00  0.00     0.120 C 
ATOM     28  C   UNL     1      -0.726  10.810 -20.033  1.00  0.00     0.014 C 
ATOM     29  C   UNL     1      -2.281   9.044 -19.211  1.00  0.00     0.014 C 
ENDROOT
BRANCH   1  30
ATOM     30  C   UNL     1      -9.164  15.677 -16.963  1.00  0.00     0.048 C 
ATOM     31  O   UNL     1      -8.370  16.593 -17.307  1.00  0.00    -0.550 OA
ATOM     32  O   UNL     1     -10.532  15.927 -17.020  1.00  0.00    -0.550 OA
ENDBRANCH   1  30
BRANCH  27  33
ATOM     33  O   UNL     1      -1.413   8.893 -22.041  1.00  0.00    -0.393 OA
ATOM     34  H   UNL     1      -1.732   7.960 -21.936  1.00  0.00     0.210 HD
ENDBRANCH  27  33
TORSDOF 2
ENDMDL
MODEL 2
REMARK VINA RESULT:   137.996      5.320     10.786
REMARK INTER + INTRA:         151.319
REMARK INTER:                 151.555
REMARK INTRA:                  -0.235
REMARK UNBOUND:                 1.222
REMARK SMILES CC1(C)CC[C@@]2(C(=O)[O-])CC[C@]3(C)C(=CC[C@@H]4[C@]5(C)CC[C@@H](O)C(C)(C)[C@H]5CC[C@@]43C)[C@H]2C1
REMARK SMILES IDX 6 1 5 2 10 3 32 4 4 5 11 6 14 7 33 8 2 9 12 10 15 11 1 12
REMARK SMILES IDX 3 13 13 14 30 15 16 16 17 17 29 18 31 19 18 20 28 21 27 22
REMARK SMILES IDX 20 23 19 24 24 25 21 26 22 27 25 28 26 29 7 30 8 31 9 32
REMARK SMILES IDX 23 33
REMARK H PARENT 23 34
REMARK Flexibility Score: inf
ROOT
ATOM      1  C   UNL     1     -10.922  10.855 -16.070  1.00  0.00     0.017 C 
ATOM      2  C   UNL     1      -9.893  11.040 -17.237  1.00  0.00     0.014 C 
ATOM      3  C   UNL     1     -10.298   9.888 -15.043  1.00  0.00     0.014 C 
ATOM      4  C   UNL     1     -11.218  12.214 -15.340  1.00  0.00     0.028 C 
ATOM      5  C   UNL     1      -9.978  12.435 -17.865  1.00  0.00     0.007 C 
ATOM      6  C   UNL     1     -11.258   9.522 -13.915  1.00  0.00     0.013 C 
ATOM      7  C   UNL     1     -11.738  12.070 -13.900  1.00  0.00    -0.064 C 
ATOM      8  C   UNL     1      -9.961  13.129 -15.383  1.00  0.00     0.015 C 
ATOM      9  C   UNL     1      -9.590  13.547 -16.842  1.00  0.00    -0.035 C 
ATOM     10  C   UNL     1     -12.004  10.727 -13.203  1.00  0.00    -0.006 C 
ATOM     11  C   UNL     1     -12.142  13.199 -13.294  1.00  0.00    -0.027 C 
ATOM     12  C   UNL     1     -10.329  14.851 -17.217  1.00  0.00     0.011 C 
ATOM     13  C   UNL     1      -8.071  13.816 -16.916  1.00  0.00     0.011 C 
ATOM     14  C   UNL     1     -13.534  10.473 -13.379  1.00  0.00     0.017 C 
ATOM     15  C   UNL     1     -11.633  10.820 -11.638  1.00  0.00    -0.020 C 
ATOM     16  C   UNL     1     -12.359  13.341 -11.824  1.00  0.00     0.032 C 
ATOM     17  C   UNL     1     -12.377  12.048 -10.942  1.00  0.00     0.006 C 
ATOM     18  C   UNL     1     -10.091  11.023 -11.469  1.00  0.00     0.008 C 
ATOM     19  C   UNL     1     -12.068   9.471 -10.958  1.00  0.00     0.012 C 
ATOM     20  C   UNL     1     -11.913  12.357  -9.433  1.00  0.00    -0.025 C 
ATOM     21  C   UNL     1      -9.629  11.296 -10.026  1.00  0.00     0.005 C 
ATOM     22  C   UNL     1     -10.343  12.521  -9.405  1.00  0.00     0.003 C 
ATOM     23  C   UNL     1     -12.565  13.685  -8.905  1.00  0.00     0.010 C 
ATOM     24  C   UNL     1     -12.427  11.216  -8.489  1.00  0.00     0.012 C 
ATOM     25  C   UNL     1      -9.722  13.041  -8.042  1.00  0.00    -0.006 C 
ATOM     26  C   UNL     1     -12.001  14.167  -7.558  1.00  0.00     0.033 C 
ATOM     27  C   UNL     1     -10.479  14.339  -7.603  1.00  0.00     0.120 C 
ATOM     28  C   UNL     1      -9.738  11.981  -6.909  1.00  0.00     0.014 C 
ATOM     29  C   UNL     1      -8.235  13.435  -8.266  1.00  0.00     0.014 C 
ENDROOT
BRANCH   1  30
ATOM     30  C   UNL     1     -12.187  10.253 -16.673  1.00  0.00     0.048 C 
ATOM     31  O   UNL     1     -13.268  10.900 -16.698  1.00  0.00    -0.550 OA
ATOM     32  O   UNL     1     -12.134   9.020 -17.317  1.00  0.00    -0.550 OA
ENDBRANCH   1  30
BRANCH  27  33
ATOM     33  O   UNL     1     -10.044  14.766  -6.333  1.00  0.00    -0.393 OA
ATOM     34  H   UNL     1      -9.059  14.654  -6.298  1.00  0.00     0.210 HD
ENDBRANCH  27  33
TORSDOF 2
ENDMDL
