MODEL 1
REMARK VINA RESULT:    -3.192      0.000      0.000
REMARK INTER + INTRA:          -4.424
REMARK INTER:                  -4.125
REMARK INTRA:                  -0.299
REMARK UNBOUND:                -0.299
REMARK SMILES CCOC(=O)C=Cc1ccc(O)c(O)c1
REMARK SMILES IDX 6 1 7 2 4 3 5 4 3 5 2 6 1 7 8 8 15 9 9 10 13 11 10 12 11 13
REMARK SMILES IDX 14 14 12 16
REMARK H PARENT 14 15 12 17
REMARK Flexibility Score: inf
ROOT
ATOM      1  C   UNL     1      -9.121 -21.863  17.973  1.00  0.00     0.094 C 
ATOM      2  C   UNL     1      -9.617 -21.036  18.904  1.00  0.00     0.016 C 
ENDROOT
BRANCH   1   3
ATOM      3  C   UNL     1      -9.111 -21.522  16.540  1.00  0.00     0.330 C 
ATOM      4  O   UNL     1     -10.157 -21.098  15.972  1.00  0.00    -0.247 OA
BRANCH   3   5
ATOM      5  O   UNL     1      -7.926 -21.684  15.816  1.00  0.00    -0.463 OA
BRANCH   5   6
ATOM      6  C   UNL     1      -6.795 -22.401  16.309  1.00  0.00     0.230 C 
ATOM      7  C   UNL     1      -5.518 -21.592  16.113  1.00  0.00     0.049 C 
ENDBRANCH   5   6
ENDBRANCH   3   5
ENDBRANCH   1   3
BRANCH   2   8
ATOM      8  C   UNL     1      -9.630 -21.343  20.356  1.00  0.00    -0.021 A 
ATOM      9  C   UNL     1     -10.359 -20.576  21.287  1.00  0.00     0.058 A 
ATOM     10  C   UNL     1      -8.858 -22.419  20.821  1.00  0.00     0.012 A 
ATOM     11  C   UNL     1     -10.334 -20.897  22.652  1.00  0.00     0.157 A 
ATOM     12  C   UNL     1      -8.833 -22.741  22.180  1.00  0.00     0.051 A 
ATOM     13  C   UNL     1      -9.570 -21.988  23.099  1.00  0.00     0.157 A 
BRANCH  11  14
ATOM     14  O   UNL     1     -11.061 -20.135  23.565  1.00  0.00    -0.504 OA
ATOM     15  H   UNL     1     -12.021 -20.361  23.800  1.00  0.00     0.293 HD
ENDBRANCH  11  14
BRANCH  13  16
ATOM     16  O   UNL     1      -9.527 -22.335  24.449  1.00  0.00    -0.504 OA
ATOM     17  H   UNL     1     -10.297 -22.808  24.907  1.00  0.00     0.293 HD
ENDBRANCH  13  16
ENDBRANCH   2   8
TORSDOF 6
ENDMDL
MODEL 2
REMARK VINA RESULT:    -2.980      1.232      2.565
REMARK INTER + INTRA:          -4.151
REMARK INTER:                  -3.812
REMARK INTRA:                  -0.338
REMARK UNBOUND:                -0.299
REMARK SMILES CCOC(=O)C=Cc1ccc(O)c(O)c1
REMARK SMILES IDX 6 1 7 2 4 3 5 4 3 5 2 6 1 7 8 8 15 9 9 10 13 11 10 12 11 13
REMARK SMILES IDX 14 14 12 16
REMARK H PARENT 14 15 12 17
REMARK Flexibility Score: inf
ROOT
ATOM      1  C   UNL     1      -7.533 -22.012  18.297  1.00  0.00     0.094 C 
ATOM      2  C   UNL     1      -8.838 -21.994  18.604  1.00  0.00     0.016 C 
ENDROOT
BRANCH   1   3
ATOM      3  C   UNL     1      -7.036 -22.477  16.991  1.00  0.00     0.330 C 
ATOM      4  O   UNL     1      -5.924 -23.068  16.898  1.00  0.00    -0.247 OA
BRANCH   3   5
ATOM      5  O   UNL     1      -7.814 -22.244  15.852  1.00  0.00    -0.463 OA
BRANCH   5   6
ATOM      6  C   UNL     1      -7.869 -20.986  15.181  1.00  0.00     0.230 C 
ATOM      7  C   UNL     1      -9.313 -20.596  14.887  1.00  0.00     0.049 C 
ENDBRANCH   5   6
ENDBRANCH   3   5
ENDBRANCH   1   3
BRANCH   2   8
ATOM      8  C   UNL     1      -9.372 -21.521  19.905  1.00  0.00    -0.021 A 
ATOM      9  C   UNL     1      -9.055 -22.147  21.128  1.00  0.00     0.058 A 
ATOM     10  C   UNL     1     -10.255 -20.430  19.911  1.00  0.00     0.012 A 
ATOM     11  C   UNL     1      -9.593 -21.671  22.333  1.00  0.00     0.157 A 
ATOM     12  C   UNL     1     -10.790 -19.955  21.111  1.00  0.00     0.051 A 
ATOM     13  C   UNL     1     -10.461 -20.567  22.323  1.00  0.00     0.157 A 
BRANCH  11  14
ATOM     14  O   UNL     1      -9.271 -22.293  23.538  1.00  0.00    -0.504 OA
ATOM     15  H   UNL     1      -8.333 -22.629  23.729  1.00  0.00     0.293 HD
ENDBRANCH  11  14
BRANCH  13  16
ATOM     16  O   UNL     1     -11.009 -20.069  23.505  1.00  0.00    -0.504 OA
ATOM     17  H   UNL     1     -11.721 -19.349  23.505  1.00  0.00     0.293 HD
ENDBRANCH  13  16
ENDBRANCH   2   8
TORSDOF 6
ENDMDL
MODEL 3
REMARK VINA RESULT:    -2.955      1.118      2.141
REMARK INTER + INTRA:          -4.118
REMARK INTER:                  -3.847
REMARK INTRA:                  -0.271
REMARK UNBOUND:                -0.299
REMARK SMILES CCOC(=O)C=Cc1ccc(O)c(O)c1
REMARK SMILES IDX 6 1 7 2 4 3 5 4 3 5 2 6 1 7 8 8 15 9 9 10 13 11 10 12 11 13
REMARK SMILES IDX 14 14 12 16
REMARK H PARENT 14 15 12 17
REMARK Flexibility Score: inf
ROOT
ATOM      1  C   UNL     1      -7.905 -21.975  18.213  1.00  0.00     0.094 C 
ATOM      2  C   UNL     1      -9.129 -21.493  18.471  1.00  0.00     0.016 C 
ENDROOT
BRANCH   1   3
ATOM      3  C   UNL     1      -7.449 -22.276  16.845  1.00  0.00     0.330 C 
ATOM      4  O   UNL     1      -8.044 -21.784  15.845  1.00  0.00    -0.247 OA
BRANCH   3   5
ATOM      5  O   UNL     1      -6.351 -23.125  16.672  1.00  0.00    -0.463 OA
BRANCH   5   6
ATOM      6  C   UNL     1      -5.052 -22.846  17.191  1.00  0.00     0.230 C 
ATOM      7  C   UNL     1      -4.301 -21.885  16.275  1.00  0.00     0.049 C 
ENDBRANCH   5   6
ENDBRANCH   3   5
ENDBRANCH   1   3
BRANCH   2   8
ATOM      8  C   UNL     1      -9.615 -21.167  19.835  1.00  0.00    -0.021 A 
ATOM      9  C   UNL     1      -9.218 -21.893  20.976  1.00  0.00     0.058 A 
ATOM     10  C   UNL     1     -10.534 -20.117  19.986  1.00  0.00     0.012 A 
ATOM     11  C   UNL     1      -9.713 -21.556  22.245  1.00  0.00     0.157 A 
ATOM     12  C   UNL     1     -11.026 -19.779  21.249  1.00  0.00     0.051 A 
ATOM     13  C   UNL     1     -10.618 -20.491  22.381  1.00  0.00     0.157 A 
BRANCH  11  14
ATOM     14  O   UNL     1      -9.311 -22.277  23.368  1.00  0.00    -0.504 OA
ATOM     15  H   UNL     1      -8.359 -22.611  23.473  1.00  0.00     0.293 HD
ENDBRANCH  11  14
BRANCH  13  16
ATOM     16  O   UNL     1     -11.125 -20.129  23.629  1.00  0.00    -0.504 OA
ATOM     17  H   UNL     1     -10.688 -19.414  24.199  1.00  0.00     0.293 HD
ENDBRANCH  13  16
ENDBRANCH   2   8
TORSDOF 6
ENDMDL
MODEL 4
REMARK VINA RESULT:    -2.852      2.336      6.561
REMARK INTER + INTRA:          -3.985
REMARK INTER:                  -3.718
REMARK INTRA:                  -0.267
REMARK UNBOUND:                -0.299
REMARK SMILES CCOC(=O)C=Cc1ccc(O)c(O)c1
REMARK SMILES IDX 6 1 7 2 4 3 5 4 3 5 2 6 1 7 8 8 15 9 9 10 13 11 10 12 11 13
REMARK SMILES IDX 14 14 12 16
REMARK H PARENT 14 15 12 17
REMARK Flexibility Score: inf
ROOT
ATOM      1  C   UNL     1      -8.954 -22.095  19.147  1.00  0.00     0.094 C 
ATOM      2  C   UNL     1      -8.635 -22.546  17.926  1.00  0.00     0.016 C 
ENDROOT
BRANCH   1   3
ATOM      3  C   UNL     1     -10.280 -22.316  19.748  1.00  0.00     0.330 C 
ATOM      4  O   UNL     1     -11.097 -23.124  19.224  1.00  0.00    -0.247 OA
BRANCH   3   5
ATOM      5  O   UNL     1     -10.623 -21.608  20.904  1.00  0.00    -0.463 OA
BRANCH   5   6
ATOM      6  C   UNL     1      -9.957 -20.419  21.325  1.00  0.00     0.230 C 
ATOM      7  C   UNL     1      -9.486 -20.548  22.769  1.00  0.00     0.049 C 
ENDBRANCH   5   6
ENDBRANCH   3   5
ENDBRANCH   1   3
BRANCH   2   8
ATOM      8  C   UNL     1      -7.305 -22.352  17.297  1.00  0.00    -0.021 A 
ATOM      9  C   UNL     1      -6.115 -22.843  17.871  1.00  0.00     0.058 A 
ATOM     10  C   UNL     1      -7.229 -21.620  16.102  1.00  0.00     0.012 A 
ATOM     11  C   UNL     1      -4.878 -22.625  17.245  1.00  0.00     0.157 A 
ATOM     12  C   UNL     1      -5.998 -21.404  15.477  1.00  0.00     0.051 A 
ATOM     13  C   UNL     1      -4.822 -21.905  16.041  1.00  0.00     0.157 A 
BRANCH  11  14
ATOM     14  O   UNL     1      -3.707 -23.117  17.818  1.00  0.00    -0.504 OA
ATOM     15  H   UNL     1      -3.630 -24.080  18.128  1.00  0.00     0.293 HD
ENDBRANCH  11  14
BRANCH  13  16
ATOM     16  O   UNL     1      -3.608 -21.675  15.392  1.00  0.00    -0.504 OA
ATOM     17  H   UNL     1      -3.050 -20.850  15.574  1.00  0.00     0.293 HD
ENDBRANCH  13  16
ENDBRANCH   2   8
TORSDOF 6
ENDMDL
MODEL 5
REMARK VINA RESULT:    -2.769      1.680      1.901
REMARK INTER + INTRA:          -3.878
REMARK INTER:                  -3.631
REMARK INTRA:                  -0.247
REMARK UNBOUND:                -0.299
REMARK SMILES CCOC(=O)C=Cc1ccc(O)c(O)c1
REMARK SMILES IDX 6 1 7 2 4 3 5 4 3 5 2 6 1 7 8 8 15 9 9 10 13 11 10 12 11 13
REMARK SMILES IDX 14 14 12 16
REMARK H PARENT 14 15 12 17
REMARK Flexibility Score: inf
ROOT
ATOM      1  C   UNL     1      -9.916 -21.595  18.033  1.00  0.00     0.094 C 
ATOM      2  C   UNL     1     -10.618 -21.955  19.117  1.00  0.00     0.016 C 
ENDROOT
BRANCH   1   3
ATOM      3  C   UNL     1     -10.531 -21.471  16.701  1.00  0.00     0.330 C 
ATOM      4  O   UNL     1     -11.125 -22.452  16.171  1.00  0.00    -0.247 OA
BRANCH   3   5
ATOM      5  O   UNL     1     -10.439 -20.249  16.027  1.00  0.00    -0.463 OA
BRANCH   5   6
ATOM      6  C   UNL     1      -9.962 -20.122  14.689  1.00  0.00     0.230 C 
ATOM      7  C   UNL     1      -8.652 -20.880  14.510  1.00  0.00     0.049 C 
ENDBRANCH   5   6
ENDBRANCH   3   5
ENDBRANCH   1   3
BRANCH   2   8
ATOM      8  C   UNL     1     -10.033 -22.078  20.475  1.00  0.00    -0.021 A 
ATOM      9  C   UNL     1     -10.690 -21.608  21.630  1.00  0.00     0.058 A 
ATOM     10  C   UNL     1      -8.759 -22.653  20.606  1.00  0.00     0.012 A 
ATOM     11  C   UNL     1     -10.092 -21.737  22.893  1.00  0.00     0.157 A 
ATOM     12  C   UNL     1      -8.164 -22.783  21.863  1.00  0.00     0.051 A 
ATOM     13  C   UNL     1      -8.825 -22.330  23.009  1.00  0.00     0.157 A 
BRANCH  11  14
ATOM     14  O   UNL     1     -10.751 -21.273  24.030  1.00  0.00    -0.504 OA
ATOM     15  H   UNL     1     -11.480 -21.816  24.481  1.00  0.00     0.293 HD
ENDBRANCH  11  14
BRANCH  13  16
ATOM     16  O   UNL     1      -8.206 -22.476  24.251  1.00  0.00    -0.504 OA
ATOM     17  H   UNL     1      -8.658 -22.949  25.024  1.00  0.00     0.293 HD
ENDBRANCH  13  16
ENDBRANCH   2   8
TORSDOF 6
ENDMDL
MODEL 6
REMARK VINA RESULT:    -2.735     12.514     16.214
REMARK INTER + INTRA:          -3.834
REMARK INTER:                  -3.605
REMARK INTRA:                  -0.229
REMARK UNBOUND:                -0.299
REMARK SMILES CCOC(=O)C=Cc1ccc(O)c(O)c1
REMARK SMILES IDX 6 1 7 2 4 3 5 4 3 5 2 6 1 7 8 8 15 9 9 10 13 11 10 12 11 13
REMARK SMILES IDX 14 14 12 16
REMARK H PARENT 14 15 12 17
REMARK Flexibility Score: inf
ROOT
ATOM      1  C   UNL     1       7.031 -22.074  13.198  1.00  0.00     0.094 C 
ATOM      2  C   UNL     1       6.535 -22.944  14.090  1.00  0.00     0.016 C 
ENDROOT
BRANCH   1   3
ATOM      3  C   UNL     1       8.456 -22.053  12.826  1.00  0.00     0.330 C 
ATOM      4  O   UNL     1       9.065 -23.125  12.552  1.00  0.00    -0.247 OA
BRANCH   3   5
ATOM      5  O   UNL     1       9.125 -20.826  12.789  1.00  0.00    -0.463 OA
BRANCH   5   6
ATOM      6  C   UNL     1       8.846 -19.806  11.831  1.00  0.00     0.230 C 
ATOM      7  C   UNL     1       9.116 -18.426  12.420  1.00  0.00     0.049 C 
ENDBRANCH   5   6
ENDBRANCH   3   5
ENDBRANCH   1   3
BRANCH   2   8
ATOM      8  C   UNL     1       5.104 -23.000  14.478  1.00  0.00    -0.021 A 
ATOM      9  C   UNL     1       4.061 -23.040  13.530  1.00  0.00     0.058 A 
ATOM     10  C   UNL     1       4.778 -22.977  15.843  1.00  0.00     0.012 A 
ATOM     11  C   UNL     1       2.722 -23.082  13.944  1.00  0.00     0.157 A 
ATOM     12  C   UNL     1       3.444 -23.019  16.257  1.00  0.00     0.051 A 
ATOM     13  C   UNL     1       2.413 -23.075  15.315  1.00  0.00     0.157 A 
BRANCH  11  14
ATOM     14  O   UNL     1       1.697 -23.125  13.000  1.00  0.00    -0.504 OA
ATOM     15  H   UNL     1       1.060 -22.347  12.871  1.00  0.00     0.293 HD
ENDBRANCH  11  14
BRANCH  13  16
ATOM     16  O   UNL     1       1.091 -23.119  15.758  1.00  0.00    -0.504 OA
ATOM     17  H   UNL     1       0.856 -23.225  16.737  1.00  0.00     0.293 HD
ENDBRANCH  13  16
ENDBRANCH   2   8
TORSDOF 6
ENDMDL
MODEL 7
REMARK VINA RESULT:    -2.726      2.211      6.498
REMARK INTER + INTRA:          -3.823
REMARK INTER:                  -3.554
REMARK INTRA:                  -0.268
REMARK UNBOUND:                -0.299
REMARK SMILES CCOC(=O)C=Cc1ccc(O)c(O)c1
REMARK SMILES IDX 6 1 7 2 4 3 5 4 3 5 2 6 1 7 8 8 15 9 9 10 13 11 10 12 11 13
REMARK SMILES IDX 14 14 12 16
REMARK H PARENT 14 15 12 17
REMARK Flexibility Score: inf
ROOT
ATOM      1  C   UNL     1      -8.751 -22.005  19.366  1.00  0.00     0.094 C 
ATOM      2  C   UNL     1      -8.465 -22.311  18.092  1.00  0.00     0.016 C 
ENDROOT
BRANCH   1   3
ATOM      3  C   UNL     1     -10.120 -22.072  19.904  1.00  0.00     0.330 C 
ATOM      4  O   UNL     1     -11.087 -22.410  19.165  1.00  0.00    -0.247 OA
BRANCH   3   5
ATOM      5  O   UNL     1     -10.333 -21.746  21.247  1.00  0.00    -0.463 OA
BRANCH   5   6
ATOM      6  C   UNL     1      -9.533 -20.808  21.965  1.00  0.00     0.230 C 
ATOM      7  C   UNL     1      -8.645 -21.521  22.977  1.00  0.00     0.049 C 
ENDBRANCH   5   6
ENDBRANCH   3   5
ENDBRANCH   1   3
BRANCH   2   8
ATOM      8  C   UNL     1      -7.096 -22.266  17.521  1.00  0.00    -0.021 A 
ATOM      9  C   UNL     1      -6.749 -21.422  16.447  1.00  0.00     0.058 A 
ATOM     10  C   UNL     1      -6.120 -23.125  18.051  1.00  0.00     0.012 A 
ATOM     11  C   UNL     1      -5.443 -21.421  15.933  1.00  0.00     0.157 A 
ATOM     12  C   UNL     1      -4.819 -23.124  17.540  1.00  0.00     0.051 A 
ATOM     13  C   UNL     1      -4.474 -22.274  16.486  1.00  0.00     0.157 A 
BRANCH  11  14
ATOM     14  O   UNL     1      -5.108 -20.580  14.873  1.00  0.00    -0.504 OA
ATOM     15  H   UNL     1      -4.486 -19.788  14.999  1.00  0.00     0.293 HD
ENDBRANCH  11  14
BRANCH  13  16
ATOM     16  O   UNL     1      -3.167 -22.293  15.999  1.00  0.00    -0.504 OA
ATOM     17  H   UNL     1      -2.830 -23.033  15.394  1.00  0.00     0.293 HD
ENDBRANCH  13  16
ENDBRANCH   2   8
TORSDOF 6
ENDMDL
