MODEL 1
REMARK VINA RESULT:    -5.916      0.000      0.000
REMARK INTER + INTRA:          -7.448
REMARK INTER:                  -7.126
REMARK INTRA:                  -0.322
REMARK UNBOUND:                -0.322
REMARK SMILES O=c1c(O)c(-c2ccc(O)c(O)c2)oc2cc(O)cc(O)c12
REMARK SMILES IDX 5 1 3 2 2 3 1 4 22 5 20 6 19 7 17 8 16 9 15 10 14 11 6 12
REMARK SMILES IDX 7 13 8 14 9 15 13 16 11 17 10 18 12 20 4 22 21 24 18 26
REMARK H PARENT 10 19 12 21 4 23 21 25 18 27
REMARK Flexibility Score: inf
ROOT
ATOM      1  C   UNL     1      29.296  11.705  27.967  1.00  0.00     0.180 A 
ATOM      2  C   UNL     1      29.085  10.318  27.867  1.00  0.00     0.208 A 
ATOM      3  C   UNL     1      29.507   9.488  28.918  1.00  0.00     0.238 A 
ATOM      4  O   UNL     1      29.365   8.244  28.799  1.00  0.00    -0.285 OA
ATOM      5  C   UNL     1      30.120  10.055  30.062  1.00  0.00     0.111 A 
ATOM      6  C   UNL     1      30.549   9.313  31.202  1.00  0.00     0.134 A 
ATOM      7  C   UNL     1      31.260   9.961  32.220  1.00  0.00     0.093 A 
ATOM      8  C   UNL     1      31.500  11.334  32.170  1.00  0.00     0.123 A 
ATOM      9  C   UNL     1      31.031  12.080  31.088  1.00  0.00     0.094 A 
ATOM     10  C   UNL     1      30.351  11.455  30.039  1.00  0.00     0.146 A 
ATOM     11  O   UNL     1      29.931  12.199  29.024  1.00  0.00    -0.452 OA
ENDROOT
BRANCH   1  12
ATOM     12  C   UNL     1      28.856  12.647  26.912  1.00  0.00     0.025 A 
ATOM     13  C   UNL     1      27.616  13.306  26.990  1.00  0.00     0.016 A 
ATOM     14  C   UNL     1      27.233  14.208  25.994  1.00  0.00     0.051 A 
ATOM     15  C   UNL     1      28.083  14.478  24.918  1.00  0.00     0.157 A 
ATOM     16  C   UNL     1      29.716  12.936  25.841  1.00  0.00     0.062 A 
ATOM     17  C   UNL     1      29.332  13.841  24.841  1.00  0.00     0.158 A 
BRANCH  15  18
ATOM     18  O   UNL     1      27.672  15.382  23.939  1.00  0.00    -0.504 OA
ATOM     19  H   UNL     1      28.113  16.285  23.822  1.00  0.00     0.293 HD
ENDBRANCH  15  18
BRANCH  17  20
ATOM     20  O   UNL     1      30.189  14.110  23.774  1.00  0.00    -0.504 OA
ATOM     21  H   UNL     1      31.196  14.053  23.873  1.00  0.00     0.293 HD
ENDBRANCH  17  20
ENDBRANCH   1  12
BRANCH   2  22
ATOM     22  O   UNL     1      28.499   9.778  26.720  1.00  0.00    -0.502 OA
ATOM     23  H   UNL     1      28.506  10.256  25.828  1.00  0.00     0.293 HD
ENDBRANCH   2  22
BRANCH   6  24
ATOM     24  O   UNL     1      30.281   7.955  31.396  1.00  0.00    -0.507 OA
ATOM     25  H   UNL     1      30.004   7.314  30.669  1.00  0.00     0.293 HD
ENDBRANCH   6  24
BRANCH   8  26
ATOM     26  O   UNL     1      32.196  11.948  33.208  1.00  0.00    -0.508 OA
ATOM     27  H   UNL     1      31.902  12.839  33.589  1.00  0.00     0.293 HD
ENDBRANCH   8  26
TORSDOF 6
ENDMDL
MODEL 2
REMARK VINA RESULT:    -5.823      2.466      7.030
REMARK INTER + INTRA:          -7.336
REMARK INTER:                  -7.226
REMARK INTRA:                  -0.110
REMARK UNBOUND:                -0.322
REMARK SMILES O=c1c(O)c(-c2ccc(O)c(O)c2)oc2cc(O)cc(O)c12
REMARK SMILES IDX 5 1 3 2 2 3 1 4 22 5 20 6 19 7 17 8 16 9 15 10 14 11 6 12
REMARK SMILES IDX 7 13 8 14 9 15 13 16 11 17 10 18 12 20 4 22 21 24 18 26
REMARK H PARENT 10 19 12 21 4 23 21 25 18 27
REMARK Flexibility Score: inf
ROOT
ATOM      1  C   UNL     1      29.728   9.591  26.787  1.00  0.00     0.180 A 
ATOM      2  C   UNL     1      29.019   9.202  25.637  1.00  0.00     0.208 A 
ATOM      3  C   UNL     1      28.589  10.189  24.735  1.00  0.00     0.238 A 
ATOM      4  O   UNL     1      27.908   9.839  23.737  1.00  0.00    -0.285 OA
ATOM      5  C   UNL     1      28.888  11.550  24.986  1.00  0.00     0.111 A 
ATOM      6  C   UNL     1      28.537  12.629  24.120  1.00  0.00     0.134 A 
ATOM      7  C   UNL     1      28.767  13.947  24.531  1.00  0.00     0.093 A 
ATOM      8  C   UNL     1      29.395  14.224  25.746  1.00  0.00     0.123 A 
ATOM      9  C   UNL     1      29.797  13.174  26.573  1.00  0.00     0.094 A 
ATOM     10  C   UNL     1      29.547  11.849  26.207  1.00  0.00     0.146 A 
ATOM     11  O   UNL     1      29.935  10.881  27.026  1.00  0.00    -0.452 OA
ENDROOT
BRANCH   1  12
ATOM     12  C   UNL     1      30.235   8.607  27.770  1.00  0.00     0.025 A 
ATOM     13  C   UNL     1      31.100   7.567  27.386  1.00  0.00     0.016 A 
ATOM     14  C   UNL     1      31.585   6.665  28.337  1.00  0.00     0.051 A 
ATOM     15  C   UNL     1      31.228   6.793  29.682  1.00  0.00     0.157 A 
ATOM     16  C   UNL     1      29.895   8.745  29.126  1.00  0.00     0.062 A 
ATOM     17  C   UNL     1      30.380   7.840  30.080  1.00  0.00     0.158 A 
BRANCH  15  18
ATOM     18  O   UNL     1      31.726   5.875  30.606  1.00  0.00    -0.504 OA
ATOM     19  H   UNL     1      32.702   5.858  30.873  1.00  0.00     0.293 HD
ENDBRANCH  15  18
BRANCH  17  20
ATOM     20  O   UNL     1      30.025   7.979  31.421  1.00  0.00    -0.504 OA
ATOM     21  H   UNL     1      30.675   7.766  32.168  1.00  0.00     0.293 HD
ENDBRANCH  17  20
ENDBRANCH   1  12
BRANCH   2  22
ATOM     22  O   UNL     1      28.716   7.855  25.420  1.00  0.00    -0.502 OA
ATOM     23  H   UNL     1      27.793   7.542  25.146  1.00  0.00     0.293 HD
ENDBRANCH   2  22
BRANCH   6  24
ATOM     24  O   UNL     1      27.989  12.460  22.845  1.00  0.00    -0.507 OA
ATOM     25  H   UNL     1      27.070  12.769  22.569  1.00  0.00     0.293 HD
ENDBRANCH   6  24
BRANCH   8  26
ATOM     26  O   UNL     1      29.623  15.547  26.115  1.00  0.00    -0.508 OA
ATOM     27  H   UNL     1      29.246  15.930  26.974  1.00  0.00     0.293 HD
ENDBRANCH   8  26
TORSDOF 6
ENDMDL
MODEL 3
REMARK VINA RESULT:    -5.735      2.961      7.600
REMARK INTER + INTRA:          -7.230
REMARK INTER:                  -6.986
REMARK INTRA:                  -0.244
REMARK UNBOUND:                -0.322
REMARK SMILES O=c1c(O)c(-c2ccc(O)c(O)c2)oc2cc(O)cc(O)c12
REMARK SMILES IDX 5 1 3 2 2 3 1 4 22 5 20 6 19 7 17 8 16 9 15 10 14 11 6 12
REMARK SMILES IDX 7 13 8 14 9 15 13 16 11 17 10 18 12 20 4 22 21 24 18 26
REMARK H PARENT 10 19 12 21 4 23 21 25 18 27
REMARK Flexibility Score: inf
ROOT
ATOM      1  C   UNL     1      30.721   8.552  30.943  1.00  0.00     0.180 A 
ATOM      2  C   UNL     1      31.035   7.292  30.404  1.00  0.00     0.208 A 
ATOM      3  C   UNL     1      30.710   7.023  29.065  1.00  0.00     0.238 A 
ATOM      4  O   UNL     1      30.944   5.875  28.606  1.00  0.00    -0.285 OA
ATOM      5  C   UNL     1      30.089   8.021  28.277  1.00  0.00     0.111 A 
ATOM      6  C   UNL     1      29.751   7.871  26.899  1.00  0.00     0.134 A 
ATOM      7  C   UNL     1      29.021   8.877  26.253  1.00  0.00     0.093 A 
ATOM      8  C   UNL     1      28.675  10.054  26.916  1.00  0.00     0.123 A 
ATOM      9  C   UNL     1      29.053  10.237  28.247  1.00  0.00     0.094 A 
ATOM     10  C   UNL     1      29.749   9.235  28.929  1.00  0.00     0.146 A 
ATOM     11  O   UNL     1      30.081   9.444  30.196  1.00  0.00    -0.452 OA
ENDROOT
BRANCH   1  12
ATOM     12  C   UNL     1      31.056   8.919  32.338  1.00  0.00     0.025 A 
ATOM     13  C   UNL     1      32.081   9.838  32.627  1.00  0.00     0.016 A 
ATOM     14  C   UNL     1      32.363  10.187  33.950  1.00  0.00     0.051 A 
ATOM     15  C   UNL     1      31.622   9.638  35.001  1.00  0.00     0.157 A 
ATOM     16  C   UNL     1      30.300   8.386  33.394  1.00  0.00     0.062 A 
ATOM     17  C   UNL     1      30.583   8.735  34.722  1.00  0.00     0.158 A 
BRANCH  15  18
ATOM     18  O   UNL     1      31.929  10.004  36.311  1.00  0.00    -0.504 OA
ATOM     19  H   UNL     1      32.772   9.690  36.773  1.00  0.00     0.293 HD
ENDBRANCH  15  18
BRANCH  17  20
ATOM     20  O   UNL     1      29.834   8.189  35.764  1.00  0.00    -0.504 OA
ATOM     21  H   UNL     1      30.225   7.498  36.394  1.00  0.00     0.293 HD
ENDBRANCH  17  20
ENDBRANCH   1  12
BRANCH   2  22
ATOM     22  O   UNL     1      31.629   6.313  31.207  1.00  0.00    -0.502 OA
ATOM     23  H   UNL     1      31.781   5.366  30.885  1.00  0.00     0.293 HD
ENDBRANCH   2  22
BRANCH   6  24
ATOM     24  O   UNL     1      30.128   6.775  26.117  1.00  0.00    -0.507 OA
ATOM     25  H   UNL     1      29.935   6.678  25.133  1.00  0.00     0.293 HD
ENDBRANCH   6  24
BRANCH   8  26
ATOM     26  O   UNL     1      27.964  11.041  26.237  1.00  0.00    -0.508 OA
ATOM     27  H   UNL     1      27.599  11.856  26.717  1.00  0.00     0.293 HD
ENDBRANCH   8  26
TORSDOF 6
ENDMDL
MODEL 4
REMARK VINA RESULT:    -5.714      3.517      7.788
REMARK INTER + INTRA:          -7.204
REMARK INTER:                  -7.028
REMARK INTRA:                  -0.176
REMARK UNBOUND:                -0.322
REMARK SMILES O=c1c(O)c(-c2ccc(O)c(O)c2)oc2cc(O)cc(O)c12
REMARK SMILES IDX 5 1 3 2 2 3 1 4 22 5 20 6 19 7 17 8 16 9 15 10 14 11 6 12
REMARK SMILES IDX 7 13 8 14 9 15 13 16 11 17 10 18 12 20 4 22 21 24 18 26
REMARK H PARENT 10 19 12 21 4 23 21 25 18 27
REMARK Flexibility Score: inf
ROOT
ATOM      1  C   UNL     1      30.614   8.144  26.209  1.00  0.00     0.180 A 
ATOM      2  C   UNL     1      30.014   7.326  25.236  1.00  0.00     0.208 A 
ATOM      3  C   UNL     1      29.877   7.814  23.926  1.00  0.00     0.238 A 
ATOM      4  O   UNL     1      29.290   7.098  23.074  1.00  0.00    -0.285 OA
ATOM      5  C   UNL     1      30.354   9.107  23.603  1.00  0.00     0.111 A 
ATOM      6  C   UNL     1      30.302   9.686  22.300  1.00  0.00     0.134 A 
ATOM      7  C   UNL     1      30.685  11.022  22.122  1.00  0.00     0.093 A 
ATOM      8  C   UNL     1      31.178  11.777  23.186  1.00  0.00     0.123 A 
ATOM      9  C   UNL     1      31.289  11.201  24.452  1.00  0.00     0.094 A 
ATOM     10  C   UNL     1      30.881   9.882  24.668  1.00  0.00     0.146 A 
ATOM     11  O   UNL     1      30.993   9.376  25.889  1.00  0.00    -0.452 OA
ENDROOT
BRANCH   1  12
ATOM     12  C   UNL     1      30.818   7.690  27.604  1.00  0.00     0.025 A 
ATOM     13  C   UNL     1      31.648   6.595  27.904  1.00  0.00     0.016 A 
ATOM     14  C   UNL     1      31.844   6.200  29.230  1.00  0.00     0.051 A 
ATOM     15  C   UNL     1      31.229   6.896  30.274  1.00  0.00     0.157 A 
ATOM     16  C   UNL     1      30.219   8.400  28.657  1.00  0.00     0.062 A 
ATOM     17  C   UNL     1      30.414   8.004  29.988  1.00  0.00     0.158 A 
BRANCH  15  18
ATOM     18  O   UNL     1      31.442   6.476  31.587  1.00  0.00    -0.504 OA
ATOM     19  H   UNL     1      32.320   6.631  32.065  1.00  0.00     0.293 HD
ENDBRANCH  15  18
BRANCH  17  20
ATOM     20  O   UNL     1      29.802   8.707  31.024  1.00  0.00    -0.504 OA
ATOM     21  H   UNL     1      29.293   9.567  30.855  1.00  0.00     0.293 HD
ENDBRANCH  17  20
ENDBRANCH   1  12
BRANCH   2  22
ATOM     22  O   UNL     1      29.531   6.061  25.582  1.00  0.00    -0.502 OA
ATOM     23  H   UNL     1      30.084   5.220  25.478  1.00  0.00     0.293 HD
ENDBRANCH   2  22
BRANCH   6  24
ATOM     24  O   UNL     1      29.913   8.991  21.151  1.00  0.00    -0.507 OA
ATOM     25  H   UNL     1      29.124   9.234  20.573  1.00  0.00     0.293 HD
ENDBRANCH   6  24
BRANCH   8  26
ATOM     26  O   UNL     1      31.565  13.098  22.969  1.00  0.00    -0.508 OA
ATOM     27  H   UNL     1      31.042  13.709  22.353  1.00  0.00     0.293 HD
ENDBRANCH   8  26
TORSDOF 6
ENDMDL
MODEL 5
REMARK VINA RESULT:    -5.638      2.140      2.662
REMARK INTER + INTRA:          -7.114
REMARK INTER:                  -6.903
REMARK INTRA:                  -0.211
REMARK UNBOUND:                -0.322
REMARK SMILES O=c1c(O)c(-c2ccc(O)c(O)c2)oc2cc(O)cc(O)c12
REMARK SMILES IDX 5 1 3 2 2 3 1 4 22 5 20 6 19 7 17 8 16 9 15 10 14 11 6 12
REMARK SMILES IDX 7 13 8 14 9 15 13 16 11 17 10 18 12 20 4 22 21 24 18 26
REMARK H PARENT 10 19 12 21 4 23 21 25 18 27
REMARK Flexibility Score: inf
ROOT
ATOM      1  C   UNL     1      29.146  11.209  28.122  1.00  0.00     0.180 A 
ATOM      2  C   UNL     1      28.928  10.288  27.082  1.00  0.00     0.208 A 
ATOM      3  C   UNL     1      29.227   8.933  27.298  1.00  0.00     0.238 A 
ATOM      4  O   UNL     1      29.082   8.124  26.346  1.00  0.00    -0.285 OA
ATOM      5  C   UNL     1      29.725   8.513  28.555  1.00  0.00     0.111 A 
ATOM      6  C   UNL     1      30.025   7.161  28.897  1.00  0.00     0.134 A 
ATOM      7  C   UNL     1      30.635   6.877  30.125  1.00  0.00     0.093 A 
ATOM      8  C   UNL     1      30.897   7.888  31.049  1.00  0.00     0.123 A 
ATOM      9  C   UNL     1      30.553   9.207  30.750  1.00  0.00     0.094 A 
ATOM     10  C   UNL     1      29.977   9.526  29.517  1.00  0.00     0.146 A 
ATOM     11  O   UNL     1      29.674  10.794  29.268  1.00  0.00    -0.452 OA
ENDROOT
BRANCH   1  12
ATOM     12  C   UNL     1      28.830  12.649  27.979  1.00  0.00     0.025 A 
ATOM     13  C   UNL     1      27.775  13.242  28.695  1.00  0.00     0.016 A 
ATOM     14  C   UNL     1      27.512  14.607  28.562  1.00  0.00     0.051 A 
ATOM     15  C   UNL     1      28.302  15.403  27.728  1.00  0.00     0.157 A 
ATOM     16  C   UNL     1      29.635  13.455  27.158  1.00  0.00     0.062 A 
ATOM     17  C   UNL     1      29.371  14.826  27.023  1.00  0.00     0.158 A 
BRANCH  15  18
ATOM     18  O   UNL     1      28.012  16.762  27.614  1.00  0.00    -0.504 OA
ATOM     19  H   UNL     1      28.401  17.449  28.247  1.00  0.00     0.293 HD
ENDBRANCH  15  18
BRANCH  17  20
ATOM     20  O   UNL     1      30.168  15.614  26.194  1.00  0.00    -0.504 OA
ATOM     21  H   UNL     1      29.781  16.109  25.400  1.00  0.00     0.293 HD
ENDBRANCH  17  20
ENDBRANCH   1  12
BRANCH   2  22
ATOM     22  O   UNL     1      28.456  10.728  25.842  1.00  0.00    -0.502 OA
ATOM     23  H   UNL     1      27.490  10.989  25.689  1.00  0.00     0.293 HD
ENDBRANCH   2  22
BRANCH   6  24
ATOM     24  O   UNL     1      29.719   6.065  28.084  1.00  0.00    -0.507 OA
ATOM     25  H   UNL     1      28.792   5.697  27.941  1.00  0.00     0.293 HD
ENDBRANCH   6  24
BRANCH   8  26
ATOM     26  O   UNL     1      31.490   7.568  32.268  1.00  0.00    -0.508 OA
ATOM     27  H   UNL     1      31.472   8.210  33.051  1.00  0.00     0.293 HD
ENDBRANCH   8  26
TORSDOF 6
ENDMDL
MODEL 6
REMARK VINA RESULT:    -5.614      1.839      2.234
REMARK INTER + INTRA:          -7.084
REMARK INTER:                  -6.825
REMARK INTRA:                  -0.259
REMARK UNBOUND:                -0.322
REMARK SMILES O=c1c(O)c(-c2ccc(O)c(O)c2)oc2cc(O)cc(O)c12
REMARK SMILES IDX 5 1 3 2 2 3 1 4 22 5 20 6 19 7 17 8 16 9 15 10 14 11 6 12
REMARK SMILES IDX 7 13 8 14 9 15 13 16 11 17 10 18 12 20 4 22 21 24 18 26
REMARK H PARENT 10 19 12 21 4 23 21 25 18 27
REMARK Flexibility Score: inf
ROOT
ATOM      1  C   UNL     1      29.593  10.347  29.072  1.00  0.00     0.180 A 
ATOM      2  C   UNL     1      29.750   9.088  28.468  1.00  0.00     0.208 A 
ATOM      3  C   UNL     1      30.279   8.030  29.226  1.00  0.00     0.238 A 
ATOM      4  O   UNL     1      30.468   6.921  28.664  1.00  0.00    -0.285 OA
ATOM      5  C   UNL     1      30.630   8.241  30.581  1.00  0.00     0.111 A 
ATOM      6  C   UNL     1      31.137   7.232  31.453  1.00  0.00     0.134 A 
ATOM      7  C   UNL     1      31.573   7.583  32.737  1.00  0.00     0.093 A 
ATOM      8  C   UNL     1      31.459   8.892  33.203  1.00  0.00     0.123 A 
ATOM      9  C   UNL     1      30.909   9.875  32.380  1.00  0.00     0.094 A 
ATOM     10  C   UNL     1      30.499   9.563  31.080  1.00  0.00     0.146 A 
ATOM     11  O   UNL     1      29.991  10.529  30.326  1.00  0.00    -0.452 OA
ENDROOT
BRANCH   1  12
ATOM     12  C   UNL     1      29.018  11.503  28.347  1.00  0.00     0.025 A 
ATOM     13  C   UNL     1      27.647  11.566  28.038  1.00  0.00     0.016 A 
ATOM     14  C   UNL     1      27.124  12.678  27.373  1.00  0.00     0.051 A 
ATOM     15  C   UNL     1      27.952  13.747  27.021  1.00  0.00     0.157 A 
ATOM     16  C   UNL     1      29.843  12.588  28.009  1.00  0.00     0.062 A 
ATOM     17  C   UNL     1      29.319  13.704  27.342  1.00  0.00     0.158 A 
BRANCH  15  18
ATOM     18  O   UNL     1      27.401  14.842  26.356  1.00  0.00    -0.504 OA
ATOM     19  H   UNL     1      27.735  15.786  26.506  1.00  0.00     0.293 HD
ENDBRANCH  15  18
BRANCH  17  20
ATOM     20  O   UNL     1      30.151  14.769  27.000  1.00  0.00    -0.504 OA
ATOM     21  H   UNL     1      31.105  14.621  26.693  1.00  0.00     0.293 HD
ENDBRANCH  17  20
ENDBRANCH   1  12
BRANCH   2  22
ATOM     22  O   UNL     1      29.418   8.907  27.123  1.00  0.00    -0.502 OA
ATOM     23  H   UNL     1      29.995   9.258  26.369  1.00  0.00     0.293 HD
ENDBRANCH   2  22
BRANCH   6  24
ATOM     24  O   UNL     1      31.207   5.876  31.120  1.00  0.00    -0.507 OA
ATOM     25  H   UNL     1      31.699   5.177  31.655  1.00  0.00     0.293 HD
ENDBRANCH   6  24
BRANCH   8  26
ATOM     26  O   UNL     1      31.888   9.202  34.491  1.00  0.00    -0.508 OA
ATOM     27  H   UNL     1      31.661  10.089  34.926  1.00  0.00     0.293 HD
ENDBRANCH   8  26
TORSDOF 6
ENDMDL
MODEL 7
REMARK VINA RESULT:    -5.590      2.108      3.915
REMARK INTER + INTRA:          -7.056
REMARK INTER:                  -6.742
REMARK INTRA:                  -0.314
REMARK UNBOUND:                -0.322
REMARK SMILES O=c1c(O)c(-c2ccc(O)c(O)c2)oc2cc(O)cc(O)c12
REMARK SMILES IDX 5 1 3 2 2 3 1 4 22 5 20 6 19 7 17 8 16 9 15 10 14 11 6 12
REMARK SMILES IDX 7 13 8 14 9 15 13 16 11 17 10 18 12 20 4 22 21 24 18 26
REMARK H PARENT 10 19 12 21 4 23 21 25 18 27
REMARK Flexibility Score: inf
ROOT
ATOM      1  C   UNL     1      29.143  11.705  28.323  1.00  0.00     0.180 A 
ATOM      2  C   UNL     1      29.722  11.349  29.554  1.00  0.00     0.208 A 
ATOM      3  C   UNL     1      30.033  10.001  29.796  1.00  0.00     0.238 A 
ATOM      4  O   UNL     1      30.500   9.682  30.919  1.00  0.00    -0.285 OA
ATOM      5  C   UNL     1      29.776   9.029  28.799  1.00  0.00     0.111 A 
ATOM      6  C   UNL     1      30.087   7.642  28.921  1.00  0.00     0.134 A 
ATOM      7  C   UNL     1      29.670   6.750  27.926  1.00  0.00     0.093 A 
ATOM      8  C   UNL     1      29.011   7.203  26.783  1.00  0.00     0.123 A 
ATOM      9  C   UNL     1      28.755   8.566  26.625  1.00  0.00     0.094 A 
ATOM     10  C   UNL     1      29.126   9.476  27.619  1.00  0.00     0.146 A 
ATOM     11  O   UNL     1      28.855  10.761  27.435  1.00  0.00    -0.452 OA
ENDROOT
BRANCH   1  12
ATOM     12  C   UNL     1      28.811  13.108  27.985  1.00  0.00     0.025 A 
ATOM     13  C   UNL     1      27.596  13.691  28.388  1.00  0.00     0.016 A 
ATOM     14  C   UNL     1      27.316  15.024  28.077  1.00  0.00     0.051 A 
ATOM     15  C   UNL     1      28.244  15.798  27.375  1.00  0.00     0.157 A 
ATOM     16  C   UNL     1      29.750  13.895  27.298  1.00  0.00     0.062 A 
ATOM     17  C   UNL     1      29.469  15.233  26.985  1.00  0.00     0.158 A 
BRANCH  15  18
ATOM     18  O   UNL     1      27.934  17.125  27.078  1.00  0.00    -0.504 OA
ATOM     19  H   UNL     1      27.874  17.462  26.125  1.00  0.00     0.293 HD
ENDBRANCH  15  18
BRANCH  17  20
ATOM     20  O   UNL     1      30.403  16.000  26.290  1.00  0.00    -0.504 OA
ATOM     21  H   UNL     1      30.814  15.679  25.422  1.00  0.00     0.293 HD
ENDBRANCH  17  20
ENDBRANCH   1  12
BRANCH   2  22
ATOM     22  O   UNL     1      29.947  12.322  30.532  1.00  0.00    -0.502 OA
ATOM     23  H   UNL     1      29.229  12.970  30.830  1.00  0.00     0.293 HD
ENDBRANCH   2  22
BRANCH   6  24
ATOM     24  O   UNL     1      30.823   7.097  29.978  1.00  0.00    -0.507 OA
ATOM     25  H   UNL     1      30.936   6.111  30.151  1.00  0.00     0.293 HD
ENDBRANCH   6  24
BRANCH   8  26
ATOM     26  O   UNL     1      28.625   6.289  25.805  1.00  0.00    -0.508 OA
ATOM     27  H   UNL     1      27.649   6.132  25.583  1.00  0.00     0.293 HD
ENDBRANCH   8  26
TORSDOF 6
ENDMDL
MODEL 8
REMARK VINA RESULT:    -5.534      2.985      4.157
REMARK INTER + INTRA:          -6.988
REMARK INTER:                  -6.660
REMARK INTRA:                  -0.328
REMARK UNBOUND:                -0.322
REMARK SMILES O=c1c(O)c(-c2ccc(O)c(O)c2)oc2cc(O)cc(O)c12
REMARK SMILES IDX 5 1 3 2 2 3 1 4 22 5 20 6 19 7 17 8 16 9 15 10 14 11 6 12
REMARK SMILES IDX 7 13 8 14 9 15 13 16 11 17 10 18 12 20 4 22 21 24 18 26
REMARK H PARENT 10 19 12 21 4 23 21 25 18 27
REMARK Flexibility Score: inf
ROOT
ATOM      1  C   UNL     1      28.813  11.424  26.447  1.00  0.00     0.180 A 
ATOM      2  C   UNL     1      28.718  10.930  25.135  1.00  0.00     0.208 A 
ATOM      3  C   UNL     1      28.939   9.562  24.905  1.00  0.00     0.238 A 
ATOM      4  O   UNL     1      28.906   9.136  23.721  1.00  0.00    -0.285 OA
ATOM      5  C   UNL     1      29.237   8.704  25.990  1.00  0.00     0.111 A 
ATOM      6  C   UNL     1      29.440   7.296  25.878  1.00  0.00     0.134 A 
ATOM      7  C   UNL     1      29.858   6.567  26.998  1.00  0.00     0.093 A 
ATOM      8  C   UNL     1      30.017   7.182  28.240  1.00  0.00     0.123 A 
ATOM      9  C   UNL     1      29.763   8.547  28.374  1.00  0.00     0.094 A 
ATOM     10  C   UNL     1      29.380   9.309  27.266  1.00  0.00     0.146 A 
ATOM     11  O   UNL     1      29.158  10.606  27.435  1.00  0.00    -0.452 OA
ENDROOT
BRANCH   1  12
ATOM     12  C   UNL     1      28.569  12.848  26.773  1.00  0.00     0.025 A 
ATOM     13  C   UNL     1      27.292  13.305  27.147  1.00  0.00     0.016 A 
ATOM     14  C   UNL     1      27.091  14.648  27.473  1.00  0.00     0.051 A 
ATOM     15  C   UNL     1      28.157  15.552  27.444  1.00  0.00     0.157 A 
ATOM     16  C   UNL     1      29.642  13.754  26.765  1.00  0.00     0.062 A 
ATOM     17  C   UNL     1      29.440  15.103  27.091  1.00  0.00     0.158 A 
BRANCH  15  18
ATOM     18  O   UNL     1      27.924  16.887  27.772  1.00  0.00    -0.504 OA
ATOM     19  H   UNL     1      27.103  17.178  28.288  1.00  0.00     0.293 HD
ENDBRANCH  15  18
BRANCH  17  20
ATOM     20  O   UNL     1      30.511  15.996  27.067  1.00  0.00    -0.504 OA
ATOM     21  H   UNL     1      31.351  15.804  26.534  1.00  0.00     0.293 HD
ENDBRANCH  17  20
ENDBRANCH   1  12
BRANCH   2  22
ATOM     22  O   UNL     1      28.444  11.798  24.075  1.00  0.00    -0.502 OA
ATOM     23  H   UNL     1      28.348  12.798  24.201  1.00  0.00     0.293 HD
ENDBRANCH   2  22
BRANCH   6  24
ATOM     24  O   UNL     1      29.220   6.567  24.706  1.00  0.00    -0.507 OA
ATOM     25  H   UNL     1      29.899   5.964  24.268  1.00  0.00     0.293 HD
ENDBRANCH   6  24
BRANCH   8  26
ATOM     26  O   UNL     1      30.419   6.423  29.336  1.00  0.00    -0.508 OA
ATOM     27  H   UNL     1      30.078   5.479  29.480  1.00  0.00     0.293 HD
ENDBRANCH   8  26
TORSDOF 6
ENDMDL
MODEL 9
REMARK VINA RESULT:    -5.505      2.545      7.497
REMARK INTER + INTRA:          -6.953
REMARK INTER:                  -6.635
REMARK INTRA:                  -0.318
REMARK UNBOUND:                -0.322
REMARK SMILES O=c1c(O)c(-c2ccc(O)c(O)c2)oc2cc(O)cc(O)c12
REMARK SMILES IDX 5 1 3 2 2 3 1 4 22 5 20 6 19 7 17 8 16 9 15 10 14 11 6 12
REMARK SMILES IDX 7 13 8 14 9 15 13 16 11 17 10 18 12 20 4 22 21 24 18 26
REMARK H PARENT 10 19 12 21 4 23 21 25 18 27
REMARK Flexibility Score: inf
ROOT
ATOM      1  C   UNL     1      30.248  10.451  30.937  1.00  0.00     0.180 A 
ATOM      2  C   UNL     1      29.897  11.697  30.390  1.00  0.00     0.208 A 
ATOM      3  C   UNL     1      29.431  11.754  29.067  1.00  0.00     0.238 A 
ATOM      4  O   UNL     1      29.171  12.878  28.566  1.00  0.00    -0.285 OA
ATOM      5  C   UNL     1      29.306  10.562  28.313  1.00  0.00     0.111 A 
ATOM      6  C   UNL     1      28.807  10.498  26.978  1.00  0.00     0.134 A 
ATOM      7  C   UNL     1      28.850   9.283  26.282  1.00  0.00     0.093 A 
ATOM      8  C   UNL     1      29.312   8.119  26.894  1.00  0.00     0.123 A 
ATOM      9  C   UNL     1      29.746   8.158  28.220  1.00  0.00     0.094 A 
ATOM     10  C   UNL     1      29.750   9.363  28.928  1.00  0.00     0.146 A 
ATOM     11  O   UNL     1      30.180   9.360  30.183  1.00  0.00    -0.452 OA
ENDROOT
BRANCH   1  12
ATOM     12  C   UNL     1      30.722  10.307  32.333  1.00  0.00     0.025 A 
ATOM     13  C   UNL     1      32.078  10.481  32.667  1.00  0.00     0.016 A 
ATOM     14  C   UNL     1      32.498  10.365  33.994  1.00  0.00     0.051 A 
ATOM     15  C   UNL     1      31.576  10.088  35.007  1.00  0.00     0.157 A 
ATOM     16  C   UNL     1      29.796  10.050  33.356  1.00  0.00     0.062 A 
ATOM     17  C   UNL     1      30.217   9.932  34.688  1.00  0.00     0.158 A 
BRANCH  15  18
ATOM     18  O   UNL     1      32.026   9.975  36.322  1.00  0.00    -0.504 OA
ATOM     19  H   UNL     1      32.870   9.469  36.559  1.00  0.00     0.293 HD
ENDBRANCH  15  18
BRANCH  17  20
ATOM     20  O   UNL     1      29.290   9.662  35.694  1.00  0.00    -0.504 OA
ATOM     21  H   UNL     1      29.456   9.932  36.656  1.00  0.00     0.293 HD
ENDBRANCH  17  20
ENDBRANCH   1  12
BRANCH   2  22
ATOM     22  O   UNL     1      30.049  12.864  31.146  1.00  0.00    -0.502 OA
ATOM     23  H   UNL     1      29.687  12.953  32.086  1.00  0.00     0.293 HD
ENDBRANCH   2  22
BRANCH   6  24
ATOM     24  O   UNL     1      28.238  11.583  26.304  1.00  0.00    -0.507 OA
ATOM     25  H   UNL     1      27.287  11.898  26.422  1.00  0.00     0.293 HD
ENDBRANCH   6  24
BRANCH   8  26
ATOM     26  O   UNL     1      29.325   6.924  26.178  1.00  0.00    -0.508 OA
ATOM     27  H   UNL     1      29.369   6.026  26.645  1.00  0.00     0.293 HD
ENDBRANCH   8  26
TORSDOF 6
ENDMDL
