MODEL 1
REMARK VINA RESULT:    -2.934      0.000      0.000
REMARK INTER + INTRA:          -6.078
REMARK INTER:                  -4.649
REMARK INTRA:                  -1.429
REMARK UNBOUND:                -1.429
REMARK SMILES CCCCCCCCCCCC(=O)[O-]
REMARK SMILES IDX 7 1 8 2 9 3 10 4 11 5 12 6 13 7 14 8 6 9 5 10 4 11 3 12 2 13
REMARK SMILES IDX 1 14
REMARK H PARENT
REMARK Flexibility Score: inf
ROOT
ATOM      1  C   UNL     1    -115.107  33.867  -8.598  1.00  0.00     0.000 C 
ENDROOT
BRANCH   1   2
ATOM      2  C   UNL     1    -116.545  33.591  -9.065  1.00  0.00     0.000 C 
BRANCH   2   3
ATOM      3  C   UNL     1    -116.658  33.478 -10.596  1.00  0.00     0.000 C 
BRANCH   3   4
ATOM      4  C   UNL     1    -115.372  33.918 -11.321  1.00  0.00     0.006 C 
BRANCH   4   5
ATOM      5  C   UNL     1    -115.590  34.401 -12.764  1.00  0.00     0.053 C 
BRANCH   5   6
ATOM      6  C   UNL     1    -114.883  33.534 -13.760  1.00  0.00     0.041 C 
ATOM      7  O   UNL     1    -114.734  32.304 -13.536  1.00  0.00    -0.550 OA
ATOM      8  O   UNL     1    -114.359  34.091 -14.919  1.00  0.00    -0.550 OA
ENDBRANCH   5   6
ENDBRANCH   4   5
ENDBRANCH   3   4
ENDBRANCH   2   3
ENDBRANCH   1   2
BRANCH   1   9
ATOM      9  C   UNL     1    -115.034  34.946  -7.507  1.00  0.00     0.000 C 
BRANCH   9  10
ATOM     10  C   UNL     1    -116.410  35.595  -7.286  1.00  0.00    -0.000 C 
BRANCH  10  11
ATOM     11  C   UNL     1    -116.491  37.024  -7.850  1.00  0.00    -0.000 C 
BRANCH  11  12
ATOM     12  C   UNL     1    -115.283  37.378  -8.735  1.00  0.00    -0.000 C 
BRANCH  12  13
ATOM     13  C   UNL     1    -115.665  37.528 -10.216  1.00  0.00    -0.003 C 
ATOM     14  C   UNL     1    -117.124  37.166 -10.493  1.00  0.00     0.004 C 
ENDBRANCH  12  13
ENDBRANCH  11  12
ENDBRANCH  10  11
ENDBRANCH   9  10
ENDBRANCH   1   9
TORSDOF 10
ENDMDL
MODEL 2
REMARK VINA RESULT:    -2.913      1.104      2.003
REMARK INTER + INTRA:          -6.045
REMARK INTER:                  -4.947
REMARK INTRA:                  -1.098
REMARK UNBOUND:                -1.429
REMARK SMILES CCCCCCCCCCCC(=O)[O-]
REMARK SMILES IDX 7 1 8 2 9 3 10 4 11 5 12 6 13 7 14 8 6 9 5 10 4 11 3 12 2 13
REMARK SMILES IDX 1 14
REMARK H PARENT
REMARK Flexibility Score: inf
ROOT
ATOM      1  C   UNL     1    -116.617  33.654  -9.152  1.00  0.00     0.000 C 
ENDROOT
BRANCH   1   2
ATOM      2  C   UNL     1    -116.904  34.040 -10.612  1.00  0.00     0.000 C 
BRANCH   2   3
ATOM      3  C   UNL     1    -115.681  34.661 -11.310  1.00  0.00     0.000 C 
BRANCH   3   4
ATOM      4  C   UNL     1    -115.566  34.247 -12.789  1.00  0.00     0.006 C 
BRANCH   4   5
ATOM      5  C   UNL     1    -114.684  33.012 -13.035  1.00  0.00     0.053 C 
BRANCH   5   6
ATOM      6  C   UNL     1    -115.390  31.970 -13.847  1.00  0.00     0.041 C 
ATOM      7  O   UNL     1    -115.331  31.998 -15.104  1.00  0.00    -0.550 OA
ATOM      8  O   UNL     1    -116.142  30.987 -13.215  1.00  0.00    -0.550 OA
ENDBRANCH   5   6
ENDBRANCH   4   5
ENDBRANCH   3   4
ENDBRANCH   2   3
ENDBRANCH   1   2
BRANCH   1   9
ATOM      9  C   UNL     1    -115.148  33.874  -8.757  1.00  0.00     0.000 C 
BRANCH   9  10
ATOM     10  C   UNL     1    -115.041  34.853  -7.576  1.00  0.00    -0.000 C 
BRANCH  10  11
ATOM     11  C   UNL     1    -116.399  35.448  -7.171  1.00  0.00    -0.000 C 
BRANCH  11  12
ATOM     12  C   UNL     1    -116.449  36.976  -7.345  1.00  0.00    -0.000 C 
BRANCH  12  13
ATOM     13  C   UNL     1    -116.304  37.405  -8.814  1.00  0.00    -0.003 C 
ATOM     14  C   UNL     1    -115.021  38.194  -9.078  1.00  0.00     0.004 C 
ENDBRANCH  12  13
ENDBRANCH  11  12
ENDBRANCH  10  11
ENDBRANCH   9  10
ENDBRANCH   1   9
TORSDOF 10
ENDMDL
MODEL 3
REMARK VINA RESULT:    -2.863      3.520      5.241
REMARK INTER + INTRA:          -5.966
REMARK INTER:                  -4.502
REMARK INTRA:                  -1.464
REMARK UNBOUND:                -1.429
REMARK SMILES CCCCCCCCCCCC(=O)[O-]
REMARK SMILES IDX 7 1 8 2 9 3 10 4 11 5 12 6 13 7 14 8 6 9 5 10 4 11 3 12 2 13
REMARK SMILES IDX 1 14
REMARK H PARENT
REMARK Flexibility Score: inf
ROOT
ATOM      1  C   UNL     1    -116.407  35.465  -7.206  1.00  0.00     0.000 C 
ENDROOT
BRANCH   1   2
ATOM      2  C   UNL     1    -116.572  36.960  -7.523  1.00  0.00     0.000 C 
BRANCH   2   3
ATOM      3  C   UNL     1    -117.038  37.209  -8.968  1.00  0.00     0.000 C 
BRANCH   3   4
ATOM      4  C   UNL     1    -116.000  37.981  -9.804  1.00  0.00     0.006 C 
BRANCH   4   5
ATOM      5  C   UNL     1    -114.717  38.349  -9.041  1.00  0.00     0.053 C 
BRANCH   5   6
ATOM      6  C   UNL     1    -114.590  39.827  -8.835  1.00  0.00     0.041 C 
ATOM      7  O   UNL     1    -114.240  40.572  -9.788  1.00  0.00    -0.550 OA
ATOM      8  O   UNL     1    -114.825  40.378  -7.582  1.00  0.00    -0.550 OA
ENDBRANCH   5   6
ENDBRANCH   4   5
ENDBRANCH   3   4
ENDBRANCH   2   3
ENDBRANCH   1   2
BRANCH   1   9
ATOM      9  C   UNL     1    -115.017  34.927  -7.580  1.00  0.00     0.000 C 
BRANCH   9  10
ATOM     10  C   UNL     1    -115.119  33.876  -8.697  1.00  0.00    -0.000 C 
BRANCH  10  11
ATOM     11  C   UNL     1    -116.572  33.580  -9.104  1.00  0.00    -0.000 C 
BRANCH  11  12
ATOM     12  C   UNL     1    -116.834  33.849 -10.596  1.00  0.00    -0.000 C 
BRANCH  12  13
ATOM     13  C   UNL     1    -115.584  34.363 -11.328  1.00  0.00    -0.003 C 
ATOM     14  C   UNL     1    -115.917  35.336 -12.460  1.00  0.00     0.004 C 
ENDBRANCH  12  13
ENDBRANCH  11  12
ENDBRANCH  10  11
ENDBRANCH   9  10
ENDBRANCH   1   9
TORSDOF 10
ENDMDL
MODEL 4
REMARK VINA RESULT:    -2.784      1.085      1.762
REMARK INTER + INTRA:          -5.841
REMARK INTER:                  -4.602
REMARK INTRA:                  -1.240
REMARK UNBOUND:                -1.429
REMARK SMILES CCCCCCCCCCCC(=O)[O-]
REMARK SMILES IDX 7 1 8 2 9 3 10 4 11 5 12 6 13 7 14 8 6 9 5 10 4 11 3 12 2 13
REMARK SMILES IDX 1 14
REMARK H PARENT
REMARK Flexibility Score: inf
ROOT
ATOM      1  C   UNL     1    -115.079  34.908  -7.524  1.00  0.00     0.000 C 
ENDROOT
BRANCH   1   2
ATOM      2  C   UNL     1    -115.033  33.848  -8.637  1.00  0.00     0.000 C 
BRANCH   2   3
ATOM      3  C   UNL     1    -116.411  33.604  -9.277  1.00  0.00     0.000 C 
BRANCH   3   4
ATOM      4  C   UNL     1    -116.494  34.117 -10.726  1.00  0.00     0.006 C 
BRANCH   4   5
ATOM      5  C   UNL     1    -115.231  33.859 -11.565  1.00  0.00     0.053 C 
BRANCH   5   6
ATOM      6  C   UNL     1    -115.511  32.979 -12.745  1.00  0.00     0.041 C 
ATOM      7  O   UNL     1    -116.358  32.052 -12.658  1.00  0.00    -0.550 OA
ATOM      8  O   UNL     1    -114.811  33.163 -13.931  1.00  0.00    -0.550 OA
ENDBRANCH   5   6
ENDBRANCH   4   5
ENDBRANCH   3   4
ENDBRANCH   2   3
ENDBRANCH   1   2
BRANCH   1   9
ATOM      9  C   UNL     1    -116.502  35.414  -7.244  1.00  0.00     0.000 C 
BRANCH   9  10
ATOM     10  C   UNL     1    -116.601  36.929  -7.482  1.00  0.00    -0.000 C 
BRANCH  10  11
ATOM     11  C   UNL     1    -117.037  37.279  -8.915  1.00  0.00    -0.000 C 
BRANCH  11  12
ATOM     12  C   UNL     1    -115.864  37.754  -9.790  1.00  0.00    -0.000 C 
BRANCH  12  13
ATOM     13  C   UNL     1    -114.707  38.329  -8.958  1.00  0.00    -0.003 C 
ATOM     14  C   UNL     1    -114.706  39.858  -8.920  1.00  0.00     0.004 C 
ENDBRANCH  12  13
ENDBRANCH  11  12
ENDBRANCH  10  11
ENDBRANCH   9  10
ENDBRANCH   1   9
TORSDOF 10
ENDMDL
MODEL 5
REMARK VINA RESULT:    -2.768      2.511      4.810
REMARK INTER + INTRA:          -5.816
REMARK INTER:                  -4.668
REMARK INTRA:                  -1.147
REMARK UNBOUND:                -1.429
REMARK SMILES CCCCCCCCCCCC(=O)[O-]
REMARK SMILES IDX 7 1 8 2 9 3 10 4 11 5 12 6 13 7 14 8 6 9 5 10 4 11 3 12 2 13
REMARK SMILES IDX 1 14
REMARK H PARENT
REMARK Flexibility Score: inf
ROOT
ATOM      1  C   UNL     1    -115.121  33.870  -8.698  1.00  0.00     0.000 C 
ENDROOT
BRANCH   1   2
ATOM      2  C   UNL     1    -115.032  34.882  -7.544  1.00  0.00     0.000 C 
BRANCH   2   3
ATOM      3  C   UNL     1    -116.395  35.509  -7.202  1.00  0.00     0.000 C 
BRANCH   3   4
ATOM      4  C   UNL     1    -116.473  37.001  -7.576  1.00  0.00     0.006 C 
BRANCH   4   5
ATOM      5  C   UNL     1    -116.683  37.271  -9.075  1.00  0.00     0.053 C 
BRANCH   5   6
ATOM      6  C   UNL     1    -115.468  37.874  -9.712  1.00  0.00     0.041 C 
ATOM      7  O   UNL     1    -114.516  38.284  -8.999  1.00  0.00    -0.550 OA
ATOM      8  O   UNL     1    -115.405  38.014 -11.093  1.00  0.00    -0.550 OA
ENDBRANCH   5   6
ENDBRANCH   4   5
ENDBRANCH   3   4
ENDBRANCH   2   3
ENDBRANCH   1   2
BRANCH   1   9
ATOM      9  C   UNL     1    -116.570  33.558  -9.105  1.00  0.00     0.000 C 
BRANCH   9  10
ATOM     10  C   UNL     1    -116.770  33.768 -10.614  1.00  0.00    -0.000 C 
BRANCH  10  11
ATOM     11  C   UNL     1    -115.553  34.421 -11.291  1.00  0.00    -0.000 C 
BRANCH  11  12
ATOM     12  C   UNL     1    -115.729  34.559 -12.813  1.00  0.00    -0.000 C 
BRANCH  12  13
ATOM     13  C   UNL     1    -114.744  33.680 -13.600  1.00  0.00    -0.003 C 
ATOM     14  C   UNL     1    -115.138  32.203 -13.604  1.00  0.00     0.004 C 
ENDBRANCH  12  13
ENDBRANCH  11  12
ENDBRANCH  10  11
ENDBRANCH   9  10
ENDBRANCH   1   9
TORSDOF 10
ENDMDL
MODEL 6
REMARK VINA RESULT:    -2.733      3.828      5.828
REMARK INTER + INTRA:          -5.759
REMARK INTER:                  -4.512
REMARK INTRA:                  -1.247
REMARK UNBOUND:                -1.429
REMARK SMILES CCCCCCCCCCCC(=O)[O-]
REMARK SMILES IDX 7 1 8 2 9 3 10 4 11 5 12 6 13 7 14 8 6 9 5 10 4 11 3 12 2 13
REMARK SMILES IDX 1 14
REMARK H PARENT
REMARK Flexibility Score: inf
ROOT
ATOM      1  C   UNL     1    -116.281  35.488 -12.186  1.00  0.00     0.000 C 
ENDROOT
BRANCH   1   2
ATOM      2  C   UNL     1    -115.627  36.820 -11.785  1.00  0.00     0.000 C 
BRANCH   2   3
ATOM      3  C   UNL     1    -116.109  37.325 -10.414  1.00  0.00     0.000 C 
BRANCH   3   4
ATOM      4  C   UNL     1    -115.048  38.171  -9.685  1.00  0.00     0.006 C 
BRANCH   4   5
ATOM      5  C   UNL     1    -115.526  38.786  -8.360  1.00  0.00     0.053 C 
BRANCH   5   6
ATOM      6  C   UNL     1    -114.942  40.145  -8.127  1.00  0.00     0.041 C 
ATOM      7  O   UNL     1    -114.175  40.660  -8.982  1.00  0.00    -0.550 OA
ATOM      8  O   UNL     1    -115.218  40.829  -6.950  1.00  0.00    -0.550 OA
ENDBRANCH   5   6
ENDBRANCH   4   5
ENDBRANCH   3   4
ENDBRANCH   2   3
ENDBRANCH   1   2
BRANCH   1   9
ATOM      9  C   UNL     1    -115.626  34.275 -11.506  1.00  0.00     0.000 C 
BRANCH   9  10
ATOM     10  C   UNL     1    -116.663  33.471 -10.706  1.00  0.00    -0.000 C 
BRANCH  10  11
ATOM     11  C   UNL     1    -116.466  33.593  -9.185  1.00  0.00    -0.000 C 
BRANCH  11  12
ATOM     12  C   UNL     1    -115.007  33.896  -8.802  1.00  0.00    -0.000 C 
BRANCH  12  13
ATOM     13  C   UNL     1    -114.900  34.756  -7.534  1.00  0.00    -0.003 C 
ATOM     14  C   UNL     1    -116.227  35.410  -7.145  1.00  0.00     0.004 C 
ENDBRANCH  12  13
ENDBRANCH  11  12
ENDBRANCH  10  11
ENDBRANCH   9  10
ENDBRANCH   1   9
TORSDOF 10
ENDMDL
MODEL 7
REMARK VINA RESULT:    -2.642      1.759      2.484
REMARK INTER + INTRA:          -5.616
REMARK INTER:                  -4.313
REMARK INTRA:                  -1.303
REMARK UNBOUND:                -1.429
REMARK SMILES CCCCCCCCCCCC(=O)[O-]
REMARK SMILES IDX 7 1 8 2 9 3 10 4 11 5 12 6 13 7 14 8 6 9 5 10 4 11 3 12 2 13
REMARK SMILES IDX 1 14
REMARK H PARENT
REMARK Flexibility Score: inf
ROOT
ATOM      1  C   UNL     1    -116.523  33.572  -9.153  1.00  0.00     0.000 C 
ENDROOT
BRANCH   1   2
ATOM      2  C   UNL     1    -116.781  33.892 -10.634  1.00  0.00     0.000 C 
BRANCH   2   3
ATOM      3  C   UNL     1    -115.502  34.313 -11.378  1.00  0.00     0.000 C 
BRANCH   3   4
ATOM      4  C   UNL     1    -115.792  34.921 -12.763  1.00  0.00     0.006 C 
BRANCH   4   5
ATOM      5  C   UNL     1    -115.834  36.458 -12.787  1.00  0.00     0.053 C 
BRANCH   5   6
ATOM      6  C   UNL     1    -114.591  37.045 -13.381  1.00  0.00     0.041 C 
ATOM      7  O   UNL     1    -114.025  36.480 -14.353  1.00  0.00    -0.550 OA
ATOM      8  O   UNL     1    -114.037  38.198 -12.838  1.00  0.00    -0.550 OA
ENDBRANCH   5   6
ENDBRANCH   4   5
ENDBRANCH   3   4
ENDBRANCH   2   3
ENDBRANCH   1   2
BRANCH   1   9
ATOM      9  C   UNL     1    -115.081  33.880  -8.720  1.00  0.00     0.000 C 
BRANCH   9  10
ATOM     10  C   UNL     1    -115.064  34.860  -7.536  1.00  0.00    -0.000 C 
BRANCH  10  11
ATOM     11  C   UNL     1    -116.450  35.456  -7.235  1.00  0.00    -0.000 C 
BRANCH  11  12
ATOM     12  C   UNL     1    -116.515  36.967  -7.514  1.00  0.00    -0.000 C 
BRANCH  12  13
ATOM     13  C   UNL     1    -116.480  37.290  -9.016  1.00  0.00    -0.003 C 
ATOM     14  C   UNL     1    -115.210  38.032  -9.434  1.00  0.00     0.004 C 
ENDBRANCH  12  13
ENDBRANCH  11  12
ENDBRANCH  10  11
ENDBRANCH   9  10
ENDBRANCH   1   9
TORSDOF 10
ENDMDL
MODEL 8
REMARK VINA RESULT:    -2.614      2.466      4.363
REMARK INTER + INTRA:          -5.572
REMARK INTER:                  -4.960
REMARK INTRA:                  -0.612
REMARK UNBOUND:                -1.429
REMARK SMILES CCCCCCCCCCCC(=O)[O-]
REMARK SMILES IDX 7 1 8 2 9 3 10 4 11 5 12 6 13 7 14 8 6 9 5 10 4 11 3 12 2 13
REMARK SMILES IDX 1 14
REMARK H PARENT
REMARK Flexibility Score: inf
ROOT
ATOM      1  C   UNL     1    -115.694  35.392 -12.148  1.00  0.00     0.000 C 
ENDROOT
BRANCH   1   2
ATOM      2  C   UNL     1    -115.503  35.580 -13.662  1.00  0.00     0.000 C 
BRANCH   2   3
ATOM      3  C   UNL     1    -114.542  34.543 -14.268  1.00  0.00     0.000 C 
BRANCH   3   4
ATOM      4  C   UNL     1    -113.652  35.133 -15.378  1.00  0.00     0.006 C 
BRANCH   4   5
ATOM      5  C   UNL     1    -113.034  36.499 -15.038  1.00  0.00     0.053 C 
BRANCH   5   6
ATOM      6  C   UNL     1    -111.537  36.459 -15.056  1.00  0.00     0.041 C 
ATOM      7  O   UNL     1    -110.872  37.467 -14.703  1.00  0.00    -0.550 OA
ATOM      8  O   UNL     1    -110.877  35.318 -15.495  1.00  0.00    -0.550 OA
ENDBRANCH   5   6
ENDBRANCH   4   5
ENDBRANCH   3   4
ENDBRANCH   2   3
ENDBRANCH   1   2
BRANCH   1   9
ATOM      9  C   UNL     1    -115.395  33.958 -11.684  1.00  0.00     0.000 C 
BRANCH   9  10
ATOM     10  C   UNL     1    -116.550  33.406 -10.833  1.00  0.00    -0.000 C 
BRANCH  10  11
ATOM     11  C   UNL     1    -116.473  33.853  -9.364  1.00  0.00    -0.000 C 
BRANCH  11  12
ATOM     12  C   UNL     1    -115.033  33.852  -8.822  1.00  0.00    -0.000 C 
BRANCH  12  13
ATOM     13  C   UNL     1    -114.891  34.671  -7.529  1.00  0.00    -0.003 C 
ATOM     14  C   UNL     1    -116.081  35.597  -7.279  1.00  0.00     0.004 C 
ENDBRANCH  12  13
ENDBRANCH  11  12
ENDBRANCH  10  11
ENDBRANCH   9  10
ENDBRANCH   1   9
TORSDOF 10
ENDMDL
MODEL 9
REMARK VINA RESULT:    -2.595      3.370      5.532
REMARK INTER + INTRA:          -5.541
REMARK INTER:                  -4.482
REMARK INTRA:                  -1.059
REMARK UNBOUND:                -1.429
REMARK SMILES CCCCCCCCCCCC(=O)[O-]
REMARK SMILES IDX 7 1 8 2 9 3 10 4 11 5 12 6 13 7 14 8 6 9 5 10 4 11 3 12 2 13
REMARK SMILES IDX 1 14
REMARK H PARENT
REMARK Flexibility Score: inf
ROOT
ATOM      1  C   UNL     1    -116.535  36.364 -10.859  1.00  0.00     0.000 C 
ENDROOT
BRANCH   1   2
ATOM      2  C   UNL     1    -115.580  37.568 -10.805  1.00  0.00     0.000 C 
BRANCH   2   3
ATOM      3  C   UNL     1    -115.360  38.083  -9.372  1.00  0.00     0.000 C 
BRANCH   3   4
ATOM      4  C   UNL     1    -114.700  39.474  -9.334  1.00  0.00     0.006 C 
BRANCH   4   5
ATOM      5  C   UNL     1    -114.829  40.273 -10.641  1.00  0.00     0.053 C 
BRANCH   5   6
ATOM      6  C   UNL     1    -113.494  40.684 -11.182  1.00  0.00     0.041 C 
ATOM      7  O   UNL     1    -112.995  40.077 -12.165  1.00  0.00    -0.550 OA
ATOM      8  O   UNL     1    -112.785  41.715 -10.578  1.00  0.00    -0.550 OA
ENDBRANCH   5   6
ENDBRANCH   4   5
ENDBRANCH   3   4
ENDBRANCH   2   3
ENDBRANCH   1   2
BRANCH   1   9
ATOM      9  C   UNL     1    -116.054  35.267 -11.823  1.00  0.00     0.000 C 
BRANCH   9  10
ATOM     10  C   UNL     1    -115.676  33.991 -11.054  1.00  0.00    -0.000 C 
BRANCH  10  11
ATOM     11  C   UNL     1    -116.139  34.020  -9.588  1.00  0.00    -0.000 C 
BRANCH  11  12
ATOM     12  C   UNL     1    -114.978  33.825  -8.598  1.00  0.00    -0.000 C 
BRANCH  12  13
ATOM     13  C   UNL     1    -114.971  34.884  -7.485  1.00  0.00    -0.003 C 
ATOM     14  C   UNL     1    -116.366  35.423  -7.169  1.00  0.00     0.004 C 
ENDBRANCH  12  13
ENDBRANCH  11  12
ENDBRANCH  10  11
ENDBRANCH   9  10
ENDBRANCH   1   9
TORSDOF 10
ENDMDL
