MODEL 1
REMARK VINA RESULT:    -1.607      0.000      0.000
REMARK INTER + INTRA:          -5.552
REMARK INTER:                  -2.922
REMARK INTRA:                  -2.630
REMARK UNBOUND:                -2.630
REMARK SMILES CCCCCCCCCCCCCCCC(=O)[O-]
REMARK SMILES IDX 9 1 10 2 11 3 12 4 13 5 14 6 15 7 16 8 17 9 18 10 8 11 7 12
REMARK SMILES IDX 6 13 5 14 4 15 3 16 2 17 1 18
REMARK H PARENT
REMARK Flexibility Score: inf
ROOT
ATOM      1  C   UNL     1     113.790  15.250  23.233  1.00  0.00     0.000 C 
ENDROOT
BRANCH   1   2
ATOM      2  C   UNL     1     113.660  13.806  22.704  1.00  0.00     0.000 C 
BRANCH   2   3
ATOM      3  C   UNL     1     113.754  12.755  23.824  1.00  0.00     0.000 C 
BRANCH   3   4
ATOM      4  C   UNL     1     115.021  11.891  23.721  1.00  0.00     0.000 C 
BRANCH   4   5
ATOM      5  C   UNL     1     116.125  12.344  24.688  1.00  0.00     0.000 C 
BRANCH   5   6
ATOM      6  C   UNL     1     115.533  13.070  25.901  1.00  0.00     0.006 C 
BRANCH   6   7
ATOM      7  C   UNL     1     116.429  14.234  26.338  1.00  0.00     0.053 C 
BRANCH   7   8
ATOM      8  C   UNL     1     116.708  14.160  27.805  1.00  0.00     0.041 C 
ATOM      9  O   UNL     1     117.452  15.015  28.353  1.00  0.00    -0.550 OA
ATOM     10  O   UNL     1     116.177  13.123  28.562  1.00  0.00    -0.550 OA
ENDBRANCH   7   8
ENDBRANCH   6   7
ENDBRANCH   5   6
ENDBRANCH   4   5
ENDBRANCH   3   4
ENDBRANCH   2   3
ENDBRANCH   1   2
BRANCH   1  11
ATOM     11  C   UNL     1     114.917  16.061  22.564  1.00  0.00     0.000 C 
BRANCH  11  12
ATOM     12  C   UNL     1     116.340  15.740  23.060  1.00  0.00    -0.000 C 
BRANCH  12  13
ATOM     13  C   UNL     1     117.369  15.461  21.948  1.00  0.00    -0.000 C 
BRANCH  13  14
ATOM     14  C   UNL     1     117.741  13.976  21.836  1.00  0.00    -0.000 C 
BRANCH  14  15
ATOM     15  C   UNL     1     117.444  13.440  20.427  1.00  0.00    -0.000 C 
BRANCH  15  16
ATOM     16  C   UNL     1     116.360  12.350  20.430  1.00  0.00    -0.000 C 
BRANCH  16  17
ATOM     17  C   UNL     1     115.197  12.675  19.481  1.00  0.00    -0.003 C 
ATOM     18  C   UNL     1     115.073  14.179  19.259  1.00  0.00     0.004 C 
ENDBRANCH  16  17
ENDBRANCH  15  16
ENDBRANCH  14  15
ENDBRANCH  13  14
ENDBRANCH  12  13
ENDBRANCH  11  12
ENDBRANCH   1  11
TORSDOF 14
ENDMDL
MODEL 2
REMARK VINA RESULT:    -1.584      2.502      5.346
REMARK INTER + INTRA:          -5.511
REMARK INTER:                  -3.743
REMARK INTRA:                  -1.768
REMARK UNBOUND:                -2.630
REMARK SMILES CCCCCCCCCCCCCCCC(=O)[O-]
REMARK SMILES IDX 9 1 10 2 11 3 12 4 13 5 14 6 15 7 16 8 17 9 18 10 8 11 7 12
REMARK SMILES IDX 6 13 5 14 4 15 3 16 2 17 1 18
REMARK H PARENT
REMARK Flexibility Score: inf
ROOT
ATOM      1  C   UNL     1     119.261  15.545  21.922  1.00  0.00     0.000 C 
ENDROOT
BRANCH   1   2
ATOM      2  C   UNL     1     117.738  15.450  22.158  1.00  0.00     0.000 C 
BRANCH   2   3
ATOM      3  C   UNL     1     117.268  14.009  22.419  1.00  0.00     0.000 C 
BRANCH   3   4
ATOM      4  C   UNL     1     116.612  13.839  23.799  1.00  0.00     0.000 C 
BRANCH   4   5
ATOM      5  C   UNL     1     116.426  12.365  24.187  1.00  0.00     0.000 C 
BRANCH   5   6
ATOM      6  C   UNL     1     115.007  12.104  24.704  1.00  0.00     0.006 C 
BRANCH   6   7
ATOM      7  C   UNL     1     114.061  13.243  24.312  1.00  0.00     0.053 C 
BRANCH   7   8
ATOM      8  C   UNL     1     113.196  13.631  25.469  1.00  0.00     0.041 C 
ATOM      9  O   UNL     1     112.903  14.840  25.664  1.00  0.00    -0.550 OA
ATOM     10  O   UNL     1     112.746  12.661  26.356  1.00  0.00    -0.550 OA
ENDBRANCH   7   8
ENDBRANCH   6   7
ENDBRANCH   5   6
ENDBRANCH   4   5
ENDBRANCH   3   4
ENDBRANCH   2   3
ENDBRANCH   1   2
BRANCH   1  11
ATOM     11  C   UNL     1     120.016  16.321  23.018  1.00  0.00     0.000 C 
BRANCH  11  12
ATOM     12  C   UNL     1     119.123  17.013  24.066  1.00  0.00    -0.000 C 
BRANCH  12  13
ATOM     13  C   UNL     1     119.404  16.612  25.527  1.00  0.00    -0.000 C 
BRANCH  13  14
ATOM     14  C   UNL     1     118.131  16.235  26.299  1.00  0.00    -0.000 C 
BRANCH  14  15
ATOM     15  C   UNL     1     118.424  16.083  27.799  1.00  0.00    -0.000 C 
BRANCH  15  16
ATOM     16  C   UNL     1     117.561  14.995  28.458  1.00  0.00    -0.000 C 
BRANCH  16  17
ATOM     17  C   UNL     1     116.571  14.353  27.475  1.00  0.00    -0.003 C 
ATOM     18  C   UNL     1     115.780  13.233  28.144  1.00  0.00     0.004 C 
ENDBRANCH  16  17
ENDBRANCH  15  16
ENDBRANCH  14  15
ENDBRANCH  13  14
ENDBRANCH  12  13
ENDBRANCH  11  12
ENDBRANCH   1  11
TORSDOF 14
ENDMDL
MODEL 3
REMARK VINA RESULT:    -1.534      3.267      6.293
REMARK INTER + INTRA:          -5.419
REMARK INTER:                  -2.923
REMARK INTRA:                  -2.496
REMARK UNBOUND:                -2.630
REMARK SMILES CCCCCCCCCCCCCCCC(=O)[O-]
REMARK SMILES IDX 9 1 10 2 11 3 12 4 13 5 14 6 15 7 16 8 17 9 18 10 8 11 7 12
REMARK SMILES IDX 6 13 5 14 4 15 3 16 2 17 1 18
REMARK H PARENT
REMARK Flexibility Score: inf
ROOT
ATOM      1  C   UNL     1     116.943  15.637  28.109  1.00  0.00     0.000 C 
ENDROOT
BRANCH   1   2
ATOM      2  C   UNL     1     118.447  15.988  28.103  1.00  0.00     0.000 C 
BRANCH   2   3
ATOM      3  C   UNL     1     118.917  16.553  26.752  1.00  0.00     0.000 C 
BRANCH   3   4
ATOM      4  C   UNL     1     117.941  17.590  26.171  1.00  0.00     0.000 C 
BRANCH   4   5
ATOM      5  C   UNL     1     117.782  17.461  24.649  1.00  0.00     0.000 C 
BRANCH   5   6
ATOM      6  C   UNL     1     118.624  16.303  24.101  1.00  0.00     0.006 C 
BRANCH   6   7
ATOM      7  C   UNL     1     118.972  16.526  22.626  1.00  0.00     0.053 C 
BRANCH   7   8
ATOM      8  C   UNL     1     118.727  15.281  21.834  1.00  0.00     0.041 C 
ATOM      9  O   UNL     1     117.977  14.377  22.289  1.00  0.00    -0.550 OA
ATOM     10  O   UNL     1     119.358  15.101  20.609  1.00  0.00    -0.550 OA
ENDBRANCH   7   8
ENDBRANCH   6   7
ENDBRANCH   5   6
ENDBRANCH   4   5
ENDBRANCH   3   4
ENDBRANCH   2   3
ENDBRANCH   1   2
BRANCH   1  11
ATOM     11  C   UNL     1     116.654  14.127  28.219  1.00  0.00     0.000 C 
BRANCH  11  12
ATOM     12  C   UNL     1     115.820  13.533  27.069  1.00  0.00    -0.000 C 
BRANCH  12  13
ATOM     13  C   UNL     1     116.367  13.811  25.656  1.00  0.00    -0.000 C 
BRANCH  13  14
ATOM     14  C   UNL     1     115.262  13.916  24.596  1.00  0.00    -0.000 C 
BRANCH  14  15
ATOM     15  C   UNL     1     114.993  15.383  24.226  1.00  0.00    -0.000 C 
BRANCH  15  16
ATOM     16  C   UNL     1     113.756  15.952  24.940  1.00  0.00    -0.000 C 
BRANCH  16  17
ATOM     17  C   UNL     1     114.121  16.997  26.005  1.00  0.00    -0.003 C 
ATOM     18  C   UNL     1     113.515  16.636  27.358  1.00  0.00     0.004 C 
ENDBRANCH  16  17
ENDBRANCH  15  16
ENDBRANCH  14  15
ENDBRANCH  13  14
ENDBRANCH  12  13
ENDBRANCH  11  12
ENDBRANCH   1  11
TORSDOF 14
ENDMDL
MODEL 4
REMARK VINA RESULT:    -1.528      3.655      6.405
REMARK INTER + INTRA:          -5.409
REMARK INTER:                  -3.231
REMARK INTRA:                  -2.178
REMARK UNBOUND:                -2.630
REMARK SMILES CCCCCCCCCCCCCCCC(=O)[O-]
REMARK SMILES IDX 9 1 10 2 11 3 12 4 13 5 14 6 15 7 16 8 17 9 18 10 8 11 7 12
REMARK SMILES IDX 6 13 5 14 4 15 3 16 2 17 1 18
REMARK H PARENT
REMARK Flexibility Score: inf
ROOT
ATOM      1  C   UNL     1     114.794  14.000  26.168  1.00  0.00     0.000 C 
ENDROOT
BRANCH   1   2
ATOM      2  C   UNL     1     115.455  12.735  25.578  1.00  0.00     0.000 C 
BRANCH   2   3
ATOM      3  C   UNL     1     116.421  13.056  24.425  1.00  0.00     0.000 C 
BRANCH   3   4
ATOM      4  C   UNL     1     116.172  14.442  23.810  1.00  0.00     0.000 C 
BRANCH   4   5
ATOM      5  C   UNL     1     117.298  14.877  22.860  1.00  0.00     0.000 C 
BRANCH   5   6
ATOM      6  C   UNL     1     117.760  16.306  23.168  1.00  0.00     0.006 C 
BRANCH   6   7
ATOM      7  C   UNL     1     119.287  16.380  23.268  1.00  0.00     0.053 C 
BRANCH   7   8
ATOM      8  C   UNL     1     119.887  16.689  21.932  1.00  0.00     0.041 C 
ATOM      9  O   UNL     1     120.817  15.975  21.475  1.00  0.00    -0.550 OA
ATOM     10  O   UNL     1     119.442  17.789  21.209  1.00  0.00    -0.550 OA
ENDBRANCH   7   8
ENDBRANCH   6   7
ENDBRANCH   5   6
ENDBRANCH   4   5
ENDBRANCH   3   4
ENDBRANCH   2   3
ENDBRANCH   1   2
BRANCH   1  11
ATOM     11  C   UNL     1     114.743  14.018  27.708  1.00  0.00     0.000 C 
BRANCH  11  12
ATOM     12  C   UNL     1     115.654  12.991  28.406  1.00  0.00    -0.000 C 
BRANCH  12  13
ATOM     13  C   UNL     1     116.907  13.583  29.079  1.00  0.00    -0.000 C 
BRANCH  13  14
ATOM     14  C   UNL     1     116.946  15.117  29.025  1.00  0.00    -0.000 C 
BRANCH  14  15
ATOM     15  C   UNL     1     118.199  15.610  28.286  1.00  0.00    -0.000 C 
BRANCH  15  16
ATOM     16  C   UNL     1     117.907  15.996  26.827  1.00  0.00    -0.000 C 
BRANCH  16  17
ATOM     17  C   UNL     1     116.806  17.061  26.710  1.00  0.00    -0.003 C 
ATOM     18  C   UNL     1     117.388  18.409  26.295  1.00  0.00     0.004 C 
ENDBRANCH  16  17
ENDBRANCH  15  16
ENDBRANCH  14  15
ENDBRANCH  13  14
ENDBRANCH  12  13
ENDBRANCH  11  12
ENDBRANCH   1  11
TORSDOF 14
ENDMDL
MODEL 5
REMARK VINA RESULT:    -1.516      1.682      2.386
REMARK INTER + INTRA:          -5.386
REMARK INTER:                  -3.235
REMARK INTRA:                  -2.151
REMARK UNBOUND:                -2.630
REMARK SMILES CCCCCCCCCCCCCCCC(=O)[O-]
REMARK SMILES IDX 9 1 10 2 11 3 12 4 13 5 14 6 15 7 16 8 17 9 18 10 8 11 7 12
REMARK SMILES IDX 6 13 5 14 4 15 3 16 2 17 1 18
REMARK H PARENT
REMARK Flexibility Score: inf
ROOT
ATOM      1  C   UNL     1     116.996  12.952  22.705  1.00  0.00     0.000 C 
ENDROOT
BRANCH   1   2
ATOM      2  C   UNL     1     116.575  12.073  23.903  1.00  0.00     0.000 C 
BRANCH   2   3
ATOM      3  C   UNL     1     115.052  12.054  24.115  1.00  0.00     0.000 C 
BRANCH   3   4
ATOM      4  C   UNL     1     114.632  12.668  25.461  1.00  0.00     0.000 C 
BRANCH   4   5
ATOM      5  C   UNL     1     115.835  13.055  26.334  1.00  0.00     0.000 C 
BRANCH   5   6
ATOM      6  C   UNL     1     115.809  14.549  26.678  1.00  0.00     0.006 C 
BRANCH   6   7
ATOM      7  C   UNL     1     117.033  15.268  26.102  1.00  0.00     0.053 C 
BRANCH   7   8
ATOM      8  C   UNL     1     117.958  15.693  27.198  1.00  0.00     0.041 C 
ATOM      9  O   UNL     1     118.898  16.495  26.959  1.00  0.00    -0.550 OA
ATOM     10  O   UNL     1     117.804  15.172  28.477  1.00  0.00    -0.550 OA
ENDBRANCH   7   8
ENDBRANCH   6   7
ENDBRANCH   5   6
ENDBRANCH   4   5
ENDBRANCH   3   4
ENDBRANCH   2   3
ENDBRANCH   1   2
BRANCH   1  11
ATOM     11  C   UNL     1     116.189  14.258  22.574  1.00  0.00     0.000 C 
BRANCH  11  12
ATOM     12  C   UNL     1     117.010  15.500  22.180  1.00  0.00    -0.000 C 
BRANCH  12  13
ATOM     13  C   UNL     1     118.474  15.491  22.659  1.00  0.00    -0.000 C 
BRANCH  13  14
ATOM     14  C   UNL     1     119.482  15.585  21.504  1.00  0.00    -0.000 C 
BRANCH  14  15
ATOM     15  C   UNL     1     118.787  15.378  20.150  1.00  0.00    -0.000 C 
BRANCH  15  16
ATOM     16  C   UNL     1     119.206  14.065  19.469  1.00  0.00    -0.000 C 
BRANCH  16  17
ATOM     17  C   UNL     1     118.007  13.163  19.141  1.00  0.00    -0.003 C 
ATOM     18  C   UNL     1     116.781  13.992  18.771  1.00  0.00     0.004 C 
ENDBRANCH  16  17
ENDBRANCH  15  16
ENDBRANCH  14  15
ENDBRANCH  13  14
ENDBRANCH  12  13
ENDBRANCH  11  12
ENDBRANCH   1  11
TORSDOF 14
ENDMDL
MODEL 6
REMARK VINA RESULT:    -1.510      1.648      3.123
REMARK INTER + INTRA:          -5.377
REMARK INTER:                  -3.053
REMARK INTRA:                  -2.324
REMARK UNBOUND:                -2.630
REMARK SMILES CCCCCCCCCCCCCCCC(=O)[O-]
REMARK SMILES IDX 9 1 10 2 11 3 12 4 13 5 14 6 15 7 16 8 17 9 18 10 8 11 7 12
REMARK SMILES IDX 6 13 5 14 4 15 3 16 2 17 1 18
REMARK H PARENT
REMARK Flexibility Score: inf
ROOT
ATOM      1  C   UNL     1     116.160  14.573  24.858  1.00  0.00     0.000 C 
ENDROOT
BRANCH   1   2
ATOM      2  C   UNL     1     116.287  13.049  25.077  1.00  0.00     0.000 C 
BRANCH   2   3
ATOM      3  C   UNL     1     114.997  12.422  25.632  1.00  0.00     0.000 C 
BRANCH   3   4
ATOM      4  C   UNL     1     114.495  13.124  26.904  1.00  0.00     0.000 C 
BRANCH   4   5
ATOM      5  C   UNL     1     115.069  12.504  28.186  1.00  0.00     0.000 C 
BRANCH   5   6
ATOM      6  C   UNL     1     115.689  13.578  29.090  1.00  0.00     0.006 C 
BRANCH   6   7
ATOM      7  C   UNL     1     117.146  13.847  28.703  1.00  0.00     0.053 C 
BRANCH   7   8
ATOM      8  C   UNL     1     117.325  15.275  28.293  1.00  0.00     0.041 C 
ATOM      9  O   UNL     1     116.323  16.022  28.142  1.00  0.00    -0.550 OA
ATOM     10  O   UNL     1     118.599  15.771  28.041  1.00  0.00    -0.550 OA
ENDBRANCH   7   8
ENDBRANCH   6   7
ENDBRANCH   5   6
ENDBRANCH   4   5
ENDBRANCH   3   4
ENDBRANCH   2   3
ENDBRANCH   1   2
BRANCH   1  11
ATOM     11  C   UNL     1     116.791  15.069  23.542  1.00  0.00     0.000 C 
BRANCH  11  12
ATOM     12  C   UNL     1     117.198  13.962  22.551  1.00  0.00    -0.000 C 
BRANCH  12  13
ATOM     13  C   UNL     1     116.224  13.749  21.376  1.00  0.00    -0.000 C 
BRANCH  13  14
ATOM     14  C   UNL     1     115.294  12.545  21.580  1.00  0.00    -0.000 C 
BRANCH  14  15
ATOM     15  C   UNL     1     113.836  12.918  21.276  1.00  0.00    -0.000 C 
BRANCH  15  16
ATOM     16  C   UNL     1     112.952  12.910  22.533  1.00  0.00    -0.000 C 
BRANCH  16  17
ATOM     17  C   UNL     1     112.905  14.279  23.228  1.00  0.00    -0.003 C 
ATOM     18  C   UNL     1     112.909  15.413  22.208  1.00  0.00     0.004 C 
ENDBRANCH  16  17
ENDBRANCH  15  16
ENDBRANCH  14  15
ENDBRANCH  13  14
ENDBRANCH  12  13
ENDBRANCH  11  12
ENDBRANCH   1  11
TORSDOF 14
ENDMDL
MODEL 7
REMARK VINA RESULT:    -1.508      2.427      4.330
REMARK INTER + INTRA:          -5.371
REMARK INTER:                  -3.337
REMARK INTRA:                  -2.034
REMARK UNBOUND:                -2.630
REMARK SMILES CCCCCCCCCCCCCCCC(=O)[O-]
REMARK SMILES IDX 9 1 10 2 11 3 12 4 13 5 14 6 15 7 16 8 17 9 18 10 8 11 7 12
REMARK SMILES IDX 6 13 5 14 4 15 3 16 2 17 1 18
REMARK H PARENT
REMARK Flexibility Score: inf
ROOT
ATOM      1  C   UNL     1     115.431  15.084  25.713  1.00  0.00     0.000 C 
ENDROOT
BRANCH   1   2
ATOM      2  C   UNL     1     114.454  14.758  26.864  1.00  0.00     0.000 C 
BRANCH   2   3
ATOM      3  C   UNL     1     115.173  14.549  28.207  1.00  0.00     0.000 C 
BRANCH   3   4
ATOM      4  C   UNL     1     116.011  15.767  28.629  1.00  0.00     0.000 C 
BRANCH   4   5
ATOM      5  C   UNL     1     117.416  15.379  29.112  1.00  0.00     0.000 C 
BRANCH   5   6
ATOM      6  C   UNL     1     118.497  15.957  28.190  1.00  0.00     0.006 C 
BRANCH   6   7
ATOM      7  C   UNL     1     117.977  17.185  27.436  1.00  0.00     0.053 C 
BRANCH   7   8
ATOM      8  C   UNL     1     118.487  17.194  26.030  1.00  0.00     0.041 C 
ATOM      9  O   UNL     1     119.398  16.398  25.682  1.00  0.00    -0.550 OA
ATOM     10  O   UNL     1     117.982  18.108  25.114  1.00  0.00    -0.550 OA
ENDBRANCH   7   8
ENDBRANCH   6   7
ENDBRANCH   5   6
ENDBRANCH   4   5
ENDBRANCH   3   4
ENDBRANCH   2   3
ENDBRANCH   1   2
BRANCH   1  11
ATOM     11  C   UNL     1     116.461  13.972  25.434  1.00  0.00     0.000 C 
BRANCH  11  12
ATOM     12  C   UNL     1     115.864  12.605  25.052  1.00  0.00    -0.000 C 
BRANCH  12  13
ATOM     13  C   UNL     1     116.576  11.885  23.892  1.00  0.00    -0.000 C 
BRANCH  13  14
ATOM     14  C   UNL     1     116.142  12.398  22.512  1.00  0.00    -0.000 C 
BRANCH  14  15
ATOM     15  C   UNL     1     117.194  13.350  21.923  1.00  0.00    -0.000 C 
BRANCH  15  16
ATOM     16  C   UNL     1     116.645  14.768  21.701  1.00  0.00    -0.000 C 
BRANCH  16  17
ATOM     17  C   UNL     1     117.488  15.842  22.405  1.00  0.00    -0.003 C 
ATOM     18  C   UNL     1     118.977  15.523  22.307  1.00  0.00     0.004 C 
ENDBRANCH  16  17
ENDBRANCH  15  16
ENDBRANCH  14  15
ENDBRANCH  13  14
ENDBRANCH  12  13
ENDBRANCH  11  12
ENDBRANCH   1  11
TORSDOF 14
ENDMDL
MODEL 8
REMARK VINA RESULT:    -1.501      1.782      3.688
REMARK INTER + INTRA:          -5.360
REMARK INTER:                  -2.884
REMARK INTRA:                  -2.476
REMARK UNBOUND:                -2.630
REMARK SMILES CCCCCCCCCCCCCCCC(=O)[O-]
REMARK SMILES IDX 9 1 10 2 11 3 12 4 13 5 14 6 15 7 16 8 17 9 18 10 8 11 7 12
REMARK SMILES IDX 6 13 5 14 4 15 3 16 2 17 1 18
REMARK H PARENT
REMARK Flexibility Score: inf
ROOT
ATOM      1  C   UNL     1     113.983  16.395  23.487  1.00  0.00     0.000 C 
ENDROOT
BRANCH   1   2
ATOM      2  C   UNL     1     115.350  16.797  22.892  1.00  0.00     0.000 C 
BRANCH   2   3
ATOM      3  C   UNL     1     116.261  17.490  23.920  1.00  0.00     0.000 C 
BRANCH   3   4
ATOM      4  C   UNL     1     117.587  16.743  24.135  1.00  0.00     0.000 C 
BRANCH   4   5
ATOM      5  C   UNL     1     117.621  15.971  25.462  1.00  0.00     0.000 C 
BRANCH   5   6
ATOM      6  C   UNL     1     118.221  16.826  26.585  1.00  0.00     0.006 C 
BRANCH   6   7
ATOM      7  C   UNL     1     118.538  15.973  27.817  1.00  0.00     0.053 C 
BRANCH   7   8
ATOM      8  C   UNL     1     117.306  15.283  28.309  1.00  0.00     0.041 C 
ATOM      9  O   UNL     1     117.278  14.028  28.406  1.00  0.00    -0.550 OA
ATOM     10  O   UNL     1     116.174  16.024  28.626  1.00  0.00    -0.550 OA
ENDBRANCH   7   8
ENDBRANCH   6   7
ENDBRANCH   5   6
ENDBRANCH   4   5
ENDBRANCH   3   4
ENDBRANCH   2   3
ENDBRANCH   1   2
BRANCH   1  11
ATOM     11  C   UNL     1     113.889  16.576  25.015  1.00  0.00     0.000 C 
BRANCH  11  12
ATOM     12  C   UNL     1     114.013  15.280  25.838  1.00  0.00    -0.000 C 
BRANCH  12  13
ATOM     13  C   UNL     1     114.253  14.003  25.011  1.00  0.00    -0.000 C 
BRANCH  13  14
ATOM     14  C   UNL     1     115.292  13.067  25.644  1.00  0.00    -0.000 C 
BRANCH  14  15
ATOM     15  C   UNL     1     116.330  12.616  24.605  1.00  0.00    -0.000 C 
BRANCH  15  16
ATOM     16  C   UNL     1     116.089  13.243  23.222  1.00  0.00    -0.000 C 
BRANCH  16  17
ATOM     17  C   UNL     1     117.228  12.946  22.235  1.00  0.00    -0.003 C 
ATOM     18  C   UNL     1     117.566  14.178  21.402  1.00  0.00     0.004 C 
ENDBRANCH  16  17
ENDBRANCH  15  16
ENDBRANCH  14  15
ENDBRANCH  13  14
ENDBRANCH  12  13
ENDBRANCH  11  12
ENDBRANCH   1  11
TORSDOF 14
ENDMDL
