MODEL 1
REMARK VINA RESULT:    -4.448      0.000      0.000
REMARK INTER + INTRA:         -17.161
REMARK INTER:                 -11.730
REMARK INTRA:                  -5.431
REMARK UNBOUND:                -5.431
REMARK SMILES CCCCCCCCCCCCCCCCCCCCCCCCCCCCCC(=O)[O-]
REMARK SMILES IDX 16 1 17 2 18 3 19 4 20 5 21 6 22 7 23 8 24 9 25 10 26 11
REMARK SMILES IDX 27 12 28 13 29 14 30 15 31 16 32 17 15 18 14 19 13 20 12 21
REMARK SMILES IDX 11 22 10 23 9 24 8 25 7 26 6 27 5 28 4 29 3 30 2 31 1 32
REMARK H PARENT
REMARK Flexibility Score: inf
ROOT
ATOM      1  C   UNL     1      40.703  19.006 225.264  1.00  0.00     0.000 C 
ENDROOT
BRANCH   1   2
ATOM      2  C   UNL     1      40.643  19.283 223.755  1.00  0.00     0.000 C 
BRANCH   2   3
ATOM      3  C   UNL     1      41.980  19.845 223.251  1.00  0.00     0.000 C 
BRANCH   3   4
ATOM      4  C   UNL     1      41.809  21.084 222.355  1.00  0.00     0.000 C 
BRANCH   4   5
ATOM      5  C   UNL     1      41.063  22.268 223.006  1.00  0.00     0.000 C 
BRANCH   5   6
ATOM      6  C   UNL     1      41.729  22.858 224.263  1.00  0.00     0.000 C 
BRANCH   6   7
ATOM      7  C   UNL     1      41.362  24.334 224.499  1.00  0.00     0.000 C 
BRANCH   7   8
ATOM      8  C   UNL     1      39.868  24.627 224.268  1.00  0.00     0.000 C 
BRANCH   8   9
ATOM      9  C   UNL     1      39.206  25.537 225.320  1.00  0.00     0.000 C 
BRANCH   9  10
ATOM     10  C   UNL     1      37.685  25.655 225.139  1.00  0.00     0.000 C 
BRANCH  10  11
ATOM     11  C   UNL     1      37.271  25.286 223.708  1.00  0.00     0.000 C 
BRANCH  11  12
ATOM     12  C   UNL     1      36.108  24.281 223.667  1.00  0.00     0.000 C 
BRANCH  12  13
ATOM     13  C   UNL     1      36.200  23.315 222.473  1.00  0.00     0.006 C 
BRANCH  13  14
ATOM     14  C   UNL     1      37.315  23.707 221.494  1.00  0.00     0.053 C 
BRANCH  14  15
ATOM     15  C   UNL     1      36.874  23.599 220.065  1.00  0.00     0.041 C 
ATOM     16  O   UNL     1      36.101  24.464 219.574  1.00  0.00    -0.550 OA
ATOM     17  O   UNL     1      37.320  22.545 219.276  1.00  0.00    -0.550 OA
ENDBRANCH  14  15
ENDBRANCH  13  14
ENDBRANCH  12  13
ENDBRANCH  11  12
ENDBRANCH  10  11
ENDBRANCH   9  10
ENDBRANCH   8   9
ENDBRANCH   7   8
ENDBRANCH   6   7
ENDBRANCH   5   6
ENDBRANCH   4   5
ENDBRANCH   3   4
ENDBRANCH   2   3
ENDBRANCH   1   2
BRANCH   1  18
ATOM     18  C   UNL     1      39.535  18.137 225.757  1.00  0.00     0.000 C 
BRANCH  18  19
ATOM     19  C   UNL     1      39.706  17.693 227.218  1.00  0.00     0.000 C 
BRANCH  19  20
ATOM     20  C   UNL     1      38.391  17.136 227.785  1.00  0.00     0.000 C 
BRANCH  20  21
ATOM     21  C   UNL     1      37.297  18.211 227.922  1.00  0.00     0.000 C 
BRANCH  21  22
ATOM     22  C   UNL     1      36.051  17.994 227.039  1.00  0.00     0.000 C 
BRANCH  22  23
ATOM     23  C   UNL     1      35.508  19.261 226.355  1.00  0.00     0.000 C 
BRANCH  23  24
ATOM     24  C   UNL     1      36.518  19.896 225.390  1.00  0.00    -0.000 C 
BRANCH  24  25
ATOM     25  C   UNL     1      36.862  21.328 225.823  1.00  0.00    -0.000 C 
BRANCH  25  26
ATOM     26  C   UNL     1      38.338  21.691 225.577  1.00  0.00    -0.000 C 
BRANCH  26  27
ATOM     27  C   UNL     1      39.111  22.147 226.829  1.00  0.00    -0.000 C 
BRANCH  27  28
ATOM     28  C   UNL     1      38.796  21.297 228.070  1.00  0.00    -0.000 C 
BRANCH  28  29
ATOM     29  C   UNL     1      40.056  21.073 228.920  1.00  0.00    -0.000 C 
BRANCH  29  30
ATOM     30  C   UNL     1      39.821  20.048 230.050  1.00  0.00    -0.000 C 
BRANCH  30  31
ATOM     31  C   UNL     1      38.524  20.294 230.840  1.00  0.00    -0.003 C 
ATOM     32  C   UNL     1      38.555  21.586 231.651  1.00  0.00     0.004 C 
ENDBRANCH  30  31
ENDBRANCH  29  30
ENDBRANCH  28  29
ENDBRANCH  27  28
ENDBRANCH  26  27
ENDBRANCH  25  26
ENDBRANCH  24  25
ENDBRANCH  23  24
ENDBRANCH  22  23
ENDBRANCH  21  22
ENDBRANCH  20  21
ENDBRANCH  19  20
ENDBRANCH  18  19
ENDBRANCH   1  18
TORSDOF 28
ENDMDL
MODEL 2
REMARK VINA RESULT:    -4.396      2.254      6.958
REMARK INTER + INTRA:         -17.021
REMARK INTER:                 -11.167
REMARK INTRA:                  -5.855
REMARK UNBOUND:                -5.431
REMARK SMILES CCCCCCCCCCCCCCCCCCCCCCCCCCCCCC(=O)[O-]
REMARK SMILES IDX 16 1 17 2 18 3 19 4 20 5 21 6 22 7 23 8 24 9 25 10 26 11
REMARK SMILES IDX 27 12 28 13 29 14 30 15 31 16 32 17 15 18 14 19 13 20 12 21
REMARK SMILES IDX 11 22 10 23 9 24 8 25 7 26 6 27 5 28 4 29 3 30 2 31 1 32
REMARK H PARENT
REMARK Flexibility Score: inf
ROOT
ATOM      1  C   UNL     1      41.758  19.237 225.065  1.00  0.00     0.000 C 
ENDROOT
BRANCH   1   2
ATOM      2  C   UNL     1      41.407  19.791 226.453  1.00  0.00     0.000 C 
BRANCH   2   3
ATOM      3  C   UNL     1      40.315  20.865 226.351  1.00  0.00     0.000 C 
BRANCH   3   4
ATOM      4  C   UNL     1      40.581  22.077 227.259  1.00  0.00     0.000 C 
BRANCH   4   5
ATOM      5  C   UNL     1      39.618  22.226 228.456  1.00  0.00     0.000 C 
BRANCH   5   6
ATOM      6  C   UNL     1      38.539  21.134 228.576  1.00  0.00     0.000 C 
BRANCH   6   7
ATOM      7  C   UNL     1      38.496  20.484 229.970  1.00  0.00     0.000 C 
BRANCH   7   8
ATOM      8  C   UNL     1      39.803  19.755 230.335  1.00  0.00     0.000 C 
BRANCH   8   9
ATOM      9  C   UNL     1      40.242  18.658 229.348  1.00  0.00     0.000 C 
BRANCH   9  10
ATOM     10  C   UNL     1      39.576  17.302 229.622  1.00  0.00     0.000 C 
BRANCH  10  11
ATOM     11  C   UNL     1      38.390  17.071 228.674  1.00  0.00     0.000 C 
BRANCH  11  12
ATOM     12  C   UNL     1      38.790  17.150 227.192  1.00  0.00     0.000 C 
BRANCH  12  13
ATOM     13  C   UNL     1      37.963  18.185 226.409  1.00  0.00     0.006 C 
BRANCH  13  14
ATOM     14  C   UNL     1      36.483  18.173 226.815  1.00  0.00     0.053 C 
BRANCH  14  15
ATOM     15  C   UNL     1      35.709  19.276 226.158  1.00  0.00     0.041 C 
ATOM     16  O   UNL     1      35.260  19.126 224.991  1.00  0.00    -0.550 OA
ATOM     17  O   UNL     1      35.482  20.468 226.837  1.00  0.00    -0.550 OA
ENDBRANCH  14  15
ENDBRANCH  13  14
ENDBRANCH  12  13
ENDBRANCH  11  12
ENDBRANCH  10  11
ENDBRANCH   9  10
ENDBRANCH   8   9
ENDBRANCH   7   8
ENDBRANCH   6   7
ENDBRANCH   5   6
ENDBRANCH   4   5
ENDBRANCH   3   4
ENDBRANCH   2   3
ENDBRANCH   1   2
BRANCH   1  18
ATOM     18  C   UNL     1      42.328  20.308 224.122  1.00  0.00     0.000 C 
BRANCH  18  19
ATOM     19  C   UNL     1      41.358  20.671 222.988  1.00  0.00     0.000 C 
BRANCH  19  20
ATOM     20  C   UNL     1      41.164  22.192 222.890  1.00  0.00     0.000 C 
BRANCH  20  21
ATOM     21  C   UNL     1      42.006  22.969 223.920  1.00  0.00     0.000 C 
BRANCH  21  22
ATOM     22  C   UNL     1      41.381  24.290 224.415  1.00  0.00     0.000 C 
BRANCH  22  23
ATOM     23  C   UNL     1      42.134  24.975 225.569  1.00  0.00     0.000 C 
BRANCH  23  24
ATOM     24  C   UNL     1      41.204  25.772 226.494  1.00  0.00    -0.000 C 
BRANCH  24  25
ATOM     25  C   UNL     1      39.821  25.955 225.854  1.00  0.00    -0.000 C 
BRANCH  25  26
ATOM     26  C   UNL     1      38.698  25.256 226.642  1.00  0.00    -0.000 C 
BRANCH  26  27
ATOM     27  C   UNL     1      37.468  24.858 225.804  1.00  0.00    -0.000 C 
BRANCH  27  28
ATOM     28  C   UNL     1      37.184  23.349 225.836  1.00  0.00    -0.000 C 
BRANCH  28  29
ATOM     29  C   UNL     1      37.459  22.706 224.468  1.00  0.00    -0.000 C 
BRANCH  29  30
ATOM     30  C   UNL     1      37.903  23.743 223.415  1.00  0.00    -0.000 C 
BRANCH  30  31
ATOM     31  C   UNL     1      36.978  23.804 222.188  1.00  0.00    -0.003 C 
ATOM     32  C   UNL     1      35.513  23.550 222.532  1.00  0.00     0.004 C 
ENDBRANCH  30  31
ENDBRANCH  29  30
ENDBRANCH  28  29
ENDBRANCH  27  28
ENDBRANCH  26  27
ENDBRANCH  25  26
ENDBRANCH  24  25
ENDBRANCH  23  24
ENDBRANCH  22  23
ENDBRANCH  21  22
ENDBRANCH  20  21
ENDBRANCH  19  20
ENDBRANCH  18  19
ENDBRANCH   1  18
TORSDOF 28
ENDMDL
MODEL 3
REMARK VINA RESULT:    -4.352      3.297      6.892
REMARK INTER + INTRA:         -16.907
REMARK INTER:                 -11.153
REMARK INTRA:                  -5.755
REMARK UNBOUND:                -5.431
REMARK SMILES CCCCCCCCCCCCCCCCCCCCCCCCCCCCCC(=O)[O-]
REMARK SMILES IDX 16 1 17 2 18 3 19 4 20 5 21 6 22 7 23 8 24 9 25 10 26 11
REMARK SMILES IDX 27 12 28 13 29 14 30 15 31 16 32 17 15 18 14 19 13 20 12 21
REMARK SMILES IDX 11 22 10 23 9 24 8 25 7 26 6 27 5 28 4 29 3 30 2 31 1 32
REMARK H PARENT
REMARK Flexibility Score: inf
ROOT
ATOM      1  C   UNL     1      42.210  24.855 225.260  1.00  0.00     0.000 C 
ENDROOT
BRANCH   1   2
ATOM      2  C   UNL     1      41.443  23.588 224.854  1.00  0.00     0.000 C 
BRANCH   2   3
ATOM      3  C   UNL     1      40.772  23.773 223.485  1.00  0.00     0.000 C 
BRANCH   3   4
ATOM      4  C   UNL     1      40.672  22.462 222.687  1.00  0.00     0.000 C 
BRANCH   4   5
ATOM      5  C   UNL     1      41.868  21.501 222.847  1.00  0.00     0.000 C 
BRANCH   5   6
ATOM      6  C   UNL     1      41.563  20.015 222.581  1.00  0.00     0.000 C 
BRANCH   6   7
ATOM      7  C   UNL     1      40.644  19.391 223.644  1.00  0.00     0.000 C 
BRANCH   7   8
ATOM      8  C   UNL     1      41.066  19.737 225.084  1.00  0.00     0.000 C 
BRANCH   8   9
ATOM      9  C   UNL     1      40.314  18.976 226.192  1.00  0.00     0.000 C 
BRANCH   9  10
ATOM     10  C   UNL     1      38.985  18.375 225.710  1.00  0.00     0.000 C 
BRANCH  10  11
ATOM     11  C   UNL     1      37.926  18.423 226.821  1.00  0.00     0.000 C 
BRANCH  11  12
ATOM     12  C   UNL     1      38.413  17.786 228.133  1.00  0.00     0.000 C 
BRANCH  12  13
ATOM     13  C   UNL     1      38.394  16.247 228.087  1.00  0.00     0.006 C 
BRANCH  13  14
ATOM     14  C   UNL     1      39.699  15.635 228.612  1.00  0.00     0.053 C 
BRANCH  14  15
ATOM     15  C   UNL     1      40.796  15.685 227.592  1.00  0.00     0.041 C 
ATOM     16  O   UNL     1      41.894  16.237 227.868  1.00  0.00    -0.550 OA
ATOM     17  O   UNL     1      40.605  15.119 226.336  1.00  0.00    -0.550 OA
ENDBRANCH  14  15
ENDBRANCH  13  14
ENDBRANCH  12  13
ENDBRANCH  11  12
ENDBRANCH  10  11
ENDBRANCH   9  10
ENDBRANCH   8   9
ENDBRANCH   7   8
ENDBRANCH   6   7
ENDBRANCH   5   6
ENDBRANCH   4   5
ENDBRANCH   3   4
ENDBRANCH   2   3
ENDBRANCH   1   2
BRANCH   1  18
ATOM     18  C   UNL     1      41.707  25.459 226.580  1.00  0.00     0.000 C 
BRANCH  18  19
ATOM     19  C   UNL     1      41.357  26.949 226.451  1.00  0.00     0.000 C 
BRANCH  19  20
ATOM     20  C   UNL     1      39.864  27.142 226.139  1.00  0.00     0.000 C 
BRANCH  20  21
ATOM     21  C   UNL     1      38.987  26.002 226.688  1.00  0.00     0.000 C 
BRANCH  21  22
ATOM     22  C   UNL     1      37.785  25.615 225.803  1.00  0.00     0.000 C 
BRANCH  22  23
ATOM     23  C   UNL     1      37.926  25.981 224.315  1.00  0.00     0.000 C 
BRANCH  23  24
ATOM     24  C   UNL     1      37.182  25.009 223.390  1.00  0.00    -0.000 C 
BRANCH  24  25
ATOM     25  C   UNL     1      36.389  23.978 224.206  1.00  0.00    -0.000 C 
BRANCH  25  26
ATOM     26  C   UNL     1      36.925  22.544 224.042  1.00  0.00    -0.000 C 
BRANCH  26  27
ATOM     27  C   UNL     1      37.169  21.788 225.362  1.00  0.00    -0.000 C 
BRANCH  27  28
ATOM     28  C   UNL     1      38.473  22.205 226.059  1.00  0.00    -0.000 C 
BRANCH  28  29
ATOM     29  C   UNL     1      38.383  21.988 227.577  1.00  0.00    -0.000 C 
BRANCH  29  30
ATOM     30  C   UNL     1      39.775  21.917 228.239  1.00  0.00    -0.000 C 
BRANCH  30  31
ATOM     31  C   UNL     1      40.185  23.222 228.942  1.00  0.00    -0.003 C 
ATOM     32  C   UNL     1      39.403  23.479 230.228  1.00  0.00     0.004 C 
ENDBRANCH  30  31
ENDBRANCH  29  30
ENDBRANCH  28  29
ENDBRANCH  27  28
ENDBRANCH  26  27
ENDBRANCH  25  26
ENDBRANCH  24  25
ENDBRANCH  23  24
ENDBRANCH  22  23
ENDBRANCH  21  22
ENDBRANCH  20  21
ENDBRANCH  19  20
ENDBRANCH  18  19
ENDBRANCH   1  18
TORSDOF 28
ENDMDL
MODEL 4
REMARK VINA RESULT:    -4.333      2.924      7.707
REMARK INTER + INTRA:         -16.856
REMARK INTER:                 -11.512
REMARK INTRA:                  -5.345
REMARK UNBOUND:                -5.431
REMARK SMILES CCCCCCCCCCCCCCCCCCCCCCCCCCCCCC(=O)[O-]
REMARK SMILES IDX 16 1 17 2 18 3 19 4 20 5 21 6 22 7 23 8 24 9 25 10 26 11
REMARK SMILES IDX 27 12 28 13 29 14 30 15 31 16 32 17 15 18 14 19 13 20 12 21
REMARK SMILES IDX 11 22 10 23 9 24 8 25 7 26 6 27 5 28 4 29 3 30 2 31 1 32
REMARK H PARENT
REMARK Flexibility Score: inf
ROOT
ATOM      1  C   UNL     1      38.507  26.346 225.053  1.00  0.00     0.000 C 
ENDROOT
BRANCH   1   2
ATOM      2  C   UNL     1      37.452  25.480 224.351  1.00  0.00     0.000 C 
BRANCH   2   3
ATOM      3  C   UNL     1      38.112  24.520 223.351  1.00  0.00     0.000 C 
BRANCH   3   4
ATOM      4  C   UNL     1      37.735  23.049 223.595  1.00  0.00     0.000 C 
BRANCH   4   5
ATOM      5  C   UNL     1      36.997  22.771 224.921  1.00  0.00     0.000 C 
BRANCH   5   6
ATOM      6  C   UNL     1      37.888  22.720 226.176  1.00  0.00     0.000 C 
BRANCH   6   7
ATOM      7  C   UNL     1      39.009  21.671 226.074  1.00  0.00     0.000 C 
BRANCH   7   8
ATOM      8  C   UNL     1      40.047  21.788 227.206  1.00  0.00     0.000 C 
BRANCH   8   9
ATOM      9  C   UNL     1      41.191  20.758 227.159  1.00  0.00     0.000 C 
BRANCH   9  10
ATOM     10  C   UNL     1      40.902  19.585 226.211  1.00  0.00     0.000 C 
BRANCH  10  11
ATOM     11  C   UNL     1      40.629  18.295 226.999  1.00  0.00     0.000 C 
BRANCH  11  12
ATOM     12  C   UNL     1      39.397  17.534 226.482  1.00  0.00     0.000 C 
BRANCH  12  13
ATOM     13  C   UNL     1      38.303  18.474 225.945  1.00  0.00     0.006 C 
BRANCH  13  14
ATOM     14  C   UNL     1      37.055  18.481 226.838  1.00  0.00     0.053 C 
BRANCH  14  15
ATOM     15  C   UNL     1      35.914  19.221 226.207  1.00  0.00     0.041 C 
ATOM     16  O   UNL     1      35.435  20.243 226.766  1.00  0.00    -0.550 OA
ATOM     17  O   UNL     1      35.384  18.783 224.999  1.00  0.00    -0.550 OA
ENDBRANCH  14  15
ENDBRANCH  13  14
ENDBRANCH  12  13
ENDBRANCH  11  12
ENDBRANCH  10  11
ENDBRANCH   9  10
ENDBRANCH   8   9
ENDBRANCH   7   8
ENDBRANCH   6   7
ENDBRANCH   5   6
ENDBRANCH   4   5
ENDBRANCH   3   4
ENDBRANCH   2   3
ENDBRANCH   1   2
BRANCH   1  18
ATOM     18  C   UNL     1      38.557  26.111 226.571  1.00  0.00     0.000 C 
BRANCH  18  19
ATOM     19  C   UNL     1      39.740  26.828 227.240  1.00  0.00     0.000 C 
BRANCH  19  20
ATOM     20  C   UNL     1      40.365  27.866 226.295  1.00  0.00     0.000 C 
BRANCH  20  21
ATOM     21  C   UNL     1      41.549  28.618 226.932  1.00  0.00     0.000 C 
BRANCH  21  22
ATOM     22  C   UNL     1      42.266  27.866 228.071  1.00  0.00     0.000 C 
BRANCH  22  23
ATOM     23  C   UNL     1      43.763  27.598 227.835  1.00  0.00     0.000 C 
BRANCH  23  24
ATOM     24  C   UNL     1      44.134  26.118 227.995  1.00  0.00    -0.000 C 
BRANCH  24  25
ATOM     25  C   UNL     1      42.877  25.238 228.017  1.00  0.00    -0.000 C 
BRANCH  25  26
ATOM     26  C   UNL     1      42.791  24.283 226.812  1.00  0.00    -0.000 C 
BRANCH  26  27
ATOM     27  C   UNL     1      42.494  24.967 225.464  1.00  0.00    -0.000 C 
BRANCH  27  28
ATOM     28  C   UNL     1      41.455  24.208 224.624  1.00  0.00    -0.000 C 
BRANCH  28  29
ATOM     29  C   UNL     1      41.986  22.830 224.201  1.00  0.00    -0.000 C 
BRANCH  29  30
ATOM     30  C   UNL     1      41.288  22.301 222.930  1.00  0.00    -0.000 C 
BRANCH  30  31
ATOM     31  C   UNL     1      41.682  20.858 222.571  1.00  0.00    -0.003 C 
ATOM     32  C   UNL     1      43.144  20.544 222.877  1.00  0.00     0.004 C 
ENDBRANCH  30  31
ENDBRANCH  29  30
ENDBRANCH  28  29
ENDBRANCH  27  28
ENDBRANCH  26  27
ENDBRANCH  25  26
ENDBRANCH  24  25
ENDBRANCH  23  24
ENDBRANCH  22  23
ENDBRANCH  21  22
ENDBRANCH  20  21
ENDBRANCH  19  20
ENDBRANCH  18  19
ENDBRANCH   1  18
TORSDOF 28
ENDMDL
MODEL 5
REMARK VINA RESULT:    -4.328      3.144      7.112
REMARK INTER + INTRA:         -16.842
REMARK INTER:                 -11.538
REMARK INTRA:                  -5.305
REMARK UNBOUND:                -5.431
REMARK SMILES CCCCCCCCCCCCCCCCCCCCCCCCCCCCCC(=O)[O-]
REMARK SMILES IDX 16 1 17 2 18 3 19 4 20 5 21 6 22 7 23 8 24 9 25 10 26 11
REMARK SMILES IDX 27 12 28 13 29 14 30 15 31 16 32 17 15 18 14 19 13 20 12 21
REMARK SMILES IDX 11 22 10 23 9 24 8 25 7 26 6 27 5 28 4 29 3 30 2 31 1 32
REMARK H PARENT
REMARK Flexibility Score: inf
ROOT
ATOM      1  C   UNL     1      35.918  24.453 223.706  1.00  0.00     0.000 C 
ENDROOT
BRANCH   1   2
ATOM      2  C   UNL     1      36.605  23.165 223.228  1.00  0.00     0.000 C 
BRANCH   2   3
ATOM      3  C   UNL     1      37.139  22.358 224.420  1.00  0.00     0.000 C 
BRANCH   3   4
ATOM      4  C   UNL     1      38.675  22.324 224.479  1.00  0.00     0.000 C 
BRANCH   4   5
ATOM      5  C   UNL     1      39.394  22.961 223.271  1.00  0.00     0.000 C 
BRANCH   5   6
ATOM      6  C   UNL     1      40.783  23.558 223.567  1.00  0.00     0.000 C 
BRANCH   6   7
ATOM      7  C   UNL     1      41.864  22.485 223.780  1.00  0.00     0.000 C 
BRANCH   7   8
ATOM      8  C   UNL     1      41.798  21.349 222.741  1.00  0.00     0.000 C 
BRANCH   8   9
ATOM      9  C   UNL     1      41.956  19.927 223.311  1.00  0.00     0.000 C 
BRANCH   9  10
ATOM     10  C   UNL     1      40.644  19.354 223.867  1.00  0.00     0.000 C 
BRANCH  10  11
ATOM     11  C   UNL     1      40.649  19.359 225.403  1.00  0.00     0.000 C 
BRANCH  11  12
ATOM     12  C   UNL     1      39.737  18.276 226.002  1.00  0.00     0.000 C 
BRANCH  12  13
ATOM     13  C   UNL     1      38.252  18.496 225.660  1.00  0.00     0.006 C 
BRANCH  13  14
ATOM     14  C   UNL     1      37.429  18.905 226.888  1.00  0.00     0.053 C 
BRANCH  14  15
ATOM     15  C   UNL     1      36.091  19.465 226.509  1.00  0.00     0.041 C 
ATOM     16  O   UNL     1      35.347  18.841 225.707  1.00  0.00    -0.550 OA
ATOM     17  O   UNL     1      35.666  20.675 227.045  1.00  0.00    -0.550 OA
ENDBRANCH  14  15
ENDBRANCH  13  14
ENDBRANCH  12  13
ENDBRANCH  11  12
ENDBRANCH  10  11
ENDBRANCH   9  10
ENDBRANCH   8   9
ENDBRANCH   7   8
ENDBRANCH   6   7
ENDBRANCH   5   6
ENDBRANCH   4   5
ENDBRANCH   3   4
ENDBRANCH   2   3
ENDBRANCH   1   2
BRANCH   1  18
ATOM     18  C   UNL     1      36.914  25.500 224.231  1.00  0.00     0.000 C 
BRANCH  18  19
ATOM     19  C   UNL     1      36.909  25.600 225.764  1.00  0.00     0.000 C 
BRANCH  19  20
ATOM     20  C   UNL     1      38.324  25.418 226.335  1.00  0.00     0.000 C 
BRANCH  20  21
ATOM     21  C   UNL     1      39.322  26.463 225.803  1.00  0.00     0.000 C 
BRANCH  21  22
ATOM     22  C   UNL     1      39.870  27.444 226.860  1.00  0.00     0.000 C 
BRANCH  22  23
ATOM     23  C   UNL     1      40.939  28.425 226.347  1.00  0.00     0.000 C 
BRANCH  23  24
ATOM     24  C   UNL     1      41.728  29.091 227.483  1.00  0.00    -0.000 C 
BRANCH  24  25
ATOM     25  C   UNL     1      43.139  28.496 227.589  1.00  0.00    -0.000 C 
BRANCH  25  26
ATOM     26  C   UNL     1      43.325  27.612 228.835  1.00  0.00    -0.000 C 
BRANCH  26  27
ATOM     27  C   UNL     1      43.514  26.111 228.542  1.00  0.00    -0.000 C 
BRANCH  27  28
ATOM     28  C   UNL     1      43.764  25.817 227.055  1.00  0.00    -0.000 C 
BRANCH  28  29
ATOM     29  C   UNL     1      42.673  24.900 226.482  1.00  0.00    -0.000 C 
BRANCH  29  30
ATOM     30  C   UNL     1      41.745  24.341 227.581  1.00  0.00    -0.000 C 
BRANCH  30  31
ATOM     31  C   UNL     1      41.182  22.947 227.257  1.00  0.00    -0.003 C 
ATOM     32  C   UNL     1      42.105  21.814 227.696  1.00  0.00     0.004 C 
ENDBRANCH  30  31
ENDBRANCH  29  30
ENDBRANCH  28  29
ENDBRANCH  27  28
ENDBRANCH  26  27
ENDBRANCH  25  26
ENDBRANCH  24  25
ENDBRANCH  23  24
ENDBRANCH  22  23
ENDBRANCH  21  22
ENDBRANCH  20  21
ENDBRANCH  19  20
ENDBRANCH  18  19
ENDBRANCH   1  18
TORSDOF 28
ENDMDL
MODEL 6
REMARK VINA RESULT:    -4.309      2.662      6.284
REMARK INTER + INTRA:         -16.792
REMARK INTER:                 -10.642
REMARK INTRA:                  -6.150
REMARK UNBOUND:                -5.431
REMARK SMILES CCCCCCCCCCCCCCCCCCCCCCCCCCCCCC(=O)[O-]
REMARK SMILES IDX 16 1 17 2 18 3 19 4 20 5 21 6 22 7 23 8 24 9 25 10 26 11
REMARK SMILES IDX 27 12 28 13 29 14 30 15 31 16 32 17 15 18 14 19 13 20 12 21
REMARK SMILES IDX 11 22 10 23 9 24 8 25 7 26 6 27 5 28 4 29 3 30 2 31 1 32
REMARK H PARENT
REMARK Flexibility Score: inf
ROOT
ATOM      1  C   UNL     1      37.307  22.809 225.985  1.00  0.00     0.000 C 
ENDROOT
BRANCH   1   2
ATOM      2  C   UNL     1      36.979  22.404 224.541  1.00  0.00     0.000 C 
BRANCH   2   3
ATOM      3  C   UNL     1      36.560  23.628 223.714  1.00  0.00     0.000 C 
BRANCH   3   4
ATOM      4  C   UNL     1      37.605  24.021 222.656  1.00  0.00     0.000 C 
BRANCH   4   5
ATOM      5  C   UNL     1      38.929  23.232 222.715  1.00  0.00     0.000 C 
BRANCH   5   6
ATOM      6  C   UNL     1      40.191  24.074 222.978  1.00  0.00     0.000 C 
BRANCH   6   7
ATOM      7  C   UNL     1      41.266  23.314 223.774  1.00  0.00     0.000 C 
BRANCH   7   8
ATOM      8  C   UNL     1      40.685  22.509 224.952  1.00  0.00     0.000 C 
BRANCH   8   9
ATOM      9  C   UNL     1      41.172  21.052 225.057  1.00  0.00     0.000 C 
BRANCH   9  10
ATOM     10  C   UNL     1      40.084  20.029 224.701  1.00  0.00     0.000 C 
BRANCH  10  11
ATOM     11  C   UNL     1      40.440  18.636 225.241  1.00  0.00     0.000 C 
BRANCH  11  12
ATOM     12  C   UNL     1      39.324  18.033 226.108  1.00  0.00     0.000 C 
BRANCH  12  13
ATOM     13  C   UNL     1      38.355  19.099 226.652  1.00  0.00     0.006 C 
BRANCH  13  14
ATOM     14  C   UNL     1      37.007  18.498 227.071  1.00  0.00     0.053 C 
BRANCH  14  15
ATOM     15  C   UNL     1      35.864  19.081 226.295  1.00  0.00     0.041 C 
ATOM     16  O   UNL     1      35.499  18.552 225.212  1.00  0.00    -0.550 OA
ATOM     17  O   UNL     1      35.202  20.207 226.771  1.00  0.00    -0.550 OA
ENDBRANCH  14  15
ENDBRANCH  13  14
ENDBRANCH  12  13
ENDBRANCH  11  12
ENDBRANCH  10  11
ENDBRANCH   9  10
ENDBRANCH   8   9
ENDBRANCH   7   8
ENDBRANCH   6   7
ENDBRANCH   5   6
ENDBRANCH   4   5
ENDBRANCH   3   4
ENDBRANCH   2   3
ENDBRANCH   1   2
BRANCH   1  18
ATOM     18  C   UNL     1      37.109  24.311 226.242  1.00  0.00     0.000 C 
BRANCH  18  19
ATOM     19  C   UNL     1      38.422  25.026 226.599  1.00  0.00     0.000 C 
BRANCH  19  20
ATOM     20  C   UNL     1      38.727  26.155 225.603  1.00  0.00     0.000 C 
BRANCH  20  21
ATOM     21  C   UNL     1      39.900  27.047 226.051  1.00  0.00     0.000 C 
BRANCH  21  22
ATOM     22  C   UNL     1      40.262  26.950 227.547  1.00  0.00     0.000 C 
BRANCH  22  23
ATOM     23  C   UNL     1      41.738  26.629 227.840  1.00  0.00     0.000 C 
BRANCH  23  24
ATOM     24  C   UNL     1      42.519  26.220 226.584  1.00  0.00    -0.000 C 
BRANCH  24  25
ATOM     25  C   UNL     1      43.004  24.767 226.691  1.00  0.00    -0.000 C 
BRANCH  25  26
ATOM     26  C   UNL     1      42.897  24.203 228.120  1.00  0.00    -0.000 C 
BRANCH  26  27
ATOM     27  C   UNL     1      42.197  22.834 228.225  1.00  0.00    -0.000 C 
BRANCH  27  28
ATOM     28  C   UNL     1      40.711  22.948 228.598  1.00  0.00    -0.000 C 
BRANCH  28  29
ATOM     29  C   UNL     1      40.049  21.563 228.660  1.00  0.00    -0.000 C 
BRANCH  29  30
ATOM     30  C   UNL     1      40.400  20.808 229.959  1.00  0.00    -0.000 C 
BRANCH  30  31
ATOM     31  C   UNL     1      39.895  19.355 229.978  1.00  0.00    -0.003 C 
ATOM     32  C   UNL     1      38.549  19.200 230.681  1.00  0.00     0.004 C 
ENDBRANCH  30  31
ENDBRANCH  29  30
ENDBRANCH  28  29
ENDBRANCH  27  28
ENDBRANCH  26  27
ENDBRANCH  25  26
ENDBRANCH  24  25
ENDBRANCH  23  24
ENDBRANCH  22  23
ENDBRANCH  21  22
ENDBRANCH  20  21
ENDBRANCH  19  20
ENDBRANCH  18  19
ENDBRANCH   1  18
TORSDOF 28
ENDMDL
MODEL 7
REMARK VINA RESULT:    -4.265      1.447      1.986
REMARK INTER + INTRA:         -16.678
REMARK INTER:                 -10.924
REMARK INTRA:                  -5.753
REMARK UNBOUND:                -5.431
REMARK SMILES CCCCCCCCCCCCCCCCCCCCCCCCCCCCCC(=O)[O-]
REMARK SMILES IDX 16 1 17 2 18 3 19 4 20 5 21 6 22 7 23 8 24 9 25 10 26 11
REMARK SMILES IDX 27 12 28 13 29 14 30 15 31 16 32 17 15 18 14 19 13 20 12 21
REMARK SMILES IDX 11 22 10 23 9 24 8 25 7 26 6 27 5 28 4 29 3 30 2 31 1 32
REMARK H PARENT
REMARK Flexibility Score: inf
ROOT
ATOM      1  C   UNL     1      41.100  19.925 225.794  1.00  0.00     0.000 C 
ENDROOT
BRANCH   1   2
ATOM      2  C   UNL     1      40.856  19.589 224.316  1.00  0.00     0.000 C 
BRANCH   2   3
ATOM      3  C   UNL     1      41.014  20.840 223.440  1.00  0.00     0.000 C 
BRANCH   3   4
ATOM      4  C   UNL     1      40.270  22.063 224.003  1.00  0.00     0.000 C 
BRANCH   4   5
ATOM      5  C   UNL     1      41.001  23.412 223.838  1.00  0.00     0.000 C 
BRANCH   5   6
ATOM      6  C   UNL     1      42.094  23.704 224.883  1.00  0.00     0.000 C 
BRANCH   6   7
ATOM      7  C   UNL     1      41.671  23.332 226.314  1.00  0.00     0.000 C 
BRANCH   7   8
ATOM      8  C   UNL     1      41.357  24.561 227.188  1.00  0.00     0.000 C 
BRANCH   8   9
ATOM      9  C   UNL     1      39.964  24.564 227.845  1.00  0.00     0.000 C 
BRANCH   9  10
ATOM     10  C   UNL     1      38.821  24.691 226.827  1.00  0.00     0.000 C 
BRANCH  10  11
ATOM     11  C   UNL     1      38.793  26.094 226.204  1.00  0.00     0.000 C 
BRANCH  11  12
ATOM     12  C   UNL     1      38.418  26.074 224.714  1.00  0.00     0.000 C 
BRANCH  12  13
ATOM     13  C   UNL     1      37.748  24.755 224.289  1.00  0.00     0.006 C 
BRANCH  13  14
ATOM     14  C   UNL     1      36.689  24.967 223.199  1.00  0.00     0.053 C 
BRANCH  14  15
ATOM     15  C   UNL     1      36.336  23.689 222.500  1.00  0.00     0.041 C 
ATOM     16  O   UNL     1      35.829  22.732 223.145  1.00  0.00    -0.550 OA
ATOM     17  O   UNL     1      36.563  23.556 221.135  1.00  0.00    -0.550 OA
ENDBRANCH  14  15
ENDBRANCH  13  14
ENDBRANCH  12  13
ENDBRANCH  11  12
ENDBRANCH  10  11
ENDBRANCH   9  10
ENDBRANCH   8   9
ENDBRANCH   7   8
ENDBRANCH   6   7
ENDBRANCH   5   6
ENDBRANCH   4   5
ENDBRANCH   3   4
ENDBRANCH   2   3
ENDBRANCH   1   2
BRANCH   1  18
ATOM     18  C   UNL     1      40.922  18.710 226.718  1.00  0.00     0.000 C 
BRANCH  18  19
ATOM     19  C   UNL     1      40.070  17.603 226.079  1.00  0.00     0.000 C 
BRANCH  19  20
ATOM     20  C   UNL     1      39.409  16.723 227.151  1.00  0.00     0.000 C 
BRANCH  20  21
ATOM     21  C   UNL     1      38.432  17.507 228.048  1.00  0.00     0.000 C 
BRANCH  21  22
ATOM     22  C   UNL     1      36.938  17.215 227.800  1.00  0.00     0.000 C 
BRANCH  22  23
ATOM     23  C   UNL     1      36.152  18.359 227.136  1.00  0.00     0.000 C 
BRANCH  23  24
ATOM     24  C   UNL     1      36.616  18.644 225.701  1.00  0.00    -0.000 C 
BRANCH  24  25
ATOM     25  C   UNL     1      36.728  20.155 225.452  1.00  0.00    -0.000 C 
BRANCH  25  26
ATOM     26  C   UNL     1      36.786  20.975 226.754  1.00  0.00    -0.000 C 
BRANCH  26  27
ATOM     27  C   UNL     1      38.201  21.186 227.324  1.00  0.00    -0.000 C 
BRANCH  27  28
ATOM     28  C   UNL     1      38.245  21.121 228.859  1.00  0.00    -0.000 C 
BRANCH  28  29
ATOM     29  C   UNL     1      39.691  21.024 229.367  1.00  0.00    -0.000 C 
BRANCH  29  30
ATOM     30  C   UNL     1      39.835  20.016 230.526  1.00  0.00    -0.000 C 
BRANCH  30  31
ATOM     31  C   UNL     1      38.487  19.507 231.064  1.00  0.00    -0.003 C 
ATOM     32  C   UNL     1      38.129  20.091 232.428  1.00  0.00     0.004 C 
ENDBRANCH  30  31
ENDBRANCH  29  30
ENDBRANCH  28  29
ENDBRANCH  27  28
ENDBRANCH  26  27
ENDBRANCH  25  26
ENDBRANCH  24  25
ENDBRANCH  23  24
ENDBRANCH  22  23
ENDBRANCH  21  22
ENDBRANCH  20  21
ENDBRANCH  19  20
ENDBRANCH  18  19
ENDBRANCH   1  18
TORSDOF 28
ENDMDL
MODEL 8
REMARK VINA RESULT:    -4.238      2.679      5.851
REMARK INTER + INTRA:         -16.607
REMARK INTER:                 -10.846
REMARK INTRA:                  -5.761
REMARK UNBOUND:                -5.431
REMARK SMILES CCCCCCCCCCCCCCCCCCCCCCCCCCCCCC(=O)[O-]
REMARK SMILES IDX 16 1 17 2 18 3 19 4 20 5 21 6 22 7 23 8 24 9 25 10 26 11
REMARK SMILES IDX 27 12 28 13 29 14 30 15 31 16 32 17 15 18 14 19 13 20 12 21
REMARK SMILES IDX 11 22 10 23 9 24 8 25 7 26 6 27 5 28 4 29 3 30 2 31 1 32
REMARK H PARENT
REMARK Flexibility Score: inf
ROOT
ATOM      1  C   UNL     1      37.427  23.751 222.515  1.00  0.00     0.000 C 
ENDROOT
BRANCH   1   2
ATOM      2  C   UNL     1      38.901  23.421 222.237  1.00  0.00     0.000 C 
BRANCH   2   3
ATOM      3  C   UNL     1      39.821  24.187 223.198  1.00  0.00     0.000 C 
BRANCH   3   4
ATOM      4  C   UNL     1      41.179  23.495 223.404  1.00  0.00     0.000 C 
BRANCH   4   5
ATOM      5  C   UNL     1      41.293  22.078 222.805  1.00  0.00     0.000 C 
BRANCH   5   6
ATOM      6  C   UNL     1      42.519  21.264 223.258  1.00  0.00     0.000 C 
BRANCH   6   7
ATOM      7  C   UNL     1      42.161  20.134 224.239  1.00  0.00     0.000 C 
BRANCH   7   8
ATOM      8  C   UNL     1      41.810  20.649 225.648  1.00  0.00     0.000 C 
BRANCH   8   9
ATOM      9  C   UNL     1      40.511  20.082 226.251  1.00  0.00     0.000 C 
BRANCH   9  10
ATOM     10  C   UNL     1      39.400  21.134 226.379  1.00  0.00     0.000 C 
BRANCH  10  11
ATOM     11  C   UNL     1      38.570  21.216 225.089  1.00  0.00     0.000 C 
BRANCH  11  12
ATOM     12  C   UNL     1      37.058  21.278 225.360  1.00  0.00     0.000 C 
BRANCH  12  13
ATOM     13  C   UNL     1      36.696  20.862 226.798  1.00  0.00     0.006 C 
BRANCH  13  14
ATOM     14  C   UNL     1      35.825  19.600 226.835  1.00  0.00     0.053 C 
BRANCH  14  15
ATOM     15  C   UNL     1      36.416  18.483 226.029  1.00  0.00     0.041 C 
ATOM     16  O   UNL     1      35.825  18.062 224.999  1.00  0.00    -0.550 OA
ATOM     17  O   UNL     1      37.622  17.909 226.415  1.00  0.00    -0.550 OA
ENDBRANCH  14  15
ENDBRANCH  13  14
ENDBRANCH  12  13
ENDBRANCH  11  12
ENDBRANCH  10  11
ENDBRANCH   9  10
ENDBRANCH   8   9
ENDBRANCH   7   8
ENDBRANCH   6   7
ENDBRANCH   5   6
ENDBRANCH   4   5
ENDBRANCH   3   4
ENDBRANCH   2   3
ENDBRANCH   1   2
BRANCH   1  18
ATOM     18  C   UNL     1      37.253  24.935 223.479  1.00  0.00     0.000 C 
BRANCH  18  19
ATOM     19  C   UNL     1      36.167  24.680 224.536  1.00  0.00     0.000 C 
BRANCH  19  20
ATOM     20  C   UNL     1      36.693  24.970 225.951  1.00  0.00     0.000 C 
BRANCH  20  21
ATOM     21  C   UNL     1      38.196  24.669 226.102  1.00  0.00     0.000 C 
BRANCH  21  22
ATOM     22  C   UNL     1      38.727  24.696 227.550  1.00  0.00     0.000 C 
BRANCH  22  23
ATOM     23  C   UNL     1      39.055  26.097 228.098  1.00  0.00     0.000 C 
BRANCH  23  24
ATOM     24  C   UNL     1      39.426  27.095 226.993  1.00  0.00    -0.000 C 
BRANCH  24  25
ATOM     25  C   UNL     1      40.510  26.515 226.073  1.00  0.00    -0.000 C 
BRANCH  25  26
ATOM     26  C   UNL     1      41.886  26.415 226.756  1.00  0.00    -0.000 C 
BRANCH  26  27
ATOM     27  C   UNL     1      42.769  25.250 226.269  1.00  0.00    -0.000 C 
BRANCH  27  28
ATOM     28  C   UNL     1      42.369  23.899 226.880  1.00  0.00    -0.000 C 
BRANCH  28  29
ATOM     29  C   UNL     1      42.485  23.929 228.411  1.00  0.00    -0.000 C 
BRANCH  29  30
ATOM     30  C   UNL     1      42.878  22.554 228.993  1.00  0.00    -0.000 C 
BRANCH  30  31
ATOM     31  C   UNL     1      41.670  21.661 229.322  1.00  0.00    -0.003 C 
ATOM     32  C   UNL     1      40.509  22.432 229.942  1.00  0.00     0.004 C 
ENDBRANCH  30  31
ENDBRANCH  29  30
ENDBRANCH  28  29
ENDBRANCH  27  28
ENDBRANCH  26  27
ENDBRANCH  25  26
ENDBRANCH  24  25
ENDBRANCH  23  24
ENDBRANCH  22  23
ENDBRANCH  21  22
ENDBRANCH  20  21
ENDBRANCH  19  20
ENDBRANCH  18  19
ENDBRANCH   1  18
TORSDOF 28
ENDMDL
MODEL 9
REMARK VINA RESULT:    -4.218      2.256      5.677
REMARK INTER + INTRA:         -16.554
REMARK INTER:                 -10.320
REMARK INTRA:                  -6.233
REMARK UNBOUND:                -5.431
REMARK SMILES CCCCCCCCCCCCCCCCCCCCCCCCCCCCCC(=O)[O-]
REMARK SMILES IDX 16 1 17 2 18 3 19 4 20 5 21 6 22 7 23 8 24 9 25 10 26 11
REMARK SMILES IDX 27 12 28 13 29 14 30 15 31 16 32 17 15 18 14 19 13 20 12 21
REMARK SMILES IDX 11 22 10 23 9 24 8 25 7 26 6 27 5 28 4 29 3 30 2 31 1 32
REMARK H PARENT
REMARK Flexibility Score: inf
ROOT
ATOM      1  C   UNL     1      42.111  23.542 225.174  1.00  0.00     0.000 C 
ENDROOT
BRANCH   1   2
ATOM      2  C   UNL     1      40.849  23.689 224.313  1.00  0.00     0.000 C 
BRANCH   2   3
ATOM      3  C   UNL     1      40.530  22.374 223.586  1.00  0.00     0.000 C 
BRANCH   3   4
ATOM      4  C   UNL     1      41.645  21.939 222.620  1.00  0.00     0.000 C 
BRANCH   4   5
ATOM      5  C   UNL     1      42.202  20.519 222.856  1.00  0.00     0.000 C 
BRANCH   5   6
ATOM      6  C   UNL     1      41.224  19.525 223.509  1.00  0.00     0.000 C 
BRANCH   6   7
ATOM      7  C   UNL     1      41.687  19.051 224.897  1.00  0.00     0.000 C 
BRANCH   7   8
ATOM      8  C   UNL     1      40.737  19.485 226.029  1.00  0.00     0.000 C 
BRANCH   8   9
ATOM      9  C   UNL     1      39.624  18.479 226.376  1.00  0.00     0.000 C 
BRANCH   9  10
ATOM     10  C   UNL     1      38.213  19.046 226.157  1.00  0.00     0.000 C 
BRANCH  10  11
ATOM     11  C   UNL     1      38.275  20.481 225.616  1.00  0.00     0.000 C 
BRANCH  11  12
ATOM     12  C   UNL     1      36.885  21.121 225.472  1.00  0.00     0.000 C 
BRANCH  12  13
ATOM     13  C   UNL     1      36.900  22.378 224.583  1.00  0.00     0.006 C 
BRANCH  13  14
ATOM     14  C   UNL     1      36.841  23.672 225.406  1.00  0.00     0.053 C 
BRANCH  14  15
ATOM     15  C   UNL     1      36.236  24.804 224.634  1.00  0.00     0.041 C 
ATOM     16  O   UNL     1      36.180  24.756 223.376  1.00  0.00    -0.550 OA
ATOM     17  O   UNL     1      35.730  25.913 225.304  1.00  0.00    -0.550 OA
ENDBRANCH  14  15
ENDBRANCH  13  14
ENDBRANCH  12  13
ENDBRANCH  11  12
ENDBRANCH  10  11
ENDBRANCH   9  10
ENDBRANCH   8   9
ENDBRANCH   7   8
ENDBRANCH   6   7
ENDBRANCH   5   6
ENDBRANCH   4   5
ENDBRANCH   3   4
ENDBRANCH   2   3
ENDBRANCH   1   2
BRANCH   1  18
ATOM     18  C   UNL     1      42.588  24.879 225.765  1.00  0.00     0.000 C 
BRANCH  18  19
ATOM     19  C   UNL     1      42.921  24.776 227.262  1.00  0.00     0.000 C 
BRANCH  19  20
ATOM     20  C   UNL     1      42.707  26.122 227.971  1.00  0.00     0.000 C 
BRANCH  20  21
ATOM     21  C   UNL     1      42.302  27.250 227.003  1.00  0.00     0.000 C 
BRANCH  21  22
ATOM     22  C   UNL     1      40.890  27.829 227.227  1.00  0.00     0.000 C 
BRANCH  22  23
ATOM     23  C   UNL     1      39.822  27.349 226.229  1.00  0.00     0.000 C 
BRANCH  23  24
ATOM     24  C   UNL     1      39.110  26.070 226.691  1.00  0.00    -0.000 C 
BRANCH  24  25
ATOM     25  C   UNL     1      38.975  26.041 228.219  1.00  0.00    -0.000 C 
BRANCH  25  26
ATOM     26  C   UNL     1      39.136  24.628 228.809  1.00  0.00    -0.000 C 
BRANCH  26  27
ATOM     27  C   UNL     1      39.511  23.537 227.788  1.00  0.00    -0.000 C 
BRANCH  27  28
ATOM     28  C   UNL     1      39.983  22.233 228.449  1.00  0.00    -0.000 C 
BRANCH  28  29
ATOM     29  C   UNL     1      38.795  21.440 229.016  1.00  0.00    -0.000 C 
BRANCH  29  30
ATOM     30  C   UNL     1      39.250  20.291 229.939  1.00  0.00    -0.000 C 
BRANCH  30  31
ATOM     31  C   UNL     1      40.715  19.875 229.723  1.00  0.00    -0.003 C 
ATOM     32  C   UNL     1      40.928  18.367 229.824  1.00  0.00     0.004 C 
ENDBRANCH  30  31
ENDBRANCH  29  30
ENDBRANCH  28  29
ENDBRANCH  27  28
ENDBRANCH  26  27
ENDBRANCH  25  26
ENDBRANCH  24  25
ENDBRANCH  23  24
ENDBRANCH  22  23
ENDBRANCH  21  22
ENDBRANCH  20  21
ENDBRANCH  19  20
ENDBRANCH  18  19
ENDBRANCH   1  18
TORSDOF 28
ENDMDL
