MODEL 1
REMARK VINA RESULT:    -4.263      0.000      0.000
REMARK INTER + INTRA:          -5.036
REMARK INTER:                  -4.886
REMARK INTRA:                  -0.151
REMARK UNBOUND:                -0.151
REMARK SMILES O=C([O-])C=Cc1ccc(O)cc1
REMARK SMILES IDX 6 1 7 2 12 3 8 4 11 5 9 6 5 7 4 8 2 9 1 10 3 11 10 12
REMARK H PARENT 10 13
REMARK Flexibility Score: inf
ROOT
ATOM      1  C   UNL     1       8.441  17.269  38.890  1.00  0.00    -0.025 A 
ATOM      2  C   UNL     1       8.681  15.913  38.585  1.00  0.00     0.012 A 
ATOM      3  C   UNL     1       8.470  18.213  37.850  1.00  0.00     0.012 A 
ATOM      4  C   UNL     1       8.964  15.524  37.272  1.00  0.00     0.047 A 
ATOM      5  C   UNL     1       8.755  17.820  36.540  1.00  0.00     0.047 A 
ATOM      6  C   UNL     1       9.006  16.474  36.248  1.00  0.00     0.115 A 
ENDROOT
BRANCH   1   7
ATOM      7  C   UNL     1       8.123  17.733  40.264  1.00  0.00     0.010 C 
ATOM      8  C   UNL     1       7.568  18.921  40.539  1.00  0.00     0.025 C 
BRANCH   8   9
ATOM      9  C   UNL     1       7.259  19.335  41.917  1.00  0.00     0.064 C 
ATOM     10  O   UNL     1       7.584  20.487  42.306  1.00  0.00    -0.545 OA
ATOM     11  O   UNL     1       6.615  18.474  42.798  1.00  0.00    -0.545 OA
ENDBRANCH   8   9
ENDBRANCH   1   7
BRANCH   6  12
ATOM     12  O   UNL     1       9.292  16.070  34.945  1.00  0.00    -0.508 OA
ATOM     13  H   UNL     1       8.627  16.204  34.191  1.00  0.00     0.293 HD
ENDBRANCH   6  12
TORSDOF 3
ENDMDL
MODEL 2
REMARK VINA RESULT:    -4.201      0.168      1.406
REMARK INTER + INTRA:          -4.966
REMARK INTER:                  -4.829
REMARK INTRA:                  -0.137
REMARK UNBOUND:                -0.151
REMARK SMILES O=C([O-])C=Cc1ccc(O)cc1
REMARK SMILES IDX 6 1 7 2 12 3 8 4 11 5 9 6 5 7 4 8 2 9 1 10 3 11 10 12
REMARK H PARENT 10 13
REMARK Flexibility Score: inf
ROOT
ATOM      1  C   UNL     1       8.429  17.398  38.898  1.00  0.00    -0.025 A 
ATOM      2  C   UNL     1       8.500  18.266  37.789  1.00  0.00     0.012 A 
ATOM      3  C   UNL     1       8.674  16.029  38.702  1.00  0.00     0.012 A 
ATOM      4  C   UNL     1       8.784  17.765  36.515  1.00  0.00     0.047 A 
ATOM      5  C   UNL     1       8.956  15.531  37.427  1.00  0.00     0.047 A 
ATOM      6  C   UNL     1       9.009  16.398  36.329  1.00  0.00     0.115 A 
ENDROOT
BRANCH   1   7
ATOM      7  C   UNL     1       8.144  17.880  40.273  1.00  0.00     0.010 C 
ATOM      8  C   UNL     1       7.391  18.954  40.544  1.00  0.00     0.025 C 
BRANCH   8   9
ATOM      9  C   UNL     1       7.125  19.389  41.925  1.00  0.00     0.064 C 
ATOM     10  O   UNL     1       7.648  20.450  42.353  1.00  0.00    -0.545 OA
ATOM     11  O   UNL     1       6.304  18.645  42.765  1.00  0.00    -0.545 OA
ENDBRANCH   8   9
ENDBRANCH   1   7
BRANCH   6  12
ATOM     12  O   UNL     1       9.290  15.914  35.053  1.00  0.00    -0.508 OA
ATOM     13  H   UNL     1       8.588  15.911  34.322  1.00  0.00     0.293 HD
ENDBRANCH   6  12
TORSDOF 3
ENDMDL
MODEL 3
REMARK VINA RESULT:    -2.847      1.008      5.890
REMARK INTER + INTRA:          -3.413
REMARK INTER:                  -3.269
REMARK INTRA:                  -0.145
REMARK UNBOUND:                -0.151
REMARK SMILES O=C([O-])C=Cc1ccc(O)cc1
REMARK SMILES IDX 6 1 7 2 12 3 8 4 11 5 9 6 5 7 4 8 2 9 1 10 3 11 10 12
REMARK H PARENT 10 13
REMARK Flexibility Score: inf
ROOT
ATOM      1  C   UNL     1       8.119  17.537  39.600  1.00  0.00    -0.025 A 
ATOM      2  C   UNL     1       7.690  18.880  39.569  1.00  0.00     0.012 A 
ATOM      3  C   UNL     1       8.111  16.852  40.827  1.00  0.00     0.012 A 
ATOM      4  C   UNL     1       7.288  19.521  40.745  1.00  0.00     0.047 A 
ATOM      5  C   UNL     1       7.709  17.496  42.000  1.00  0.00     0.047 A 
ATOM      6  C   UNL     1       7.298  18.834  41.962  1.00  0.00     0.115 A 
ENDROOT
BRANCH   1   7
ATOM      7  C   UNL     1       8.544  16.806  38.380  1.00  0.00     0.010 C 
ATOM      8  C   UNL     1       8.441  17.302  37.140  1.00  0.00     0.025 C 
BRANCH   8   9
ATOM      9  C   UNL     1       8.886  16.546  35.959  1.00  0.00     0.064 C 
ATOM     10  O   UNL     1       8.911  15.288  36.000  1.00  0.00    -0.545 OA
ATOM     11  O   UNL     1       9.282  17.198  34.797  1.00  0.00    -0.545 OA
ENDBRANCH   8   9
ENDBRANCH   1   7
BRANCH   6  12
ATOM     12  O   UNL     1       6.896  19.487  43.125  1.00  0.00    -0.508 OA
ATOM     13  H   UNL     1       6.209  19.080  43.750  1.00  0.00     0.293 HD
ENDBRANCH   6  12
TORSDOF 3
ENDMDL
MODEL 4
REMARK VINA RESULT:    -2.617     22.943     24.473
REMARK INTER + INTRA:          -3.150
REMARK INTER:                  -2.996
REMARK INTRA:                  -0.154
REMARK UNBOUND:                -0.151
REMARK SMILES O=C([O-])C=Cc1ccc(O)cc1
REMARK SMILES IDX 6 1 7 2 12 3 8 4 11 5 9 6 5 7 4 8 2 9 1 10 3 11 10 12
REMARK H PARENT 10 13
REMARK Flexibility Score: inf
ROOT
ATOM      1  C   UNL     1      25.212   5.167  27.019  1.00  0.00    -0.025 A 
ATOM      2  C   UNL     1      24.557   6.001  26.089  1.00  0.00     0.012 A 
ATOM      3  C   UNL     1      26.005   4.111  26.540  1.00  0.00     0.012 A 
ATOM      4  C   UNL     1      24.680   5.763  24.717  1.00  0.00     0.047 A 
ATOM      5  C   UNL     1      26.125   3.875  25.167  1.00  0.00     0.047 A 
ATOM      6  C   UNL     1      25.459   4.700  24.252  1.00  0.00     0.115 A 
ENDROOT
BRANCH   1   7
ATOM      7  C   UNL     1      25.125   5.383  28.485  1.00  0.00     0.010 C 
ATOM      8  C   UNL     1      25.602   4.523  29.394  1.00  0.00     0.025 C 
BRANCH   8   9
ATOM      9  C   UNL     1      25.504   4.784  30.839  1.00  0.00     0.064 C 
ATOM     10  O   UNL     1      24.850   5.779  31.248  1.00  0.00    -0.545 OA
ATOM     11  O   UNL     1      26.122   3.949  31.763  1.00  0.00    -0.545 OA
ENDBRANCH   8   9
ENDBRANCH   1   7
BRANCH   6  12
ATOM     12  O   UNL     1      25.570   4.476  22.881  1.00  0.00    -0.508 OA
ATOM     13  H   UNL     1      25.868   5.208  22.247  1.00  0.00     0.293 HD
ENDBRANCH   6  12
TORSDOF 3
ENDMDL
MODEL 5
REMARK VINA RESULT:    -2.606      1.681      5.823
REMARK INTER + INTRA:          -3.137
REMARK INTER:                  -2.998
REMARK INTRA:                  -0.139
REMARK UNBOUND:                -0.151
REMARK SMILES O=C([O-])C=Cc1ccc(O)cc1
REMARK SMILES IDX 6 1 7 2 12 3 8 4 11 5 9 6 5 7 4 8 2 9 1 10 3 11 10 12
REMARK H PARENT 10 13
REMARK Flexibility Score: inf
ROOT
ATOM      1  C   UNL     1       8.676  17.150  37.837  1.00  0.00    -0.025 A 
ATOM      2  C   UNL     1       8.927  15.945  38.526  1.00  0.00     0.012 A 
ATOM      3  C   UNL     1       8.164  18.245  38.552  1.00  0.00     0.012 A 
ATOM      4  C   UNL     1       8.648  15.842  39.892  1.00  0.00     0.047 A 
ATOM      5  C   UNL     1       7.886  18.137  39.918  1.00  0.00     0.047 A 
ATOM      6  C   UNL     1       8.125  16.933  40.591  1.00  0.00     0.115 A 
ENDROOT
BRANCH   1   7
ATOM      7  C   UNL     1       8.965  17.317  36.391  1.00  0.00     0.010 C 
ATOM      8  C   UNL     1       8.606  16.432  35.452  1.00  0.00     0.025 C 
BRANCH   8   9
ATOM      9  C   UNL     1       8.905  16.645  34.027  1.00  0.00     0.064 C 
ATOM     10  O   UNL     1       9.977  17.214  33.695  1.00  0.00    -0.545 OA
ATOM     11  O   UNL     1       8.020  16.228  33.038  1.00  0.00    -0.545 OA
ENDBRANCH   8   9
ENDBRANCH   1   7
BRANCH   6  12
ATOM     12  O   UNL     1       7.851  16.813  41.952  1.00  0.00    -0.508 OA
ATOM     13  H   UNL     1       7.373  17.547  42.463  1.00  0.00     0.293 HD
ENDBRANCH   6  12
TORSDOF 3
ENDMDL
MODEL 6
REMARK VINA RESULT:    -1.471      2.230      3.047
REMARK INTER + INTRA:          -1.837
REMARK INTER:                  -1.684
REMARK INTRA:                  -0.153
REMARK UNBOUND:                -0.151
REMARK SMILES O=C([O-])C=Cc1ccc(O)cc1
REMARK SMILES IDX 6 1 7 2 12 3 8 4 11 5 9 6 5 7 4 8 2 9 1 10 3 11 10 12
REMARK H PARENT 10 13
REMARK Flexibility Score: inf
ROOT
ATOM      1  C   UNL     1       8.734  16.618  38.080  1.00  0.00    -0.025 A 
ATOM      2  C   UNL     1       9.037  17.875  37.518  1.00  0.00     0.012 A 
ATOM      3  C   UNL     1       8.693  15.493  37.239  1.00  0.00     0.012 A 
ATOM      4  C   UNL     1       9.267  17.999  36.145  1.00  0.00     0.047 A 
ATOM      5  C   UNL     1       8.922  15.621  35.866  1.00  0.00     0.047 A 
ATOM      6  C   UNL     1       9.208  16.876  35.315  1.00  0.00     0.115 A 
ENDROOT
BRANCH   1   7
ATOM      7  C   UNL     1       8.494  16.429  39.532  1.00  0.00     0.010 C 
ATOM      8  C   UNL     1       8.635  15.257  40.165  1.00  0.00     0.025 C 
BRANCH   8   9
ATOM      9  C   UNL     1       8.396  15.119  41.610  1.00  0.00     0.064 C 
ATOM     10  O   UNL     1       7.739  16.003  42.219  1.00  0.00    -0.545 OA
ATOM     11  O   UNL     1       8.887  14.027  42.317  1.00  0.00    -0.545 OA
ENDBRANCH   8   9
ENDBRANCH   1   7
BRANCH   6  12
ATOM     12  O   UNL     1       9.438  17.016  33.948  1.00  0.00    -0.508 OA
ATOM     13  H   UNL     1      10.311  16.721  33.525  1.00  0.00     0.293 HD
ENDBRANCH   6  12
TORSDOF 3
ENDMDL
