MODEL 1
REMARK VINA RESULT:    -4.172      0.000      0.000
REMARK INTER + INTRA:         -14.300
REMARK INTER:                 -10.514
REMARK INTRA:                  -3.786
REMARK UNBOUND:                -3.786
REMARK SMILES CCCCCCCCCCCCCCCCCCCCCCCCCCCC(=O)[O-]
REMARK SMILES IDX 15 1 16 2 17 3 18 4 19 5 20 6 21 7 22 8 23 9 24 10 25 11
REMARK SMILES IDX 26 12 27 13 28 14 29 15 30 16 14 17 13 18 12 19 11 20 10 21
REMARK SMILES IDX 9 22 8 23 7 24 6 25 5 26 4 27 3 28 2 29 1 30
REMARK H PARENT
REMARK Flexibility Score: inf
ROOT
ATOM      1  C   UNL     1      39.439  19.624   9.976  1.00  0.00     0.000 C 
ENDROOT
BRANCH   1   2
ATOM      2  C   UNL     1      39.403  19.122  11.426  1.00  0.00     0.000 C 
BRANCH   2   3
ATOM      3  C   UNL     1      40.187  17.813  11.631  1.00  0.00     0.000 C 
BRANCH   3   4
ATOM      4  C   UNL     1      41.702  17.909  11.371  1.00  0.00     0.000 C 
BRANCH   4   5
ATOM      5  C   UNL     1      42.533  16.979  12.276  1.00  0.00     0.000 C 
BRANCH   5   6
ATOM      6  C   UNL     1      43.852  17.637  12.738  1.00  0.00     0.000 C 
BRANCH   6   7
ATOM      7  C   UNL     1      44.114  19.006  12.078  1.00  0.00     0.000 C 
BRANCH   7   8
ATOM      8  C   UNL     1      43.995  20.206  13.032  1.00  0.00     0.000 C 
BRANCH   8   9
ATOM      9  C   UNL     1      43.081  21.307  12.476  1.00  0.00     0.000 C 
BRANCH   9  10
ATOM     10  C   UNL     1      41.787  21.424  13.295  1.00  0.00     0.000 C 
BRANCH  10  11
ATOM     11  C   UNL     1      41.667  20.331  14.381  1.00  0.00     0.000 C 
BRANCH  11  12
ATOM     12  C   UNL     1      40.226  20.101  14.883  1.00  0.00     0.006 C 
BRANCH  12  13
ATOM     13  C   UNL     1      40.033  20.277  16.398  1.00  0.00     0.053 C 
BRANCH  13  14
ATOM     14  C   UNL     1      38.596  20.150  16.809  1.00  0.00     0.041 C 
ATOM     15  O   UNL     1      37.859  19.277  16.279  1.00  0.00    -0.550 OA
ATOM     16  O   UNL     1      38.065  21.005  17.765  1.00  0.00    -0.550 OA
ENDBRANCH  13  14
ENDBRANCH  12  13
ENDBRANCH  11  12
ENDBRANCH  10  11
ENDBRANCH   9  10
ENDBRANCH   8   9
ENDBRANCH   7   8
ENDBRANCH   6   7
ENDBRANCH   5   6
ENDBRANCH   4   5
ENDBRANCH   3   4
ENDBRANCH   2   3
ENDBRANCH   1   2
BRANCH   1  17
ATOM     17  C   UNL     1      39.990  21.055   9.909  1.00  0.00     0.000 C 
BRANCH  17  18
ATOM     18  C   UNL     1      40.577  21.364   8.523  1.00  0.00     0.000 C 
BRANCH  18  19
ATOM     19  C   UNL     1      41.912  20.643   8.261  1.00  0.00     0.000 C 
BRANCH  19  20
ATOM     20  C   UNL     1      43.110  21.227   9.039  1.00  0.00     0.000 C 
BRANCH  20  21
ATOM     21  C   UNL     1      43.583  22.579   8.470  1.00  0.00     0.000 C 
BRANCH  21  22
ATOM     22  C   UNL     1      43.878  22.517   6.964  1.00  0.00    -0.000 C 
BRANCH  22  23
ATOM     23  C   UNL     1      45.051  21.580   6.624  1.00  0.00    -0.000 C 
BRANCH  23  24
ATOM     24  C   UNL     1      44.698  20.553   5.530  1.00  0.00    -0.000 C 
BRANCH  24  25
ATOM     25  C   UNL     1      45.053  20.991   4.098  1.00  0.00    -0.000 C 
BRANCH  25  26
ATOM     26  C   UNL     1      46.182  22.036   4.052  1.00  0.00    -0.000 C 
BRANCH  26  27
ATOM     27  C   UNL     1      47.405  21.551   3.257  1.00  0.00    -0.000 C 
BRANCH  27  28
ATOM     28  C   UNL     1      48.736  21.942   3.923  1.00  0.00    -0.000 C 
BRANCH  28  29
ATOM     29  C   UNL     1      48.583  22.217   5.428  1.00  0.00    -0.003 C 
ATOM     30  C   UNL     1      48.749  20.962   6.283  1.00  0.00     0.004 C 
ENDBRANCH  28  29
ENDBRANCH  27  28
ENDBRANCH  26  27
ENDBRANCH  25  26
ENDBRANCH  24  25
ENDBRANCH  23  24
ENDBRANCH  22  23
ENDBRANCH  21  22
ENDBRANCH  20  21
ENDBRANCH  19  20
ENDBRANCH  18  19
ENDBRANCH  17  18
ENDBRANCH   1  17
TORSDOF 26
ENDMDL
MODEL 2
REMARK VINA RESULT:    -4.076      4.003      9.146
REMARK INTER + INTRA:         -14.057
REMARK INTER:                 -10.461
REMARK INTRA:                  -3.596
REMARK UNBOUND:                -3.786
REMARK SMILES CCCCCCCCCCCCCCCCCCCCCCCCCCCC(=O)[O-]
REMARK SMILES IDX 15 1 16 2 17 3 18 4 19 5 20 6 21 7 22 8 23 9 24 10 25 11
REMARK SMILES IDX 26 12 27 13 28 14 29 15 30 16 14 17 13 18 12 19 11 20 10 21
REMARK SMILES IDX 9 22 8 23 7 24 6 25 5 26 4 27 3 28 2 29 1 30
REMARK H PARENT
REMARK Flexibility Score: inf
ROOT
ATOM      1  C   UNL     1      39.771  20.431  10.005  1.00  0.00     0.000 C 
ENDROOT
BRANCH   1   2
ATOM      2  C   UNL     1      40.667  21.165   8.997  1.00  0.00     0.000 C 
BRANCH   2   3
ATOM      3  C   UNL     1      41.528  20.211   8.150  1.00  0.00     0.000 C 
BRANCH   3   4
ATOM      4  C   UNL     1      42.739  20.863   7.457  1.00  0.00     0.000 C 
BRANCH   4   5
ATOM      5  C   UNL     1      43.454  21.906   8.337  1.00  0.00     0.000 C 
BRANCH   5   6
ATOM      6  C   UNL     1      43.945  23.123   7.523  1.00  0.00     0.000 C 
BRANCH   6   7
ATOM      7  C   UNL     1      45.163  22.807   6.630  1.00  0.00     0.000 C 
BRANCH   7   8
ATOM      8  C   UNL     1      44.835  22.662   5.135  1.00  0.00     0.000 C 
BRANCH   8   9
ATOM      9  C   UNL     1      44.863  21.199   4.669  1.00  0.00     0.000 C 
BRANCH   9  10
ATOM     10  C   UNL     1      45.766  21.022   3.440  1.00  0.00     0.000 C 
BRANCH  10  11
ATOM     11  C   UNL     1      46.805  22.157   3.293  1.00  0.00     0.000 C 
BRANCH  11  12
ATOM     12  C   UNL     1      48.245  21.741   3.660  1.00  0.00     0.006 C 
BRANCH  12  13
ATOM     13  C   UNL     1      48.891  22.567   4.783  1.00  0.00     0.053 C 
BRANCH  13  14
ATOM     14  C   UNL     1      48.646  21.977   6.140  1.00  0.00     0.041 C 
ATOM     15  O   UNL     1      48.996  22.599   7.177  1.00  0.00    -0.550 OA
ATOM     16  O   UNL     1      48.047  20.730   6.261  1.00  0.00    -0.550 OA
ENDBRANCH  13  14
ENDBRANCH  12  13
ENDBRANCH  11  12
ENDBRANCH  10  11
ENDBRANCH   9  10
ENDBRANCH   8   9
ENDBRANCH   7   8
ENDBRANCH   6   7
ENDBRANCH   5   6
ENDBRANCH   4   5
ENDBRANCH   3   4
ENDBRANCH   2   3
ENDBRANCH   1   2
BRANCH   1  17
ATOM     17  C   UNL     1      39.815  18.916   9.770  1.00  0.00     0.000 C 
BRANCH  17  18
ATOM     18  C   UNL     1      40.026  18.151  11.085  1.00  0.00     0.000 C 
BRANCH  18  19
ATOM     19  C   UNL     1      39.778  19.019  12.333  1.00  0.00     0.000 C 
BRANCH  19  20
ATOM     20  C   UNL     1      40.938  19.009  13.351  1.00  0.00     0.000 C 
BRANCH  20  21
ATOM     21  C   UNL     1      41.067  20.341  14.113  1.00  0.00     0.000 C 
BRANCH  21  22
ATOM     22  C   UNL     1      42.379  21.077  13.801  1.00  0.00    -0.000 C 
BRANCH  22  23
ATOM     23  C   UNL     1      42.547  21.388  12.304  1.00  0.00    -0.000 C 
BRANCH  23  24
ATOM     24  C   UNL     1      43.232  20.246  11.528  1.00  0.00    -0.000 C 
BRANCH  24  25
ATOM     25  C   UNL     1      44.560  19.761  12.138  1.00  0.00    -0.000 C 
BRANCH  25  26
ATOM     26  C   UNL     1      44.580  18.246  12.405  1.00  0.00    -0.000 C 
BRANCH  26  27
ATOM     27  C   UNL     1      43.531  17.486  11.577  1.00  0.00    -0.000 C 
BRANCH  27  28
ATOM     28  C   UNL     1      43.378  16.019  12.019  1.00  0.00    -0.000 C 
BRANCH  28  29
ATOM     29  C   UNL     1      44.593  15.515  12.816  1.00  0.00    -0.003 C 
ATOM     30  C   UNL     1      45.402  14.459  12.064  1.00  0.00     0.004 C 
ENDBRANCH  28  29
ENDBRANCH  27  28
ENDBRANCH  26  27
ENDBRANCH  25  26
ENDBRANCH  24  25
ENDBRANCH  23  24
ENDBRANCH  22  23
ENDBRANCH  21  22
ENDBRANCH  20  21
ENDBRANCH  19  20
ENDBRANCH  18  19
ENDBRANCH  17  18
ENDBRANCH   1  17
TORSDOF 26
ENDMDL
MODEL 3
REMARK VINA RESULT:    -3.836      4.187      9.304
REMARK INTER + INTRA:         -13.452
REMARK INTER:                 -10.225
REMARK INTRA:                  -3.227
REMARK UNBOUND:                -3.786
REMARK SMILES CCCCCCCCCCCCCCCCCCCCCCCCCCCC(=O)[O-]
REMARK SMILES IDX 15 1 16 2 17 3 18 4 19 5 20 6 21 7 22 8 23 9 24 10 25 11
REMARK SMILES IDX 26 12 27 13 28 14 29 15 30 16 14 17 13 18 12 19 11 20 10 21
REMARK SMILES IDX 9 22 8 23 7 24 6 25 5 26 4 27 3 28 2 29 1 30
REMARK H PARENT
REMARK Flexibility Score: inf
ROOT
ATOM      1  C   UNL     1      42.741  17.554  11.618  1.00  0.00     0.000 C 
ENDROOT
BRANCH   1   2
ATOM      2  C   UNL     1      42.359  18.226  10.292  1.00  0.00     0.000 C 
BRANCH   2   3
ATOM      3  C   UNL     1      42.002  17.216   9.184  1.00  0.00     0.000 C 
BRANCH   3   4
ATOM      4  C   UNL     1      42.001  17.786   7.754  1.00  0.00     0.000 C 
BRANCH   4   5
ATOM      5  C   UNL     1      42.002  19.326   7.714  1.00  0.00     0.000 C 
BRANCH   5   6
ATOM      6  C   UNL     1      42.756  19.880   6.485  1.00  0.00     0.000 C 
BRANCH   6   7
ATOM      7  C   UNL     1      43.528  21.183   6.780  1.00  0.00     0.000 C 
BRANCH   7   8
ATOM      8  C   UNL     1      44.940  21.238   6.174  1.00  0.00     0.000 C 
BRANCH   8   9
ATOM      9  C   UNL     1      44.972  21.988   4.835  1.00  0.00     0.000 C 
BRANCH   9  10
ATOM     10  C   UNL     1      46.047  21.415   3.901  1.00  0.00     0.000 C 
BRANCH  10  11
ATOM     11  C   UNL     1      46.957  22.508   3.295  1.00  0.00     0.000 C 
BRANCH  11  12
ATOM     12  C   UNL     1      48.299  22.689   4.033  1.00  0.00     0.006 C 
BRANCH  12  13
ATOM     13  C   UNL     1      48.844  21.419   4.705  1.00  0.00     0.053 C 
BRANCH  13  14
ATOM     14  C   UNL     1      48.657  21.435   6.194  1.00  0.00     0.041 C 
ATOM     15  O   UNL     1      48.280  22.486   6.775  1.00  0.00    -0.550 OA
ATOM     16  O   UNL     1      48.917  20.296   6.943  1.00  0.00    -0.550 OA
ENDBRANCH  13  14
ENDBRANCH  12  13
ENDBRANCH  11  12
ENDBRANCH  10  11
ENDBRANCH   9  10
ENDBRANCH   8   9
ENDBRANCH   7   8
ENDBRANCH   6   7
ENDBRANCH   5   6
ENDBRANCH   4   5
ENDBRANCH   3   4
ENDBRANCH   2   3
ENDBRANCH   1   2
BRANCH   1  17
ATOM     17  C   UNL     1      42.773  18.580  12.758  1.00  0.00     0.000 C 
BRANCH  17  18
ATOM     18  C   UNL     1      43.980  19.521  12.631  1.00  0.00     0.000 C 
BRANCH  18  19
ATOM     19  C   UNL     1      43.840  20.798  13.481  1.00  0.00     0.000 C 
BRANCH  19  20
ATOM     20  C   UNL     1      42.524  21.571  13.250  1.00  0.00     0.000 C 
BRANCH  20  21
ATOM     21  C   UNL     1      42.732  22.865  12.440  1.00  0.00     0.000 C 
BRANCH  21  22
ATOM     22  C   UNL     1      43.196  22.595  11.001  1.00  0.00    -0.000 C 
BRANCH  22  23
ATOM     23  C   UNL     1      42.295  21.589  10.263  1.00  0.00    -0.000 C 
BRANCH  23  24
ATOM     24  C   UNL     1      41.188  22.271   9.436  1.00  0.00    -0.000 C 
BRANCH  24  25
ATOM     25  C   UNL     1      39.903  21.439   9.272  1.00  0.00    -0.000 C 
BRANCH  25  26
ATOM     26  C   UNL     1      39.649  20.488  10.455  1.00  0.00    -0.000 C 
BRANCH  26  27
ATOM     27  C   UNL     1      38.986  19.170  10.021  1.00  0.00    -0.000 C 
BRANCH  27  28
ATOM     28  C   UNL     1      38.461  18.352  11.214  1.00  0.00    -0.000 C 
BRANCH  28  29
ATOM     29  C   UNL     1      37.279  19.035  11.922  1.00  0.00    -0.003 C 
ATOM     30  C   UNL     1      35.953  18.308  11.703  1.00  0.00     0.004 C 
ENDBRANCH  28  29
ENDBRANCH  27  28
ENDBRANCH  26  27
ENDBRANCH  25  26
ENDBRANCH  24  25
ENDBRANCH  23  24
ENDBRANCH  22  23
ENDBRANCH  21  22
ENDBRANCH  20  21
ENDBRANCH  19  20
ENDBRANCH  18  19
ENDBRANCH  17  18
ENDBRANCH   1  17
TORSDOF 26
ENDMDL
MODEL 4
REMARK VINA RESULT:    -3.792      3.742      9.780
REMARK INTER + INTRA:         -13.343
REMARK INTER:                 -11.115
REMARK INTRA:                  -2.228
REMARK UNBOUND:                -3.786
REMARK SMILES CCCCCCCCCCCCCCCCCCCCCCCCCCCC(=O)[O-]
REMARK SMILES IDX 15 1 16 2 17 3 18 4 19 5 20 6 21 7 22 8 23 9 24 10 25 11
REMARK SMILES IDX 26 12 27 13 28 14 29 15 30 16 14 17 13 18 12 19 11 20 10 21
REMARK SMILES IDX 9 22 8 23 7 24 6 25 5 26 4 27 3 28 2 29 1 30
REMARK H PARENT
REMARK Flexibility Score: inf
ROOT
ATOM      1  C   UNL     1      38.898  19.685  10.375  1.00  0.00     0.000 C 
ENDROOT
BRANCH   1   2
ATOM      2  C   UNL     1      40.062  20.684  10.323  1.00  0.00     0.000 C 
BRANCH   2   3
ATOM      3  C   UNL     1      40.394  21.151   8.894  1.00  0.00     0.000 C 
BRANCH   3   4
ATOM      4  C   UNL     1      41.894  21.335   8.597  1.00  0.00     0.000 C 
BRANCH   4   5
ATOM      5  C   UNL     1      42.373  20.534   7.371  1.00  0.00     0.000 C 
BRANCH   5   6
ATOM      6  C   UNL     1      43.841  20.845   7.004  1.00  0.00     0.000 C 
BRANCH   6   7
ATOM      7  C   UNL     1      44.096  22.341   6.727  1.00  0.00     0.000 C 
BRANCH   7   8
ATOM      8  C   UNL     1      44.581  22.650   5.301  1.00  0.00     0.000 C 
BRANCH   8   9
ATOM      9  C   UNL     1      44.842  21.377   4.484  1.00  0.00     0.000 C 
BRANCH   9  10
ATOM     10  C   UNL     1      46.029  21.562   3.527  1.00  0.00     0.000 C 
BRANCH  10  11
ATOM     11  C   UNL     1      46.888  22.801   3.872  1.00  0.00     0.000 C 
BRANCH  11  12
ATOM     12  C   UNL     1      48.405  22.522   3.911  1.00  0.00     0.006 C 
BRANCH  12  13
ATOM     13  C   UNL     1      48.833  21.405   4.875  1.00  0.00     0.053 C 
BRANCH  13  14
ATOM     14  C   UNL     1      48.204  21.547   6.229  1.00  0.00     0.041 C 
ATOM     15  O   UNL     1      47.479  20.627   6.693  1.00  0.00    -0.550 OA
ATOM     16  O   UNL     1      48.403  22.701   6.974  1.00  0.00    -0.550 OA
ENDBRANCH  13  14
ENDBRANCH  12  13
ENDBRANCH  11  12
ENDBRANCH  10  11
ENDBRANCH   9  10
ENDBRANCH   8   9
ENDBRANCH   7   8
ENDBRANCH   6   7
ENDBRANCH   5   6
ENDBRANCH   4   5
ENDBRANCH   3   4
ENDBRANCH   2   3
ENDBRANCH   1   2
BRANCH   1  17
ATOM     17  C   UNL     1      39.305  18.414  11.132  1.00  0.00     0.000 C 
BRANCH  17  18
ATOM     18  C   UNL     1      40.660  18.590  11.834  1.00  0.00     0.000 C 
BRANCH  18  19
ATOM     19  C   UNL     1      41.764  17.692  11.245  1.00  0.00     0.000 C 
BRANCH  19  20
ATOM     20  C   UNL     1      42.474  16.798  12.284  1.00  0.00     0.000 C 
BRANCH  20  21
ATOM     21  C   UNL     1      43.542  17.562  13.090  1.00  0.00     0.000 C 
BRANCH  21  22
ATOM     22  C   UNL     1      44.438  18.440  12.204  1.00  0.00    -0.000 C 
BRANCH  22  23
ATOM     23  C   UNL     1      43.820  19.818  11.910  1.00  0.00    -0.000 C 
BRANCH  23  24
ATOM     24  C   UNL     1      43.868  20.766  13.124  1.00  0.00    -0.000 C 
BRANCH  24  25
ATOM     25  C   UNL     1      42.812  21.887  13.105  1.00  0.00    -0.000 C 
BRANCH  25  26
ATOM     26  C   UNL     1      42.084  22.048  14.451  1.00  0.00    -0.000 C 
BRANCH  26  27
ATOM     27  C   UNL     1      41.234  20.819  14.813  1.00  0.00    -0.000 C 
BRANCH  27  28
ATOM     28  C   UNL     1      40.486  20.991  16.147  1.00  0.00    -0.000 C 
BRANCH  28  29
ATOM     29  C   UNL     1      39.617  19.770  16.497  1.00  0.00    -0.003 C 
ATOM     30  C   UNL     1      38.194  20.149  16.904  1.00  0.00     0.004 C 
ENDBRANCH  28  29
ENDBRANCH  27  28
ENDBRANCH  26  27
ENDBRANCH  25  26
ENDBRANCH  24  25
ENDBRANCH  23  24
ENDBRANCH  22  23
ENDBRANCH  21  22
ENDBRANCH  20  21
ENDBRANCH  19  20
ENDBRANCH  18  19
ENDBRANCH  17  18
ENDBRANCH   1  17
TORSDOF 26
ENDMDL
MODEL 5
REMARK VINA RESULT:    -3.778      1.973      2.851
REMARK INTER + INTRA:         -13.305
REMARK INTER:                  -9.456
REMARK INTRA:                  -3.850
REMARK UNBOUND:                -3.786
REMARK SMILES CCCCCCCCCCCCCCCCCCCCCCCCCCCC(=O)[O-]
REMARK SMILES IDX 15 1 16 2 17 3 18 4 19 5 20 6 21 7 22 8 23 9 24 10 25 11
REMARK SMILES IDX 26 12 27 13 28 14 29 15 30 16 14 17 13 18 12 19 11 20 10 21
REMARK SMILES IDX 9 22 8 23 7 24 6 25 5 26 4 27 3 28 2 29 1 30
REMARK H PARENT
REMARK Flexibility Score: inf
ROOT
ATOM      1  C   UNL     1      41.634  18.240  10.080  1.00  0.00     0.000 C 
ENDROOT
BRANCH   1   2
ATOM      2  C   UNL     1      42.614  17.144  10.521  1.00  0.00     0.000 C 
BRANCH   2   3
ATOM      3  C   UNL     1      42.514  16.813  12.021  1.00  0.00     0.000 C 
BRANCH   3   4
ATOM      4  C   UNL     1      43.770  17.139  12.850  1.00  0.00     0.000 C 
BRANCH   4   5
ATOM      5  C   UNL     1      44.655  18.225  12.209  1.00  0.00     0.000 C 
BRANCH   5   6
ATOM      6  C   UNL     1      44.410  19.620  12.826  1.00  0.00     0.000 C 
BRANCH   6   7
ATOM      7  C   UNL     1      43.713  20.599  11.859  1.00  0.00     0.000 C 
BRANCH   7   8
ATOM      8  C   UNL     1      42.730  21.570  12.534  1.00  0.00     0.000 C 
BRANCH   8   9
ATOM      9  C   UNL     1      42.595  21.310  14.041  1.00  0.00     0.000 C 
BRANCH   9  10
ATOM     10  C   UNL     1      41.205  20.758  14.390  1.00  0.00     0.000 C 
BRANCH  10  11
ATOM     11  C   UNL     1      40.888  19.433  13.660  1.00  0.00     0.000 C 
BRANCH  11  12
ATOM     12  C   UNL     1      39.955  19.594  12.442  1.00  0.00     0.006 C 
BRANCH  12  13
ATOM     13  C   UNL     1      39.098  18.361  12.115  1.00  0.00     0.053 C 
BRANCH  13  14
ATOM     14  C   UNL     1      37.964  18.682  11.187  1.00  0.00     0.041 C 
ATOM     15  O   UNL     1      38.187  18.927   9.972  1.00  0.00    -0.550 OA
ATOM     16  O   UNL     1      36.662  18.730  11.666  1.00  0.00    -0.550 OA
ENDBRANCH  13  14
ENDBRANCH  12  13
ENDBRANCH  11  12
ENDBRANCH  10  11
ENDBRANCH   9  10
ENDBRANCH   8   9
ENDBRANCH   7   8
ENDBRANCH   6   7
ENDBRANCH   5   6
ENDBRANCH   4   5
ENDBRANCH   3   4
ENDBRANCH   2   3
ENDBRANCH   1   2
BRANCH   1  17
ATOM     17  C   UNL     1      41.629  18.381   8.552  1.00  0.00     0.000 C 
BRANCH  17  18
ATOM     18  C   UNL     1      41.116  19.763   8.119  1.00  0.00     0.000 C 
BRANCH  18  19
ATOM     19  C   UNL     1      41.220  20.820   9.235  1.00  0.00     0.000 C 
BRANCH  19  20
ATOM     20  C   UNL     1      41.996  22.092   8.832  1.00  0.00     0.000 C 
BRANCH  20  21
ATOM     21  C   UNL     1      43.491  21.818   8.581  1.00  0.00     0.000 C 
BRANCH  21  22
ATOM     22  C   UNL     1      43.911  22.105   7.132  1.00  0.00    -0.000 C 
BRANCH  22  23
ATOM     23  C   UNL     1      43.853  20.855   6.236  1.00  0.00    -0.000 C 
BRANCH  23  24
ATOM     24  C   UNL     1      44.628  21.029   4.915  1.00  0.00    -0.000 C 
BRANCH  24  25
ATOM     25  C   UNL     1      45.303  22.401   4.742  1.00  0.00    -0.000 C 
BRANCH  25  26
ATOM     26  C   UNL     1      46.528  22.354   3.812  1.00  0.00    -0.000 C 
BRANCH  26  27
ATOM     27  C   UNL     1      47.794  22.926   4.472  1.00  0.00    -0.000 C 
BRANCH  27  28
ATOM     28  C   UNL     1      47.699  22.953   6.008  1.00  0.00    -0.000 C 
BRANCH  28  29
ATOM     29  C   UNL     1      48.546  21.853   6.670  1.00  0.00    -0.003 C 
ATOM     30  C   UNL     1      47.837  20.500   6.712  1.00  0.00     0.004 C 
ENDBRANCH  28  29
ENDBRANCH  27  28
ENDBRANCH  26  27
ENDBRANCH  25  26
ENDBRANCH  24  25
ENDBRANCH  23  24
ENDBRANCH  22  23
ENDBRANCH  21  22
ENDBRANCH  20  21
ENDBRANCH  19  20
ENDBRANCH  18  19
ENDBRANCH  17  18
ENDBRANCH   1  17
TORSDOF 26
ENDMDL
MODEL 6
REMARK VINA RESULT:    -3.756      4.161      8.896
REMARK INTER + INTRA:         -13.252
REMARK INTER:                 -10.344
REMARK INTRA:                  -2.908
REMARK UNBOUND:                -3.786
REMARK SMILES CCCCCCCCCCCCCCCCCCCCCCCCCCCC(=O)[O-]
REMARK SMILES IDX 15 1 16 2 17 3 18 4 19 5 20 6 21 7 22 8 23 9 24 10 25 11
REMARK SMILES IDX 26 12 27 13 28 14 29 15 30 16 14 17 13 18 12 19 11 20 10 21
REMARK SMILES IDX 9 22 8 23 7 24 6 25 5 26 4 27 3 28 2 29 1 30
REMARK H PARENT
REMARK Flexibility Score: inf
ROOT
ATOM      1  C   UNL     1      43.274  22.037  12.816  1.00  0.00     0.000 C 
ENDROOT
BRANCH   1   2
ATOM      2  C   UNL     1      42.144  21.940  11.782  1.00  0.00     0.000 C 
BRANCH   2   3
ATOM      3  C   UNL     1      42.216  23.038  10.705  1.00  0.00     0.000 C 
BRANCH   3   4
ATOM      4  C   UNL     1      43.499  23.037   9.852  1.00  0.00     0.000 C 
BRANCH   4   5
ATOM      5  C   UNL     1      43.460  22.014   8.700  1.00  0.00     0.000 C 
BRANCH   5   6
ATOM      6  C   UNL     1      44.181  22.528   7.435  1.00  0.00     0.000 C 
BRANCH   6   7
ATOM      7  C   UNL     1      44.516  21.410   6.427  1.00  0.00     0.000 C 
BRANCH   7   8
ATOM      8  C   UNL     1      44.587  21.872   4.963  1.00  0.00     0.000 C 
BRANCH   8   9
ATOM      9  C   UNL     1      44.971  20.733   4.008  1.00  0.00     0.000 C 
BRANCH   9  10
ATOM     10  C   UNL     1      46.180  21.115   3.142  1.00  0.00     0.000 C 
BRANCH  10  11
ATOM     11  C   UNL     1      46.837  22.443   3.585  1.00  0.00     0.000 C 
BRANCH  11  12
ATOM     12  C   UNL     1      48.370  22.364   3.740  1.00  0.00     0.006 C 
BRANCH  12  13
ATOM     13  C   UNL     1      48.866  21.295   4.727  1.00  0.00     0.053 C 
BRANCH  13  14
ATOM     14  C   UNL     1      48.285  21.470   6.099  1.00  0.00     0.041 C 
ATOM     15  O   UNL     1      48.216  22.615   6.618  1.00  0.00    -0.550 OA
ATOM     16  O   UNL     1      47.836  20.367   6.813  1.00  0.00    -0.550 OA
ENDBRANCH  13  14
ENDBRANCH  12  13
ENDBRANCH  11  12
ENDBRANCH  10  11
ENDBRANCH   9  10
ENDBRANCH   8   9
ENDBRANCH   7   8
ENDBRANCH   6   7
ENDBRANCH   5   6
ENDBRANCH   4   5
ENDBRANCH   3   4
ENDBRANCH   2   3
ENDBRANCH   1   2
BRANCH   1  17
ATOM     17  C   UNL     1      43.724  20.639  13.263  1.00  0.00     0.000 C 
BRANCH  17  18
ATOM     18  C   UNL     1      43.904  19.699  12.062  1.00  0.00     0.000 C 
BRANCH  18  19
ATOM     19  C   UNL     1      44.489  18.329  12.453  1.00  0.00     0.000 C 
BRANCH  19  20
ATOM     20  C   UNL     1      43.570  17.132  12.130  1.00  0.00     0.000 C 
BRANCH  20  21
ATOM     21  C   UNL     1      42.360  17.532  11.265  1.00  0.00     0.000 C 
BRANCH  21  22
ATOM     22  C   UNL     1      41.106  17.828  12.102  1.00  0.00    -0.000 C 
BRANCH  22  23
ATOM     23  C   UNL     1      40.060  18.657  11.335  1.00  0.00    -0.000 C 
BRANCH  23  24
ATOM     24  C   UNL     1      40.685  19.552  10.247  1.00  0.00    -0.000 C 
BRANCH  24  25
ATOM     25  C   UNL     1      40.620  18.972   8.823  1.00  0.00    -0.000 C 
BRANCH  25  26
ATOM     26  C   UNL     1      41.969  19.040   8.085  1.00  0.00    -0.000 C 
BRANCH  26  27
ATOM     27  C   UNL     1      42.149  17.894   7.076  1.00  0.00    -0.000 C 
BRANCH  27  28
ATOM     28  C   UNL     1      42.413  16.541   7.760  1.00  0.00    -0.000 C 
BRANCH  28  29
ATOM     29  C   UNL     1      42.296  15.356   6.787  1.00  0.00    -0.003 C 
ATOM     30  C   UNL     1      43.653  14.825   6.329  1.00  0.00     0.004 C 
ENDBRANCH  28  29
ENDBRANCH  27  28
ENDBRANCH  26  27
ENDBRANCH  25  26
ENDBRANCH  24  25
ENDBRANCH  23  24
ENDBRANCH  22  23
ENDBRANCH  21  22
ENDBRANCH  20  21
ENDBRANCH  19  20
ENDBRANCH  18  19
ENDBRANCH  17  18
ENDBRANCH   1  17
TORSDOF 26
ENDMDL
MODEL 7
REMARK VINA RESULT:    -3.692      2.764      4.138
REMARK INTER + INTRA:         -13.090
REMARK INTER:                 -10.616
REMARK INTRA:                  -2.474
REMARK UNBOUND:                -3.786
REMARK SMILES CCCCCCCCCCCCCCCCCCCCCCCCCCCC(=O)[O-]
REMARK SMILES IDX 15 1 16 2 17 3 18 4 19 5 20 6 21 7 22 8 23 9 24 10 25 11
REMARK SMILES IDX 26 12 27 13 28 14 29 15 30 16 14 17 13 18 12 19 11 20 10 21
REMARK SMILES IDX 9 22 8 23 7 24 6 25 5 26 4 27 3 28 2 29 1 30
REMARK H PARENT
REMARK Flexibility Score: inf
ROOT
ATOM      1  C   UNL     1      39.554  19.946   9.731  1.00  0.00     0.000 C 
ENDROOT
BRANCH   1   2
ATOM      2  C   UNL     1      38.805  18.706  10.239  1.00  0.00     0.000 C 
BRANCH   2   3
ATOM      3  C   UNL     1      39.449  18.082  11.490  1.00  0.00     0.000 C 
BRANCH   3   4
ATOM      4  C   UNL     1      39.510  19.002  12.724  1.00  0.00     0.000 C 
BRANCH   4   5
ATOM      5  C   UNL     1      40.945  19.244  13.231  1.00  0.00     0.000 C 
BRANCH   5   6
ATOM      6  C   UNL     1      40.998  20.301  14.355  1.00  0.00     0.000 C 
BRANCH   6   7
ATOM      7  C   UNL     1      42.077  21.379  14.127  1.00  0.00     0.000 C 
BRANCH   7   8
ATOM      8  C   UNL     1      43.028  21.090  12.954  1.00  0.00     0.000 C 
BRANCH   8   9
ATOM      9  C   UNL     1      44.152  20.117  13.338  1.00  0.00     0.000 C 
BRANCH   9  10
ATOM     10  C   UNL     1      44.408  19.093  12.224  1.00  0.00     0.000 C 
BRANCH  10  11
ATOM     11  C   UNL     1      43.194  18.172  11.966  1.00  0.00     0.000 C 
BRANCH  11  12
ATOM     12  C   UNL     1      43.567  16.698  11.706  1.00  0.00     0.006 C 
BRANCH  12  13
ATOM     13  C   UNL     1      44.898  16.247  12.329  1.00  0.00     0.053 C 
BRANCH  13  14
ATOM     14  C   UNL     1      45.031  14.754  12.374  1.00  0.00     0.041 C 
ATOM     15  O   UNL     1      46.146  14.209  12.159  1.00  0.00    -0.550 OA
ATOM     16  O   UNL     1      43.922  13.961  12.635  1.00  0.00    -0.550 OA
ENDBRANCH  13  14
ENDBRANCH  12  13
ENDBRANCH  11  12
ENDBRANCH  10  11
ENDBRANCH   9  10
ENDBRANCH   8   9
ENDBRANCH   7   8
ENDBRANCH   6   7
ENDBRANCH   5   6
ENDBRANCH   4   5
ENDBRANCH   3   4
ENDBRANCH   2   3
ENDBRANCH   1   2
BRANCH   1  17
ATOM     17  C   UNL     1      40.986  19.584   9.315  1.00  0.00     0.000 C 
BRANCH  17  18
ATOM     18  C   UNL     1      41.957  20.743   9.583  1.00  0.00     0.000 C 
BRANCH  18  19
ATOM     19  C   UNL     1      42.468  21.411   8.293  1.00  0.00     0.000 C 
BRANCH  19  20
ATOM     20  C   UNL     1      43.490  22.544   8.528  1.00  0.00     0.000 C 
BRANCH  20  21
ATOM     21  C   UNL     1      44.464  22.716   7.347  1.00  0.00     0.000 C 
BRANCH  21  22
ATOM     22  C   UNL     1      44.513  21.482   6.434  1.00  0.00    -0.000 C 
BRANCH  22  23
ATOM     23  C   UNL     1      44.594  21.847   4.941  1.00  0.00    -0.000 C 
BRANCH  23  24
ATOM     24  C   UNL     1      45.460  20.863   4.130  1.00  0.00    -0.000 C 
BRANCH  24  25
ATOM     25  C   UNL     1      46.447  21.528   3.155  1.00  0.00    -0.000 C 
BRANCH  25  26
ATOM     26  C   UNL     1      47.047  22.834   3.705  1.00  0.00    -0.000 C 
BRANCH  26  27
ATOM     27  C   UNL     1      48.565  22.741   3.925  1.00  0.00    -0.000 C 
BRANCH  27  28
ATOM     28  C   UNL     1      48.968  21.510   4.757  1.00  0.00    -0.000 C 
BRANCH  28  29
ATOM     29  C   UNL     1      48.626  21.669   6.248  1.00  0.00    -0.003 C 
ATOM     30  C   UNL     1      47.990  20.417   6.849  1.00  0.00     0.004 C 
ENDBRANCH  28  29
ENDBRANCH  27  28
ENDBRANCH  26  27
ENDBRANCH  25  26
ENDBRANCH  24  25
ENDBRANCH  23  24
ENDBRANCH  22  23
ENDBRANCH  21  22
ENDBRANCH  20  21
ENDBRANCH  19  20
ENDBRANCH  18  19
ENDBRANCH  17  18
ENDBRANCH   1  17
TORSDOF 26
ENDMDL
MODEL 8
REMARK VINA RESULT:    -3.578      2.172      3.717
REMARK INTER + INTRA:         -12.802
REMARK INTER:                  -9.399
REMARK INTRA:                  -3.403
REMARK UNBOUND:                -3.786
REMARK SMILES CCCCCCCCCCCCCCCCCCCCCCCCCCCC(=O)[O-]
REMARK SMILES IDX 15 1 16 2 17 3 18 4 19 5 20 6 21 7 22 8 23 9 24 10 25 11
REMARK SMILES IDX 26 12 27 13 28 14 29 15 30 16 14 17 13 18 12 19 11 20 10 21
REMARK SMILES IDX 9 22 8 23 7 24 6 25 5 26 4 27 3 28 2 29 1 30
REMARK H PARENT
REMARK Flexibility Score: inf
ROOT
ATOM      1  C   UNL     1      43.073  17.113  11.331  1.00  0.00     0.000 C 
ENDROOT
BRANCH   1   2
ATOM      2  C   UNL     1      43.592  17.748  12.629  1.00  0.00     0.000 C 
BRANCH   2   3
ATOM      3  C   UNL     1      42.874  19.062  12.988  1.00  0.00     0.000 C 
BRANCH   3   4
ATOM      4  C   UNL     1      43.776  20.309  13.037  1.00  0.00     0.000 C 
BRANCH   4   5
ATOM      5  C   UNL     1      42.995  21.612  13.295  1.00  0.00     0.000 C 
BRANCH   5   6
ATOM      6  C   UNL     1      42.969  22.534  12.056  1.00  0.00     0.000 C 
BRANCH   6   7
ATOM      7  C   UNL     1      42.920  21.761  10.722  1.00  0.00     0.000 C 
BRANCH   7   8
ATOM      8  C   UNL     1      42.123  22.461   9.609  1.00  0.00     0.000 C 
BRANCH   8   9
ATOM      9  C   UNL     1      40.779  21.772   9.330  1.00  0.00     0.000 C 
BRANCH   9  10
ATOM     10  C   UNL     1      40.356  20.879  10.505  1.00  0.00     0.000 C 
BRANCH  10  11
ATOM     11  C   UNL     1      38.924  20.319  10.345  1.00  0.00     0.000 C 
BRANCH  11  12
ATOM     12  C   UNL     1      38.799  18.814  10.661  1.00  0.00     0.006 C 
BRANCH  12  13
ATOM     13  C   UNL     1      37.372  18.250  10.569  1.00  0.00     0.053 C 
BRANCH  13  14
ATOM     14  C   UNL     1      36.558  18.556  11.791  1.00  0.00     0.041 C 
ATOM     15  O   UNL     1      35.328  18.806  11.689  1.00  0.00    -0.550 OA
ATOM     16  O   UNL     1      37.159  18.584  13.042  1.00  0.00    -0.550 OA
ENDBRANCH  13  14
ENDBRANCH  12  13
ENDBRANCH  11  12
ENDBRANCH  10  11
ENDBRANCH   9  10
ENDBRANCH   8   9
ENDBRANCH   7   8
ENDBRANCH   6   7
ENDBRANCH   5   6
ENDBRANCH   4   5
ENDBRANCH   3   4
ENDBRANCH   2   3
ENDBRANCH   1   2
BRANCH   1  17
ATOM     17  C   UNL     1      42.259  18.128  10.517  1.00  0.00     0.000 C 
BRANCH  17  18
ATOM     18  C   UNL     1      41.983  17.613   9.097  1.00  0.00     0.000 C 
BRANCH  18  19
ATOM     19  C   UNL     1      41.569  18.730   8.121  1.00  0.00     0.000 C 
BRANCH  19  20
ATOM     20  C   UNL     1      42.591  18.999   6.996  1.00  0.00     0.000 C 
BRANCH  20  21
ATOM     21  C   UNL     1      42.676  20.491   6.619  1.00  0.00     0.000 C 
BRANCH  21  22
ATOM     22  C   UNL     1      44.122  21.007   6.567  1.00  0.00    -0.000 C 
BRANCH  22  23
ATOM     23  C   UNL     1      44.494  21.604   5.198  1.00  0.00    -0.000 C 
BRANCH  23  24
ATOM     24  C   UNL     1      44.959  20.539   4.186  1.00  0.00    -0.000 C 
BRANCH  24  25
ATOM     25  C   UNL     1      46.026  21.023   3.188  1.00  0.00    -0.000 C 
BRANCH  25  26
ATOM     26  C   UNL     1      46.601  22.404   3.547  1.00  0.00    -0.000 C 
BRANCH  26  27
ATOM     27  C   UNL     1      48.138  22.435   3.501  1.00  0.00    -0.000 C 
BRANCH  27  28
ATOM     28  C   UNL     1      48.780  21.484   4.527  1.00  0.00    -0.000 C 
BRANCH  28  29
ATOM     29  C   UNL     1      48.357  21.804   5.971  1.00  0.00    -0.003 C 
ATOM     30  C   UNL     1      47.802  20.589   6.711  1.00  0.00     0.004 C 
ENDBRANCH  28  29
ENDBRANCH  27  28
ENDBRANCH  26  27
ENDBRANCH  25  26
ENDBRANCH  24  25
ENDBRANCH  23  24
ENDBRANCH  22  23
ENDBRANCH  21  22
ENDBRANCH  20  21
ENDBRANCH  19  20
ENDBRANCH  18  19
ENDBRANCH  17  18
ENDBRANCH   1  17
TORSDOF 26
ENDMDL
MODEL 9
REMARK VINA RESULT:    -3.419      4.131      9.521
REMARK INTER + INTRA:         -12.401
REMARK INTER:                  -9.645
REMARK INTRA:                  -2.756
REMARK UNBOUND:                -3.786
REMARK SMILES CCCCCCCCCCCCCCCCCCCCCCCCCCCC(=O)[O-]
REMARK SMILES IDX 15 1 16 2 17 3 18 4 19 5 20 6 21 7 22 8 23 9 24 10 25 11
REMARK SMILES IDX 26 12 27 13 28 14 29 15 30 16 14 17 13 18 12 19 11 20 10 21
REMARK SMILES IDX 9 22 8 23 7 24 6 25 5 26 4 27 3 28 2 29 1 30
REMARK H PARENT
REMARK Flexibility Score: inf
ROOT
ATOM      1  C   UNL     1      43.765  18.278  12.894  1.00  0.00     0.000 C 
ENDROOT
BRANCH   1   2
ATOM      2  C   UNL     1      44.493  19.475  12.267  1.00  0.00     0.000 C 
BRANCH   2   3
ATOM      3  C   UNL     1      43.554  20.654  11.951  1.00  0.00     0.000 C 
BRANCH   3   4
ATOM      4  C   UNL     1      43.473  21.737  13.043  1.00  0.00     0.000 C 
BRANCH   4   5
ATOM      5  C   UNL     1      42.879  23.066  12.537  1.00  0.00     0.000 C 
BRANCH   5   6
ATOM      6  C   UNL     1      42.350  22.957  11.090  1.00  0.00     0.000 C 
BRANCH   6   7
ATOM      7  C   UNL     1      43.456  23.101  10.024  1.00  0.00     0.000 C 
BRANCH   7   8
ATOM      8  C   UNL     1      43.058  22.608   8.623  1.00  0.00     0.000 C 
BRANCH   8   9
ATOM      9  C   UNL     1      44.086  22.998   7.552  1.00  0.00     0.000 C 
BRANCH   9  10
ATOM     10  C   UNL     1      44.204  21.915   6.471  1.00  0.00     0.000 C 
BRANCH  10  11
ATOM     11  C   UNL     1      44.594  22.489   5.090  1.00  0.00     0.000 C 
BRANCH  11  12
ATOM     12  C   UNL     1      45.760  21.745   4.407  1.00  0.00     0.006 C 
BRANCH  12  13
ATOM     13  C   UNL     1      46.755  21.078   5.370  1.00  0.00     0.053 C 
BRANCH  13  14
ATOM     14  C   UNL     1      47.926  21.961   5.684  1.00  0.00     0.041 C 
ATOM     15  O   UNL     1      48.037  22.489   6.822  1.00  0.00    -0.550 OA
ATOM     16  O   UNL     1      48.886  22.217   4.716  1.00  0.00    -0.550 OA
ENDBRANCH  13  14
ENDBRANCH  12  13
ENDBRANCH  11  12
ENDBRANCH  10  11
ENDBRANCH   9  10
ENDBRANCH   8   9
ENDBRANCH   7   8
ENDBRANCH   6   7
ENDBRANCH   5   6
ENDBRANCH   4   5
ENDBRANCH   3   4
ENDBRANCH   2   3
ENDBRANCH   1   2
BRANCH   1  17
ATOM     17  C   UNL     1      43.547  17.169  11.856  1.00  0.00     0.000 C 
BRANCH  17  18
ATOM     18  C   UNL     1      42.230  17.370  11.091  1.00  0.00     0.000 C 
BRANCH  18  19
ATOM     19  C   UNL     1      42.369  17.117   9.578  1.00  0.00     0.000 C 
BRANCH  19  20
ATOM     20  C   UNL     1      41.629  18.144   8.694  1.00  0.00     0.000 C 
BRANCH  20  21
ATOM     21  C   UNL     1      41.596  19.550   9.322  1.00  0.00     0.000 C 
BRANCH  21  22
ATOM     22  C   UNL     1      40.168  20.041   9.601  1.00  0.00    -0.000 C 
BRANCH  22  23
ATOM     23  C   UNL     1      39.253  18.932  10.151  1.00  0.00    -0.000 C 
BRANCH  23  24
ATOM     24  C   UNL     1      39.162  18.939  11.689  1.00  0.00    -0.000 C 
BRANCH  24  25
ATOM     25  C   UNL     1      40.292  19.709  12.397  1.00  0.00    -0.000 C 
BRANCH  25  26
ATOM     26  C   UNL     1      40.432  19.339  13.883  1.00  0.00    -0.000 C 
BRANCH  26  27
ATOM     27  C   UNL     1      41.143  20.430  14.700  1.00  0.00    -0.000 C 
BRANCH  27  28
ATOM     28  C   UNL     1      40.425  20.740  16.026  1.00  0.00    -0.000 C 
BRANCH  28  29
ATOM     29  C   UNL     1      39.272  19.764  16.313  1.00  0.00    -0.003 C 
ATOM     30  C   UNL     1      38.173  20.378  17.179  1.00  0.00     0.004 C 
ENDBRANCH  28  29
ENDBRANCH  27  28
ENDBRANCH  26  27
ENDBRANCH  25  26
ENDBRANCH  24  25
ENDBRANCH  23  24
ENDBRANCH  22  23
ENDBRANCH  21  22
ENDBRANCH  20  21
ENDBRANCH  19  20
ENDBRANCH  18  19
ENDBRANCH  17  18
ENDBRANCH   1  17
TORSDOF 26
ENDMDL
