MODEL 1
REMARK VINA RESULT:    -5.872      0.000      0.000
REMARK INTER + INTRA:         -16.181
REMARK INTER:                 -14.798
REMARK INTRA:                  -1.383
REMARK UNBOUND:                -1.383
REMARK SMILES CCCCCCCCCCCCCCCCCCCCCCCCCCCC(=O)[O-]
REMARK SMILES IDX 15 1 16 2 17 3 18 4 19 5 20 6 21 7 22 8 23 9 24 10 25 11
REMARK SMILES IDX 26 12 27 13 28 14 29 15 30 16 14 17 13 18 12 19 11 20 10 21
REMARK SMILES IDX 9 22 8 23 7 24 6 25 5 26 4 27 3 28 2 29 1 30
REMARK H PARENT
REMARK Flexibility Score: inf
ROOT
ATOM      1  C   UNL     1      13.557  20.554  34.724  1.00  0.00     0.000 C 
ENDROOT
BRANCH   1   2
ATOM      2  C   UNL     1      14.827  21.248  35.254  1.00  0.00     0.000 C 
BRANCH   2   3
ATOM      3  C   UNL     1      15.540  22.093  34.188  1.00  0.00     0.000 C 
BRANCH   3   4
ATOM      4  C   UNL     1      17.059  21.864  34.221  1.00  0.00     0.000 C 
BRANCH   4   5
ATOM      5  C   UNL     1      17.708  21.974  32.832  1.00  0.00     0.000 C 
BRANCH   5   6
ATOM      6  C   UNL     1      19.226  22.241  32.841  1.00  0.00     0.000 C 
BRANCH   6   7
ATOM      7  C   UNL     1      20.080  20.998  33.178  1.00  0.00     0.000 C 
BRANCH   7   8
ATOM      8  C   UNL     1      20.653  21.050  34.606  1.00  0.00     0.000 C 
BRANCH   8   9
ATOM      9  C   UNL     1      21.937  21.895  34.713  1.00  0.00     0.000 C 
BRANCH   9  10
ATOM     10  C   UNL     1      22.381  22.235  36.148  1.00  0.00     0.000 C 
BRANCH  10  11
ATOM     11  C   UNL     1      23.873  21.970  36.395  1.00  0.00     0.000 C 
BRANCH  11  12
ATOM     12  C   UNL     1      24.352  22.665  37.678  1.00  0.00     0.006 C 
BRANCH  12  13
ATOM     13  C   UNL     1      24.315  21.726  38.891  1.00  0.00     0.053 C 
BRANCH  13  14
ATOM     14  C   UNL     1      24.033  22.462  40.166  1.00  0.00     0.041 C 
ATOM     15  O   UNL     1      24.308  21.936  41.278  1.00  0.00    -0.550 OA
ATOM     16  O   UNL     1      23.459  23.727  40.126  1.00  0.00    -0.550 OA
ENDBRANCH  13  14
ENDBRANCH  12  13
ENDBRANCH  11  12
ENDBRANCH  10  11
ENDBRANCH   9  10
ENDBRANCH   8   9
ENDBRANCH   7   8
ENDBRANCH   6   7
ENDBRANCH   5   6
ENDBRANCH   4   5
ENDBRANCH   3   4
ENDBRANCH   2   3
ENDBRANCH   1   2
BRANCH   1  17
ATOM     17  C   UNL     1      12.343  21.481  34.523  1.00  0.00     0.000 C 
BRANCH  17  18
ATOM     18  C   UNL     1      12.285  22.621  35.553  1.00  0.00     0.000 C 
BRANCH  18  19
ATOM     19  C   UNL     1      11.568  22.216  36.854  1.00  0.00     0.000 C 
BRANCH  19  20
ATOM     20  C   UNL     1      12.353  22.484  38.152  1.00  0.00     0.000 C 
BRANCH  20  21
ATOM     21  C   UNL     1      11.929  21.568  39.310  1.00  0.00     0.000 C 
BRANCH  21  22
ATOM     22  C   UNL     1      10.399  21.437  39.445  1.00  0.00    -0.000 C 
BRANCH  22  23
ATOM     23  C   UNL     1       9.873  21.299  40.888  1.00  0.00    -0.000 C 
BRANCH  23  24
ATOM     24  C   UNL     1       9.536  22.630  41.588  1.00  0.00    -0.000 C 
BRANCH  24  25
ATOM     25  C   UNL     1      10.421  22.963  42.807  1.00  0.00    -0.000 C 
BRANCH  25  26
ATOM     26  C   UNL     1      11.935  22.867  42.552  1.00  0.00    -0.000 C 
BRANCH  26  27
ATOM     27  C   UNL     1      12.729  22.467  43.809  1.00  0.00    -0.000 C 
BRANCH  27  28
ATOM     28  C   UNL     1      11.928  22.664  45.104  1.00  0.00    -0.000 C 
BRANCH  28  29
ATOM     29  C   UNL     1      12.582  21.975  46.311  1.00  0.00    -0.003 C 
ATOM     30  C   UNL     1      13.138  23.001  47.293  1.00  0.00     0.004 C 
ENDBRANCH  28  29
ENDBRANCH  27  28
ENDBRANCH  26  27
ENDBRANCH  25  26
ENDBRANCH  24  25
ENDBRANCH  23  24
ENDBRANCH  22  23
ENDBRANCH  21  22
ENDBRANCH  20  21
ENDBRANCH  19  20
ENDBRANCH  18  19
ENDBRANCH  17  18
ENDBRANCH   1  17
TORSDOF 26
ENDMDL
MODEL 2
REMARK VINA RESULT:    -5.811      2.899     10.854
REMARK INTER + INTRA:         -16.027
REMARK INTER:                 -13.563
REMARK INTRA:                  -2.464
REMARK UNBOUND:                -1.383
REMARK SMILES CCCCCCCCCCCCCCCCCCCCCCCCCCCC(=O)[O-]
REMARK SMILES IDX 15 1 16 2 17 3 18 4 19 5 20 6 21 7 22 8 23 9 24 10 25 11
REMARK SMILES IDX 26 12 27 13 28 14 29 15 30 16 14 17 13 18 12 19 11 20 10 21
REMARK SMILES IDX 9 22 8 23 7 24 6 25 5 26 4 27 3 28 2 29 1 30
REMARK H PARENT
REMARK Flexibility Score: inf
ROOT
ATOM      1  C   UNL     1      12.780  20.809  34.898  1.00  0.00     0.000 C 
ENDROOT
BRANCH   1   2
ATOM      2  C   UNL     1      12.030  22.139  35.112  1.00  0.00     0.000 C 
BRANCH   2   3
ATOM      3  C   UNL     1      11.314  22.214  36.470  1.00  0.00     0.000 C 
BRANCH   3   4
ATOM      4  C   UNL     1      12.322  22.335  37.623  1.00  0.00     0.000 C 
BRANCH   4   5
ATOM      5  C   UNL     1      11.645  22.441  38.998  1.00  0.00     0.000 C 
BRANCH   5   6
ATOM      6  C   UNL     1      10.476  21.463  39.227  1.00  0.00     0.000 C 
BRANCH   6   7
ATOM      7  C   UNL     1       9.635  21.774  40.486  1.00  0.00     0.000 C 
BRANCH   7   8
ATOM      8  C   UNL     1      10.114  23.045  41.211  1.00  0.00     0.000 C 
BRANCH   8   9
ATOM      9  C   UNL     1      10.130  22.898  42.744  1.00  0.00     0.000 C 
BRANCH   9  10
ATOM     10  C   UNL     1      11.526  22.713  43.370  1.00  0.00     0.000 C 
BRANCH  10  11
ATOM     11  C   UNL     1      12.663  23.191  42.455  1.00  0.00     0.000 C 
BRANCH  11  12
ATOM     12  C   UNL     1      13.670  22.061  42.192  1.00  0.00     0.006 C 
BRANCH  12  13
ATOM     13  C   UNL     1      12.974  20.720  41.920  1.00  0.00     0.053 C 
BRANCH  13  14
ATOM     14  C   UNL     1      13.952  19.636  41.582  1.00  0.00     0.041 C 
ATOM     15  O   UNL     1      14.778  19.795  40.643  1.00  0.00    -0.550 OA
ATOM     16  O   UNL     1      13.944  18.444  42.298  1.00  0.00    -0.550 OA
ENDBRANCH  13  14
ENDBRANCH  12  13
ENDBRANCH  11  12
ENDBRANCH  10  11
ENDBRANCH   9  10
ENDBRANCH   8   9
ENDBRANCH   7   8
ENDBRANCH   6   7
ENDBRANCH   5   6
ENDBRANCH   4   5
ENDBRANCH   3   4
ENDBRANCH   2   3
ENDBRANCH   1   2
BRANCH   1  17
ATOM     17  C   UNL     1      14.264  20.953  34.510  1.00  0.00     0.000 C 
BRANCH  17  18
ATOM     18  C   UNL     1      14.749  22.413  34.535  1.00  0.00     0.000 C 
BRANCH  18  19
ATOM     19  C   UNL     1      16.130  22.572  35.197  1.00  0.00     0.000 C 
BRANCH  19  20
ATOM     20  C   UNL     1      17.262  21.733  34.575  1.00  0.00     0.000 C 
BRANCH  20  21
ATOM     21  C   UNL     1      17.539  22.093  33.107  1.00  0.00     0.000 C 
BRANCH  21  22
ATOM     22  C   UNL     1      18.974  21.751  32.663  1.00  0.00    -0.000 C 
BRANCH  22  23
ATOM     23  C   UNL     1      19.603  20.523  33.353  1.00  0.00    -0.000 C 
BRANCH  23  24
ATOM     24  C   UNL     1      21.038  20.734  33.874  1.00  0.00    -0.000 C 
BRANCH  24  25
ATOM     25  C   UNL     1      21.179  21.818  34.962  1.00  0.00    -0.000 C 
BRANCH  25  26
ATOM     26  C   UNL     1      22.629  22.196  35.313  1.00  0.00    -0.000 C 
BRANCH  26  27
ATOM     27  C   UNL     1      22.763  22.819  36.714  1.00  0.00    -0.000 C 
BRANCH  27  28
ATOM     28  C   UNL     1      24.220  22.900  37.190  1.00  0.00    -0.000 C 
BRANCH  28  29
ATOM     29  C   UNL     1      25.065  21.713  36.704  1.00  0.00    -0.003 C 
ATOM     30  C   UNL     1      25.210  20.658  37.797  1.00  0.00     0.004 C 
ENDBRANCH  28  29
ENDBRANCH  27  28
ENDBRANCH  26  27
ENDBRANCH  25  26
ENDBRANCH  24  25
ENDBRANCH  23  24
ENDBRANCH  22  23
ENDBRANCH  21  22
ENDBRANCH  20  21
ENDBRANCH  19  20
ENDBRANCH  18  19
ENDBRANCH  17  18
ENDBRANCH   1  17
TORSDOF 26
ENDMDL
MODEL 3
REMARK VINA RESULT:    -5.748      4.085     10.178
REMARK INTER + INTRA:         -15.868
REMARK INTER:                 -13.859
REMARK INTRA:                  -2.009
REMARK UNBOUND:                -1.383
REMARK SMILES CCCCCCCCCCCCCCCCCCCCCCCCCCCC(=O)[O-]
REMARK SMILES IDX 15 1 16 2 17 3 18 4 19 5 20 6 21 7 22 8 23 9 24 10 25 11
REMARK SMILES IDX 26 12 27 13 28 14 29 15 30 16 14 17 13 18 12 19 11 20 10 21
REMARK SMILES IDX 9 22 8 23 7 24 6 25 5 26 4 27 3 28 2 29 1 30
REMARK H PARENT
REMARK Flexibility Score: inf
ROOT
ATOM      1  C   UNL     1      12.344  23.411  44.850  1.00  0.00     0.000 C 
ENDROOT
BRANCH   1   2
ATOM      2  C   UNL     1      12.568  23.414  43.325  1.00  0.00     0.000 C 
BRANCH   2   3
ATOM      3  C   UNL     1      11.670  22.412  42.582  1.00  0.00     0.000 C 
BRANCH   3   4
ATOM      4  C   UNL     1      10.253  22.974  42.389  1.00  0.00     0.000 C 
BRANCH   4   5
ATOM      5  C   UNL     1       9.698  22.720  40.978  1.00  0.00     0.000 C 
BRANCH   5   6
ATOM      6  C   UNL     1       9.819  21.266  40.482  1.00  0.00     0.000 C 
BRANCH   6   7
ATOM      7  C   UNL     1      10.883  21.066  39.379  1.00  0.00     0.000 C 
BRANCH   7   8
ATOM      8  C   UNL     1      10.807  22.150  38.288  1.00  0.00     0.000 C 
BRANCH   8   9
ATOM      9  C   UNL     1      12.065  22.204  37.400  1.00  0.00     0.000 C 
BRANCH   9  10
ATOM     10  C   UNL     1      11.795  22.272  35.885  1.00  0.00     0.000 C 
BRANCH  10  11
ATOM     11  C   UNL     1      12.573  21.215  35.087  1.00  0.00     0.000 C 
BRANCH  11  12
ATOM     12  C   UNL     1      14.036  21.143  35.549  1.00  0.00     0.006 C 
BRANCH  12  13
ATOM     13  C   UNL     1      15.013  21.524  34.429  1.00  0.00     0.053 C 
BRANCH  13  14
ATOM     14  C   UNL     1      16.412  21.701  34.936  1.00  0.00     0.041 C 
ATOM     15  O   UNL     1      17.310  22.159  34.179  1.00  0.00    -0.550 OA
ATOM     16  O   UNL     1      16.727  21.351  36.245  1.00  0.00    -0.550 OA
ENDBRANCH  13  14
ENDBRANCH  12  13
ENDBRANCH  11  12
ENDBRANCH  10  11
ENDBRANCH   9  10
ENDBRANCH   8   9
ENDBRANCH   7   8
ENDBRANCH   6   7
ENDBRANCH   5   6
ENDBRANCH   4   5
ENDBRANCH   3   4
ENDBRANCH   2   3
ENDBRANCH   1   2
BRANCH   1  17
ATOM     17  C   UNL     1      12.096  22.022  45.469  1.00  0.00     0.000 C 
BRANCH  17  18
ATOM     18  C   UNL     1      12.780  21.847  46.836  1.00  0.00     0.000 C 
BRANCH  18  19
ATOM     19  C   UNL     1      13.195  23.187  47.472  1.00  0.00     0.000 C 
BRANCH  19  20
ATOM     20  C   UNL     1      14.711  23.387  47.660  1.00  0.00     0.000 C 
BRANCH  20  21
ATOM     21  C   UNL     1      15.485  23.387  46.333  1.00  0.00     0.000 C 
BRANCH  21  22
ATOM     22  C   UNL     1      16.949  22.931  46.490  1.00  0.00    -0.000 C 
BRANCH  22  23
ATOM     23  C   UNL     1      17.601  23.261  47.848  1.00  0.00    -0.000 C 
BRANCH  23  24
ATOM     24  C   UNL     1      18.382  22.100  48.493  1.00  0.00    -0.000 C 
BRANCH  24  25
ATOM     25  C   UNL     1      19.828  22.441  48.906  1.00  0.00    -0.000 C 
BRANCH  25  26
ATOM     26  C   UNL     1      20.375  23.754  48.318  1.00  0.00    -0.000 C 
BRANCH  26  27
ATOM     27  C   UNL     1      21.517  23.528  47.311  1.00  0.00    -0.000 C 
BRANCH  27  28
ATOM     28  C   UNL     1      21.052  22.802  46.041  1.00  0.00    -0.000 C 
BRANCH  28  29
ATOM     29  C   UNL     1      20.685  23.773  44.909  1.00  0.00    -0.003 C 
ATOM     30  C   UNL     1      19.585  23.195  44.024  1.00  0.00     0.004 C 
ENDBRANCH  28  29
ENDBRANCH  27  28
ENDBRANCH  26  27
ENDBRANCH  25  26
ENDBRANCH  24  25
ENDBRANCH  23  24
ENDBRANCH  22  23
ENDBRANCH  21  22
ENDBRANCH  20  21
ENDBRANCH  19  20
ENDBRANCH  18  19
ENDBRANCH  17  18
ENDBRANCH   1  17
TORSDOF 26
ENDMDL
MODEL 4
REMARK VINA RESULT:    -5.721      2.106      4.638
REMARK INTER + INTRA:         -15.799
REMARK INTER:                 -12.846
REMARK INTRA:                  -2.953
REMARK UNBOUND:                -1.383
REMARK SMILES CCCCCCCCCCCCCCCCCCCCCCCCCCCC(=O)[O-]
REMARK SMILES IDX 15 1 16 2 17 3 18 4 19 5 20 6 21 7 22 8 23 9 24 10 25 11
REMARK SMILES IDX 26 12 27 13 28 14 29 15 30 16 14 17 13 18 12 19 11 20 10 21
REMARK SMILES IDX 9 22 8 23 7 24 6 25 5 26 4 27 3 28 2 29 1 30
REMARK H PARENT
REMARK Flexibility Score: inf
ROOT
ATOM      1  C   UNL     1      12.510  22.833  39.308  1.00  0.00     0.000 C 
ENDROOT
BRANCH   1   2
ATOM      2  C   UNL     1      13.171  22.777  37.917  1.00  0.00     0.000 C 
BRANCH   2   3
ATOM      3  C   UNL     1      12.691  21.587  37.071  1.00  0.00     0.000 C 
BRANCH   3   4
ATOM      4  C   UNL     1      11.980  22.064  35.796  1.00  0.00     0.000 C 
BRANCH   4   5
ATOM      5  C   UNL     1      12.484  21.352  34.530  1.00  0.00     0.000 C 
BRANCH   5   6
ATOM      6  C   UNL     1      14.000  21.081  34.494  1.00  0.00     0.000 C 
BRANCH   6   7
ATOM      7  C   UNL     1      14.851  22.324  34.149  1.00  0.00     0.000 C 
BRANCH   7   8
ATOM      8  C   UNL     1      16.350  22.104  34.427  1.00  0.00     0.000 C 
BRANCH   8   9
ATOM      9  C   UNL     1      17.199  22.035  33.144  1.00  0.00     0.000 C 
BRANCH   9  10
ATOM     10  C   UNL     1      18.697  22.344  33.331  1.00  0.00     0.000 C 
BRANCH  10  11
ATOM     11  C   UNL     1      19.613  21.309  32.661  1.00  0.00     0.000 C 
BRANCH  11  12
ATOM     12  C   UNL     1      20.430  20.537  33.707  1.00  0.00     0.006 C 
BRANCH  12  13
ATOM     13  C   UNL     1      21.406  21.448  34.464  1.00  0.00     0.053 C 
BRANCH  13  14
ATOM     14  C   UNL     1      21.166  21.427  35.943  1.00  0.00     0.041 C 
ATOM     15  O   UNL     1      22.113  21.652  36.744  1.00  0.00    -0.550 OA
ATOM     16  O   UNL     1      19.897  21.151  36.438  1.00  0.00    -0.550 OA
ENDBRANCH  13  14
ENDBRANCH  12  13
ENDBRANCH  11  12
ENDBRANCH  10  11
ENDBRANCH   9  10
ENDBRANCH   8   9
ENDBRANCH   7   8
ENDBRANCH   6   7
ENDBRANCH   5   6
ENDBRANCH   4   5
ENDBRANCH   3   4
ENDBRANCH   2   3
ENDBRANCH   1   2
BRANCH   1  17
ATOM     17  C   UNL     1      10.977  22.988  39.296  1.00  0.00     0.000 C 
BRANCH  17  18
ATOM     18  C   UNL     1      10.242  21.693  39.682  1.00  0.00     0.000 C 
BRANCH  18  19
ATOM     19  C   UNL     1      10.105  21.516  41.206  1.00  0.00     0.000 C 
BRANCH  19  20
ATOM     20  C   UNL     1       9.995  22.822  42.016  1.00  0.00     0.000 C 
BRANCH  20  21
ATOM     21  C   UNL     1      11.045  22.925  43.133  1.00  0.00     0.000 C 
BRANCH  21  22
ATOM     22  C   UNL     1      12.225  21.952  42.942  1.00  0.00    -0.000 C 
BRANCH  22  23
ATOM     23  C   UNL     1      13.595  22.616  42.694  1.00  0.00    -0.000 C 
BRANCH  23  24
ATOM     24  C   UNL     1      13.592  24.156  42.757  1.00  0.00    -0.000 C 
BRANCH  24  25
ATOM     25  C   UNL     1      14.559  24.764  43.793  1.00  0.00    -0.000 C 
BRANCH  25  26
ATOM     26  C   UNL     1      13.878  25.455  44.987  1.00  0.00    -0.000 C 
BRANCH  26  27
ATOM     27  C   UNL     1      12.949  24.512  45.773  1.00  0.00    -0.000 C 
BRANCH  27  28
ATOM     28  C   UNL     1      13.699  23.687  46.829  1.00  0.00    -0.000 C 
BRANCH  28  29
ATOM     29  C   UNL     1      13.828  22.207  46.438  1.00  0.00    -0.003 C 
ATOM     30  C   UNL     1      12.519  21.460  46.676  1.00  0.00     0.004 C 
ENDBRANCH  28  29
ENDBRANCH  27  28
ENDBRANCH  26  27
ENDBRANCH  25  26
ENDBRANCH  24  25
ENDBRANCH  23  24
ENDBRANCH  22  23
ENDBRANCH  21  22
ENDBRANCH  20  21
ENDBRANCH  19  20
ENDBRANCH  18  19
ENDBRANCH  17  18
ENDBRANCH   1  17
TORSDOF 26
ENDMDL
MODEL 5
REMARK VINA RESULT:    -5.711      4.831      9.959
REMARK INTER + INTRA:         -15.774
REMARK INTER:                 -12.394
REMARK INTRA:                  -3.381
REMARK UNBOUND:                -1.383
REMARK SMILES CCCCCCCCCCCCCCCCCCCCCCCCCCCC(=O)[O-]
REMARK SMILES IDX 15 1 16 2 17 3 18 4 19 5 20 6 21 7 22 8 23 9 24 10 25 11
REMARK SMILES IDX 26 12 27 13 28 14 29 15 30 16 14 17 13 18 12 19 11 20 10 21
REMARK SMILES IDX 9 22 8 23 7 24 6 25 5 26 4 27 3 28 2 29 1 30
REMARK H PARENT
REMARK Flexibility Score: inf
ROOT
ATOM      1  C   UNL     1      14.816  24.346  43.142  1.00  0.00     0.000 C 
ENDROOT
BRANCH   1   2
ATOM      2  C   UNL     1      14.187  25.574  43.828  1.00  0.00     0.000 C 
BRANCH   2   3
ATOM      3  C   UNL     1      13.899  25.349  45.320  1.00  0.00     0.000 C 
BRANCH   3   4
ATOM      4  C   UNL     1      12.550  24.643  45.525  1.00  0.00     0.000 C 
BRANCH   4   5
ATOM      5  C   UNL     1      12.364  24.116  46.957  1.00  0.00     0.000 C 
BRANCH   5   6
ATOM      6  C   UNL     1      13.122  22.813  47.276  1.00  0.00     0.000 C 
BRANCH   6   7
ATOM      7  C   UNL     1      13.130  21.793  46.115  1.00  0.00     0.000 C 
BRANCH   7   8
ATOM      8  C   UNL     1      14.551  21.314  45.765  1.00  0.00     0.000 C 
BRANCH   8   9
ATOM      9  C   UNL     1      15.646  22.321  46.167  1.00  0.00     0.000 C 
BRANCH   9  10
ATOM     10  C   UNL     1      17.049  22.022  45.606  1.00  0.00     0.000 C 
BRANCH  10  11
ATOM     11  C   UNL     1      18.144  22.904  46.224  1.00  0.00     0.000 C 
BRANCH  11  12
ATOM     12  C   UNL     1      19.161  22.057  47.002  1.00  0.00     0.006 C 
BRANCH  12  13
ATOM     13  C   UNL     1      19.169  22.394  48.498  1.00  0.00     0.053 C 
BRANCH  13  14
ATOM     14  C   UNL     1      20.023  23.586  48.804  1.00  0.00     0.041 C 
ATOM     15  O   UNL     1      21.280  23.488  48.793  1.00  0.00    -0.550 OA
ATOM     16  O   UNL     1      19.431  24.806  49.111  1.00  0.00    -0.550 OA
ENDBRANCH  13  14
ENDBRANCH  12  13
ENDBRANCH  11  12
ENDBRANCH  10  11
ENDBRANCH   9  10
ENDBRANCH   8   9
ENDBRANCH   7   8
ENDBRANCH   6   7
ENDBRANCH   5   6
ENDBRANCH   4   5
ENDBRANCH   3   4
ENDBRANCH   2   3
ENDBRANCH   1   2
BRANCH   1  17
ATOM     17  C   UNL     1      13.993  23.752  41.983  1.00  0.00     0.000 C 
BRANCH  17  18
ATOM     18  C   UNL     1      13.744  22.242  42.139  1.00  0.00     0.000 C 
BRANCH  18  19
ATOM     19  C   UNL     1      12.296  21.913  42.545  1.00  0.00     0.000 C 
BRANCH  19  20
ATOM     20  C   UNL     1      11.328  23.112  42.567  1.00  0.00     0.000 C 
BRANCH  20  21
ATOM     21  C   UNL     1       9.943  22.775  41.993  1.00  0.00     0.000 C 
BRANCH  21  22
ATOM     22  C   UNL     1      10.014  22.060  40.630  1.00  0.00    -0.000 C 
BRANCH  22  23
ATOM     23  C   UNL     1      10.449  22.943  39.443  1.00  0.00    -0.000 C 
BRANCH  23  24
ATOM     24  C   UNL     1      11.593  22.364  38.587  1.00  0.00    -0.000 C 
BRANCH  24  25
ATOM     25  C   UNL     1      11.231  22.107  37.110  1.00  0.00    -0.000 C 
BRANCH  25  26
ATOM     26  C   UNL     1      12.300  22.551  36.096  1.00  0.00    -0.000 C 
BRANCH  26  27
ATOM     27  C   UNL     1      12.216  21.785  34.764  1.00  0.00    -0.000 C 
BRANCH  27  28
ATOM     28  C   UNL     1      13.364  20.782  34.584  1.00  0.00    -0.000 C 
BRANCH  28  29
ATOM     29  C   UNL     1      14.724  21.362  35.002  1.00  0.00    -0.003 C 
ATOM     30  C   UNL     1      15.254  20.671  36.255  1.00  0.00     0.004 C 
ENDBRANCH  28  29
ENDBRANCH  27  28
ENDBRANCH  26  27
ENDBRANCH  25  26
ENDBRANCH  24  25
ENDBRANCH  23  24
ENDBRANCH  22  23
ENDBRANCH  21  22
ENDBRANCH  20  21
ENDBRANCH  19  20
ENDBRANCH  18  19
ENDBRANCH  17  18
ENDBRANCH   1  17
TORSDOF 26
ENDMDL
MODEL 6
REMARK VINA RESULT:    -5.709      3.381      6.137
REMARK INTER + INTRA:         -15.770
REMARK INTER:                 -12.681
REMARK INTRA:                  -3.089
REMARK UNBOUND:                -1.383
REMARK SMILES CCCCCCCCCCCCCCCCCCCCCCCCCCCC(=O)[O-]
REMARK SMILES IDX 15 1 16 2 17 3 18 4 19 5 20 6 21 7 22 8 23 9 24 10 25 11
REMARK SMILES IDX 26 12 27 13 28 14 29 15 30 16 14 17 13 18 12 19 11 20 10 21
REMARK SMILES IDX 9 22 8 23 7 24 6 25 5 26 4 27 3 28 2 29 1 30
REMARK H PARENT
REMARK Flexibility Score: inf
ROOT
ATOM      1  C   UNL     1       9.965  21.165  40.465  1.00  0.00     0.000 C 
ENDROOT
BRANCH   1   2
ATOM      2  C   UNL     1      11.234  21.290  39.599  1.00  0.00     0.000 C 
BRANCH   2   3
ATOM      3  C   UNL     1      11.014  22.125  38.327  1.00  0.00     0.000 C 
BRANCH   3   4
ATOM      4  C   UNL     1      12.128  21.875  37.300  1.00  0.00     0.000 C 
BRANCH   4   5
ATOM      5  C   UNL     1      11.719  22.265  35.870  1.00  0.00     0.000 C 
BRANCH   5   6
ATOM      6  C   UNL     1      12.332  21.394  34.756  1.00  0.00     0.000 C 
BRANCH   6   7
ATOM      7  C   UNL     1      13.875  21.329  34.789  1.00  0.00     0.000 C 
BRANCH   7   8
ATOM      8  C   UNL     1      14.526  22.699  34.527  1.00  0.00     0.000 C 
BRANCH   8   9
ATOM      9  C   UNL     1      15.715  22.994  35.462  1.00  0.00     0.000 C 
BRANCH   9  10
ATOM     10  C   UNL     1      16.475  21.753  35.967  1.00  0.00     0.000 C 
BRANCH  10  11
ATOM     11  C   UNL     1      17.582  21.294  35.008  1.00  0.00     0.000 C 
BRANCH  11  12
ATOM     12  C   UNL     1      17.952  22.409  34.019  1.00  0.00     0.006 C 
BRANCH  12  13
ATOM     13  C   UNL     1      18.720  21.872  32.804  1.00  0.00     0.053 C 
BRANCH  13  14
ATOM     14  C   UNL     1      19.978  21.160  33.201  1.00  0.00     0.041 C 
ATOM     15  O   UNL     1      20.869  21.763  33.858  1.00  0.00    -0.550 OA
ATOM     16  O   UNL     1      20.170  19.833  32.836  1.00  0.00    -0.550 OA
ENDBRANCH  13  14
ENDBRANCH  12  13
ENDBRANCH  11  12
ENDBRANCH  10  11
ENDBRANCH   9  10
ENDBRANCH   8   9
ENDBRANCH   7   8
ENDBRANCH   6   7
ENDBRANCH   5   6
ENDBRANCH   4   5
ENDBRANCH   3   4
ENDBRANCH   2   3
ENDBRANCH   1   2
BRANCH   1  17
ATOM     17  C   UNL     1       9.309  22.503  40.857  1.00  0.00     0.000 C 
BRANCH  17  18
ATOM     18  C   UNL     1      10.235  23.400  41.696  1.00  0.00     0.000 C 
BRANCH  18  19
ATOM     19  C   UNL     1      10.677  22.736  43.014  1.00  0.00     0.000 C 
BRANCH  19  20
ATOM     20  C   UNL     1      12.106  23.075  43.477  1.00  0.00     0.000 C 
BRANCH  20  21
ATOM     21  C   UNL     1      13.075  23.316  42.308  1.00  0.00     0.000 C 
BRANCH  21  22
ATOM     22  C   UNL     1      14.142  22.213  42.175  1.00  0.00    -0.000 C 
BRANCH  22  23
ATOM     23  C   UNL     1      14.121  21.136  43.279  1.00  0.00    -0.000 C 
BRANCH  23  24
ATOM     24  C   UNL     1      15.239  21.262  44.332  1.00  0.00    -0.000 C 
BRANCH  24  25
ATOM     25  C   UNL     1      16.146  22.498  44.168  1.00  0.00    -0.000 C 
BRANCH  25  26
ATOM     26  C   UNL     1      16.146  23.464  45.367  1.00  0.00    -0.000 C 
BRANCH  26  27
ATOM     27  C   UNL     1      15.232  22.995  46.513  1.00  0.00    -0.000 C 
BRANCH  27  28
ATOM     28  C   UNL     1      13.916  23.783  46.581  1.00  0.00    -0.000 C 
BRANCH  28  29
ATOM     29  C   UNL     1      12.841  23.062  47.408  1.00  0.00    -0.003 C 
ATOM     30  C   UNL     1      12.583  21.659  46.869  1.00  0.00     0.004 C 
ENDBRANCH  28  29
ENDBRANCH  27  28
ENDBRANCH  26  27
ENDBRANCH  25  26
ENDBRANCH  24  25
ENDBRANCH  23  24
ENDBRANCH  22  23
ENDBRANCH  21  22
ENDBRANCH  20  21
ENDBRANCH  19  20
ENDBRANCH  18  19
ENDBRANCH  17  18
ENDBRANCH   1  17
TORSDOF 26
ENDMDL
MODEL 7
REMARK VINA RESULT:    -5.677      3.795     10.392
REMARK INTER + INTRA:         -15.690
REMARK INTER:                 -13.936
REMARK INTRA:                  -1.755
REMARK UNBOUND:                -1.383
REMARK SMILES CCCCCCCCCCCCCCCCCCCCCCCCCCCC(=O)[O-]
REMARK SMILES IDX 15 1 16 2 17 3 18 4 19 5 20 6 21 7 22 8 23 9 24 10 25 11
REMARK SMILES IDX 26 12 27 13 28 14 29 15 30 16 14 17 13 18 12 19 11 20 10 21
REMARK SMILES IDX 9 22 8 23 7 24 6 25 5 26 4 27 3 28 2 29 1 30
REMARK H PARENT
REMARK Flexibility Score: inf
ROOT
ATOM      1  C   UNL     1      10.227  22.999  42.345  1.00  0.00     0.000 C 
ENDROOT
BRANCH   1   2
ATOM      2  C   UNL     1      11.594  22.332  42.599  1.00  0.00     0.000 C 
BRANCH   2   3
ATOM      3  C   UNL     1      12.448  23.086  43.630  1.00  0.00     0.000 C 
BRANCH   3   4
ATOM      4  C   UNL     1      12.152  22.602  45.057  1.00  0.00     0.000 C 
BRANCH   4   5
ATOM      5  C   UNL     1      12.561  23.624  46.130  1.00  0.00     0.000 C 
BRANCH   5   6
ATOM      6  C   UNL     1      13.202  23.020  47.395  1.00  0.00     0.000 C 
BRANCH   6   7
ATOM      7  C   UNL     1      14.746  23.082  47.406  1.00  0.00     0.000 C 
BRANCH   7   8
ATOM      8  C   UNL     1      15.309  23.899  46.229  1.00  0.00     0.000 C 
BRANCH   8   9
ATOM      9  C   UNL     1      16.366  23.133  45.410  1.00  0.00     0.000 C 
BRANCH   9  10
ATOM     10  C   UNL     1      17.121  22.034  46.180  1.00  0.00     0.000 C 
BRANCH  10  11
ATOM     11  C   UNL     1      18.516  21.748  45.606  1.00  0.00     0.000 C 
BRANCH  11  12
ATOM     12  C   UNL     1      19.571  21.696  46.721  1.00  0.00     0.006 C 
BRANCH  12  13
ATOM     13  C   UNL     1      18.982  22.057  48.090  1.00  0.00     0.053 C 
BRANCH  13  14
ATOM     14  C   UNL     1      19.418  23.414  48.553  1.00  0.00     0.041 C 
ATOM     15  O   UNL     1      20.489  23.550  49.203  1.00  0.00    -0.550 OA
ATOM     16  O   UNL     1      18.635  24.529  48.274  1.00  0.00    -0.550 OA
ENDBRANCH  13  14
ENDBRANCH  12  13
ENDBRANCH  11  12
ENDBRANCH  10  11
ENDBRANCH   9  10
ENDBRANCH   8   9
ENDBRANCH   7   8
ENDBRANCH   6   7
ENDBRANCH   5   6
ENDBRANCH   4   5
ENDBRANCH   3   4
ENDBRANCH   2   3
ENDBRANCH   1   2
BRANCH   1  17
ATOM     17  C   UNL     1       9.376  22.341  41.242  1.00  0.00     0.000 C 
BRANCH  17  18
ATOM     18  C   UNL     1      10.172  21.338  40.391  1.00  0.00     0.000 C 
BRANCH  18  19
ATOM     19  C   UNL     1      10.506  21.877  38.987  1.00  0.00     0.000 C 
BRANCH  19  20
ATOM     20  C   UNL     1      11.957  22.358  38.793  1.00  0.00     0.000 C 
BRANCH  20  21
ATOM     21  C   UNL     1      12.479  22.128  37.366  1.00  0.00     0.000 C 
BRANCH  21  22
ATOM     22  C   UNL     1      11.349  22.002  36.325  1.00  0.00    -0.000 C 
BRANCH  22  23
ATOM     23  C   UNL     1      11.796  22.082  34.851  1.00  0.00    -0.000 C 
BRANCH  23  24
ATOM     24  C   UNL     1      13.297  22.362  34.642  1.00  0.00    -0.000 C 
BRANCH  24  25
ATOM     25  C   UNL     1      14.177  21.104  34.498  1.00  0.00    -0.000 C 
BRANCH  25  26
ATOM     26  C   UNL     1      15.648  21.293  34.908  1.00  0.00    -0.000 C 
BRANCH  26  27
ATOM     27  C   UNL     1      16.358  22.394  34.101  1.00  0.00    -0.000 C 
BRANCH  27  28
ATOM     28  C   UNL     1      17.553  21.863  33.296  1.00  0.00    -0.000 C 
BRANCH  28  29
ATOM     29  C   UNL     1      18.802  22.744  33.447  1.00  0.00    -0.003 C 
ATOM     30  C   UNL     1      19.631  22.744  32.166  1.00  0.00     0.004 C 
ENDBRANCH  28  29
ENDBRANCH  27  28
ENDBRANCH  26  27
ENDBRANCH  25  26
ENDBRANCH  24  25
ENDBRANCH  23  24
ENDBRANCH  22  23
ENDBRANCH  21  22
ENDBRANCH  20  21
ENDBRANCH  19  20
ENDBRANCH  18  19
ENDBRANCH  17  18
ENDBRANCH   1  17
TORSDOF 26
ENDMDL
MODEL 8
REMARK VINA RESULT:    -5.675      4.470      9.828
REMARK INTER + INTRA:         -15.685
REMARK INTER:                 -13.166
REMARK INTRA:                  -2.518
REMARK UNBOUND:                -1.383
REMARK SMILES CCCCCCCCCCCCCCCCCCCCCCCCCCCC(=O)[O-]
REMARK SMILES IDX 15 1 16 2 17 3 18 4 19 5 20 6 21 7 22 8 23 9 24 10 25 11
REMARK SMILES IDX 26 12 27 13 28 14 29 15 30 16 14 17 13 18 12 19 11 20 10 21
REMARK SMILES IDX 9 22 8 23 7 24 6 25 5 26 4 27 3 28 2 29 1 30
REMARK H PARENT
REMARK Flexibility Score: inf
ROOT
ATOM      1  C   UNL     1      12.379  23.353  44.732  1.00  0.00     0.000 C 
ENDROOT
BRANCH   1   2
ATOM      2  C   UNL     1      12.394  21.992  45.455  1.00  0.00     0.000 C 
BRANCH   2   3
ATOM      3  C   UNL     1      13.091  22.046  46.824  1.00  0.00     0.000 C 
BRANCH   3   4
ATOM      4  C   UNL     1      13.750  23.413  47.058  1.00  0.00     0.000 C 
BRANCH   4   5
ATOM      5  C   UNL     1      15.094  23.308  47.798  1.00  0.00     0.000 C 
BRANCH   5   6
ATOM      6  C   UNL     1      16.288  22.879  46.923  1.00  0.00     0.000 C 
BRANCH   6   7
ATOM      7  C   UNL     1      17.624  22.778  47.694  1.00  0.00     0.000 C 
BRANCH   7   8
ATOM      8  C   UNL     1      18.195  24.160  48.061  1.00  0.00     0.000 C 
BRANCH   8   9
ATOM      9  C   UNL     1      19.733  24.218  47.995  1.00  0.00     0.000 C 
BRANCH   9  10
ATOM     10  C   UNL     1      20.429  22.868  47.737  1.00  0.00     0.000 C 
BRANCH  10  11
ATOM     11  C   UNL     1      21.518  22.950  46.657  1.00  0.00     0.000 C 
BRANCH  11  12
ATOM     12  C   UNL     1      21.004  23.685  45.410  1.00  0.00     0.006 C 
BRANCH  12  13
ATOM     13  C   UNL     1      20.141  22.779  44.522  1.00  0.00     0.053 C 
BRANCH  13  14
ATOM     14  C   UNL     1      19.013  23.527  43.879  1.00  0.00     0.041 C 
ATOM     15  O   UNL     1      18.383  24.407  44.525  1.00  0.00    -0.550 OA
ATOM     16  O   UNL     1      18.651  23.246  42.566  1.00  0.00    -0.550 OA
ENDBRANCH  13  14
ENDBRANCH  12  13
ENDBRANCH  11  12
ENDBRANCH  10  11
ENDBRANCH   9  10
ENDBRANCH   8   9
ENDBRANCH   7   8
ENDBRANCH   6   7
ENDBRANCH   5   6
ENDBRANCH   4   5
ENDBRANCH   3   4
ENDBRANCH   2   3
ENDBRANCH   1   2
BRANCH   1  17
ATOM     17  C   UNL     1      12.354  23.274  43.193  1.00  0.00     0.000 C 
BRANCH  17  18
ATOM     18  C   UNL     1      11.302  22.286  42.663  1.00  0.00     0.000 C 
BRANCH  18  19
ATOM     19  C   UNL     1       9.959  22.964  42.332  1.00  0.00     0.000 C 
BRANCH  19  20
ATOM     20  C   UNL     1       9.357  22.603  40.960  1.00  0.00     0.000 C 
BRANCH  20  21
ATOM     21  C   UNL     1      10.084  21.435  40.275  1.00  0.00     0.000 C 
BRANCH  21  22
ATOM     22  C   UNL     1      10.770  21.844  38.957  1.00  0.00    -0.000 C 
BRANCH  22  23
ATOM     23  C   UNL     1      12.097  22.615  39.114  1.00  0.00    -0.000 C 
BRANCH  23  24
ATOM     24  C   UNL     1      13.144  22.338  38.018  1.00  0.00    -0.000 C 
BRANCH  24  25
ATOM     25  C   UNL     1      13.943  21.032  38.201  1.00  0.00    -0.000 C 
BRANCH  25  26
ATOM     26  C   UNL     1      14.208  20.249  36.903  1.00  0.00    -0.000 C 
BRANCH  26  27
ATOM     27  C   UNL     1      14.119  21.129  35.644  1.00  0.00    -0.000 C 
BRANCH  27  28
ATOM     28  C   UNL     1      12.978  20.708  34.706  1.00  0.00    -0.000 C 
BRANCH  28  29
ATOM     29  C   UNL     1      11.933  21.818  34.515  1.00  0.00    -0.003 C 
ATOM     30  C   UNL     1      12.601  23.148  34.180  1.00  0.00     0.004 C 
ENDBRANCH  28  29
ENDBRANCH  27  28
ENDBRANCH  26  27
ENDBRANCH  25  26
ENDBRANCH  24  25
ENDBRANCH  23  24
ENDBRANCH  22  23
ENDBRANCH  21  22
ENDBRANCH  20  21
ENDBRANCH  19  20
ENDBRANCH  18  19
ENDBRANCH  17  18
ENDBRANCH   1  17
TORSDOF 26
ENDMDL
MODEL 9
REMARK VINA RESULT:    -5.647      3.394     11.139
REMARK INTER + INTRA:         -15.614
REMARK INTER:                 -14.113
REMARK INTRA:                  -1.501
REMARK UNBOUND:                -1.383
REMARK SMILES CCCCCCCCCCCCCCCCCCCCCCCCCCCC(=O)[O-]
REMARK SMILES IDX 15 1 16 2 17 3 18 4 19 5 20 6 21 7 22 8 23 9 24 10 25 11
REMARK SMILES IDX 26 12 27 13 28 14 29 15 30 16 14 17 13 18 12 19 11 20 10 21
REMARK SMILES IDX 9 22 8 23 7 24 6 25 5 26 4 27 3 28 2 29 1 30
REMARK H PARENT
REMARK Flexibility Score: inf
ROOT
ATOM      1  C   UNL     1      14.879  21.652  34.756  1.00  0.00     0.000 C 
ENDROOT
BRANCH   1   2
ATOM      2  C   UNL     1      14.232  23.032  34.525  1.00  0.00     0.000 C 
BRANCH   2   3
ATOM      3  C   UNL     1      12.732  22.947  34.204  1.00  0.00     0.000 C 
BRANCH   3   4
ATOM      4  C   UNL     1      12.071  21.773  34.941  1.00  0.00     0.000 C 
BRANCH   4   5
ATOM      5  C   UNL     1      11.571  22.154  36.343  1.00  0.00     0.000 C 
BRANCH   5   6
ATOM      6  C   UNL     1      12.513  21.764  37.500  1.00  0.00     0.000 C 
BRANCH   6   7
ATOM      7  C   UNL     1      12.019  22.221  38.891  1.00  0.00     0.000 C 
BRANCH   7   8
ATOM      8  C   UNL     1      10.534  21.890  39.124  1.00  0.00     0.000 C 
BRANCH   8   9
ATOM      9  C   UNL     1       9.914  22.678  40.294  1.00  0.00     0.000 C 
BRANCH   9  10
ATOM     10  C   UNL     1      10.256  22.144  41.698  1.00  0.00     0.000 C 
BRANCH  10  11
ATOM     11  C   UNL     1      11.313  22.991  42.422  1.00  0.00     0.000 C 
BRANCH  11  12
ATOM     12  C   UNL     1      11.370  22.640  43.917  1.00  0.00     0.006 C 
BRANCH  12  13
ATOM     13  C   UNL     1      12.695  23.070  44.560  1.00  0.00     0.053 C 
BRANCH  13  14
ATOM     14  C   UNL     1      12.695  22.864  46.044  1.00  0.00     0.041 C 
ATOM     15  O   UNL     1      12.435  21.730  46.529  1.00  0.00    -0.550 OA
ATOM     16  O   UNL     1      12.973  23.929  46.894  1.00  0.00    -0.550 OA
ENDBRANCH  13  14
ENDBRANCH  12  13
ENDBRANCH  11  12
ENDBRANCH  10  11
ENDBRANCH   9  10
ENDBRANCH   8   9
ENDBRANCH   7   8
ENDBRANCH   6   7
ENDBRANCH   5   6
ENDBRANCH   4   5
ENDBRANCH   3   4
ENDBRANCH   2   3
ENDBRANCH   1   2
BRANCH   1  17
ATOM     17  C   UNL     1      16.419  21.638  34.719  1.00  0.00     0.000 C 
BRANCH  17  18
ATOM     18  C   UNL     1      16.986  21.967  33.328  1.00  0.00     0.000 C 
BRANCH  18  19
ATOM     19  C   UNL     1      18.450  22.444  33.376  1.00  0.00     0.000 C 
BRANCH  19  20
ATOM     20  C   UNL     1      19.437  21.634  32.514  1.00  0.00     0.000 C 
BRANCH  20  21
ATOM     21  C   UNL     1      20.158  20.530  33.303  1.00  0.00     0.000 C 
BRANCH  21  22
ATOM     22  C   UNL     1      20.734  21.028  34.643  1.00  0.00    -0.000 C 
BRANCH  22  23
ATOM     23  C   UNL     1      22.011  21.886  34.534  1.00  0.00    -0.000 C 
BRANCH  23  24
ATOM     24  C   UNL     1      22.632  22.301  35.882  1.00  0.00    -0.000 C 
BRANCH  24  25
ATOM     25  C   UNL     1      23.866  21.480  36.308  1.00  0.00    -0.000 C 
BRANCH  25  26
ATOM     26  C   UNL     1      24.883  22.244  37.174  1.00  0.00    -0.000 C 
BRANCH  26  27
ATOM     27  C   UNL     1      24.332  23.578  37.708  1.00  0.00    -0.000 C 
BRANCH  27  28
ATOM     28  C   UNL     1      24.102  23.558  39.227  1.00  0.00    -0.000 C 
BRANCH  28  29
ATOM     29  C   UNL     1      24.542  22.235  39.871  1.00  0.00    -0.003 C 
ATOM     30  C   UNL     1      23.712  21.927  41.114  1.00  0.00     0.004 C 
ENDBRANCH  28  29
ENDBRANCH  27  28
ENDBRANCH  26  27
ENDBRANCH  25  26
ENDBRANCH  24  25
ENDBRANCH  23  24
ENDBRANCH  22  23
ENDBRANCH  21  22
ENDBRANCH  20  21
ENDBRANCH  19  20
ENDBRANCH  18  19
ENDBRANCH  17  18
ENDBRANCH   1  17
TORSDOF 26
ENDMDL
