MODEL 1
REMARK VINA RESULT:     2.268      0.000      0.000
REMARK INTER + INTRA:           3.150
REMARK INTER:                   2.732
REMARK INTRA:                   0.418
REMARK UNBOUND:                 0.418
REMARK SMILES O=c1c(O)c(-c2ccc(O)c(O)c2)oc2cc(O)cc(O)c12
REMARK SMILES IDX 5 1 3 2 2 3 1 4 22 5 20 6 19 7 17 8 16 9 15 10 14 11 6 12
REMARK SMILES IDX 7 13 8 14 9 15 13 16 11 17 10 18 12 20 4 22 21 24 18 26
REMARK H PARENT 10 19 12 21 4 23 21 25 18 27
REMARK Flexibility Score: inf
ROOT
ATOM      1  C   UNL     1      21.026   8.246   6.057  1.00  0.00     0.180 A 
ATOM      2  C   UNL     1      20.476   6.997   6.403  1.00  0.00     0.208 A 
ATOM      3  C   UNL     1      21.297   5.859   6.354  1.00  0.00     0.238 A 
ATOM      4  O   UNL     1      20.812   4.733   6.651  1.00  0.00    -0.285 OA
ATOM      5  C   UNL     1      22.651   5.991   5.983  1.00  0.00     0.111 A 
ATOM      6  C   UNL     1      23.544   4.895   5.913  1.00  0.00     0.134 A 
ATOM      7  C   UNL     1      24.881   5.109   5.544  1.00  0.00     0.093 A 
ATOM      8  C   UNL     1      25.339   6.397   5.244  1.00  0.00     0.123 A 
ATOM      9  C   UNL     1      24.461   7.479   5.311  1.00  0.00     0.094 A 
ATOM     10  C   UNL     1      23.126   7.287   5.676  1.00  0.00     0.146 A 
ATOM     11  O   UNL     1      22.312   8.335   5.726  1.00  0.00    -0.452 OA
ENDROOT
BRANCH   1  12
ATOM     12  C   UNL     1      20.221   9.490   6.065  1.00  0.00     0.025 A 
ATOM     13  C   UNL     1      18.821   9.406   6.005  1.00  0.00     0.016 A 
ATOM     14  C   UNL     1      18.041  10.565   6.032  1.00  0.00     0.051 A 
ATOM     15  C   UNL     1      18.649  11.823   6.136  1.00  0.00     0.157 A 
ATOM     16  C   UNL     1      20.826  10.753   6.191  1.00  0.00     0.062 A 
ATOM     17  C   UNL     1      20.044  11.916   6.220  1.00  0.00     0.158 A 
BRANCH  15  18
ATOM     18  O   UNL     1      17.876  12.981   6.161  1.00  0.00    -0.504 OA
ATOM     19  H   UNL     1      17.632  13.474   5.310  1.00  0.00     0.293 HD
ENDBRANCH  15  18
BRANCH  17  20
ATOM     20  O   UNL     1      20.646  13.169   6.337  1.00  0.00    -0.504 OA
ATOM     21  H   UNL     1      20.875  13.725   5.521  1.00  0.00     0.293 HD
ENDBRANCH  17  20
ENDBRANCH   1  12
BRANCH   2  22
ATOM     22  O   UNL     1      19.145   6.902   6.815  1.00  0.00    -0.502 OA
ATOM     23  H   UNL     1      18.596   7.715   7.067  1.00  0.00     0.293 HD
ENDBRANCH   2  22
BRANCH   6  24
ATOM     24  O   UNL     1      23.116   3.599   6.207  1.00  0.00    -0.507 OA
ATOM     25  H   UNL     1      22.735   2.988   5.493  1.00  0.00     0.293 HD
ENDBRANCH   6  24
BRANCH   8  26
ATOM     26  O   UNL     1      26.666   6.610   4.878  1.00  0.00    -0.508 OA
ATOM     27  H   UNL     1      27.125   7.498   5.043  1.00  0.00     0.293 HD
ENDBRANCH   8  26
TORSDOF 6
ENDMDL
MODEL 2
REMARK VINA RESULT:     4.202      1.228      2.948
REMARK INTER + INTRA:           5.480
REMARK INTER:                   5.194
REMARK INTRA:                   0.286
REMARK UNBOUND:                 0.418
REMARK SMILES O=c1c(O)c(-c2ccc(O)c(O)c2)oc2cc(O)cc(O)c12
REMARK SMILES IDX 5 1 3 2 2 3 1 4 22 5 20 6 19 7 17 8 16 9 15 10 14 11 6 12
REMARK SMILES IDX 7 13 8 14 9 15 13 16 11 17 10 18 12 20 4 22 21 24 18 26
REMARK H PARENT 10 19 12 21 4 23 21 25 18 27
REMARK Flexibility Score: inf
ROOT
ATOM      1  C   UNL     1      21.156   8.189   6.044  1.00  0.00     0.180 A 
ATOM      2  C   UNL     1      22.436   8.197   5.458  1.00  0.00     0.208 A 
ATOM      3  C   UNL     1      23.183   7.009   5.445  1.00  0.00     0.238 A 
ATOM      4  O   UNL     1      24.335   7.007   4.933  1.00  0.00    -0.285 OA
ATOM      5  C   UNL     1      22.632   5.833   5.995  1.00  0.00     0.111 A 
ATOM      6  C   UNL     1      23.318   4.595   6.018  1.00  0.00     0.134 A 
ATOM      7  C   UNL     1      22.699   3.466   6.576  1.00  0.00     0.093 A 
ATOM      8  C   UNL     1      21.408   3.554   7.111  1.00  0.00     0.123 A 
ATOM      9  C   UNL     1      20.730   4.773   7.091  1.00  0.00     0.094 A 
ATOM     10  C   UNL     1      21.330   5.909   6.540  1.00  0.00     0.146 A 
ATOM     11  O   UNL     1      20.662   7.057   6.540  1.00  0.00    -0.452 OA
ENDROOT
BRANCH   1  12
ATOM     12  C   UNL     1      20.314   9.406   6.114  1.00  0.00     0.025 A 
ATOM     13  C   UNL     1      18.921   9.276   6.223  1.00  0.00     0.016 A 
ATOM     14  C   UNL     1      18.109  10.410   6.311  1.00  0.00     0.051 A 
ATOM     15  C   UNL     1      18.681  11.689   6.308  1.00  0.00     0.157 A 
ATOM     16  C   UNL     1      20.885  10.691   6.132  1.00  0.00     0.062 A 
ATOM     17  C   UNL     1      20.072  11.829   6.222  1.00  0.00     0.158 A 
BRANCH  15  18
ATOM     18  O   UNL     1      17.875  12.823   6.393  1.00  0.00    -0.504 OA
ATOM     19  H   UNL     1      18.273  13.748   6.504  1.00  0.00     0.293 HD
ENDBRANCH  15  18
BRANCH  17  20
ATOM     20  O   UNL     1      20.638  13.103   6.232  1.00  0.00    -0.504 OA
ATOM     21  H   UNL     1      20.960  13.547   5.379  1.00  0.00     0.293 HD
ENDBRANCH  17  20
ENDBRANCH   1  12
BRANCH   2  22
ATOM     22  O   UNL     1      22.937   9.364   4.875  1.00  0.00    -0.502 OA
ATOM     23  H   UNL     1      22.796  10.280   5.285  1.00  0.00     0.293 HD
ENDBRANCH   2  22
BRANCH   6  24
ATOM     24  O   UNL     1      24.605   4.476   5.491  1.00  0.00    -0.507 OA
ATOM     25  H   UNL     1      24.815   3.837   4.733  1.00  0.00     0.293 HD
ENDBRANCH   6  24
BRANCH   8  26
ATOM     26  O   UNL     1      20.792   2.434   7.664  1.00  0.00    -0.508 OA
ATOM     27  H   UNL     1      19.783   2.343   7.691  1.00  0.00     0.293 HD
ENDBRANCH   8  26
TORSDOF 6
ENDMDL
