MODEL 1
REMARK VINA RESULT:    -7.541      0.000      0.000
REMARK INTER + INTRA:         -11.995
REMARK INTER:                 -10.847
REMARK INTRA:                  -1.148
REMARK UNBOUND:                -1.148
REMARK SMILES O=c1c(O[C@H]2O[C@@H](CO)[C@H](O)[C@@H](O)[C@@H]2O)c(-c2ccc(O)cc2)oc2cc(O)cc(O)c12
REMARK SMILES IDX 4 1 3 2 16 3 24 4 2 5 25 6 1 7 32 8 26 9 30 10 27 11 29 12
REMARK SMILES IDX 17 13 18 14 19 15 20 16 23 17 22 18 21 19 31 21 28 23 5 25
REMARK SMILES IDX 14 26 6 27 12 28 7 29 10 30 15 31 13 33 8 35 9 36 11 38
REMARK H PARENT 21 20 31 22 28 24 15 32 13 34 9 37 11 39
REMARK Flexibility Score: inf
ROOT
ATOM      1  O   UNL     1     178.515 182.195 175.090  1.00  0.00    -0.454 OA
ENDROOT
BRANCH   1   2
ATOM      2  C   UNL     1     179.773 182.727 174.725  1.00  0.00     0.214 A 
ATOM      3  C   UNL     1     180.892 182.333 175.484  1.00  0.00     0.180 A 
ATOM      4  O   UNL     1     182.107 182.746 175.150  1.00  0.00    -0.452 OA
ATOM      5  C   UNL     1     179.983 183.617 173.646  1.00  0.00     0.239 A 
ATOM      6  C   UNL     1     182.352 183.537 174.116  1.00  0.00     0.146 A 
ATOM      7  O   UNL     1     178.998 184.114 173.046  1.00  0.00    -0.285 OA
ATOM      8  C   UNL     1     181.300 183.985 173.280  1.00  0.00     0.111 A 
ATOM      9  C   UNL     1     183.671 183.931 173.875  1.00  0.00     0.094 A 
ATOM     10  C   UNL     1     181.628 184.800 172.154  1.00  0.00     0.134 A 
ATOM     11  C   UNL     1     183.971 184.779 172.812  1.00  0.00     0.123 A 
ATOM     12  C   UNL     1     182.952 185.212 171.961  1.00  0.00     0.093 A 
BRANCH   3  13
ATOM     13  C   UNL     1     180.763 181.443 176.660  1.00  0.00     0.021 A 
ATOM     14  C   UNL     1     181.440 180.212 176.675  1.00  0.00     0.016 A 
ATOM     15  C   UNL     1     181.341 179.365 177.784  1.00  0.00     0.047 A 
ATOM     16  C   UNL     1     180.578 179.746 178.895  1.00  0.00     0.115 A 
ATOM     17  C   UNL     1     180.016 181.828 177.788  1.00  0.00     0.016 A 
ATOM     18  C   UNL     1     179.920 180.979 178.895  1.00  0.00     0.047 A 
BRANCH  16  19
ATOM     19  O   UNL     1     180.472 178.909 180.004  1.00  0.00    -0.508 OA
ATOM     20  H   UNL     1     180.566 179.265 180.948  1.00  0.00     0.293 HD
ENDBRANCH  16  19
ENDBRANCH   3  13
BRANCH  10  21
ATOM     21  O   UNL     1     180.702 185.196 171.185  1.00  0.00    -0.507 OA
ATOM     22  H   UNL     1     179.760 184.841 171.114  1.00  0.00     0.293 HD
ENDBRANCH  10  21
BRANCH  11  23
ATOM     23  O   UNL     1     185.289 185.179 172.603  1.00  0.00    -0.508 OA
ATOM     24  H   UNL     1     186.057 184.765 173.119  1.00  0.00     0.293 HD
ENDBRANCH  11  23
ENDBRANCH   1   2
BRANCH   1  25
ATOM     25  C   UNL     1     177.731 181.177 174.457  1.00  0.00     0.339 C 
ATOM     26  C   UNL     1     178.610 180.193 173.643  1.00  0.00     0.214 C 
ATOM     27  O   UNL     1     176.730 181.756 173.645  1.00  0.00    -0.332 OA
ATOM     28  C   UNL     1     177.807 179.548 172.485  1.00  0.00     0.180 C 
ATOM     29  C   UNL     1     175.724 180.804 173.326  1.00  0.00     0.179 C 
ATOM     30  C   UNL     1     176.303 179.437 172.825  1.00  0.00     0.177 C 
BRANCH  26  31
ATOM     31  O   UNL     1     179.172 179.214 174.484  1.00  0.00    -0.384 OA
ATOM     32  H   UNL     1     178.656 179.204 175.332  1.00  0.00     0.211 HD
ENDBRANCH  26  31
BRANCH  28  33
ATOM     33  O   UNL     1     177.968 180.326 171.324  1.00  0.00    -0.387 OA
ATOM     34  H   UNL     1     177.083 180.364 170.875  1.00  0.00     0.211 HD
ENDBRANCH  28  33
BRANCH  29  35
ATOM     35  C   UNL     1     174.795 181.434 172.276  1.00  0.00     0.191 C 
BRANCH  35  36
ATOM     36  O   UNL     1     175.160 182.762 172.012  1.00  0.00    -0.394 OA
ATOM     37  H   UNL     1     176.072 182.886 172.383  1.00  0.00     0.210 HD
ENDBRANCH  35  36
ENDBRANCH  29  35
BRANCH  30  38
ATOM     38  O   UNL     1     176.111 178.464 173.822  1.00  0.00    -0.387 OA
ATOM     39  H   UNL     1     176.936 178.446 174.374  1.00  0.00     0.211 HD
ENDBRANCH  30  38
ENDBRANCH   1  25
TORSDOF 11
ENDMDL
MODEL 2
REMARK VINA RESULT:    -7.526      3.200      7.342
REMARK INTER + INTRA:         -11.973
REMARK INTER:                 -10.496
REMARK INTRA:                  -1.477
REMARK UNBOUND:                -1.148
REMARK SMILES O=c1c(O[C@H]2O[C@@H](CO)[C@H](O)[C@@H](O)[C@@H]2O)c(-c2ccc(O)cc2)oc2cc(O)cc(O)c12
REMARK SMILES IDX 4 1 3 2 16 3 24 4 2 5 25 6 1 7 32 8 26 9 30 10 27 11 29 12
REMARK SMILES IDX 17 13 18 14 19 15 20 16 23 17 22 18 21 19 31 21 28 23 5 25
REMARK SMILES IDX 14 26 6 27 12 28 7 29 10 30 15 31 13 33 8 35 9 36 11 38
REMARK H PARENT 21 20 31 22 28 24 15 32 13 34 9 37 11 39
REMARK Flexibility Score: inf
ROOT
ATOM      1  O   UNL     1     181.935 178.676 174.673  1.00  0.00    -0.454 OA
ENDROOT
BRANCH   1   2
ATOM      2  C   UNL     1     180.685 178.069 174.410  1.00  0.00     0.214 A 
ATOM      3  C   UNL     1     179.621 178.366 175.285  1.00  0.00     0.180 A 
ATOM      4  O   UNL     1     178.409 177.878 175.055  1.00  0.00    -0.452 OA
ATOM      5  C   UNL     1     180.431 177.195 173.328  1.00  0.00     0.239 A 
ATOM      6  C   UNL     1     178.118 177.100 174.023  1.00  0.00     0.146 A 
ATOM      7  O   UNL     1     181.383 176.783 172.621  1.00  0.00    -0.285 OA
ATOM      8  C   UNL     1     179.111 176.747 173.077  1.00  0.00     0.111 A 
ATOM      9  C   UNL     1     176.811 176.623 173.896  1.00  0.00     0.094 A 
ATOM     10  C   UNL     1     178.730 175.942 171.961  1.00  0.00     0.134 A 
ATOM     11  C   UNL     1     176.465 175.784 172.838  1.00  0.00     0.123 A 
ATOM     12  C   UNL     1     177.423 175.445 171.881  1.00  0.00     0.093 A 
BRANCH   3  13
ATOM     13  C   UNL     1     179.805 179.231 176.472  1.00  0.00     0.021 A 
ATOM     14  C   UNL     1     179.286 180.536 176.464  1.00  0.00     0.016 A 
ATOM     15  C   UNL     1     179.437 181.363 177.582  1.00  0.00     0.047 A 
ATOM     16  C   UNL     1     180.095 180.889 178.725  1.00  0.00     0.115 A 
ATOM     17  C   UNL     1     180.445 178.755 177.630  1.00  0.00     0.016 A 
ATOM     18  C   UNL     1     180.595 179.584 178.746  1.00  0.00     0.047 A 
BRANCH  16  19
ATOM     19  O   UNL     1     180.252 181.705 179.843  1.00  0.00    -0.508 OA
ATOM     20  H   UNL     1     179.594 182.445 180.057  1.00  0.00     0.293 HD
ENDBRANCH  16  19
ENDBRANCH   3  13
BRANCH  10  21
ATOM     21  O   UNL     1     179.582 175.635 170.896  1.00  0.00    -0.507 OA
ATOM     22  H   UNL     1     179.825 174.699 170.608  1.00  0.00     0.293 HD
ENDBRANCH  10  21
BRANCH  11  23
ATOM     23  O   UNL     1     175.162 175.301 172.743  1.00  0.00    -0.508 OA
ATOM     24  H   UNL     1     174.363 175.883 172.965  1.00  0.00     0.293 HD
ENDBRANCH  11  23
ENDBRANCH   1   2
BRANCH   1  25
ATOM     25  C   UNL     1     182.685 179.608 173.884  1.00  0.00     0.339 C 
ATOM     26  C   UNL     1     184.137 179.124 173.644  1.00  0.00     0.214 C 
ATOM     27  O   UNL     1     182.667 180.889 174.482  1.00  0.00    -0.332 OA
ATOM     28  C   UNL     1     185.096 180.318 173.405  1.00  0.00     0.180 C 
ATOM     29  C   UNL     1     183.060 181.887 173.549  1.00  0.00     0.179 C 
ATOM     30  C   UNL     1     184.364 181.518 172.762  1.00  0.00     0.177 C 
BRANCH  26  31
ATOM     31  O   UNL     1     184.186 178.207 172.577  1.00  0.00    -0.384 OA
ATOM     32  H   UNL     1     184.923 177.567 172.754  1.00  0.00     0.211 HD
ENDBRANCH  26  31
BRANCH  28  33
ATOM     33  O   UNL     1     185.653 180.714 174.635  1.00  0.00    -0.387 OA
ATOM     34  H   UNL     1     186.186 181.534 174.461  1.00  0.00     0.211 HD
ENDBRANCH  28  33
BRANCH  29  35
ATOM     35  C   UNL     1     183.228 183.209 174.317  1.00  0.00     0.191 C 
BRANCH  35  36
ATOM     36  O   UNL     1     184.529 183.712 174.174  1.00  0.00    -0.394 OA
ATOM     37  H   UNL     1     184.471 184.477 173.545  1.00  0.00     0.210 HD
ENDBRANCH  35  36
ENDBRANCH  29  35
BRANCH  30  38
ATOM     38  O   UNL     1     184.026 181.212 171.432  1.00  0.00    -0.387 OA
ATOM     39  H   UNL     1     184.330 180.283 171.260  1.00  0.00     0.211 HD
ENDBRANCH  30  38
ENDBRANCH   1  25
TORSDOF 11
ENDMDL
MODEL 3
REMARK VINA RESULT:    -7.525      0.915      2.123
REMARK INTER + INTRA:         -11.972
REMARK INTER:                 -10.467
REMARK INTRA:                  -1.505
REMARK UNBOUND:                -1.148
REMARK SMILES O=c1c(O[C@H]2O[C@@H](CO)[C@H](O)[C@@H](O)[C@@H]2O)c(-c2ccc(O)cc2)oc2cc(O)cc(O)c12
REMARK SMILES IDX 4 1 3 2 16 3 24 4 2 5 25 6 1 7 32 8 26 9 30 10 27 11 29 12
REMARK SMILES IDX 17 13 18 14 19 15 20 16 23 17 22 18 21 19 31 21 28 23 5 25
REMARK SMILES IDX 14 26 6 27 12 28 7 29 10 30 15 31 13 33 8 35 9 36 11 38
REMARK H PARENT 21 20 31 22 28 24 15 32 13 34 9 37 11 39
REMARK Flexibility Score: inf
ROOT
ATOM      1  O   UNL     1     178.821 182.078 174.633  1.00  0.00    -0.454 OA
ENDROOT
BRANCH   1   2
ATOM      2  C   UNL     1     180.071 182.685 174.367  1.00  0.00     0.214 A 
ATOM      3  C   UNL     1     181.139 182.381 175.233  1.00  0.00     0.180 A 
ATOM      4  O   UNL     1     182.351 182.867 174.997  1.00  0.00    -0.452 OA
ATOM      5  C   UNL     1     180.320 183.563 173.287  1.00  0.00     0.239 A 
ATOM      6  C   UNL     1     182.637 183.651 173.968  1.00  0.00     0.146 A 
ATOM      7  O   UNL     1     179.364 183.981 172.588  1.00  0.00    -0.285 OA
ATOM      8  C   UNL     1     181.638 184.010 173.030  1.00  0.00     0.111 A 
ATOM      9  C   UNL     1     183.944 184.125 173.835  1.00  0.00     0.094 A 
ATOM     10  C   UNL     1     182.014 184.820 171.916  1.00  0.00     0.134 A 
ATOM     11  C   UNL     1     184.285 184.969 172.780  1.00  0.00     0.123 A 
ATOM     12  C   UNL     1     183.321 185.315 171.830  1.00  0.00     0.093 A 
BRANCH   3  13
ATOM     13  C   UNL     1     180.961 181.510 176.417  1.00  0.00     0.021 A 
ATOM     14  C   UNL     1     181.439 180.190 176.383  1.00  0.00     0.016 A 
ATOM     15  C   UNL     1     181.292 179.357 177.497  1.00  0.00     0.047 A 
ATOM     16  C   UNL     1     180.681 179.840 178.662  1.00  0.00     0.115 A 
ATOM     17  C   UNL     1     180.368 181.994 177.596  1.00  0.00     0.016 A 
ATOM     18  C   UNL     1     180.223 181.159 178.708  1.00  0.00     0.047 A 
BRANCH  16  19
ATOM     19  O   UNL     1     180.529 179.018 179.776  1.00  0.00    -0.508 OA
ATOM     20  H   UNL     1     180.413 178.015 179.685  1.00  0.00     0.293 HD
ENDBRANCH  16  19
ENDBRANCH   3  13
BRANCH  10  21
ATOM     21  O   UNL     1     181.156 185.134 170.858  1.00  0.00    -0.507 OA
ATOM     22  H   UNL     1     181.429 185.154 169.886  1.00  0.00     0.293 HD
ENDBRANCH  10  21
BRANCH  11  23
ATOM     23  O   UNL     1     185.588 185.450 172.679  1.00  0.00    -0.508 OA
ATOM     24  H   UNL     1     186.364 184.979 173.130  1.00  0.00     0.293 HD
ENDBRANCH  11  23
ENDBRANCH   1   2
BRANCH   1  25
ATOM     25  C   UNL     1     178.079 181.129 173.859  1.00  0.00     0.339 C 
ATOM     26  C   UNL     1     176.620 181.594 173.618  1.00  0.00     0.214 C 
ATOM     27  O   UNL     1     178.113 179.855 174.472  1.00  0.00    -0.332 OA
ATOM     28  C   UNL     1     175.674 180.386 173.398  1.00  0.00     0.180 C 
ATOM     29  C   UNL     1     177.727 178.842 173.552  1.00  0.00     0.179 C 
ATOM     30  C   UNL     1     176.416 179.187 172.765  1.00  0.00     0.177 C 
BRANCH  26  31
ATOM     31  O   UNL     1     176.557 182.497 172.541  1.00  0.00    -0.384 OA
ATOM     32  H   UNL     1     176.312 183.389 172.901  1.00  0.00     0.211 HD
ENDBRANCH  26  31
BRANCH  28  33
ATOM     33  O   UNL     1     175.126 179.999 174.634  1.00  0.00    -0.387 OA
ATOM     34  H   UNL     1     175.020 180.824 175.176  1.00  0.00     0.211 HD
ENDBRANCH  28  33
BRANCH  29  35
ATOM     35  C   UNL     1     177.578 177.528 174.336  1.00  0.00     0.191 C 
BRANCH  35  36
ATOM     36  O   UNL     1     176.272 177.027 174.234  1.00  0.00    -0.394 OA
ATOM     37  H   UNL     1     175.930 176.931 175.161  1.00  0.00     0.210 HD
ENDBRANCH  35  36
ENDBRANCH  29  35
BRANCH  30  38
ATOM     38  O   UNL     1     176.746 179.481 171.431  1.00  0.00    -0.387 OA
ATOM     39  H   UNL     1     175.899 179.705 170.964  1.00  0.00     0.211 HD
ENDBRANCH  30  38
ENDBRANCH   1  25
TORSDOF 11
ENDMDL
MODEL 4
REMARK VINA RESULT:    -7.508      3.373      7.394
REMARK INTER + INTRA:         -11.948
REMARK INTER:                 -10.751
REMARK INTRA:                  -1.197
REMARK UNBOUND:                -1.148
REMARK SMILES O=c1c(O[C@H]2O[C@@H](CO)[C@H](O)[C@@H](O)[C@@H]2O)c(-c2ccc(O)cc2)oc2cc(O)cc(O)c12
REMARK SMILES IDX 4 1 3 2 16 3 24 4 2 5 25 6 1 7 32 8 26 9 30 10 27 11 29 12
REMARK SMILES IDX 17 13 18 14 19 15 20 16 23 17 22 18 21 19 31 21 28 23 5 25
REMARK SMILES IDX 14 26 6 27 12 28 7 29 10 30 15 31 13 33 8 35 9 36 11 38
REMARK H PARENT 21 20 31 22 28 24 15 32 13 34 9 37 11 39
REMARK Flexibility Score: inf
ROOT
ATOM      1  O   UNL     1     182.228 178.533 175.052  1.00  0.00    -0.454 OA
ENDROOT
BRANCH   1   2
ATOM      2  C   UNL     1     180.969 177.994 174.703  1.00  0.00     0.214 A 
ATOM      3  C   UNL     1     179.859 178.376 175.481  1.00  0.00     0.180 A 
ATOM      4  O   UNL     1     178.641 177.956 175.164  1.00  0.00    -0.452 OA
ATOM      5  C   UNL     1     180.749 177.109 173.622  1.00  0.00     0.239 A 
ATOM      6  C   UNL     1     178.386 177.169 174.129  1.00  0.00     0.146 A 
ATOM      7  O   UNL     1     181.727 176.623 173.004  1.00  0.00    -0.285 OA
ATOM      8  C   UNL     1     179.429 176.734 173.274  1.00  0.00     0.111 A 
ATOM      9  C   UNL     1     177.067 176.768 173.905  1.00  0.00     0.094 A 
ATOM     10  C   UNL     1     179.090 175.924 172.149  1.00  0.00     0.134 A 
ATOM     11  C   UNL     1     176.756 175.924 172.842  1.00  0.00     0.123 A 
ATOM     12  C   UNL     1     177.765 175.503 171.973  1.00  0.00     0.093 A 
BRANCH   3  13
ATOM     13  C   UNL     1     180.000 179.260 176.661  1.00  0.00     0.021 A 
ATOM     14  C   UNL     1     179.410 180.534 176.645  1.00  0.00     0.016 A 
ATOM     15  C   UNL     1     179.520 181.377 177.756  1.00  0.00     0.047 A 
ATOM     16  C   UNL     1     180.208 180.949 178.900  1.00  0.00     0.115 A 
ATOM     17  C   UNL     1     180.670 178.829 177.819  1.00  0.00     0.016 A 
ATOM     18  C   UNL     1     180.779 179.674 178.928  1.00  0.00     0.047 A 
BRANCH  16  19
ATOM     19  O   UNL     1     180.325 181.782 180.010  1.00  0.00    -0.508 OA
ATOM     20  H   UNL     1     180.749 181.460 180.872  1.00  0.00     0.293 HD
ENDBRANCH  16  19
ENDBRANCH   3  13
BRANCH  10  21
ATOM     21  O   UNL     1     180.003 175.539 171.163  1.00  0.00    -0.507 OA
ATOM     22  H   UNL     1     180.586 174.717 171.212  1.00  0.00     0.293 HD
ENDBRANCH  10  21
BRANCH  11  23
ATOM     23  O   UNL     1     175.438 175.516 172.651  1.00  0.00    -0.508 OA
ATOM     24  H   UNL     1     174.989 175.582 171.745  1.00  0.00     0.293 HD
ENDBRANCH  11  23
ENDBRANCH   1   2
BRANCH   1  25
ATOM     25  C   UNL     1     183.007 179.544 174.400  1.00  0.00     0.339 C 
ATOM     26  C   UNL     1     182.128 180.476 173.527  1.00  0.00     0.214 C 
ATOM     27  O   UNL     1     184.040 178.956 173.635  1.00  0.00    -0.332 OA
ATOM     28  C   UNL     1     182.946 181.095 172.365  1.00  0.00     0.180 C 
ATOM     29  C   UNL     1     185.033 179.917 173.305  1.00  0.00     0.179 C 
ATOM     30  C   UNL     1     184.438 181.252 172.737  1.00  0.00     0.177 C 
BRANCH  26  31
ATOM     31  O   UNL     1     181.525 181.473 174.317  1.00  0.00    -0.384 OA
ATOM     32  H   UNL     1     182.243 182.050 174.686  1.00  0.00     0.211 HD
ENDBRANCH  26  31
BRANCH  28  33
ATOM     33  O   UNL     1     182.831 180.270 171.231  1.00  0.00    -0.387 OA
ATOM     34  H   UNL     1     181.875 180.283 170.959  1.00  0.00     0.211 HD
ENDBRANCH  28  33
BRANCH  29  35
ATOM     35  C   UNL     1     186.002 179.268 172.302  1.00  0.00     0.191 C 
BRANCH  35  36
ATOM     36  O   UNL     1     185.617 177.952 172.010  1.00  0.00    -0.394 OA
ATOM     37  H   UNL     1     186.211 177.637 171.280  1.00  0.00     0.210 HD
ENDBRANCH  35  36
ENDBRANCH  29  35
BRANCH  30  38
ATOM     38  O   UNL     1     184.585 182.265 173.700  1.00  0.00    -0.387 OA
ATOM     39  H   UNL     1     185.557 182.439 173.796  1.00  0.00     0.211 HD
ENDBRANCH  30  38
ENDBRANCH   1  25
TORSDOF 11
ENDMDL
MODEL 5
REMARK VINA RESULT:    -7.364      2.366      5.807
REMARK INTER + INTRA:         -11.741
REMARK INTER:                 -10.306
REMARK INTRA:                  -1.434
REMARK UNBOUND:                -1.148
REMARK SMILES O=c1c(O[C@H]2O[C@@H](CO)[C@H](O)[C@@H](O)[C@@H]2O)c(-c2ccc(O)cc2)oc2cc(O)cc(O)c12
REMARK SMILES IDX 4 1 3 2 16 3 24 4 2 5 25 6 1 7 32 8 26 9 30 10 27 11 29 12
REMARK SMILES IDX 17 13 18 14 19 15 20 16 23 17 22 18 21 19 31 21 28 23 5 25
REMARK SMILES IDX 14 26 6 27 12 28 7 29 10 30 15 31 13 33 8 35 9 36 11 38
REMARK H PARENT 21 20 31 22 28 24 15 32 13 34 9 37 11 39
REMARK Flexibility Score: inf
ROOT
ATOM      1  O   UNL     1     181.226 182.281 174.923  1.00  0.00    -0.454 OA
ENDROOT
BRANCH   1   2
ATOM      2  C   UNL     1     179.944 182.028 174.384  1.00  0.00     0.214 A 
ATOM      3  C   UNL     1     179.040 181.292 175.174  1.00  0.00     0.180 A 
ATOM      4  O   UNL     1     177.801 181.078 174.750  1.00  0.00    -0.452 OA
ATOM      5  C   UNL     1     179.508 182.473 173.115  1.00  0.00     0.239 A 
ATOM      6  C   UNL     1     177.337 181.522 173.592  1.00  0.00     0.146 A 
ATOM      7  O   UNL     1     180.328 182.994 172.320  1.00  0.00    -0.285 OA
ATOM      8  C   UNL     1     178.160 182.283 172.725  1.00  0.00     0.111 A 
ATOM      9  C   UNL     1     176.021 181.214 173.237  1.00  0.00     0.094 A 
ATOM     10  C   UNL     1     177.594 182.773 171.509  1.00  0.00     0.134 A 
ATOM     11  C   UNL     1     175.499 181.643 172.019  1.00  0.00     0.123 A 
ATOM     12  C   UNL     1     176.286 182.415 171.161  1.00  0.00     0.093 A 
BRANCH   3  13
ATOM     13  C   UNL     1     179.423 180.744 176.495  1.00  0.00     0.021 A 
ATOM     14  C   UNL     1     179.993 179.462 176.573  1.00  0.00     0.016 A 
ATOM     15  C   UNL     1     180.375 178.934 177.811  1.00  0.00     0.047 A 
ATOM     16  C   UNL     1     180.206 179.687 178.980  1.00  0.00     0.115 A 
ATOM     17  C   UNL     1     179.276 181.501 177.670  1.00  0.00     0.016 A 
ATOM     18  C   UNL     1     179.659 180.970 178.905  1.00  0.00     0.047 A 
BRANCH  16  19
ATOM     19  O   UNL     1     180.582 179.169 180.218  1.00  0.00    -0.508 OA
ATOM     20  H   UNL     1     181.393 179.518 180.715  1.00  0.00     0.293 HD
ENDBRANCH  16  19
ENDBRANCH   3  13
BRANCH  10  21
ATOM     21  O   UNL     1     178.258 183.640 170.635  1.00  0.00    -0.507 OA
ATOM     22  H   UNL     1     178.914 183.346 169.927  1.00  0.00     0.293 HD
ENDBRANCH  10  21
BRANCH  11  23
ATOM     23  O   UNL     1     174.193 181.304 171.674  1.00  0.00    -0.508 OA
ATOM     24  H   UNL     1     173.915 180.340 171.534  1.00  0.00     0.293 HD
ENDBRANCH  11  23
ENDBRANCH   1   2
BRANCH   1  25
ATOM     25  C   UNL     1     182.462 181.588 174.712  1.00  0.00     0.339 C 
ATOM     26  C   UNL     1     183.437 182.402 173.824  1.00  0.00     0.214 C 
ATOM     27  O   UNL     1     182.224 180.306 174.164  1.00  0.00    -0.332 OA
ATOM     28  C   UNL     1     184.421 181.472 173.069  1.00  0.00     0.180 C 
ATOM     29  C   UNL     1     183.368 179.476 174.307  1.00  0.00     0.179 C 
ATOM     30  C   UNL     1     184.699 180.173 173.860  1.00  0.00     0.177 C 
BRANCH  26  31
ATOM     31  O   UNL     1     184.125 183.361 174.590  1.00  0.00    -0.384 OA
ATOM     32  H   UNL     1     183.470 184.044 174.889  1.00  0.00     0.211 HD
ENDBRANCH  26  31
BRANCH  28  33
ATOM     33  O   UNL     1     183.877 181.148 171.813  1.00  0.00    -0.387 OA
ATOM     34  H   UNL     1     183.809 180.158 171.773  1.00  0.00     0.211 HD
ENDBRANCH  28  33
BRANCH  29  35
ATOM     35  C   UNL     1     183.118 178.187 173.506  1.00  0.00     0.191 C 
BRANCH  35  36
ATOM     36  O   UNL     1     184.136 177.974 172.565  1.00  0.00    -0.394 OA
ATOM     37  H   UNL     1     184.857 177.477 173.033  1.00  0.00     0.210 HD
ENDBRANCH  35  36
ENDBRANCH  29  35
BRANCH  30  38
ATOM     38  O   UNL     1     185.469 180.464 174.999  1.00  0.00    -0.387 OA
ATOM     39  H   UNL     1     185.546 179.624 175.522  1.00  0.00     0.211 HD
ENDBRANCH  30  38
ENDBRANCH   1  25
TORSDOF 11
ENDMDL
MODEL 6
REMARK VINA RESULT:    -7.303      3.106      4.149
REMARK INTER + INTRA:         -11.652
REMARK INTER:                 -10.301
REMARK INTRA:                  -1.352
REMARK UNBOUND:                -1.148
REMARK SMILES O=c1c(O[C@H]2O[C@@H](CO)[C@H](O)[C@@H](O)[C@@H]2O)c(-c2ccc(O)cc2)oc2cc(O)cc(O)c12
REMARK SMILES IDX 4 1 3 2 16 3 24 4 2 5 25 6 1 7 32 8 26 9 30 10 27 11 29 12
REMARK SMILES IDX 17 13 18 14 19 15 20 16 23 17 22 18 21 19 31 21 28 23 5 25
REMARK SMILES IDX 14 26 6 27 12 28 7 29 10 30 15 31 13 33 8 35 9 36 11 38
REMARK H PARENT 21 20 31 22 28 24 15 32 13 34 9 37 11 39
REMARK Flexibility Score: inf
ROOT
ATOM      1  O   UNL     1     179.527 178.337 174.860  1.00  0.00    -0.454 OA
ENDROOT
BRANCH   1   2
ATOM      2  C   UNL     1     180.803 178.582 174.302  1.00  0.00     0.214 A 
ATOM      3  C   UNL     1     181.705 179.357 175.058  1.00  0.00     0.180 A 
ATOM      4  O   UNL     1     182.939 179.566 174.618  1.00  0.00    -0.452 OA
ATOM      5  C   UNL     1     181.236 178.094 173.048  1.00  0.00     0.239 A 
ATOM      6  C   UNL     1     183.399 179.084 173.474  1.00  0.00     0.146 A 
ATOM      7  O   UNL     1     180.416 177.536 172.278  1.00  0.00    -0.285 OA
ATOM      8  C   UNL     1     182.578 178.284 172.641  1.00  0.00     0.111 A 
ATOM      9  C   UNL     1     184.710 179.391 173.100  1.00  0.00     0.094 A 
ATOM     10  C   UNL     1     183.142 177.753 171.442  1.00  0.00     0.134 A 
ATOM     11  C   UNL     1     185.228 178.923 171.894  1.00  0.00     0.123 A 
ATOM     12  C   UNL     1     184.444 178.111 171.071  1.00  0.00     0.093 A 
BRANCH   3  13
ATOM     13  C   UNL     1     181.324 179.950 176.360  1.00  0.00     0.021 A 
ATOM     14  C   UNL     1     180.761 181.236 176.396  1.00  0.00     0.016 A 
ATOM     15  C   UNL     1     180.382 181.807 177.615  1.00  0.00     0.047 A 
ATOM     16  C   UNL     1     180.547 181.092 178.809  1.00  0.00     0.115 A 
ATOM     17  C   UNL     1     181.468 179.231 177.560  1.00  0.00     0.016 A 
ATOM     18  C   UNL     1     181.088 179.804 178.777  1.00  0.00     0.047 A 
BRANCH  16  19
ATOM     19  O   UNL     1     180.174 181.652 180.029  1.00  0.00    -0.508 OA
ATOM     20  H   UNL     1     179.432 182.339 180.093  1.00  0.00     0.293 HD
ENDBRANCH  16  19
ENDBRANCH   3  13
BRANCH  10  21
ATOM     21  O   UNL     1     182.481 176.848 170.605  1.00  0.00    -0.507 OA
ATOM     22  H   UNL     1     181.654 177.064 170.068  1.00  0.00     0.293 HD
ENDBRANCH  10  21
BRANCH  11  23
ATOM     23  O   UNL     1     186.529 179.261 171.528  1.00  0.00    -0.508 OA
ATOM     24  H   UNL     1     187.318 179.065 172.134  1.00  0.00     0.293 HD
ENDBRANCH  11  23
ENDBRANCH   1   2
BRANCH   1  25
ATOM     25  C   UNL     1     178.282 179.009 174.630  1.00  0.00     0.339 C 
ATOM     26  C   UNL     1     177.301 178.141 173.800  1.00  0.00     0.214 C 
ATOM     27  O   UNL     1     178.502 180.261 174.011  1.00  0.00    -0.332 OA
ATOM     28  C   UNL     1     176.299 179.022 173.012  1.00  0.00     0.180 C 
ATOM     29  C   UNL     1     177.353 181.089 174.126  1.00  0.00     0.179 C 
ATOM     30  C   UNL     1     176.022 180.359 173.736  1.00  0.00     0.177 C 
BRANCH  26  31
ATOM     31  O   UNL     1     176.633 177.219 174.627  1.00  0.00    -0.384 OA
ATOM     32  H   UNL     1     176.942 177.359 175.559  1.00  0.00     0.211 HD
ENDBRANCH  26  31
BRANCH  28  33
ATOM     33  O   UNL     1     176.823 179.282 171.733  1.00  0.00    -0.387 OA
ATOM     34  H   UNL     1     176.068 179.212 171.090  1.00  0.00     0.211 HD
ENDBRANCH  28  33
BRANCH  29  35
ATOM     35  C   UNL     1     177.581 182.335 173.253  1.00  0.00     0.191 C 
BRANCH  35  36
ATOM     36  O   UNL     1     176.380 182.772 172.676  1.00  0.00    -0.394 OA
ATOM     37  H   UNL     1     175.839 183.166 173.408  1.00  0.00     0.210 HD
ENDBRANCH  35  36
ENDBRANCH  29  35
BRANCH  30  38
ATOM     38  O   UNL     1     175.271 180.123 174.900  1.00  0.00    -0.387 OA
ATOM     39  H   UNL     1     174.905 180.998 175.194  1.00  0.00     0.211 HD
ENDBRANCH  30  38
ENDBRANCH   1  25
TORSDOF 11
ENDMDL
MODEL 7
REMARK VINA RESULT:    -7.295      2.438      4.306
REMARK INTER + INTRA:         -11.641
REMARK INTER:                 -10.370
REMARK INTRA:                  -1.271
REMARK UNBOUND:                -1.148
REMARK SMILES O=c1c(O[C@H]2O[C@@H](CO)[C@H](O)[C@@H](O)[C@@H]2O)c(-c2ccc(O)cc2)oc2cc(O)cc(O)c12
REMARK SMILES IDX 4 1 3 2 16 3 24 4 2 5 25 6 1 7 32 8 26 9 30 10 27 11 29 12
REMARK SMILES IDX 17 13 18 14 19 15 20 16 23 17 22 18 21 19 31 21 28 23 5 25
REMARK SMILES IDX 14 26 6 27 12 28 7 29 10 30 15 31 13 33 8 35 9 36 11 38
REMARK H PARENT 21 20 31 22 28 24 15 32 13 34 9 37 11 39
REMARK Flexibility Score: inf
ROOT
ATOM      1  O   UNL     1     178.005 179.614 174.668  1.00  0.00    -0.454 OA
ENDROOT
BRANCH   1   2
ATOM      2  C   UNL     1     178.264 180.948 174.276  1.00  0.00     0.214 A 
ATOM      3  C   UNL     1     179.153 181.699 175.069  1.00  0.00     0.180 A 
ATOM      4  O   UNL     1     179.486 182.934 174.717  1.00  0.00    -0.452 OA
ATOM      5  C   UNL     1     177.699 181.572 173.139  1.00  0.00     0.239 A 
ATOM      6  C   UNL     1     179.021 183.535 173.633  1.00  0.00     0.146 A 
ATOM      7  O   UNL     1     176.787 180.995 172.499  1.00  0.00    -0.285 OA
ATOM      8  C   UNL     1     178.127 182.867 172.760  1.00  0.00     0.111 A 
ATOM      9  C   UNL     1     179.421 184.849 173.376  1.00  0.00     0.094 A 
ATOM     10  C   UNL     1     177.693 183.548 171.583  1.00  0.00     0.134 A 
ATOM     11  C   UNL     1     178.939 185.528 172.258  1.00  0.00     0.123 A 
ATOM     12  C   UNL     1     178.077 184.879 171.371  1.00  0.00     0.093 A 
BRANCH   3  13
ATOM     13  C   UNL     1     179.755 181.145 176.304  1.00  0.00     0.021 A 
ATOM     14  C   UNL     1     179.137 181.385 177.542  1.00  0.00     0.016 A 
ATOM     15  C   UNL     1     179.683 180.858 178.717  1.00  0.00     0.047 A 
ATOM     16  C   UNL     1     180.843 180.074 178.665  1.00  0.00     0.115 A 
ATOM     17  C   UNL     1     180.907 180.340 176.257  1.00  0.00     0.016 A 
ATOM     18  C   UNL     1     181.450 179.815 177.434  1.00  0.00     0.047 A 
BRANCH  16  19
ATOM     19  O   UNL     1     181.396 179.546 179.830  1.00  0.00    -0.508 OA
ATOM     20  H   UNL     1     181.364 178.553 180.030  1.00  0.00     0.293 HD
ENDBRANCH  16  19
ENDBRANCH   3  13
BRANCH  10  21
ATOM     21  O   UNL     1     176.919 182.955 170.580  1.00  0.00    -0.507 OA
ATOM     22  H   UNL     1     177.003 183.160 169.596  1.00  0.00     0.293 HD
ENDBRANCH  10  21
BRANCH  11  23
ATOM     23  O   UNL     1     179.331 186.845 172.033  1.00  0.00    -0.508 OA
ATOM     24  H   UNL     1     179.975 187.086 171.289  1.00  0.00     0.293 HD
ENDBRANCH  11  23
ENDBRANCH   1   2
BRANCH   1  25
ATOM     25  C   UNL     1     178.311 178.386 173.997  1.00  0.00     0.339 C 
ATOM     26  C   UNL     1     177.461 177.207 174.534  1.00  0.00     0.214 C 
ATOM     27  O   UNL     1     179.693 178.101 174.090  1.00  0.00    -0.332 OA
ATOM     28  C   UNL     1     178.187 175.852 174.335  1.00  0.00     0.180 C 
ATOM     29  C   UNL     1     180.073 177.125 173.130  1.00  0.00     0.179 C 
ATOM     30  C   UNL     1     179.120 175.881 173.102  1.00  0.00     0.177 C 
BRANCH  26  31
ATOM     31  O   UNL     1     176.187 177.198 173.935  1.00  0.00    -0.384 OA
ATOM     32  H   UNL     1     176.247 176.681 173.091  1.00  0.00     0.211 HD
ENDBRANCH  26  31
BRANCH  28  33
ATOM     33  O   UNL     1     178.941 175.560 175.486  1.00  0.00    -0.387 OA
ATOM     34  H   UNL     1     178.932 176.375 176.053  1.00  0.00     0.211 HD
ENDBRANCH  28  33
BRANCH  29  35
ATOM     35  C   UNL     1     181.522 176.709 173.430  1.00  0.00     0.191 C 
BRANCH  35  36
ATOM     36  O   UNL     1     181.602 175.342 173.732  1.00  0.00    -0.394 OA
ATOM     37  H   UNL     1     182.468 175.202 174.195  1.00  0.00     0.210 HD
ENDBRANCH  35  36
ENDBRANCH  29  35
BRANCH  30  38
ATOM     38  O   UNL     1     178.352 175.918 171.925  1.00  0.00    -0.387 OA
ATOM     39  H   UNL     1     177.680 175.191 171.992  1.00  0.00     0.211 HD
ENDBRANCH  30  38
ENDBRANCH   1  25
TORSDOF 11
ENDMDL
MODEL 8
REMARK VINA RESULT:    -7.293      3.302      6.215
REMARK INTER + INTRA:         -11.637
REMARK INTER:                 -10.338
REMARK INTRA:                  -1.299
REMARK UNBOUND:                -1.148
REMARK SMILES O=c1c(O[C@H]2O[C@@H](CO)[C@H](O)[C@@H](O)[C@@H]2O)c(-c2ccc(O)cc2)oc2cc(O)cc(O)c12
REMARK SMILES IDX 4 1 3 2 16 3 24 4 2 5 25 6 1 7 32 8 26 9 30 10 27 11 29 12
REMARK SMILES IDX 17 13 18 14 19 15 20 16 23 17 22 18 21 19 31 21 28 23 5 25
REMARK SMILES IDX 14 26 6 27 12 28 7 29 10 30 15 31 13 33 8 35 9 36 11 38
REMARK H PARENT 21 20 31 22 28 24 15 32 13 34 9 37 11 39
REMARK Flexibility Score: inf
ROOT
ATOM      1  O   UNL     1     182.744 181.126 174.647  1.00  0.00    -0.454 OA
ENDROOT
BRANCH   1   2
ATOM      2  C   UNL     1     182.492 179.788 174.265  1.00  0.00     0.214 A 
ATOM      3  C   UNL     1     181.584 179.048 175.047  1.00  0.00     0.180 A 
ATOM      4  O   UNL     1     181.258 177.809 174.701  1.00  0.00    -0.452 OA
ATOM      5  C   UNL     1     183.081 179.150 173.148  1.00  0.00     0.239 A 
ATOM      6  C   UNL     1     181.747 177.195 173.634  1.00  0.00     0.146 A 
ATOM      7  O   UNL     1     184.008 179.719 172.522  1.00  0.00    -0.285 OA
ATOM      8  C   UNL     1     182.660 177.852 172.774  1.00  0.00     0.111 A 
ATOM      9  C   UNL     1     181.350 175.879 173.383  1.00  0.00     0.094 A 
ATOM     10  C   UNL     1     183.120 177.157 171.614  1.00  0.00     0.134 A 
ATOM     11  C   UNL     1     181.856 175.187 172.284  1.00  0.00     0.123 A 
ATOM     12  C   UNL     1     182.738 175.825 171.410  1.00  0.00     0.093 A 
BRANCH   3  13
ATOM     13  C   UNL     1     180.956 179.616 176.261  1.00  0.00     0.021 A 
ATOM     14  C   UNL     1     181.562 179.415 177.512  1.00  0.00     0.016 A 
ATOM     15  C   UNL     1     180.991 179.956 178.668  1.00  0.00     0.047 A 
ATOM     16  C   UNL     1     179.817 180.716 178.585  1.00  0.00     0.115 A 
ATOM     17  C   UNL     1     179.790 180.397 176.182  1.00  0.00     0.016 A 
ATOM     18  C   UNL     1     179.222 180.937 177.340  1.00  0.00     0.047 A 
BRANCH  16  19
ATOM     19  O   UNL     1     179.239 181.258 179.731  1.00  0.00    -0.508 OA
ATOM     20  H   UNL     1     179.401 180.857 180.647  1.00  0.00     0.293 HD
ENDBRANCH  16  19
ENDBRANCH   3  13
BRANCH  10  21
ATOM     21  O   UNL     1     183.916 177.738 170.623  1.00  0.00    -0.507 OA
ATOM     22  H   UNL     1     184.904 177.565 170.508  1.00  0.00     0.293 HD
ENDBRANCH  10  21
BRANCH  11  23
ATOM     23  O   UNL     1     181.467 173.867 172.065  1.00  0.00    -0.508 OA
ATOM     24  H   UNL     1     180.490 173.609 171.986  1.00  0.00     0.293 HD
ENDBRANCH  11  23
ENDBRANCH   1   2
BRANCH   1  25
ATOM     25  C   UNL     1     182.439 182.348 173.964  1.00  0.00     0.339 C 
ATOM     26  C   UNL     1     183.274 183.537 174.506  1.00  0.00     0.214 C 
ATOM     27  O   UNL     1     181.054 182.623 174.036  1.00  0.00    -0.332 OA
ATOM     28  C   UNL     1     182.541 184.884 174.287  1.00  0.00     0.180 C 
ATOM     29  C   UNL     1     180.681 183.591 173.065  1.00  0.00     0.179 C 
ATOM     30  C   UNL     1     181.626 184.841 173.042  1.00  0.00     0.177 C 
BRANCH  26  31
ATOM     31  O   UNL     1     184.555 183.550 173.924  1.00  0.00    -0.384 OA
ATOM     32  H   UNL     1     184.523 183.008 173.094  1.00  0.00     0.211 HD
ENDBRANCH  26  31
BRANCH  28  33
ATOM     33  O   UNL     1     181.768 185.178 175.425  1.00  0.00    -0.387 OA
ATOM     34  H   UNL     1     181.285 186.025 175.237  1.00  0.00     0.211 HD
ENDBRANCH  28  33
BRANCH  29  35
ATOM     35  C   UNL     1     179.224 183.998 173.342  1.00  0.00     0.191 C 
BRANCH  35  36
ATOM     36  O   UNL     1     179.142 185.345 173.725  1.00  0.00    -0.394 OA
ATOM     37  H   UNL     1     178.183 185.537 173.888  1.00  0.00     0.210 HD
ENDBRANCH  35  36
ENDBRANCH  29  35
BRANCH  30  38
ATOM     38  O   UNL     1     182.410 184.802 171.876  1.00  0.00    -0.387 OA
ATOM     39  H   UNL     1     183.249 184.324 172.105  1.00  0.00     0.211 HD
ENDBRANCH  30  38
ENDBRANCH   1  25
TORSDOF 11
ENDMDL
MODEL 9
REMARK VINA RESULT:    -7.172      3.237      6.409
REMARK INTER + INTRA:         -11.464
REMARK INTER:                 -10.337
REMARK INTRA:                  -1.127
REMARK UNBOUND:                -1.148
REMARK SMILES O=c1c(O[C@H]2O[C@@H](CO)[C@H](O)[C@@H](O)[C@@H]2O)c(-c2ccc(O)cc2)oc2cc(O)cc(O)c12
REMARK SMILES IDX 4 1 3 2 16 3 24 4 2 5 25 6 1 7 32 8 26 9 30 10 27 11 29 12
REMARK SMILES IDX 17 13 18 14 19 15 20 16 23 17 22 18 21 19 31 21 28 23 5 25
REMARK SMILES IDX 14 26 6 27 12 28 7 29 10 30 15 31 13 33 8 35 9 36 11 38
REMARK H PARENT 21 20 31 22 28 24 15 32 13 34 9 37 11 39
REMARK Flexibility Score: inf
ROOT
ATOM      1  O   UNL     1     182.851 181.081 175.048  1.00  0.00    -0.454 OA
ENDROOT
BRANCH   1   2
ATOM      2  C   UNL     1     182.564 179.772 174.594  1.00  0.00     0.214 A 
ATOM      3  C   UNL     1     181.645 179.011 175.342  1.00  0.00     0.180 A 
ATOM      4  O   UNL     1     181.286 177.802 174.932  1.00  0.00    -0.452 OA
ATOM      5  C   UNL     1     183.128 179.184 173.438  1.00  0.00     0.239 A 
ATOM      6  C   UNL     1     181.751 177.237 173.828  1.00  0.00     0.146 A 
ATOM      7  O   UNL     1     184.064 179.765 172.835  1.00  0.00    -0.285 OA
ATOM      8  C   UNL     1     182.673 177.919 172.996  1.00  0.00     0.111 A 
ATOM      9  C   UNL     1     181.321 175.946 173.508  1.00  0.00     0.094 A 
ATOM     10  C   UNL     1     183.106 177.279 171.796  1.00  0.00     0.134 A 
ATOM     11  C   UNL     1     181.801 175.305 172.368  1.00  0.00     0.123 A 
ATOM     12  C   UNL     1     182.691 175.970 171.521  1.00  0.00     0.093 A 
BRANCH   3  13
ATOM     13  C   UNL     1     181.040 179.526 176.592  1.00  0.00     0.021 A 
ATOM     14  C   UNL     1     181.635 179.216 177.826  1.00  0.00     0.016 A 
ATOM     15  C   UNL     1     181.086 179.705 179.017  1.00  0.00     0.047 A 
ATOM     16  C   UNL     1     179.947 180.521 178.985  1.00  0.00     0.115 A 
ATOM     17  C   UNL     1     179.910 180.362 176.566  1.00  0.00     0.016 A 
ATOM     18  C   UNL     1     179.364 180.849 177.758  1.00  0.00     0.047 A 
BRANCH  16  19
ATOM     19  O   UNL     1     179.392 181.011 180.165  1.00  0.00    -0.508 OA
ATOM     20  H   UNL     1     178.944 181.919 180.203  1.00  0.00     0.293 HD
ENDBRANCH  16  19
ENDBRANCH   3  13
BRANCH  10  21
ATOM     21  O   UNL     1     183.908 177.895 170.831  1.00  0.00    -0.507 OA
ATOM     22  H   UNL     1     184.088 177.520 169.911  1.00  0.00     0.293 HD
ENDBRANCH  10  21
BRANCH  11  23
ATOM     23  O   UNL     1     181.379 174.009 172.080  1.00  0.00    -0.508 OA
ATOM     24  H   UNL     1     181.704 173.214 172.617  1.00  0.00     0.293 HD
ENDBRANCH  11  23
ENDBRANCH   1   2
BRANCH   1  25
ATOM     25  C   UNL     1     182.487 182.347 174.485  1.00  0.00     0.339 C 
ATOM     26  C   UNL     1     181.465 182.193 173.329  1.00  0.00     0.214 C 
ATOM     27  O   UNL     1     183.638 183.048 174.057  1.00  0.00    -0.332 OA
ATOM     28  C   UNL     1     181.565 183.373 172.329  1.00  0.00     0.180 C 
ATOM     29  C   UNL     1     183.346 184.425 173.861  1.00  0.00     0.179 C 
ATOM     30  C   UNL     1     182.046 184.669 173.021  1.00  0.00     0.177 C 
BRANCH  26  31
ATOM     31  O   UNL     1     180.158 182.061 173.835  1.00  0.00    -0.384 OA
ATOM     32  H   UNL     1     179.596 182.769 173.427  1.00  0.00     0.211 HD
ENDBRANCH  26  31
BRANCH  28  33
ATOM     33  O   UNL     1     182.463 183.030 171.302  1.00  0.00    -0.387 OA
ATOM     34  H   UNL     1     183.270 183.597 171.421  1.00  0.00     0.211 HD
ENDBRANCH  28  33
BRANCH  29  35
ATOM     35  C   UNL     1     184.570 185.075 173.195  1.00  0.00     0.191 C 
BRANCH  35  36
ATOM     36  O   UNL     1     184.193 186.184 172.423  1.00  0.00    -0.394 OA
ATOM     37  H   UNL     1     183.221 186.316 172.570  1.00  0.00     0.210 HD
ENDBRANCH  35  36
ENDBRANCH  29  35
BRANCH  30  38
ATOM     38  O   UNL     1     181.037 185.158 173.869  1.00  0.00    -0.387 OA
ATOM     39  H   UNL     1     181.058 184.608 174.695  1.00  0.00     0.211 HD
ENDBRANCH  30  38
ENDBRANCH   1  25
TORSDOF 11
ENDMDL
