MODEL 1
REMARK VINA RESULT:    -2.638      0.000      0.000
REMARK INTER + INTRA:          -5.610
REMARK INTER:                  -4.181
REMARK INTRA:                  -1.430
REMARK UNBOUND:                -1.430
REMARK SMILES CCCCCCCCCCCC(=O)[O-]
REMARK SMILES IDX 7 1 8 2 9 3 10 4 11 5 12 6 13 7 14 8 6 9 5 10 4 11 3 12 2 13
REMARK SMILES IDX 1 14
REMARK H PARENT
REMARK Flexibility Score: inf
ROOT
ATOM      1  C   UNL     1     -23.641  29.638 -21.789  1.00  0.00     0.000 C 
ENDROOT
BRANCH   1   2
ATOM      2  C   UNL     1     -23.502  28.120 -21.986  1.00  0.00     0.000 C 
BRANCH   2   3
ATOM      3  C   UNL     1     -22.082  27.651 -21.647  1.00  0.00     0.000 C 
BRANCH   3   4
ATOM      4  C   UNL     1     -21.255  28.793 -21.037  1.00  0.00     0.006 C 
BRANCH   4   5
ATOM      5  C   UNL     1     -20.216  28.285 -20.030  1.00  0.00     0.053 C 
BRANCH   5   6
ATOM      6  C   UNL     1     -18.825  28.694 -20.410  1.00  0.00     0.041 C 
ATOM      7  O   UNL     1     -17.839  28.267 -19.755  1.00  0.00    -0.550 OA
ATOM      8  O   UNL     1     -18.618  29.519 -21.509  1.00  0.00    -0.550 OA
ENDBRANCH   5   6
ENDBRANCH   4   5
ENDBRANCH   3   4
ENDBRANCH   2   3
ENDBRANCH   1   2
BRANCH   1   9
ATOM      9  C   UNL     1     -24.910  30.017 -21.010  1.00  0.00     0.000 C 
BRANCH   9  10
ATOM     10  C   UNL     1     -25.008  29.298 -19.653  1.00  0.00    -0.000 C 
BRANCH  10  11
ATOM     11  C   UNL     1     -24.282  30.055 -18.529  1.00  0.00    -0.000 C 
BRANCH  11  12
ATOM     12  C   UNL     1     -23.266  29.175 -17.785  1.00  0.00    -0.000 C 
BRANCH  12  13
ATOM     13  C   UNL     1     -23.434  27.701 -18.170  1.00  0.00    -0.003 C 
ATOM     14  C   UNL     1     -23.543  26.816 -16.932  1.00  0.00     0.004 C 
ENDBRANCH  12  13
ENDBRANCH  11  12
ENDBRANCH  10  11
ENDBRANCH   9  10
ENDBRANCH   1   9
TORSDOF 10
ENDMDL
MODEL 2
REMARK VINA RESULT:    -2.578      1.266      3.150
REMARK INTER + INTRA:          -5.515
REMARK INTER:                  -4.351
REMARK INTRA:                  -1.165
REMARK UNBOUND:                -1.430
REMARK SMILES CCCCCCCCCCCC(=O)[O-]
REMARK SMILES IDX 7 1 8 2 9 3 10 4 11 5 12 6 13 7 14 8 6 9 5 10 4 11 3 12 2 13
REMARK SMILES IDX 1 14
REMARK H PARENT
REMARK Flexibility Score: inf
ROOT
ATOM      1  C   UNL     1     -22.534  28.324 -18.367  1.00  0.00     0.000 C 
ENDROOT
BRANCH   1   2
ATOM      2  C   UNL     1     -21.150  28.795 -18.840  1.00  0.00     0.000 C 
BRANCH   2   3
ATOM      3  C   UNL     1     -20.591  27.860 -19.918  1.00  0.00     0.000 C 
BRANCH   3   4
ATOM      4  C   UNL     1     -19.893  28.656 -21.031  1.00  0.00     0.006 C 
BRANCH   4   5
ATOM      5  C   UNL     1     -18.366  28.520 -20.973  1.00  0.00     0.053 C 
BRANCH   5   6
ATOM      6  C   UNL     1     -17.682  29.839 -21.166  1.00  0.00     0.041 C 
ATOM      7  O   UNL     1     -17.065  30.081 -22.237  1.00  0.00    -0.550 OA
ATOM      8  O   UNL     1     -17.754  30.812 -20.178  1.00  0.00    -0.550 OA
ENDBRANCH   5   6
ENDBRANCH   4   5
ENDBRANCH   3   4
ENDBRANCH   2   3
ENDBRANCH   1   2
BRANCH   1   9
ATOM      9  C   UNL     1     -23.298  29.414 -17.599  1.00  0.00     0.000 C 
BRANCH   9  10
ATOM     10  C   UNL     1     -24.385  30.089 -18.454  1.00  0.00    -0.000 C 
BRANCH  10  11
ATOM     11  C   UNL     1     -24.735  29.277 -19.712  1.00  0.00    -0.000 C 
BRANCH  11  12
ATOM     12  C   UNL     1     -24.616  30.106 -21.001  1.00  0.00    -0.000 C 
BRANCH  12  13
ATOM     13  C   UNL     1     -23.414  29.649 -21.835  1.00  0.00    -0.003 C 
ATOM     14  C   UNL     1     -23.542  28.180 -22.229  1.00  0.00     0.004 C 
ENDBRANCH  12  13
ENDBRANCH  11  12
ENDBRANCH  10  11
ENDBRANCH   9  10
ENDBRANCH   1   9
TORSDOF 10
ENDMDL
MODEL 3
REMARK VINA RESULT:    -2.458     14.078     15.780
REMARK INTER + INTRA:          -5.324
REMARK INTER:                  -4.042
REMARK INTRA:                  -1.282
REMARK UNBOUND:                -1.430
REMARK SMILES CCCCCCCCCCCC(=O)[O-]
REMARK SMILES IDX 7 1 8 2 9 3 10 4 11 5 12 6 13 7 14 8 6 9 5 10 4 11 3 12 2 13
REMARK SMILES IDX 1 14
REMARK H PARENT
REMARK Flexibility Score: inf
ROOT
ATOM      1  C   UNL     1     -18.815  13.947 -22.057  1.00  0.00     0.000 C 
ENDROOT
BRANCH   1   2
ATOM      2  C   UNL     1     -18.813  15.372 -21.481  1.00  0.00     0.000 C 
BRANCH   2   3
ATOM      3  C   UNL     1     -20.097  15.645 -20.689  1.00  0.00     0.000 C 
BRANCH   3   4
ATOM      4  C   UNL     1     -20.783  14.332 -20.281  1.00  0.00     0.006 C 
BRANCH   4   5
ATOM      5  C   UNL     1     -21.124  14.295 -18.786  1.00  0.00     0.053 C 
BRANCH   5   6
ATOM      6  C   UNL     1     -20.082  13.565 -17.995  1.00  0.00     0.041 C 
ATOM      7  O   UNL     1     -20.216  13.422 -16.751  1.00  0.00    -0.550 OA
ATOM      8  O   UNL     1     -18.980  13.014 -18.636  1.00  0.00    -0.550 OA
ENDBRANCH   5   6
ENDBRANCH   4   5
ENDBRANCH   3   4
ENDBRANCH   2   3
ENDBRANCH   1   2
BRANCH   1   9
ATOM      9  C   UNL     1     -17.920  13.810 -23.298  1.00  0.00     0.000 C 
BRANCH   9  10
ATOM     10  C   UNL     1     -18.619  13.074 -24.454  1.00  0.00    -0.000 C 
BRANCH  10  11
ATOM     11  C   UNL     1     -19.934  13.750 -24.875  1.00  0.00    -0.000 C 
BRANCH  11  12
ATOM     12  C   UNL     1     -21.144  12.810 -24.761  1.00  0.00    -0.000 C 
BRANCH  12  13
ATOM     13  C   UNL     1     -22.055  13.229 -23.601  1.00  0.00    -0.003 C 
ATOM     14  C   UNL     1     -22.311  14.733 -23.617  1.00  0.00     0.004 C 
ENDBRANCH  12  13
ENDBRANCH  11  12
ENDBRANCH  10  11
ENDBRANCH   9  10
ENDBRANCH   1   9
TORSDOF 10
ENDMDL
MODEL 4
REMARK VINA RESULT:    -2.445      2.199      3.318
REMARK INTER + INTRA:          -5.304
REMARK INTER:                  -3.853
REMARK INTRA:                  -1.451
REMARK UNBOUND:                -1.430
REMARK SMILES CCCCCCCCCCCC(=O)[O-]
REMARK SMILES IDX 7 1 8 2 9 3 10 4 11 5 12 6 13 7 14 8 6 9 5 10 4 11 3 12 2 13
REMARK SMILES IDX 1 14
REMARK H PARENT
REMARK Flexibility Score: inf
ROOT
ATOM      1  C   UNL     1     -22.143  27.580 -21.704  1.00  0.00     0.000 C 
ENDROOT
BRANCH   1   2
ATOM      2  C   UNL     1     -21.352  28.529 -20.790  1.00  0.00     0.000 C 
BRANCH   2   3
ATOM      3  C   UNL     1     -21.260  27.969 -19.366  1.00  0.00     0.000 C 
BRANCH   3   4
ATOM      4  C   UNL     1     -22.204  26.770 -19.184  1.00  0.00     0.006 C 
BRANCH   4   5
ATOM      5  C   UNL     1     -21.549  25.629 -18.397  1.00  0.00     0.053 C 
BRANCH   5   6
ATOM      6  C   UNL     1     -20.547  24.884 -19.226  1.00  0.00     0.041 C 
ATOM      7  O   UNL     1     -20.822  24.560 -20.411  1.00  0.00    -0.550 OA
ATOM      8  O   UNL     1     -19.298  24.577 -18.699  1.00  0.00    -0.550 OA
ENDBRANCH   5   6
ENDBRANCH   4   5
ENDBRANCH   3   4
ENDBRANCH   2   3
ENDBRANCH   1   2
BRANCH   1   9
ATOM      9  C   UNL     1     -23.447  28.210 -22.221  1.00  0.00     0.000 C 
BRANCH   9  10
ATOM     10  C   UNL     1     -23.551  29.709 -21.889  1.00  0.00    -0.000 C 
BRANCH  10  11
ATOM     11  C   UNL     1     -24.828  30.053 -21.105  1.00  0.00    -0.000 C 
BRANCH  11  12
ATOM     12  C   UNL     1     -24.974  29.222 -19.821  1.00  0.00    -0.000 C 
BRANCH  12  13
ATOM     13  C   UNL     1     -24.353  29.952 -18.624  1.00  0.00    -0.003 C 
ATOM     14  C   UNL     1     -24.512  29.141 -17.341  1.00  0.00     0.004 C 
ENDBRANCH  12  13
ENDBRANCH  11  12
ENDBRANCH  10  11
ENDBRANCH   9  10
ENDBRANCH   1   9
TORSDOF 10
ENDMDL
MODEL 5
REMARK VINA RESULT:    -2.393      1.018      3.239
REMARK INTER + INTRA:          -5.222
REMARK INTER:                  -4.010
REMARK INTRA:                  -1.212
REMARK UNBOUND:                -1.430
REMARK SMILES CCCCCCCCCCCC(=O)[O-]
REMARK SMILES IDX 7 1 8 2 9 3 10 4 11 5 12 6 13 7 14 8 6 9 5 10 4 11 3 12 2 13
REMARK SMILES IDX 1 14
REMARK H PARENT
REMARK Flexibility Score: inf
ROOT
ATOM      1  C   UNL     1     -23.317  29.243 -17.768  1.00  0.00     0.000 C 
ENDROOT
BRANCH   1   2
ATOM      2  C   UNL     1     -23.360  27.736 -18.065  1.00  0.00     0.000 C 
BRANCH   2   3
ATOM      3  C   UNL     1     -22.025  27.254 -18.644  1.00  0.00     0.000 C 
BRANCH   3   4
ATOM      4  C   UNL     1     -20.965  28.365 -18.587  1.00  0.00     0.006 C 
BRANCH   4   5
ATOM      5  C   UNL     1     -19.559  27.843 -18.907  1.00  0.00     0.053 C 
BRANCH   5   6
ATOM      6  C   UNL     1     -19.141  28.187 -20.304  1.00  0.00     0.041 C 
ATOM      7  O   UNL     1     -19.909  28.851 -21.049  1.00  0.00    -0.550 OA
ATOM      8  O   UNL     1     -17.890  27.803 -20.771  1.00  0.00    -0.550 OA
ENDBRANCH   5   6
ENDBRANCH   4   5
ENDBRANCH   3   4
ENDBRANCH   2   3
ENDBRANCH   1   2
BRANCH   1   9
ATOM      9  C   UNL     1     -24.380  30.029 -18.553  1.00  0.00     0.000 C 
BRANCH   9  10
ATOM     10  C   UNL     1     -24.918  29.248 -19.765  1.00  0.00    -0.000 C 
BRANCH  10  11
ATOM     11  C   UNL     1     -24.687  29.986 -21.094  1.00  0.00    -0.000 C 
BRANCH  11  12
ATOM     12  C   UNL     1     -23.328  29.649 -21.728  1.00  0.00    -0.000 C 
BRANCH  12  13
ATOM     13  C   UNL     1     -23.213  28.147 -22.009  1.00  0.00    -0.003 C 
ATOM     14  C   UNL     1     -23.695  27.811 -23.417  1.00  0.00     0.004 C 
ENDBRANCH  12  13
ENDBRANCH  11  12
ENDBRANCH  10  11
ENDBRANCH   9  10
ENDBRANCH   1   9
TORSDOF 10
ENDMDL
MODEL 6
REMARK VINA RESULT:    -2.370      3.000      4.115
REMARK INTER + INTRA:          -5.186
REMARK INTER:                  -3.775
REMARK INTRA:                  -1.411
REMARK UNBOUND:                -1.430
REMARK SMILES CCCCCCCCCCCC(=O)[O-]
REMARK SMILES IDX 7 1 8 2 9 3 10 4 11 5 12 6 13 7 14 8 6 9 5 10 4 11 3 12 2 13
REMARK SMILES IDX 1 14
REMARK H PARENT
REMARK Flexibility Score: inf
ROOT
ATOM      1  C   UNL     1     -22.377  27.798 -21.399  1.00  0.00     0.000 C 
ENDROOT
BRANCH   1   2
ATOM      2  C   UNL     1     -21.187  28.536 -20.766  1.00  0.00     0.000 C 
BRANCH   2   3
ATOM      3  C   UNL     1     -21.194  28.380 -19.241  1.00  0.00     0.000 C 
BRANCH   3   4
ATOM      4  C   UNL     1     -21.975  27.126 -18.819  1.00  0.00     0.006 C 
BRANCH   4   5
ATOM      5  C   UNL     1     -22.273  27.107 -17.314  1.00  0.00     0.053 C 
BRANCH   5   6
ATOM      6  C   UNL     1     -23.415  26.194 -16.984  1.00  0.00     0.041 C 
ATOM      7  O   UNL     1     -24.502  26.668 -16.561  1.00  0.00    -0.550 OA
ATOM      8  O   UNL     1     -23.288  24.824 -17.177  1.00  0.00    -0.550 OA
ENDBRANCH   5   6
ENDBRANCH   4   5
ENDBRANCH   3   4
ENDBRANCH   2   3
ENDBRANCH   1   2
BRANCH   1   9
ATOM      9  C   UNL     1     -23.330  28.746 -22.144  1.00  0.00     0.000 C 
BRANCH   9  10
ATOM     10  C   UNL     1     -24.716  28.830 -21.483  1.00  0.00    -0.000 C 
BRANCH  10  11
ATOM     11  C   UNL     1     -24.779  29.895 -20.376  1.00  0.00    -0.000 C 
BRANCH  11  12
ATOM     12  C   UNL     1     -24.887  29.281 -18.971  1.00  0.00    -0.000 C 
BRANCH  12  13
ATOM     13  C   UNL     1     -24.228  30.188 -17.926  1.00  0.00    -0.003 C 
ATOM     14  C   UNL     1     -25.052  30.238 -16.642  1.00  0.00     0.004 C 
ENDBRANCH  12  13
ENDBRANCH  11  12
ENDBRANCH  10  11
ENDBRANCH   9  10
ENDBRANCH   1   9
TORSDOF 10
ENDMDL
MODEL 7
REMARK VINA RESULT:    -2.351      2.833      4.378
REMARK INTER + INTRA:          -5.156
REMARK INTER:                  -3.979
REMARK INTRA:                  -1.176
REMARK UNBOUND:                -1.430
REMARK SMILES CCCCCCCCCCCC(=O)[O-]
REMARK SMILES IDX 7 1 8 2 9 3 10 4 11 5 12 6 13 7 14 8 6 9 5 10 4 11 3 12 2 13
REMARK SMILES IDX 1 14
REMARK H PARENT
REMARK Flexibility Score: inf
ROOT
ATOM      1  C   UNL     1     -23.715  29.630 -21.827  1.00  0.00     0.000 C 
ENDROOT
BRANCH   1   2
ATOM      2  C   UNL     1     -25.067  29.826 -21.122  1.00  0.00     0.000 C 
BRANCH   2   3
ATOM      3  C   UNL     1     -25.070  29.151 -19.746  1.00  0.00     0.000 C 
BRANCH   3   4
ATOM      4  C   UNL     1     -24.323  30.006 -18.711  1.00  0.00     0.006 C 
BRANCH   4   5
ATOM      5  C   UNL     1     -24.428  29.427 -17.294  1.00  0.00     0.053 C 
BRANCH   5   6
ATOM      6  C   UNL     1     -23.558  30.167 -16.324  1.00  0.00     0.041 C 
ATOM      7  O   UNL     1     -24.028  31.123 -15.654  1.00  0.00    -0.550 OA
ATOM      8  O   UNL     1     -22.238  29.777 -16.136  1.00  0.00    -0.550 OA
ENDBRANCH   5   6
ENDBRANCH   4   5
ENDBRANCH   3   4
ENDBRANCH   2   3
ENDBRANCH   1   2
BRANCH   1   9
ATOM      9  C   UNL     1     -23.483  28.175 -22.264  1.00  0.00     0.000 C 
BRANCH   9  10
ATOM     10  C   UNL     1     -22.145  27.611 -21.754  1.00  0.00    -0.000 C 
BRANCH  10  11
ATOM     11  C   UNL     1     -21.530  28.468 -20.636  1.00  0.00    -0.000 C 
BRANCH  11  12
ATOM     12  C   UNL     1     -20.773  27.626 -19.597  1.00  0.00    -0.000 C 
BRANCH  12  13
ATOM     13  C   UNL     1     -21.542  26.343 -19.266  1.00  0.00    -0.003 C 
ATOM     14  C   UNL     1     -22.634  26.606 -18.233  1.00  0.00     0.004 C 
ENDBRANCH  12  13
ENDBRANCH  11  12
ENDBRANCH  10  11
ENDBRANCH   9  10
ENDBRANCH   1   9
TORSDOF 10
ENDMDL
MODEL 8
REMARK VINA RESULT:    -2.313     14.220     15.755
REMARK INTER + INTRA:          -5.095
REMARK INTER:                  -3.765
REMARK INTRA:                  -1.330
REMARK UNBOUND:                -1.430
REMARK SMILES CCCCCCCCCCCC(=O)[O-]
REMARK SMILES IDX 7 1 8 2 9 3 10 4 11 5 12 6 13 7 14 8 6 9 5 10 4 11 3 12 2 13
REMARK SMILES IDX 1 14
REMARK H PARENT
REMARK Flexibility Score: inf
ROOT
ATOM      1  C   UNL     1     -20.783  14.195 -24.918  1.00  0.00     0.000 C 
ENDROOT
BRANCH   1   2
ATOM      2  C   UNL     1     -22.005  14.425 -24.014  1.00  0.00     0.000 C 
BRANCH   2   3
ATOM      3  C   UNL     1     -21.743  13.904 -22.596  1.00  0.00     0.000 C 
BRANCH   3   4
ATOM      4  C   UNL     1     -21.002  14.952 -21.751  1.00  0.00     0.006 C 
BRANCH   4   5
ATOM      5  C   UNL     1     -19.909  14.326 -20.877  1.00  0.00     0.053 C 
BRANCH   5   6
ATOM      6  C   UNL     1     -20.285  14.330 -19.426  1.00  0.00     0.041 C 
ATOM      7  O   UNL     1     -19.671  15.072 -18.615  1.00  0.00    -0.550 OA
ATOM      8  O   UNL     1     -21.335  13.539 -18.978  1.00  0.00    -0.550 OA
ENDBRANCH   5   6
ENDBRANCH   4   5
ENDBRANCH   3   4
ENDBRANCH   2   3
ENDBRANCH   1   2
BRANCH   1   9
ATOM      9  C   UNL     1     -20.160  12.804 -24.724  1.00  0.00     0.000 C 
BRANCH   9  10
ATOM     10  C   UNL     1     -18.659  12.870 -24.394  1.00  0.00    -0.000 C 
BRANCH  10  11
ATOM     11  C   UNL     1     -18.093  14.296 -24.494  1.00  0.00    -0.000 C 
BRANCH  11  12
ATOM     12  C   UNL     1     -17.115  14.624 -23.355  1.00  0.00    -0.000 C 
BRANCH  12  13
ATOM     13  C   UNL     1     -16.561  13.342 -22.723  1.00  0.00    -0.003 C 
ATOM     14  C   UNL     1     -16.300  13.531 -21.231  1.00  0.00     0.004 C 
ENDBRANCH  12  13
ENDBRANCH  11  12
ENDBRANCH  10  11
ENDBRANCH   9  10
ENDBRANCH   1   9
TORSDOF 10
ENDMDL
MODEL 9
REMARK VINA RESULT:    -2.296      2.936      5.084
REMARK INTER + INTRA:          -5.068
REMARK INTER:                  -3.684
REMARK INTRA:                  -1.383
REMARK UNBOUND:                -1.430
REMARK SMILES CCCCCCCCCCCC(=O)[O-]
REMARK SMILES IDX 7 1 8 2 9 3 10 4 11 5 12 6 13 7 14 8 6 9 5 10 4 11 3 12 2 13
REMARK SMILES IDX 1 14
REMARK H PARENT
REMARK Flexibility Score: inf
ROOT
ATOM      1  C   UNL     1     -21.898  27.232 -20.276  1.00  0.00     0.000 C 
ENDROOT
BRANCH   1   2
ATOM      2  C   UNL     1     -21.884  28.514 -21.124  1.00  0.00     0.000 C 
BRANCH   2   3
ATOM      3  C   UNL     1     -23.190  28.664 -21.912  1.00  0.00     0.000 C 
BRANCH   3   4
ATOM      4  C   UNL     1     -24.410  28.524 -20.989  1.00  0.00     0.006 C 
BRANCH   4   5
ATOM      5  C   UNL     1     -24.676  29.800 -20.180  1.00  0.00     0.053 C 
BRANCH   5   6
ATOM      6  C   UNL     1     -24.541  29.564 -18.706  1.00  0.00     0.041 C 
ATOM      7  O   UNL     1     -24.583  28.392 -18.247  1.00  0.00    -0.550 OA
ATOM      8  O   UNL     1     -24.335  30.635 -17.846  1.00  0.00    -0.550 OA
ENDBRANCH   5   6
ENDBRANCH   4   5
ENDBRANCH   3   4
ENDBRANCH   2   3
ENDBRANCH   1   2
BRANCH   1   9
ATOM      9  C   UNL     1     -21.231  27.425 -18.905  1.00  0.00     0.000 C 
BRANCH   9  10
ATOM     10  C   UNL     1     -20.770  28.874 -18.670  1.00  0.00    -0.000 C 
BRANCH  10  11
ATOM     11  C   UNL     1     -19.415  28.952 -17.947  1.00  0.00    -0.000 C 
BRANCH  11  12
ATOM     12  C   UNL     1     -18.228  28.696 -18.888  1.00  0.00    -0.000 C 
BRANCH  12  13
ATOM     13  C   UNL     1     -18.369  29.508 -20.180  1.00  0.00    -0.003 C 
ATOM     14  C   UNL     1     -18.159  28.628 -21.409  1.00  0.00     0.004 C 
ENDBRANCH  12  13
ENDBRANCH  11  12
ENDBRANCH  10  11
ENDBRANCH   9  10
ENDBRANCH   1   9
TORSDOF 10
ENDMDL
