MODEL 1
REMARK VINA RESULT:    -4.695      0.000      0.000
REMARK INTER + INTRA:          -5.803
REMARK INTER:                  -5.518
REMARK INTRA:                  -0.285
REMARK UNBOUND:                -0.285
REMARK SMILES O=c1c(O)c(-c2ccc(O)cc2)oc2cc(O)cc(O)c12
REMARK SMILES IDX 5 1 3 2 2 3 1 4 21 5 19 6 18 7 16 8 15 9 14 10 13 11 6 12
REMARK SMILES IDX 7 13 8 14 9 15 12 16 11 17 10 18 4 20 20 22 17 24
REMARK H PARENT 10 19 4 21 20 23 17 25
REMARK Flexibility Score: inf
ROOT
ATOM      1  C   UNL     1       9.892  12.063  60.911  1.00  0.00     0.180 A 
ATOM      2  C   UNL     1       9.954  11.009  61.844  1.00  0.00     0.208 A 
ATOM      3  C   UNL     1      10.230   9.712  61.383  1.00  0.00     0.238 A 
ATOM      4  O   UNL     1      10.278   8.758  62.207  1.00  0.00    -0.285 OA
ATOM      5  C   UNL     1      10.458   9.494  60.009  1.00  0.00     0.111 A 
ATOM      6  C   UNL     1      10.747   8.219  59.465  1.00  0.00     0.134 A 
ATOM      7  C   UNL     1      10.971   8.085  58.086  1.00  0.00     0.093 A 
ATOM      8  C   UNL     1      10.913   9.201  57.244  1.00  0.00     0.123 A 
ATOM      9  C   UNL     1      10.629  10.460  57.775  1.00  0.00     0.094 A 
ATOM     10  C   UNL     1      10.400  10.614  59.146  1.00  0.00     0.146 A 
ATOM     11  O   UNL     1      10.127  11.822  59.625  1.00  0.00    -0.452 OA
ENDROOT
BRANCH   1  12
ATOM     12  C   UNL     1       9.588  13.454  61.316  1.00  0.00     0.021 A 
ATOM     13  C   UNL     1       8.249  13.855  61.460  1.00  0.00     0.016 A 
ATOM     14  C   UNL     1       7.939  15.158  61.863  1.00  0.00     0.047 A 
ATOM     15  C   UNL     1       8.962  16.070  62.140  1.00  0.00     0.115 A 
ATOM     16  C   UNL     1      10.612  14.371  61.617  1.00  0.00     0.016 A 
ATOM     17  C   UNL     1      10.299  15.672  62.021  1.00  0.00     0.047 A 
BRANCH  15  18
ATOM     18  O   UNL     1       8.638  17.365  62.540  1.00  0.00    -0.508 OA
ATOM     19  H   UNL     1       9.166  17.844  63.261  1.00  0.00     0.293 HD
ENDBRANCH  15  18
ENDBRANCH   1  12
BRANCH   2  20
ATOM     20  O   UNL     1       9.773  11.260  63.206  1.00  0.00    -0.502 OA
ATOM     21  H   UNL     1       8.857  11.406  63.613  1.00  0.00     0.293 HD
ENDBRANCH   2  20
BRANCH   6  22
ATOM     22  O   UNL     1      10.811   7.088  60.279  1.00  0.00    -0.507 OA
ATOM     23  H   UNL     1      10.015   6.775  60.822  1.00  0.00     0.293 HD
ENDBRANCH   6  22
BRANCH   8  24
ATOM     24  O   UNL     1      11.137   9.069  55.875  1.00  0.00    -0.508 OA
ATOM     25  H   UNL     1      12.010   9.360  55.451  1.00  0.00     0.293 HD
ENDBRANCH   8  24
TORSDOF 5
ENDMDL
MODEL 2
REMARK VINA RESULT:    -4.674     14.761     16.111
REMARK INTER + INTRA:          -5.779
REMARK INTER:                  -5.480
REMARK INTRA:                  -0.298
REMARK UNBOUND:                -0.285
REMARK SMILES O=c1c(O)c(-c2ccc(O)cc2)oc2cc(O)cc(O)c12
REMARK SMILES IDX 5 1 3 2 2 3 1 4 21 5 19 6 18 7 16 8 15 9 14 10 13 11 6 12
REMARK SMILES IDX 7 13 8 14 9 15 12 16 11 17 10 18 4 20 20 22 17 24
REMARK H PARENT 10 19 4 21 20 23 17 25
REMARK Flexibility Score: inf
ROOT
ATOM      1  C   UNL     1       2.919  16.199  73.879  1.00  0.00     0.180 A 
ATOM      2  C   UNL     1       4.196  15.690  73.572  1.00  0.00     0.208 A 
ATOM      3  C   UNL     1       4.409  14.305  73.643  1.00  0.00     0.238 A 
ATOM      4  O   UNL     1       5.551  13.839  73.381  1.00  0.00    -0.285 OA
ATOM      5  C   UNL     1       3.344  13.453  73.998  1.00  0.00     0.111 A 
ATOM      6  C   UNL     1       3.474  12.046  74.087  1.00  0.00     0.134 A 
ATOM      7  C   UNL     1       2.362  11.265  74.438  1.00  0.00     0.093 A 
ATOM      8  C   UNL     1       1.125  11.863  74.699  1.00  0.00     0.123 A 
ATOM      9  C   UNL     1       0.991  13.250  74.611  1.00  0.00     0.094 A 
ATOM     10  C   UNL     1       2.087  14.046  74.266  1.00  0.00     0.146 A 
ATOM     11  O   UNL     1       1.934  15.363  74.195  1.00  0.00    -0.452 OA
ENDROOT
BRANCH   1  12
ATOM     12  C   UNL     1       2.620  17.649  73.846  1.00  0.00     0.021 A 
ATOM     13  C   UNL     1       2.038  18.208  72.696  1.00  0.00     0.016 A 
ATOM     14  C   UNL     1       1.726  19.571  72.652  1.00  0.00     0.047 A 
ATOM     15  C   UNL     1       1.979  20.386  73.758  1.00  0.00     0.115 A 
ATOM     16  C   UNL     1       2.852  18.471  74.963  1.00  0.00     0.016 A 
ATOM     17  C   UNL     1       2.539  19.833  74.916  1.00  0.00     0.047 A 
BRANCH  15  18
ATOM     18  O   UNL     1       1.664  21.742  73.699  1.00  0.00    -0.508 OA
ATOM     19  H   UNL     1       0.794  22.067  73.293  1.00  0.00     0.293 HD
ENDBRANCH  15  18
ENDBRANCH   1  12
BRANCH   2  20
ATOM     20  O   UNL     1       5.222  16.552  73.176  1.00  0.00    -0.502 OA
ATOM     21  H   UNL     1       5.044  17.403  72.656  1.00  0.00     0.293 HD
ENDBRANCH   2  20
BRANCH   6  22
ATOM     22  O   UNL     1       4.695  11.420  73.833  1.00  0.00    -0.507 OA
ATOM     23  H   UNL     1       5.132  11.453  72.919  1.00  0.00     0.293 HD
ENDBRANCH   6  22
BRANCH   8  24
ATOM     24  O   UNL     1       0.020  11.088  75.045  1.00  0.00    -0.508 OA
ATOM     25  H   UNL     1      -0.341  11.074  75.992  1.00  0.00     0.293 HD
ENDBRANCH   8  24
TORSDOF 5
ENDMDL
MODEL 3
REMARK VINA RESULT:    -4.614      1.898      6.845
REMARK INTER + INTRA:          -5.707
REMARK INTER:                  -5.418
REMARK INTRA:                  -0.289
REMARK UNBOUND:                -0.285
REMARK SMILES O=c1c(O)c(-c2ccc(O)cc2)oc2cc(O)cc(O)c12
REMARK SMILES IDX 5 1 3 2 2 3 1 4 21 5 19 6 18 7 16 8 15 9 14 10 13 11 6 12
REMARK SMILES IDX 7 13 8 14 9 15 12 16 11 17 10 18 4 20 20 22 17 24
REMARK H PARENT 10 19 4 21 20 23 17 25
REMARK Flexibility Score: inf
ROOT
ATOM      1  C   UNL     1      10.725  11.122  59.594  1.00  0.00     0.180 A 
ATOM      2  C   UNL     1      11.845  11.909  59.923  1.00  0.00     0.208 A 
ATOM      3  C   UNL     1      11.655  13.073  60.684  1.00  0.00     0.238 A 
ATOM      4  O   UNL     1      12.649  13.792  60.976  1.00  0.00    -0.285 OA
ATOM      5  C   UNL     1      10.359  13.420  61.117  1.00  0.00     0.111 A 
ATOM      6  C   UNL     1      10.084  14.573  61.891  1.00  0.00     0.134 A 
ATOM      7  C   UNL     1       8.766  14.844  62.292  1.00  0.00     0.093 A 
ATOM      8  C   UNL     1       7.722  13.983  61.935  1.00  0.00     0.123 A 
ATOM      9  C   UNL     1       7.989  12.844  61.173  1.00  0.00     0.094 A 
ATOM     10  C   UNL     1       9.294  12.558  60.761  1.00  0.00     0.146 A 
ATOM     11  O   UNL     1       9.519  11.471  60.033  1.00  0.00    -0.452 OA
ENDROOT
BRANCH   1  12
ATOM     12  C   UNL     1      10.840   9.890  58.779  1.00  0.00     0.021 A 
ATOM     13  C   UNL     1      10.735   9.974  57.381  1.00  0.00     0.016 A 
ATOM     14  C   UNL     1      10.864   8.827  56.592  1.00  0.00     0.047 A 
ATOM     15  C   UNL     1      11.113   7.587  57.187  1.00  0.00     0.115 A 
ATOM     16  C   UNL     1      11.112   8.643  59.371  1.00  0.00     0.016 A 
ATOM     17  C   UNL     1      11.241   7.498  58.579  1.00  0.00     0.047 A 
BRANCH  15  18
ATOM     18  O   UNL     1      11.238   6.453  56.388  1.00  0.00    -0.508 OA
ATOM     19  H   UNL     1      12.118   5.956  56.307  1.00  0.00     0.293 HD
ENDBRANCH  15  18
ENDBRANCH   1  12
BRANCH   2  20
ATOM     20  O   UNL     1      13.125  11.518  59.523  1.00  0.00    -0.502 OA
ATOM     21  H   UNL     1      13.414  10.547  59.504  1.00  0.00     0.293 HD
ENDBRANCH   2  20
BRANCH   6  22
ATOM     22  O   UNL     1      11.104  15.450  62.262  1.00  0.00    -0.507 OA
ATOM     23  H   UNL     1      11.359  16.245  61.688  1.00  0.00     0.293 HD
ENDBRANCH   6  22
BRANCH   8  24
ATOM     24  O   UNL     1       6.415  14.251  62.334  1.00  0.00    -0.508 OA
ATOM     25  H   UNL     1       5.624  13.783  61.906  1.00  0.00     0.293 HD
ENDBRANCH   8  24
TORSDOF 5
ENDMDL
MODEL 4
REMARK VINA RESULT:    -4.606      9.710     11.470
REMARK INTER + INTRA:          -5.699
REMARK INTER:                  -5.494
REMARK INTRA:                  -0.205
REMARK UNBOUND:                -0.285
REMARK SMILES O=c1c(O)c(-c2ccc(O)cc2)oc2cc(O)cc(O)c12
REMARK SMILES IDX 5 1 3 2 2 3 1 4 21 5 19 6 18 7 16 8 15 9 14 10 13 11 6 12
REMARK SMILES IDX 7 13 8 14 9 15 12 16 11 17 10 18 4 20 20 22 17 24
REMARK H PARENT 10 19 4 21 20 23 17 25
REMARK Flexibility Score: inf
ROOT
ATOM      1  C   UNL     1       2.242  18.324  59.336  1.00  0.00     0.180 A 
ATOM      2  C   UNL     1       2.884  17.606  60.363  1.00  0.00     0.208 A 
ATOM      3  C   UNL     1       2.121  16.743  61.166  1.00  0.00     0.238 A 
ATOM      4  O   UNL     1       2.683  16.103  62.096  1.00  0.00    -0.285 OA
ATOM      5  C   UNL     1       0.741  16.596  60.917  1.00  0.00     0.111 A 
ATOM      6  C   UNL     1      -0.096  15.744  61.676  1.00  0.00     0.134 A 
ATOM      7  C   UNL     1      -1.460  15.645  61.359  1.00  0.00     0.093 A 
ATOM      8  C   UNL     1      -1.999  16.382  60.298  1.00  0.00     0.123 A 
ATOM      9  C   UNL     1      -1.177  17.224  59.547  1.00  0.00     0.094 A 
ATOM     10  C   UNL     1       0.183  17.337  59.848  1.00  0.00     0.146 A 
ATOM     11  O   UNL     1       0.941  18.149  59.121  1.00  0.00    -0.452 OA
ENDROOT
BRANCH   1  12
ATOM     12  C   UNL     1       2.973  19.267  58.460  1.00  0.00     0.021 A 
ATOM     13  C   UNL     1       3.829  18.766  57.465  1.00  0.00     0.016 A 
ATOM     14  C   UNL     1       4.512  19.638  56.612  1.00  0.00     0.047 A 
ATOM     15  C   UNL     1       4.336  21.020  56.732  1.00  0.00     0.115 A 
ATOM     16  C   UNL     1       2.785  20.658  58.561  1.00  0.00     0.016 A 
ATOM     17  C   UNL     1       3.468  21.528  57.706  1.00  0.00     0.047 A 
BRANCH  15  18
ATOM     18  O   UNL     1       5.024  21.877  55.876  1.00  0.00    -0.508 OA
ATOM     19  H   UNL     1       6.037  21.904  55.854  1.00  0.00     0.293 HD
ENDBRANCH  15  18
ENDBRANCH   1  12
BRANCH   2  20
ATOM     20  O   UNL     1       4.261  17.732  60.558  1.00  0.00    -0.502 OA
ATOM     21  H   UNL     1       4.689  18.598  60.863  1.00  0.00     0.293 HD
ENDBRANCH   2  20
BRANCH   6  22
ATOM     22  O   UNL     1       0.413  14.997  62.739  1.00  0.00    -0.507 OA
ATOM     23  H   UNL     1       1.409  14.882  62.882  1.00  0.00     0.293 HD
ENDBRANCH   6  22
BRANCH   8  24
ATOM     24  O   UNL     1      -3.353  16.284  59.982  1.00  0.00    -0.508 OA
ATOM     25  H   UNL     1      -4.067  16.668  60.589  1.00  0.00     0.293 HD
ENDBRANCH   8  24
TORSDOF 5
ENDMDL
MODEL 5
REMARK VINA RESULT:    -4.531     11.001     14.319
REMARK INTER + INTRA:          -5.610
REMARK INTER:                  -5.453
REMARK INTRA:                  -0.157
REMARK UNBOUND:                -0.285
REMARK SMILES O=c1c(O)c(-c2ccc(O)cc2)oc2cc(O)cc(O)c12
REMARK SMILES IDX 5 1 3 2 2 3 1 4 21 5 19 6 18 7 16 8 15 9 14 10 13 11 6 12
REMARK SMILES IDX 7 13 8 14 9 15 12 16 11 17 10 18 4 20 20 22 17 24
REMARK H PARENT 10 19 4 21 20 23 17 25
REMARK Flexibility Score: inf
ROOT
ATOM      1  C   UNL     1      -1.075  17.342  59.626  1.00  0.00     0.180 A 
ATOM      2  C   UNL     1      -1.695  16.160  59.174  1.00  0.00     0.208 A 
ATOM      3  C   UNL     1      -3.078  16.171  58.930  1.00  0.00     0.238 A 
ATOM      4  O   UNL     1      -3.646  15.117  58.535  1.00  0.00    -0.285 OA
ATOM      5  C   UNL     1      -3.810  17.361  59.120  1.00  0.00     0.111 A 
ATOM      6  C   UNL     1      -5.204  17.457  58.892  1.00  0.00     0.134 A 
ATOM      7  C   UNL     1      -5.860  18.681  59.095  1.00  0.00     0.093 A 
ATOM      8  C   UNL     1      -5.148  19.808  59.520  1.00  0.00     0.123 A 
ATOM      9  C   UNL     1      -3.773  19.718  59.747  1.00  0.00     0.094 A 
ATOM     10  C   UNL     1      -3.102  18.508  59.552  1.00  0.00     0.146 A 
ATOM     11  O   UNL     1      -1.795  18.449  59.780  1.00  0.00    -0.452 OA
ENDROOT
BRANCH   1  12
ATOM     12  C   UNL     1       0.374  17.405  59.924  1.00  0.00     0.021 A 
ATOM     13  C   UNL     1       1.192  18.282  59.192  1.00  0.00     0.016 A 
ATOM     14  C   UNL     1       2.559  18.374  59.472  1.00  0.00     0.047 A 
ATOM     15  C   UNL     1       3.122  17.604  60.494  1.00  0.00     0.115 A 
ATOM     16  C   UNL     1       0.942  16.648  60.965  1.00  0.00     0.016 A 
ATOM     17  C   UNL     1       2.309  16.744  61.243  1.00  0.00     0.047 A 
BRANCH  15  18
ATOM     18  O   UNL     1       4.485  17.706  60.762  1.00  0.00    -0.508 OA
ATOM     19  H   UNL     1       5.119  18.161  60.115  1.00  0.00     0.293 HD
ENDBRANCH  15  18
ENDBRANCH   1  12
BRANCH   2  20
ATOM     20  O   UNL     1      -0.939  15.008  58.946  1.00  0.00    -0.502 OA
ATOM     21  H   UNL     1      -0.988  14.199  59.553  1.00  0.00     0.293 HD
ENDBRANCH   2  20
BRANCH   6  22
ATOM     22  O   UNL     1      -5.940  16.351  58.467  1.00  0.00    -0.507 OA
ATOM     23  H   UNL     1      -6.784  16.056  58.944  1.00  0.00     0.293 HD
ENDBRANCH   6  22
BRANCH   8  24
ATOM     24  O   UNL     1      -5.798  21.024  59.721  1.00  0.00    -0.508 OA
ATOM     25  H   UNL     1      -6.068  21.333  60.647  1.00  0.00     0.293 HD
ENDBRANCH   8  24
TORSDOF 5
ENDMDL
MODEL 6
REMARK VINA RESULT:    -4.511     11.778     14.675
REMARK INTER + INTRA:          -5.586
REMARK INTER:                  -5.300
REMARK INTRA:                  -0.286
REMARK UNBOUND:                -0.285
REMARK SMILES O=c1c(O)c(-c2ccc(O)cc2)oc2cc(O)cc(O)c12
REMARK SMILES IDX 5 1 3 2 2 3 1 4 21 5 19 6 18 7 16 8 15 9 14 10 13 11 6 12
REMARK SMILES IDX 7 13 8 14 9 15 12 16 11 17 10 18 4 20 20 22 17 24
REMARK H PARENT 10 19 4 21 20 23 17 25
REMARK Flexibility Score: inf
ROOT
ATOM      1  C   UNL     1      -2.768  13.453  59.820  1.00  0.00     0.180 A 
ATOM      2  C   UNL     1      -4.147  13.476  60.106  1.00  0.00     0.208 A 
ATOM      3  C   UNL     1      -4.808  14.713  60.154  1.00  0.00     0.238 A 
ATOM      4  O   UNL     1      -6.041  14.748  60.420  1.00  0.00    -0.285 OA
ATOM      5  C   UNL     1      -4.090  15.899  59.898  1.00  0.00     0.111 A 
ATOM      6  C   UNL     1      -4.682  17.184  59.922  1.00  0.00     0.134 A 
ATOM      7  C   UNL     1      -3.901  18.317  59.647  1.00  0.00     0.093 A 
ATOM      8  C   UNL     1      -2.540  18.187  59.346  1.00  0.00     0.123 A 
ATOM      9  C   UNL     1      -1.951  16.921  59.320  1.00  0.00     0.094 A 
ATOM     10  C   UNL     1      -2.712  15.781  59.594  1.00  0.00     0.146 A 
ATOM     11  O   UNL     1      -2.126  14.590  59.568  1.00  0.00    -0.452 OA
ENDROOT
BRANCH   1  12
ATOM     12  C   UNL     1      -1.996  12.190  59.769  1.00  0.00     0.021 A 
ATOM     13  C   UNL     1      -1.476  11.650  60.957  1.00  0.00     0.016 A 
ATOM     14  C   UNL     1      -0.763  10.448  60.935  1.00  0.00     0.047 A 
ATOM     15  C   UNL     1      -0.574   9.763  59.731  1.00  0.00     0.115 A 
ATOM     16  C   UNL     1      -1.821  11.486  58.564  1.00  0.00     0.016 A 
ATOM     17  C   UNL     1      -1.109  10.283  58.545  1.00  0.00     0.047 A 
BRANCH  15  18
ATOM     18  O   UNL     1       0.139   8.566  59.724  1.00  0.00    -0.508 OA
ATOM     19  H   UNL     1      -0.085   7.820  59.076  1.00  0.00     0.293 HD
ENDBRANCH  15  18
ENDBRANCH   1  12
BRANCH   2  20
ATOM     20  O   UNL     1      -4.846  12.284  60.308  1.00  0.00    -0.502 OA
ATOM     21  H   UNL     1      -5.715  12.078  59.830  1.00  0.00     0.293 HD
ENDBRANCH   2  20
BRANCH   6  22
ATOM     22  O   UNL     1      -6.036  17.346  60.219  1.00  0.00    -0.507 OA
ATOM     23  H   UNL     1      -6.709  17.616  59.511  1.00  0.00     0.293 HD
ENDBRANCH   6  22
BRANCH   8  24
ATOM     24  O   UNL     1      -1.764  19.310  59.070  1.00  0.00    -0.508 OA
ATOM     25  H   UNL     1      -1.533  19.574  58.120  1.00  0.00     0.293 HD
ENDBRANCH   8  24
TORSDOF 5
ENDMDL
MODEL 7
REMARK VINA RESULT:    -4.436     12.698     15.979
REMARK INTER + INTRA:          -5.499
REMARK INTER:                  -5.234
REMARK INTRA:                  -0.265
REMARK UNBOUND:                -0.285
REMARK SMILES O=c1c(O)c(-c2ccc(O)cc2)oc2cc(O)cc(O)c12
REMARK SMILES IDX 5 1 3 2 2 3 1 4 21 5 19 6 18 7 16 8 15 9 14 10 13 11 6 12
REMARK SMILES IDX 7 13 8 14 9 15 12 16 11 17 10 18 4 20 20 22 17 24
REMARK H PARENT 10 19 4 21 20 23 17 25
REMARK Flexibility Score: inf
ROOT
ATOM      1  C   UNL     1       4.521  13.938  73.380  1.00  0.00     0.180 A 
ATOM      2  C   UNL     1       4.776  15.287  73.066  1.00  0.00     0.208 A 
ATOM      3  C   UNL     1       3.714  16.205  73.106  1.00  0.00     0.238 A 
ATOM      4  O   UNL     1       3.929  17.413  72.816  1.00  0.00    -0.285 OA
ATOM      5  C   UNL     1       2.427  15.766  73.476  1.00  0.00     0.111 A 
ATOM      6  C   UNL     1       1.305  16.627  73.545  1.00  0.00     0.134 A 
ATOM      7  C   UNL     1       0.057  16.115  73.931  1.00  0.00     0.093 A 
ATOM      8  C   UNL     1      -0.089  14.761  74.250  1.00  0.00     0.123 A 
ATOM      9  C   UNL     1       1.014  13.907  74.184  1.00  0.00     0.094 A 
ATOM     10  C   UNL     1       2.265  14.398  73.799  1.00  0.00     0.146 A 
ATOM     11  O   UNL     1       3.296  13.563  73.739  1.00  0.00    -0.452 OA
ENDROOT
BRANCH   1  12
ATOM     12  C   UNL     1       5.583  12.907  73.343  1.00  0.00     0.021 A 
ATOM     13  C   UNL     1       5.728  12.105  72.199  1.00  0.00     0.016 A 
ATOM     14  C   UNL     1       6.739  11.141  72.133  1.00  0.00     0.047 A 
ATOM     15  C   UNL     1       7.624  10.976  73.202  1.00  0.00     0.115 A 
ATOM     16  C   UNL     1       6.490  12.750  74.407  1.00  0.00     0.016 A 
ATOM     17  C   UNL     1       7.500  11.786  74.338  1.00  0.00     0.047 A 
BRANCH  15  18
ATOM     18  O   UNL     1       8.625  10.011  73.124  1.00  0.00    -0.508 OA
ATOM     19  H   UNL     1       9.505  10.196  72.656  1.00  0.00     0.293 HD
ENDBRANCH  15  18
ENDBRANCH   1  12
BRANCH   2  20
ATOM     20  O   UNL     1       6.071  15.705  72.751  1.00  0.00    -0.502 OA
ATOM     21  H   UNL     1       6.319  16.053  71.832  1.00  0.00     0.293 HD
ENDBRANCH   2  20
BRANCH   6  22
ATOM     22  O   UNL     1       1.420  17.982  73.233  1.00  0.00    -0.507 OA
ATOM     23  H   UNL     1       1.516  18.690  73.952  1.00  0.00     0.293 HD
ENDBRANCH   6  22
BRANCH   8  24
ATOM     24  O   UNL     1      -1.328  14.252  74.635  1.00  0.00    -0.508 OA
ATOM     25  H   UNL     1      -1.822  13.575  74.066  1.00  0.00     0.293 HD
ENDBRANCH   8  24
TORSDOF 5
ENDMDL
MODEL 8
REMARK VINA RESULT:    -4.427     13.155     15.641
REMARK INTER + INTRA:          -5.488
REMARK INTER:                  -5.247
REMARK INTRA:                  -0.242
REMARK UNBOUND:                -0.285
REMARK SMILES O=c1c(O)c(-c2ccc(O)cc2)oc2cc(O)cc(O)c12
REMARK SMILES IDX 5 1 3 2 2 3 1 4 21 5 19 6 18 7 16 8 15 9 14 10 13 11 6 12
REMARK SMILES IDX 7 13 8 14 9 15 12 16 11 17 10 18 4 20 20 22 17 24
REMARK H PARENT 10 19 4 21 20 23 17 25
REMARK Flexibility Score: inf
ROOT
ATOM      1  C   UNL     1       3.402  16.422  73.863  1.00  0.00     0.180 A 
ATOM      2  C   UNL     1       4.542  16.713  73.088  1.00  0.00     0.208 A 
ATOM      3  C   UNL     1       5.366  15.655  72.672  1.00  0.00     0.238 A 
ATOM      4  O   UNL     1       6.396  15.904  71.987  1.00  0.00    -0.285 OA
ATOM      5  C   UNL     1       5.029  14.331  73.018  1.00  0.00     0.111 A 
ATOM      6  C   UNL     1       5.804  13.209  72.635  1.00  0.00     0.134 A 
ATOM      7  C   UNL     1       5.396  11.920  73.011  1.00  0.00     0.093 A 
ATOM      8  C   UNL     1       4.229  11.733  73.761  1.00  0.00     0.123 A 
ATOM      9  C   UNL     1       3.462  12.836  74.141  1.00  0.00     0.094 A 
ATOM     10  C   UNL     1       3.853  14.128  73.778  1.00  0.00     0.146 A 
ATOM     11  O   UNL     1       3.108  15.159  74.157  1.00  0.00    -0.452 OA
ENDROOT
BRANCH   1  12
ATOM     12  C   UNL     1       2.495  17.483  74.355  1.00  0.00     0.021 A 
ATOM     13  C   UNL     1       1.217  17.619  73.787  1.00  0.00     0.016 A 
ATOM     14  C   UNL     1       0.335  18.600  74.252  1.00  0.00     0.047 A 
ATOM     15  C   UNL     1       0.713  19.445  75.299  1.00  0.00     0.115 A 
ATOM     16  C   UNL     1       2.860  18.324  75.423  1.00  0.00     0.016 A 
ATOM     17  C   UNL     1       1.976  19.303  75.887  1.00  0.00     0.047 A 
BRANCH  15  18
ATOM     18  O   UNL     1      -0.176  20.418  75.752  1.00  0.00    -0.508 OA
ATOM     19  H   UNL     1      -0.944  20.743  75.176  1.00  0.00     0.293 HD
ENDBRANCH  15  18
ENDBRANCH   1  12
BRANCH   2  20
ATOM     20  O   UNL     1       4.827  18.029  72.717  1.00  0.00    -0.502 OA
ATOM     21  H   UNL     1       4.119  18.654  72.352  1.00  0.00     0.293 HD
ENDBRANCH   2  20
BRANCH   6  22
ATOM     22  O   UNL     1       6.972  13.364  71.887  1.00  0.00    -0.507 OA
ATOM     23  H   UNL     1       7.036  13.049  70.926  1.00  0.00     0.293 HD
ENDBRANCH   6  22
BRANCH   8  24
ATOM     24  O   UNL     1       3.823  10.454  74.133  1.00  0.00    -0.508 OA
ATOM     25  H   UNL     1       2.844  10.196  74.161  1.00  0.00     0.293 HD
ENDBRANCH   8  24
TORSDOF 5
ENDMDL
MODEL 9
REMARK VINA RESULT:    -4.389     11.502     14.515
REMARK INTER + INTRA:          -5.444
REMARK INTER:                  -5.324
REMARK INTRA:                  -0.119
REMARK UNBOUND:                -0.285
REMARK SMILES O=c1c(O)c(-c2ccc(O)cc2)oc2cc(O)cc(O)c12
REMARK SMILES IDX 5 1 3 2 2 3 1 4 21 5 19 6 18 7 16 8 15 9 14 10 13 11 6 12
REMARK SMILES IDX 7 13 8 14 9 15 12 16 11 17 10 18 4 20 20 22 17 24
REMARK H PARENT 10 19 4 21 20 23 17 25
REMARK Flexibility Score: inf
ROOT
ATOM      1  C   UNL     1      -2.123  14.012  59.618  1.00  0.00     0.180 A 
ATOM      2  C   UNL     1      -1.273  15.087  59.942  1.00  0.00     0.208 A 
ATOM      3  C   UNL     1      -1.768  16.397  59.843  1.00  0.00     0.238 A 
ATOM      4  O   UNL     1      -1.013  17.368  60.121  1.00  0.00    -0.285 OA
ATOM      5  C   UNL     1      -3.103  16.609  59.444  1.00  0.00     0.111 A 
ATOM      6  C   UNL     1      -3.680  17.896  59.324  1.00  0.00     0.134 A 
ATOM      7  C   UNL     1      -5.021  18.024  58.930  1.00  0.00     0.093 A 
ATOM      8  C   UNL     1      -5.794  16.890  58.655  1.00  0.00     0.123 A 
ATOM      9  C   UNL     1      -5.229  15.619  58.772  1.00  0.00     0.094 A 
ATOM     10  C   UNL     1      -3.895  15.470  59.161  1.00  0.00     0.146 A 
ATOM     11  O   UNL     1      -3.381  14.250  59.259  1.00  0.00    -0.452 OA
ENDROOT
BRANCH   1  12
ATOM     12  C   UNL     1      -1.670  12.604  59.679  1.00  0.00     0.021 A 
ATOM     13  C   UNL     1      -1.580  11.855  58.494  1.00  0.00     0.016 A 
ATOM     14  C   UNL     1      -1.132  10.530  58.526  1.00  0.00     0.047 A 
ATOM     15  C   UNL     1      -0.756   9.944  59.738  1.00  0.00     0.115 A 
ATOM     16  C   UNL     1      -1.269  12.014  60.892  1.00  0.00     0.016 A 
ATOM     17  C   UNL     1      -0.821  10.690  60.921  1.00  0.00     0.047 A 
BRANCH  15  18
ATOM     18  O   UNL     1      -0.313   8.623  59.754  1.00  0.00    -0.508 OA
ATOM     19  H   UNL     1       0.192   8.223  58.971  1.00  0.00     0.293 HD
ENDBRANCH  15  18
ENDBRANCH   1  12
BRANCH   2  20
ATOM     20  O   UNL     1       0.031  14.847  60.383  1.00  0.00    -0.502 OA
ATOM     21  H   UNL     1       0.686  15.597  60.570  1.00  0.00     0.293 HD
ENDBRANCH   2  20
BRANCH   6  22
ATOM     22  O   UNL     1      -2.935  19.045  59.592  1.00  0.00    -0.507 OA
ATOM     23  H   UNL     1      -2.215  19.374  58.959  1.00  0.00     0.293 HD
ENDBRANCH   6  22
BRANCH   8  24
ATOM     24  O   UNL     1      -7.125  17.016  58.264  1.00  0.00    -0.508 OA
ATOM     25  H   UNL     1      -7.684  16.208  58.020  1.00  0.00     0.293 HD
ENDBRANCH   8  24
TORSDOF 5
ENDMDL
