MODEL 1
REMARK VINA RESULT:    -8.077      0.000      0.000
REMARK INTER + INTRA:         -10.014
REMARK INTER:                  -9.729
REMARK INTRA:                  -0.285
REMARK UNBOUND:                -0.285
REMARK SMILES O=c1c(O)c(-c2ccc(O)c(O)c2)oc2cc(O)cc(O)c12
REMARK SMILES IDX 5 1 3 2 2 3 1 4 22 5 20 6 19 7 17 8 16 9 15 10 14 11 6 12
REMARK SMILES IDX 7 13 8 14 9 15 13 16 11 17 10 18 12 20 4 22 21 24 18 26
REMARK H PARENT 10 19 12 21 4 23 21 25 18 27
REMARK Flexibility Score: inf
ROOT
ATOM      1  C   UNL     1      15.914   3.038  81.684  1.00  0.00     0.180 A 
ATOM      2  C   UNL     1      15.045   2.587  82.695  1.00  0.00     0.208 A 
ATOM      3  C   UNL     1      14.925   1.206  82.919  1.00  0.00     0.238 A 
ATOM      4  O   UNL     1      14.140   0.789  83.814  1.00  0.00    -0.285 OA
ATOM      5  C   UNL     1      15.686   0.306  82.147  1.00  0.00     0.111 A 
ATOM      6  C   UNL     1      15.626  -1.099  82.313  1.00  0.00     0.134 A 
ATOM      7  C   UNL     1      16.424  -1.929  81.511  1.00  0.00     0.093 A 
ATOM      8  C   UNL     1      17.280  -1.380  80.548  1.00  0.00     0.123 A 
ATOM      9  C   UNL     1      17.342   0.004  80.381  1.00  0.00     0.094 A 
ATOM     10  C   UNL     1      16.553   0.848  81.170  1.00  0.00     0.146 A 
ATOM     11  O   UNL     1      16.629   2.161  80.986  1.00  0.00    -0.452 OA
ENDROOT
BRANCH   1  12
ATOM     12  C   UNL     1      16.081   4.477  81.375  1.00  0.00     0.025 A 
ATOM     13  C   UNL     1      15.095   5.142  80.628  1.00  0.00     0.016 A 
ATOM     14  C   UNL     1      15.221   6.504  80.343  1.00  0.00     0.051 A 
ATOM     15  C   UNL     1      16.327   7.224  80.813  1.00  0.00     0.157 A 
ATOM     16  C   UNL     1      17.178   5.209  81.862  1.00  0.00     0.062 A 
ATOM     17  C   UNL     1      17.305   6.576  81.578  1.00  0.00     0.158 A 
BRANCH  15  18
ATOM     18  O   UNL     1      16.457   8.583  80.528  1.00  0.00    -0.504 OA
ATOM     19  H   UNL     1      15.838   9.272  80.938  1.00  0.00     0.293 HD
ENDBRANCH  15  18
BRANCH  17  20
ATOM     20  O   UNL     1      18.397   7.299  82.056  1.00  0.00    -0.504 OA
ATOM     21  H   UNL     1      18.356   7.803  82.934  1.00  0.00     0.293 HD
ENDBRANCH  17  20
ENDBRANCH   1  12
BRANCH   2  22
ATOM     22  O   UNL     1      14.338   3.502  83.479  1.00  0.00    -0.502 OA
ATOM     23  H   UNL     1      14.438   3.545  84.486  1.00  0.00     0.293 HD
ENDBRANCH   2  22
BRANCH   6  24
ATOM     24  O   UNL     1      14.784  -1.675  83.264  1.00  0.00    -0.507 OA
ATOM     25  H   UNL     1      14.539  -1.193  84.121  1.00  0.00     0.293 HD
ENDBRANCH   6  24
BRANCH   8  26
ATOM     26  O   UNL     1      18.073  -2.204  79.752  1.00  0.00    -0.508 OA
ATOM     27  H   UNL     1      19.075  -2.071  79.684  1.00  0.00     0.293 HD
ENDBRANCH   8  26
TORSDOF 6
ENDMDL
MODEL 2
REMARK VINA RESULT:    -8.016      6.897     10.067
REMARK INTER + INTRA:          -9.941
REMARK INTER:                  -9.616
REMARK INTRA:                  -0.325
REMARK UNBOUND:                -0.285
REMARK SMILES O=c1c(O)c(-c2ccc(O)c(O)c2)oc2cc(O)cc(O)c12
REMARK SMILES IDX 5 1 3 2 2 3 1 4 22 5 20 6 19 7 17 8 16 9 15 10 14 11 6 12
REMARK SMILES IDX 7 13 8 14 9 15 13 16 11 17 10 18 12 20 4 22 21 24 18 26
REMARK H PARENT 10 19 12 21 4 23 21 25 18 27
REMARK Flexibility Score: inf
ROOT
ATOM      1  C   UNL     1      20.634   1.579  75.015  1.00  0.00     0.180 A 
ATOM      2  C   UNL     1      19.998   2.481  74.142  1.00  0.00     0.208 A 
ATOM      3  C   UNL     1      19.285   3.562  74.685  1.00  0.00     0.238 A 
ATOM      4  O   UNL     1      18.701   4.371  73.913  1.00  0.00    -0.285 OA
ATOM      5  C   UNL     1      19.239   3.734  76.083  1.00  0.00     0.111 A 
ATOM      6  C   UNL     1      18.547   4.798  76.710  1.00  0.00     0.134 A 
ATOM      7  C   UNL     1      18.556   4.906  78.109  1.00  0.00     0.093 A 
ATOM      8  C   UNL     1      19.243   3.971  78.892  1.00  0.00     0.123 A 
ATOM      9  C   UNL     1      19.926   2.920  78.278  1.00  0.00     0.094 A 
ATOM     10  C   UNL     1      19.928   2.794  76.885  1.00  0.00     0.146 A 
ATOM     11  O   UNL     1      20.583   1.781  76.328  1.00  0.00    -0.452 OA
ENDROOT
BRANCH   1  12
ATOM     12  C   UNL     1      21.388   0.404  74.520  1.00  0.00     0.025 A 
ATOM     13  C   UNL     1      20.712  -0.806  74.295  1.00  0.00     0.016 A 
ATOM     14  C   UNL     1      21.398  -1.920  73.807  1.00  0.00     0.051 A 
ATOM     15  C   UNL     1      22.768  -1.837  73.523  1.00  0.00     0.157 A 
ATOM     16  C   UNL     1      22.758   0.489  74.213  1.00  0.00     0.062 A 
ATOM     17  C   UNL     1      23.448  -0.629  73.723  1.00  0.00     0.158 A 
BRANCH  15  18
ATOM     18  O   UNL     1      23.457  -2.948  73.039  1.00  0.00    -0.504 OA
ATOM     19  H   UNL     1      23.561  -3.791  73.593  1.00  0.00     0.293 HD
ENDBRANCH  15  18
BRANCH  17  20
ATOM     20  O   UNL     1      24.807  -0.546  73.427  1.00  0.00    -0.504 OA
ATOM     21  H   UNL     1      25.275  -1.261  72.881  1.00  0.00     0.293 HD
ENDBRANCH  17  20
ENDBRANCH   1  12
BRANCH   2  22
ATOM     22  O   UNL     1      20.100   2.317  72.759  1.00  0.00    -0.502 OA
ATOM     23  H   UNL     1      19.429   2.716  72.114  1.00  0.00     0.293 HD
ENDBRANCH   2  22
BRANCH   6  24
ATOM     24  O   UNL     1      17.854   5.747  75.957  1.00  0.00    -0.507 OA
ATOM     25  H   UNL     1      17.043   6.232  76.325  1.00  0.00     0.293 HD
ENDBRANCH   6  24
BRANCH   8  26
ATOM     26  O   UNL     1      19.253   4.078  80.280  1.00  0.00    -0.508 OA
ATOM     27  H   UNL     1      19.868   3.511  80.851  1.00  0.00     0.293 HD
ENDBRANCH   8  26
TORSDOF 6
ENDMDL
MODEL 3
REMARK VINA RESULT:    -7.966      4.265      6.912
REMARK INTER + INTRA:          -9.880
REMARK INTER:                  -9.947
REMARK INTRA:                   0.066
REMARK UNBOUND:                -0.285
REMARK SMILES O=c1c(O)c(-c2ccc(O)c(O)c2)oc2cc(O)cc(O)c12
REMARK SMILES IDX 5 1 3 2 2 3 1 4 22 5 20 6 19 7 17 8 16 9 15 10 14 11 6 12
REMARK SMILES IDX 7 13 8 14 9 15 13 16 11 17 10 18 12 20 4 22 21 24 18 26
REMARK H PARENT 10 19 12 21 4 23 21 25 18 27
REMARK Flexibility Score: inf
ROOT
ATOM      1  C   UNL     1      18.453   1.727  79.080  1.00  0.00     0.180 A 
ATOM      2  C   UNL     1      19.239   2.892  79.172  1.00  0.00     0.208 A 
ATOM      3  C   UNL     1      20.145   3.181  78.139  1.00  0.00     0.238 A 
ATOM      4  O   UNL     1      20.863   4.215  78.216  1.00  0.00    -0.285 OA
ATOM      5  C   UNL     1      20.235   2.319  77.028  1.00  0.00     0.111 A 
ATOM      6  C   UNL     1      21.119   2.541  75.945  1.00  0.00     0.134 A 
ATOM      7  C   UNL     1      21.142   1.639  74.870  1.00  0.00     0.093 A 
ATOM      8  C   UNL     1      20.299   0.521  74.859  1.00  0.00     0.123 A 
ATOM      9  C   UNL     1      19.427   0.299  75.925  1.00  0.00     0.094 A 
ATOM     10  C   UNL     1      19.390   1.184  77.007  1.00  0.00     0.146 A 
ATOM     11  O   UNL     1      18.553   0.944  78.010  1.00  0.00    -0.452 OA
ENDROOT
BRANCH   1  12
ATOM     12  C   UNL     1      17.489   1.344  80.137  1.00  0.00     0.025 A 
ATOM     13  C   UNL     1      16.579   2.298  80.621  1.00  0.00     0.016 A 
ATOM     14  C   UNL     1      15.646   1.953  81.602  1.00  0.00     0.051 A 
ATOM     15  C   UNL     1      15.600   0.645  82.103  1.00  0.00     0.157 A 
ATOM     16  C   UNL     1      17.424   0.028  80.628  1.00  0.00     0.062 A 
ATOM     17  C   UNL     1      16.488  -0.320  81.612  1.00  0.00     0.158 A 
BRANCH  15  18
ATOM     18  O   UNL     1      14.673   0.298  83.084  1.00  0.00    -0.504 OA
ATOM     19  H   UNL     1      14.917   0.296  84.068  1.00  0.00     0.293 HD
ENDBRANCH  15  18
BRANCH  17  20
ATOM     20  O   UNL     1      16.430  -1.623  82.103  1.00  0.00    -0.504 OA
ATOM     21  H   UNL     1      15.914  -1.850  82.945  1.00  0.00     0.293 HD
ENDBRANCH  17  20
ENDBRANCH   1  12
BRANCH   2  22
ATOM     22  O   UNL     1      19.096   3.756  80.260  1.00  0.00    -0.502 OA
ATOM     23  H   UNL     1      18.690   4.680  80.170  1.00  0.00     0.293 HD
ENDBRANCH   2  22
BRANCH   6  24
ATOM     24  O   UNL     1      21.970   3.646  75.927  1.00  0.00    -0.507 OA
ATOM     25  H   UNL     1      22.613   3.836  76.687  1.00  0.00     0.293 HD
ENDBRANCH   6  24
BRANCH   8  26
ATOM     26  O   UNL     1      20.322  -0.374  73.791  1.00  0.00    -0.508 OA
ATOM     27  H   UNL     1      20.598  -0.082  72.861  1.00  0.00     0.293 HD
ENDBRANCH   8  26
TORSDOF 6
ENDMDL
MODEL 4
REMARK VINA RESULT:    -7.961      3.559      5.622
REMARK INTER + INTRA:          -9.875
REMARK INTER:                  -9.543
REMARK INTRA:                  -0.333
REMARK UNBOUND:                -0.285
REMARK SMILES O=c1c(O)c(-c2ccc(O)c(O)c2)oc2cc(O)cc(O)c12
REMARK SMILES IDX 5 1 3 2 2 3 1 4 22 5 20 6 19 7 17 8 16 9 15 10 14 11 6 12
REMARK SMILES IDX 7 13 8 14 9 15 13 16 11 17 10 18 12 20 4 22 21 24 18 26
REMARK H PARENT 10 19 12 21 4 23 21 25 18 27
REMARK Flexibility Score: inf
ROOT
ATOM      1  C   UNL     1      14.470   5.861  80.919  1.00  0.00     0.180 A 
ATOM      2  C   UNL     1      15.088   4.840  81.666  1.00  0.00     0.208 A 
ATOM      3  C   UNL     1      16.161   4.138  81.095  1.00  0.00     0.238 A 
ATOM      4  O   UNL     1      16.715   3.213  81.750  1.00  0.00    -0.285 OA
ATOM      5  C   UNL     1      16.611   4.480  79.804  1.00  0.00     0.111 A 
ATOM      6  C   UNL     1      17.688   3.826  79.160  1.00  0.00     0.134 A 
ATOM      7  C   UNL     1      18.082   4.232  77.876  1.00  0.00     0.093 A 
ATOM      8  C   UNL     1      17.420   5.280  77.226  1.00  0.00     0.123 A 
ATOM      9  C   UNL     1      16.357   5.928  77.857  1.00  0.00     0.094 A 
ATOM     10  C   UNL     1      15.948   5.537  79.136  1.00  0.00     0.146 A 
ATOM     11  O   UNL     1      14.931   6.168  79.710  1.00  0.00    -0.452 OA
ENDROOT
BRANCH   1  12
ATOM     12  C   UNL     1      13.320   6.634  81.444  1.00  0.00     0.025 A 
ATOM     13  C   UNL     1      13.546   7.878  82.055  1.00  0.00     0.016 A 
ATOM     14  C   UNL     1      12.475   8.634  82.538  1.00  0.00     0.051 A 
ATOM     15  C   UNL     1      11.161   8.164  82.404  1.00  0.00     0.157 A 
ATOM     16  C   UNL     1      11.999   6.176  81.293  1.00  0.00     0.062 A 
ATOM     17  C   UNL     1      10.924   6.934  81.776  1.00  0.00     0.158 A 
BRANCH  15  18
ATOM     18  O   UNL     1      10.090   8.914  82.887  1.00  0.00    -0.504 OA
ATOM     19  H   UNL     1       9.717   9.700  82.368  1.00  0.00     0.293 HD
ENDBRANCH  15  18
BRANCH  17  20
ATOM     20  O   UNL     1       9.615   6.476  81.632  1.00  0.00    -0.504 OA
ATOM     21  H   UNL     1       9.089   6.118  82.420  1.00  0.00     0.293 HD
ENDBRANCH  17  20
ENDBRANCH   1  12
BRANCH   2  22
ATOM     22  O   UNL     1      14.655   4.552  82.962  1.00  0.00    -0.502 OA
ATOM     23  H   UNL     1      13.989   5.135  83.454  1.00  0.00     0.293 HD
ENDBRANCH   2  22
BRANCH   6  24
ATOM     24  O   UNL     1      18.368   2.778  79.783  1.00  0.00    -0.507 OA
ATOM     25  H   UNL     1      18.611   2.810  80.766  1.00  0.00     0.293 HD
ENDBRANCH   6  24
BRANCH   8  26
ATOM     26  O   UNL     1      17.812   5.684  75.952  1.00  0.00    -0.508 OA
ATOM     27  H   UNL     1      17.144   5.771  75.195  1.00  0.00     0.293 HD
ENDBRANCH   8  26
TORSDOF 6
ENDMDL
MODEL 5
REMARK VINA RESULT:    -7.936      4.762      7.993
REMARK INTER + INTRA:          -9.844
REMARK INTER:                  -9.771
REMARK INTRA:                  -0.074
REMARK UNBOUND:                -0.285
REMARK SMILES O=c1c(O)c(-c2ccc(O)c(O)c2)oc2cc(O)cc(O)c12
REMARK SMILES IDX 5 1 3 2 2 3 1 4 22 5 20 6 19 7 17 8 16 9 15 10 14 11 6 12
REMARK SMILES IDX 7 13 8 14 9 15 13 16 11 17 10 18 12 20 4 22 21 24 18 26
REMARK H PARENT 10 19 12 21 4 23 21 25 18 27
REMARK Flexibility Score: inf
ROOT
ATOM      1  C   UNL     1      15.047   4.753  77.331  1.00  0.00     0.180 A 
ATOM      2  C   UNL     1      16.070   5.714  77.227  1.00  0.00     0.208 A 
ATOM      3  C   UNL     1      16.282   6.597  78.299  1.00  0.00     0.238 A 
ATOM      4  O   UNL     1      17.188   7.470  78.213  1.00  0.00    -0.285 OA
ATOM      5  C   UNL     1      15.487   6.490  79.458  1.00  0.00     0.111 A 
ATOM      6  C   UNL     1      15.639   7.336  80.582  1.00  0.00     0.134 A 
ATOM      7  C   UNL     1      14.814   7.159  81.703  1.00  0.00     0.093 A 
ATOM      8  C   UNL     1      13.841   6.153  81.720  1.00  0.00     0.123 A 
ATOM      9  C   UNL     1      13.687   5.317  80.613  1.00  0.00     0.094 A 
ATOM     10  C   UNL     1      14.499   5.478  79.486  1.00  0.00     0.146 A 
ATOM     11  O   UNL     1      14.326   4.670  78.445  1.00  0.00    -0.452 OA
ENDROOT
BRANCH   1  12
ATOM     12  C   UNL     1      14.749   3.800  76.236  1.00  0.00     0.025 A 
ATOM     13  C   UNL     1      15.754   2.928  75.788  1.00  0.00     0.016 A 
ATOM     14  C   UNL     1      15.490   2.006  74.772  1.00  0.00     0.051 A 
ATOM     15  C   UNL     1      14.213   1.934  74.199  1.00  0.00     0.157 A 
ATOM     16  C   UNL     1      13.464   3.709  75.673  1.00  0.00     0.062 A 
ATOM     17  C   UNL     1      13.198   2.785  74.653  1.00  0.00     0.158 A 
BRANCH  15  18
ATOM     18  O   UNL     1      13.947   1.018  73.182  1.00  0.00    -0.504 OA
ATOM     19  H   UNL     1      13.901   1.302  72.211  1.00  0.00     0.293 HD
ENDBRANCH  15  18
BRANCH  17  20
ATOM     20  O   UNL     1      11.926   2.700  74.091  1.00  0.00    -0.504 OA
ATOM     21  H   UNL     1      11.477   3.506  73.670  1.00  0.00     0.293 HD
ENDBRANCH  17  20
ENDBRANCH   1  12
BRANCH   2  22
ATOM     22  O   UNL     1      16.876   5.768  76.088  1.00  0.00    -0.502 OA
ATOM     23  H   UNL     1      17.735   6.305  76.055  1.00  0.00     0.293 HD
ENDBRANCH   2  22
BRANCH   6  24
ATOM     24  O   UNL     1      16.601   8.347  80.595  1.00  0.00    -0.507 OA
ATOM     25  H   UNL     1      16.719   8.982  79.814  1.00  0.00     0.293 HD
ENDBRANCH   6  24
BRANCH   8  26
ATOM     26  O   UNL     1      13.021   5.977  82.833  1.00  0.00    -0.508 OA
ATOM     27  H   UNL     1      12.026   6.160  82.792  1.00  0.00     0.293 HD
ENDBRANCH   8  26
TORSDOF 6
ENDMDL
MODEL 6
REMARK VINA RESULT:    -7.880      5.133      6.445
REMARK INTER + INTRA:          -9.778
REMARK INTER:                  -9.641
REMARK INTRA:                  -0.137
REMARK UNBOUND:                -0.285
REMARK SMILES O=c1c(O)c(-c2ccc(O)c(O)c2)oc2cc(O)cc(O)c12
REMARK SMILES IDX 5 1 3 2 2 3 1 4 22 5 20 6 19 7 17 8 16 9 15 10 14 11 6 12
REMARK SMILES IDX 7 13 8 14 9 15 13 16 11 17 10 18 12 20 4 22 21 24 18 26
REMARK H PARENT 10 19 12 21 4 23 21 25 18 27
REMARK Flexibility Score: inf
ROOT
ATOM      1  C   UNL     1      17.348   5.208  77.724  1.00  0.00     0.180 A 
ATOM      2  C   UNL     1      16.271   4.502  77.156  1.00  0.00     0.208 A 
ATOM      3  C   UNL     1      16.475   3.806  75.953  1.00  0.00     0.238 A 
ATOM      4  O   UNL     1      15.514   3.180  75.428  1.00  0.00    -0.285 OA
ATOM      5  C   UNL     1      17.750   3.811  75.353  1.00  0.00     0.111 A 
ATOM      6  C   UNL     1      18.039   3.133  74.145  1.00  0.00     0.134 A 
ATOM      7  C   UNL     1      19.338   3.178  73.615  1.00  0.00     0.093 A 
ATOM      8  C   UNL     1      20.351   3.887  74.272  1.00  0.00     0.123 A 
ATOM      9  C   UNL     1      20.069   4.558  75.463  1.00  0.00     0.094 A 
ATOM     10  C   UNL     1      18.781   4.526  76.006  1.00  0.00     0.146 A 
ATOM     11  O   UNL     1      18.541   5.178  77.138  1.00  0.00    -0.452 OA
ENDROOT
BRANCH   1  12
ATOM     12  C   UNL     1      17.206   5.981  78.980  1.00  0.00     0.025 A 
ATOM     13  C   UNL     1      16.311   7.062  79.028  1.00  0.00     0.016 A 
ATOM     14  C   UNL     1      16.146   7.792  80.208  1.00  0.00     0.051 A 
ATOM     15  C   UNL     1      16.862   7.441  81.361  1.00  0.00     0.157 A 
ATOM     16  C   UNL     1      17.906   5.620  80.145  1.00  0.00     0.062 A 
ATOM     17  C   UNL     1      17.740   6.351  81.330  1.00  0.00     0.158 A 
BRANCH  15  18
ATOM     18  O   UNL     1      16.701   8.169  82.539  1.00  0.00    -0.504 OA
ATOM     19  H   UNL     1      17.224   7.942  83.377  1.00  0.00     0.293 HD
ENDBRANCH  15  18
BRANCH  17  20
ATOM     20  O   UNL     1      18.440   5.997  82.482  1.00  0.00    -0.504 OA
ATOM     21  H   UNL     1      19.219   5.349  82.451  1.00  0.00     0.293 HD
ENDBRANCH  17  20
ENDBRANCH   1  12
BRANCH   2  22
ATOM     22  O   UNL     1      15.029   4.472  77.795  1.00  0.00    -0.502 OA
ATOM     23  H   UNL     1      14.458   5.301  77.910  1.00  0.00     0.293 HD
ENDBRANCH   2  22
BRANCH   6  24
ATOM     24  O   UNL     1      17.051   2.417  73.468  1.00  0.00    -0.507 OA
ATOM     25  H   UNL     1      16.484   1.719  73.935  1.00  0.00     0.293 HD
ENDBRANCH   6  24
BRANCH   8  26
ATOM     26  O   UNL     1      21.641   3.932  73.747  1.00  0.00    -0.508 OA
ATOM     27  H   UNL     1      21.815   4.224  72.793  1.00  0.00     0.293 HD
ENDBRANCH   8  26
TORSDOF 6
ENDMDL
MODEL 7
REMARK VINA RESULT:    -7.808      4.069      5.665
REMARK INTER + INTRA:          -9.691
REMARK INTER:                  -9.531
REMARK INTRA:                  -0.160
REMARK UNBOUND:                -0.285
REMARK SMILES O=c1c(O)c(-c2ccc(O)c(O)c2)oc2cc(O)cc(O)c12
REMARK SMILES IDX 5 1 3 2 2 3 1 4 22 5 20 6 19 7 17 8 16 9 15 10 14 11 6 12
REMARK SMILES IDX 7 13 8 14 9 15 13 16 11 17 10 18 12 20 4 22 21 24 18 26
REMARK H PARENT 10 19 12 21 4 23 21 25 18 27
REMARK Flexibility Score: inf
ROOT
ATOM      1  C   UNL     1      18.456   3.860  77.751  1.00  0.00     0.180 A 
ATOM      2  C   UNL     1      19.182   4.022  76.556  1.00  0.00     0.208 A 
ATOM      3  C   UNL     1      19.634   2.880  75.877  1.00  0.00     0.238 A 
ATOM      4  O   UNL     1      20.296   3.013  74.811  1.00  0.00    -0.285 OA
ATOM      5  C   UNL     1      19.336   1.601  76.389  1.00  0.00     0.111 A 
ATOM      6  C   UNL     1      19.750   0.401  75.763  1.00  0.00     0.134 A 
ATOM      7  C   UNL     1      19.404  -0.835  76.332  1.00  0.00     0.093 A 
ATOM      8  C   UNL     1      18.653  -0.892  77.512  1.00  0.00     0.123 A 
ATOM      9  C   UNL     1      18.244   0.289  78.132  1.00  0.00     0.094 A 
ATOM     10  C   UNL     1      18.579   1.530  77.582  1.00  0.00     0.146 A 
ATOM     11  O   UNL     1      18.180   2.638  78.197  1.00  0.00    -0.452 OA
ENDROOT
BRANCH   1  12
ATOM     12  C   UNL     1      17.963   5.017  78.534  1.00  0.00     0.025 A 
ATOM     13  C   UNL     1      16.972   5.849  77.988  1.00  0.00     0.016 A 
ATOM     14  C   UNL     1      16.476   6.932  78.717  1.00  0.00     0.051 A 
ATOM     15  C   UNL     1      16.953   7.191  80.009  1.00  0.00     0.157 A 
ATOM     16  C   UNL     1      18.422   5.267  79.839  1.00  0.00     0.062 A 
ATOM     17  C   UNL     1      17.925   6.354  80.573  1.00  0.00     0.158 A 
BRANCH  15  18
ATOM     18  O   UNL     1      16.463   8.272  80.739  1.00  0.00    -0.504 OA
ATOM     19  H   UNL     1      15.887   8.986  80.308  1.00  0.00     0.293 HD
ENDBRANCH  15  18
BRANCH  17  20
ATOM     20  O   UNL     1      18.386   6.605  81.863  1.00  0.00    -0.504 OA
ATOM     21  H   UNL     1      18.165   5.987  82.635  1.00  0.00     0.293 HD
ENDBRANCH  17  20
ENDBRANCH   1  12
BRANCH   2  22
ATOM     22  O   UNL     1      19.423   5.299  76.043  1.00  0.00    -0.502 OA
ATOM     23  H   UNL     1      18.917   5.669  75.247  1.00  0.00     0.293 HD
ENDBRANCH   2  22
BRANCH   6  24
ATOM     24  O   UNL     1      20.498   0.425  74.586  1.00  0.00    -0.507 OA
ATOM     25  H   UNL     1      21.421   0.841  74.549  1.00  0.00     0.293 HD
ENDBRANCH   6  24
BRANCH   8  26
ATOM     26  O   UNL     1      18.310  -2.119  78.076  1.00  0.00    -0.508 OA
ATOM     27  H   UNL     1      17.343  -2.399  78.187  1.00  0.00     0.293 HD
ENDBRANCH   8  26
TORSDOF 6
ENDMDL
MODEL 8
REMARK VINA RESULT:    -7.709      4.503      6.271
REMARK INTER + INTRA:          -9.572
REMARK INTER:                  -9.316
REMARK INTRA:                  -0.256
REMARK UNBOUND:                -0.285
REMARK SMILES O=c1c(O)c(-c2ccc(O)c(O)c2)oc2cc(O)cc(O)c12
REMARK SMILES IDX 5 1 3 2 2 3 1 4 22 5 20 6 19 7 17 8 16 9 15 10 14 11 6 12
REMARK SMILES IDX 7 13 8 14 9 15 13 16 11 17 10 18 12 20 4 22 21 24 18 26
REMARK H PARENT 10 19 12 21 4 23 21 25 18 27
REMARK Flexibility Score: inf
ROOT
ATOM      1  C   UNL     1      18.401   3.490  78.530  1.00  0.00     0.180 A 
ATOM      2  C   UNL     1      17.730   2.285  78.812  1.00  0.00     0.208 A 
ATOM      3  C   UNL     1      16.971   2.190  79.989  1.00  0.00     0.238 A 
ATOM      4  O   UNL     1      16.375   1.112  80.258  1.00  0.00    -0.285 OA
ATOM      5  C   UNL     1      16.878   3.302  80.850  1.00  0.00     0.111 A 
ATOM      6  C   UNL     1      16.131   3.291  82.052  1.00  0.00     0.134 A 
ATOM      7  C   UNL     1      16.080   4.444  82.851  1.00  0.00     0.093 A 
ATOM      8  C   UNL     1      16.762   5.606  82.470  1.00  0.00     0.123 A 
ATOM      9  C   UNL     1      17.500   5.620  81.285  1.00  0.00     0.094 A 
ATOM     10  C   UNL     1      17.564   4.482  80.476  1.00  0.00     0.146 A 
ATOM     11  O   UNL     1      18.278   4.524  79.357  1.00  0.00    -0.452 OA
ENDROOT
BRANCH   1  12
ATOM     12  C   UNL     1      19.236   3.660  77.319  1.00  0.00     0.025 A 
ATOM     13  C   UNL     1      20.491   3.033  77.251  1.00  0.00     0.016 A 
ATOM     14  C   UNL     1      21.286   3.162  76.110  1.00  0.00     0.051 A 
ATOM     15  C   UNL     1      20.833   3.908  75.014  1.00  0.00     0.157 A 
ATOM     16  C   UNL     1      18.777   4.390  76.208  1.00  0.00     0.062 A 
ATOM     17  C   UNL     1      19.574   4.520  75.062  1.00  0.00     0.158 A 
BRANCH  15  18
ATOM     18  O   UNL     1      21.625   4.042  73.875  1.00  0.00    -0.504 OA
ATOM     19  H   UNL     1      21.216   4.133  72.952  1.00  0.00     0.293 HD
ENDBRANCH  15  18
BRANCH  17  20
ATOM     20  O   UNL     1      19.120   5.250  73.965  1.00  0.00    -0.504 OA
ATOM     21  H   UNL     1      19.512   5.117  73.041  1.00  0.00     0.293 HD
ENDBRANCH  17  20
ENDBRANCH   1  12
BRANCH   2  22
ATOM     22  O   UNL     1      17.798   1.213  77.918  1.00  0.00    -0.502 OA
ATOM     23  H   UNL     1      18.554   0.539  77.935  1.00  0.00     0.293 HD
ENDBRANCH   2  22
BRANCH   6  24
ATOM     24  O   UNL     1      15.441   2.148  82.458  1.00  0.00    -0.507 OA
ATOM     25  H   UNL     1      15.451   1.296  81.911  1.00  0.00     0.293 HD
ENDBRANCH   6  24
BRANCH   8  26
ATOM     26  O   UNL     1      16.711   6.750  83.262  1.00  0.00    -0.508 OA
ATOM     27  H   UNL     1      15.929   7.391  83.217  1.00  0.00     0.293 HD
ENDBRANCH   8  26
TORSDOF 6
ENDMDL
MODEL 9
REMARK VINA RESULT:    -7.681      4.308      5.461
REMARK INTER + INTRA:          -9.538
REMARK INTER:                  -9.328
REMARK INTRA:                  -0.210
REMARK UNBOUND:                -0.285
REMARK SMILES O=c1c(O)c(-c2ccc(O)c(O)c2)oc2cc(O)cc(O)c12
REMARK SMILES IDX 5 1 3 2 2 3 1 4 22 5 20 6 19 7 17 8 16 9 15 10 14 11 6 12
REMARK SMILES IDX 7 13 8 14 9 15 13 16 11 17 10 18 12 20 4 22 21 24 18 26
REMARK H PARENT 10 19 12 21 4 23 21 25 18 27
REMARK Flexibility Score: inf
ROOT
ATOM      1  C   UNL     1      18.338   3.736  78.856  1.00  0.00     0.180 A 
ATOM      2  C   UNL     1      17.934   4.843  79.625  1.00  0.00     0.208 A 
ATOM      3  C   UNL     1      17.111   4.629  80.742  1.00  0.00     0.238 A 
ATOM      4  O   UNL     1      16.733   5.614  81.432  1.00  0.00    -0.285 OA
ATOM      5  C   UNL     1      16.725   3.317  81.082  1.00  0.00     0.111 A 
ATOM      6  C   UNL     1      15.902   3.015  82.193  1.00  0.00     0.134 A 
ATOM      7  C   UNL     1      15.569   1.680  82.471  1.00  0.00     0.093 A 
ATOM      8  C   UNL     1      16.044   0.643  81.659  1.00  0.00     0.123 A 
ATOM      9  C   UNL     1      16.856   0.937  80.563  1.00  0.00     0.094 A 
ATOM     10  C   UNL     1      17.197   2.260  80.268  1.00  0.00     0.146 A 
ATOM     11  O   UNL     1      17.967   2.510  79.215  1.00  0.00    -0.452 OA
ENDROOT
BRANCH   1  12
ATOM     12  C   UNL     1      19.190   3.882  77.653  1.00  0.00     0.025 A 
ATOM     13  C   UNL     1      20.475   3.315  77.644  1.00  0.00     0.016 A 
ATOM     14  C   UNL     1      21.287   3.422  76.512  1.00  0.00     0.051 A 
ATOM     15  C   UNL     1      20.821   4.085  75.368  1.00  0.00     0.157 A 
ATOM     16  C   UNL     1      18.719   4.527  76.495  1.00  0.00     0.062 A 
ATOM     17  C   UNL     1      19.533   4.634  75.359  1.00  0.00     0.158 A 
BRANCH  15  18
ATOM     18  O   UNL     1      21.630   4.196  74.239  1.00  0.00    -0.504 OA
ATOM     19  H   UNL     1      21.243   4.418  73.329  1.00  0.00     0.293 HD
ENDBRANCH  15  18
BRANCH  17  20
ATOM     20  O   UNL     1      19.068   5.280  74.215  1.00  0.00    -0.504 OA
ATOM     21  H   UNL     1      19.062   6.291  74.142  1.00  0.00     0.293 HD
ENDBRANCH  17  20
ENDBRANCH   1  12
BRANCH   2  22
ATOM     22  O   UNL     1      18.370   6.129  79.296  1.00  0.00    -0.502 OA
ATOM     23  H   UNL     1      18.373   6.889  79.965  1.00  0.00     0.293 HD
ENDBRANCH   2  22
BRANCH   6  24
ATOM     24  O   UNL     1      15.413   4.027  83.021  1.00  0.00    -0.507 OA
ATOM     25  H   UNL     1      15.403   4.997  82.729  1.00  0.00     0.293 HD
ENDBRANCH   6  24
BRANCH   8  26
ATOM     26  O   UNL     1      15.715  -0.682  81.936  1.00  0.00    -0.508 OA
ATOM     27  H   UNL     1      15.775  -1.058  82.874  1.00  0.00     0.293 HD
ENDBRANCH   8  26
TORSDOF 6
ENDMDL
