MODEL 1
REMARK VINA RESULT:    -6.140      0.000      0.000
REMARK INTER + INTRA:          -9.802
REMARK INTER:                  -8.832
REMARK INTRA:                  -0.969
REMARK UNBOUND:                -0.969
REMARK SMILES O=c1c(O[C@@H]2O[C@H](CO)[C@H](O)[C@@H](O)[C@H]2O)c(-c2ccc(O)cc2)oc2cc(O)cc(O)c12
REMARK SMILES IDX 4 1 3 2 16 3 24 4 2 5 25 6 1 7 32 8 26 9 30 10 27 11 29 12
REMARK SMILES IDX 17 13 18 14 19 15 20 16 23 17 22 18 21 19 31 21 28 23 5 25
REMARK SMILES IDX 14 26 6 27 12 28 7 29 10 30 15 31 13 33 8 35 9 36 11 38
REMARK H PARENT 21 20 31 22 28 24 15 32 13 34 9 37 11 39
REMARK Flexibility Score: inf
ROOT
ATOM      1  O   UNL     1      -6.400 -20.759  -6.308  1.00  0.00    -0.454 OA
ENDROOT
BRANCH   1   2
ATOM      2  C   UNL     1      -6.538 -20.787  -7.708  1.00  0.00     0.214 A 
ATOM      3  C   UNL     1      -7.739 -20.394  -8.337  1.00  0.00     0.180 A 
ATOM      4  O   UNL     1      -7.987 -20.814  -9.571  1.00  0.00    -0.452 OA
ATOM      5  C   UNL     1      -5.535 -21.391  -8.491  1.00  0.00     0.239 A 
ATOM      6  C   UNL     1      -7.174 -21.625 -10.246  1.00  0.00     0.146 A 
ATOM      7  O   UNL     1      -4.355 -21.437  -8.053  1.00  0.00    -0.285 OA
ATOM      8  C   UNL     1      -5.889 -21.950  -9.737  1.00  0.00     0.111 A 
ATOM      9  C   UNL     1      -7.652 -22.301 -11.370  1.00  0.00     0.094 A 
ATOM     10  C   UNL     1      -5.037 -22.791 -10.495  1.00  0.00     0.134 A 
ATOM     11  C   UNL     1      -6.920 -23.342 -11.919  1.00  0.00     0.123 A 
ATOM     12  C   UNL     1      -5.598 -23.595 -11.494  1.00  0.00     0.093 A 
BRANCH   3  13
ATOM     13  C   UNL     1      -8.819 -19.682  -7.615  1.00  0.00     0.021 A 
ATOM     14  C   UNL     1      -9.742 -20.338  -6.788  1.00  0.00     0.016 A 
ATOM     15  C   UNL     1     -10.814 -19.635  -6.230  1.00  0.00     0.047 A 
ATOM     16  C   UNL     1     -10.971 -18.265  -6.488  1.00  0.00     0.115 A 
ATOM     17  C   UNL     1      -8.992 -18.316  -7.888  1.00  0.00     0.016 A 
ATOM     18  C   UNL     1     -10.056 -17.608  -7.323  1.00  0.00     0.047 A 
BRANCH  16  19
ATOM     19  O   UNL     1     -12.056 -17.594  -5.937  1.00  0.00    -0.508 OA
ATOM     20  H   UNL     1     -12.893 -17.410  -6.474  1.00  0.00     0.293 HD
ENDBRANCH  16  19
ENDBRANCH   3  13
BRANCH  10  21
ATOM     21  O   UNL     1      -3.655 -22.635 -10.417  1.00  0.00    -0.507 OA
ATOM     22  H   UNL     1      -3.084 -22.567 -11.254  1.00  0.00     0.293 HD
ENDBRANCH  10  21
BRANCH  11  23
ATOM     23  O   UNL     1      -7.551 -24.234 -12.787  1.00  0.00    -0.508 OA
ATOM     24  H   UNL     1      -7.031 -24.718 -13.498  1.00  0.00     0.293 HD
ENDBRANCH  11  23
ENDBRANCH   1   2
BRANCH   1  25
ATOM     25  C   UNL     1      -5.887 -19.601  -5.641  1.00  0.00     0.339 C 
ATOM     26  C   UNL     1      -4.399 -19.855  -5.207  1.00  0.00     0.214 C 
ATOM     27  O   UNL     1      -6.203 -18.427  -6.407  1.00  0.00    -0.332 OA
ATOM     28  C   UNL     1      -3.394 -19.048  -6.023  1.00  0.00     0.180 C 
ATOM     29  C   UNL     1      -5.175 -17.530  -6.829  1.00  0.00     0.179 C 
ATOM     30  C   UNL     1      -3.870 -17.610  -5.992  1.00  0.00     0.177 C 
BRANCH  26  31
ATOM     31  O   UNL     1      -4.248 -19.514  -3.850  1.00  0.00    -0.384 OA
ATOM     32  H   UNL     1      -5.132 -19.236  -3.506  1.00  0.00     0.211 HD
ENDBRANCH  26  31
BRANCH  28  33
ATOM     33  O   UNL     1      -2.113 -19.138  -5.436  1.00  0.00    -0.387 OA
ATOM     34  H   UNL     1      -1.598 -19.800  -5.974  1.00  0.00     0.211 HD
ENDBRANCH  28  33
BRANCH  29  35
ATOM     35  C   UNL     1      -4.970 -17.627  -8.391  1.00  0.00     0.191 C 
BRANCH  35  36
ATOM     36  O   UNL     1      -4.219 -16.525  -8.875  1.00  0.00    -0.394 OA
ATOM     37  H   UNL     1      -3.988 -16.787  -9.811  1.00  0.00     0.210 HD
ENDBRANCH  35  36
ENDBRANCH  29  35
BRANCH  30  38
ATOM     38  O   UNL     1      -2.876 -16.756  -6.505  1.00  0.00    -0.387 OA
ATOM     39  H   UNL     1      -1.998 -17.124  -6.209  1.00  0.00     0.211 HD
ENDBRANCH  30  38
ENDBRANCH   1  25
TORSDOF 11
ENDMDL
MODEL 2
REMARK VINA RESULT:    -6.015      2.499      6.653
REMARK INTER + INTRA:          -9.621
REMARK INTER:                  -8.123
REMARK INTRA:                  -1.499
REMARK UNBOUND:                -0.969
REMARK SMILES O=c1c(O[C@@H]2O[C@H](CO)[C@H](O)[C@@H](O)[C@H]2O)c(-c2ccc(O)cc2)oc2cc(O)cc(O)c12
REMARK SMILES IDX 4 1 3 2 16 3 24 4 2 5 25 6 1 7 32 8 26 9 30 10 27 11 29 12
REMARK SMILES IDX 17 13 18 14 19 15 20 16 23 17 22 18 21 19 31 21 28 23 5 25
REMARK SMILES IDX 14 26 6 27 12 28 7 29 10 30 15 31 13 33 8 35 9 36 11 38
REMARK H PARENT 21 20 31 22 28 24 15 32 13 34 9 37 11 39
REMARK Flexibility Score: inf
ROOT
ATOM      1  O   UNL     1      -6.484 -19.962  -8.472  1.00  0.00    -0.454 OA
ENDROOT
BRANCH   1   2
ATOM      2  C   UNL     1      -7.446 -19.848  -7.451  1.00  0.00     0.214 A 
ATOM      3  C   UNL     1      -7.432 -20.702  -6.327  1.00  0.00     0.180 A 
ATOM      4  O   UNL     1      -8.545 -20.857  -5.622  1.00  0.00    -0.452 OA
ATOM      5  C   UNL     1      -8.554 -18.997  -7.636  1.00  0.00     0.239 A 
ATOM      6  C   UNL     1      -9.700 -20.273  -5.938  1.00  0.00     0.146 A 
ATOM      7  O   UNL     1      -8.450 -18.007  -8.407  1.00  0.00    -0.285 OA
ATOM      8  C   UNL     1      -9.760 -19.297  -6.966  1.00  0.00     0.111 A 
ATOM      9  C   UNL     1     -10.888 -20.749  -5.380  1.00  0.00     0.094 A 
ATOM     10  C   UNL     1     -10.998 -18.673  -7.257  1.00  0.00     0.134 A 
ATOM     11  C   UNL     1     -12.109 -20.342  -5.894  1.00  0.00     0.123 A 
ATOM     12  C   UNL     1     -12.181 -19.292  -6.834  1.00  0.00     0.093 A 
BRANCH   3  13
ATOM     13  C   UNL     1      -6.279 -21.575  -6.007  1.00  0.00     0.021 A 
ATOM     14  C   UNL     1      -6.303 -22.965  -6.185  1.00  0.00     0.016 A 
ATOM     15  C   UNL     1      -5.233 -23.752  -5.750  1.00  0.00     0.047 A 
ATOM     16  C   UNL     1      -4.120 -23.155  -5.138  1.00  0.00     0.115 A 
ATOM     17  C   UNL     1      -5.173 -20.983  -5.374  1.00  0.00     0.016 A 
ATOM     18  C   UNL     1      -4.096 -21.765  -4.950  1.00  0.00     0.047 A 
BRANCH  16  19
ATOM     19  O   UNL     1      -3.078 -23.961  -4.698  1.00  0.00    -0.508 OA
ATOM     20  H   UNL     1      -2.169 -23.577  -4.478  1.00  0.00     0.293 HD
ENDBRANCH  16  19
ENDBRANCH   3  13
BRANCH  10  21
ATOM     21  O   UNL     1     -11.026 -17.361  -7.727  1.00  0.00    -0.507 OA
ATOM     22  H   UNL     1     -11.488 -17.122  -8.598  1.00  0.00     0.293 HD
ENDBRANCH  10  21
BRANCH  11  23
ATOM     23  O   UNL     1     -13.255 -21.080  -5.592  1.00  0.00    -0.508 OA
ATOM     24  H   UNL     1     -14.085 -20.628  -5.253  1.00  0.00     0.293 HD
ENDBRANCH  11  23
ENDBRANCH   1   2
BRANCH   1  25
ATOM     25  C   UNL     1      -6.745 -20.734  -9.647  1.00  0.00     0.339 C 
ATOM     26  C   UNL     1      -6.163 -19.998 -10.906  1.00  0.00     0.214 C 
ATOM     27  O   UNL     1      -6.387 -22.105  -9.410  1.00  0.00    -0.332 OA
ATOM     28  C   UNL     1      -4.937 -20.695 -11.490  1.00  0.00     0.180 C 
ATOM     29  C   UNL     1      -5.463 -22.779 -10.265  1.00  0.00     0.179 C 
ATOM     30  C   UNL     1      -5.317 -22.149 -11.676  1.00  0.00     0.177 C 
BRANCH  26  31
ATOM     31  O   UNL     1      -7.154 -19.929 -11.902  1.00  0.00    -0.384 OA
ATOM     32  H   UNL     1      -7.382 -18.978 -12.040  1.00  0.00     0.211 HD
ENDBRANCH  26  31
BRANCH  28  33
ATOM     33  O   UNL     1      -4.609 -20.125 -12.741  1.00  0.00    -0.387 OA
ATOM     34  H   UNL     1      -5.449 -20.108 -13.276  1.00  0.00     0.211 HD
ENDBRANCH  28  33
BRANCH  29  35
ATOM     35  C   UNL     1      -4.101 -23.035  -9.507  1.00  0.00     0.191 C 
BRANCH  35  36
ATOM     36  O   UNL     1      -3.855 -22.020  -8.547  1.00  0.00    -0.394 OA
ATOM     37  H   UNL     1      -3.211 -22.445  -7.912  1.00  0.00     0.210 HD
ENDBRANCH  35  36
ENDBRANCH  29  35
BRANCH  30  38
ATOM     38  O   UNL     1      -4.340 -22.815 -12.439  1.00  0.00    -0.387 OA
ATOM     39  H   UNL     1      -3.456 -22.589 -12.037  1.00  0.00     0.211 HD
ENDBRANCH  30  38
ENDBRANCH   1  25
TORSDOF 11
ENDMDL
MODEL 3
REMARK VINA RESULT:    -5.889      2.555      5.820
REMARK INTER + INTRA:          -9.441
REMARK INTER:                  -8.283
REMARK INTRA:                  -1.158
REMARK UNBOUND:                -0.969
REMARK SMILES O=c1c(O[C@@H]2O[C@H](CO)[C@H](O)[C@@H](O)[C@H]2O)c(-c2ccc(O)cc2)oc2cc(O)cc(O)c12
REMARK SMILES IDX 4 1 3 2 16 3 24 4 2 5 25 6 1 7 32 8 26 9 30 10 27 11 29 12
REMARK SMILES IDX 17 13 18 14 19 15 20 16 23 17 22 18 21 19 31 21 28 23 5 25
REMARK SMILES IDX 14 26 6 27 12 28 7 29 10 30 15 31 13 33 8 35 9 36 11 38
REMARK H PARENT 21 20 31 22 28 24 15 32 13 34 9 37 11 39
REMARK Flexibility Score: inf
ROOT
ATOM      1  O   UNL     1      -6.096 -20.409  -8.535  1.00  0.00    -0.454 OA
ENDROOT
BRANCH   1   2
ATOM      2  C   UNL     1      -7.032 -20.148  -7.518  1.00  0.00     0.214 A 
ATOM      3  C   UNL     1      -7.152 -20.993  -6.394  1.00  0.00     0.180 A 
ATOM      4  O   UNL     1      -8.278 -20.975  -5.691  1.00  0.00    -0.452 OA
ATOM      5  C   UNL     1      -7.996 -19.138  -7.706  1.00  0.00     0.239 A 
ATOM      6  C   UNL     1      -9.329 -20.221  -6.011  1.00  0.00     0.146 A 
ATOM      7  O   UNL     1      -7.740 -18.177  -8.478  1.00  0.00    -0.285 OA
ATOM      8  C   UNL     1      -9.235 -19.249  -7.040  1.00  0.00     0.111 A 
ATOM      9  C   UNL     1     -10.577 -20.509  -5.456  1.00  0.00     0.094 A 
ATOM     10  C   UNL     1     -10.363 -18.443  -7.335  1.00  0.00     0.134 A 
ATOM     11  C   UNL     1     -11.720 -19.921  -5.974  1.00  0.00     0.123 A 
ATOM     12  C   UNL     1     -11.628 -18.873  -6.915  1.00  0.00     0.093 A 
BRANCH   3  13
ATOM     13  C   UNL     1      -6.147 -22.032  -6.069  1.00  0.00     0.021 A 
ATOM     14  C   UNL     1      -6.276 -23.369  -6.471  1.00  0.00     0.016 A 
ATOM     15  C   UNL     1      -5.361 -24.330  -6.032  1.00  0.00     0.047 A 
ATOM     16  C   UNL     1      -4.301 -23.963  -5.190  1.00  0.00     0.115 A 
ATOM     17  C   UNL     1      -5.097 -21.673  -5.208  1.00  0.00     0.016 A 
ATOM     18  C   UNL     1      -4.174 -22.629  -4.777  1.00  0.00     0.047 A 
BRANCH  16  19
ATOM     19  O   UNL     1      -3.416 -24.941  -4.752  1.00  0.00    -0.508 OA
ATOM     20  H   UNL     1      -3.244 -25.778  -5.291  1.00  0.00     0.293 HD
ENDBRANCH  16  19
ENDBRANCH   3  13
BRANCH  10  21
ATOM     21  O   UNL     1     -10.188 -17.143  -7.805  1.00  0.00    -0.507 OA
ATOM     22  H   UNL     1     -10.977 -16.577  -8.100  1.00  0.00     0.293 HD
ENDBRANCH  10  21
BRANCH  11  23
ATOM     23  O   UNL     1     -12.966 -20.475  -5.675  1.00  0.00    -0.508 OA
ATOM     24  H   UNL     1     -13.231 -20.667  -4.725  1.00  0.00     0.293 HD
ENDBRANCH  11  23
ENDBRANCH   1   2
BRANCH   1  25
ATOM     25  C   UNL     1      -4.697 -20.199  -8.320  1.00  0.00     0.339 C 
ATOM     26  C   UNL     1      -3.928 -20.304  -9.686  1.00  0.00     0.214 C 
ATOM     27  O   UNL     1      -4.507 -19.037  -7.497  1.00  0.00    -0.332 OA
ATOM     28  C   UNL     1      -3.407 -18.958 -10.181  1.00  0.00     0.180 C 
ATOM     29  C   UNL     1      -3.684 -17.955  -7.935  1.00  0.00     0.179 C 
ATOM     30  C   UNL     1      -2.647 -18.339  -9.026  1.00  0.00     0.177 C 
BRANCH  26  31
ATOM     31  O   UNL     1      -2.836 -21.177  -9.536  1.00  0.00    -0.384 OA
ATOM     32  H   UNL     1      -2.394 -21.266 -10.416  1.00  0.00     0.211 HD
ENDBRANCH  26  31
BRANCH  28  33
ATOM     33  O   UNL     1      -2.535 -19.151 -11.274  1.00  0.00    -0.387 OA
ATOM     34  H   UNL     1      -2.522 -18.295 -11.784  1.00  0.00     0.211 HD
ENDBRANCH  28  33
BRANCH  29  35
ATOM     35  C   UNL     1      -4.571 -16.693  -8.276  1.00  0.00     0.191 C 
BRANCH  35  36
ATOM     36  O   UNL     1      -3.788 -15.511  -8.295  1.00  0.00    -0.394 OA
ATOM     37  H   UNL     1      -3.317 -15.552  -9.175  1.00  0.00     0.210 HD
ENDBRANCH  35  36
ENDBRANCH  29  35
BRANCH  30  38
ATOM     38  O   UNL     1      -1.922 -17.215  -9.465  1.00  0.00    -0.387 OA
ATOM     39  H   UNL     1      -2.571 -16.614  -9.924  1.00  0.00     0.211 HD
ENDBRANCH  30  38
ENDBRANCH   1  25
TORSDOF 11
ENDMDL
MODEL 4
REMARK VINA RESULT:    -5.819      2.384      5.917
REMARK INTER + INTRA:          -9.340
REMARK INTER:                  -8.374
REMARK INTRA:                  -0.965
REMARK UNBOUND:                -0.969
REMARK SMILES O=c1c(O[C@@H]2O[C@H](CO)[C@H](O)[C@@H](O)[C@H]2O)c(-c2ccc(O)cc2)oc2cc(O)cc(O)c12
REMARK SMILES IDX 4 1 3 2 16 3 24 4 2 5 25 6 1 7 32 8 26 9 30 10 27 11 29 12
REMARK SMILES IDX 17 13 18 14 19 15 20 16 23 17 22 18 21 19 31 21 28 23 5 25
REMARK SMILES IDX 14 26 6 27 12 28 7 29 10 30 15 31 13 33 8 35 9 36 11 38
REMARK H PARENT 21 20 31 22 28 24 15 32 13 34 9 37 11 39
REMARK Flexibility Score: inf
ROOT
ATOM      1  O   UNL     1      -6.994 -19.907  -8.552  1.00  0.00    -0.454 OA
ENDROOT
BRANCH   1   2
ATOM      2  C   UNL     1      -7.856 -19.816  -7.444  1.00  0.00     0.214 A 
ATOM      3  C   UNL     1      -7.693 -20.647  -6.315  1.00  0.00     0.180 A 
ATOM      4  O   UNL     1      -8.724 -20.837  -5.501  1.00  0.00    -0.452 OA
ATOM      5  C   UNL     1      -9.014 -19.018  -7.531  1.00  0.00     0.239 A 
ATOM      6  C   UNL     1      -9.930 -20.310  -5.710  1.00  0.00     0.146 A 
ATOM      7  O   UNL     1      -9.030 -18.039  -8.323  1.00  0.00    -0.285 OA
ATOM      8  C   UNL     1     -10.133 -19.357  -6.742  1.00  0.00     0.111 A 
ATOM      9  C   UNL     1     -11.035 -20.827  -5.031  1.00  0.00     0.094 A 
ATOM     10  C   UNL     1     -11.422 -18.794  -6.918  1.00  0.00     0.134 A 
ATOM     11  C   UNL     1     -12.317 -20.484  -5.428  1.00  0.00     0.123 A 
ATOM     12  C   UNL     1     -12.528 -19.455  -6.372  1.00  0.00     0.093 A 
BRANCH   3  13
ATOM     13  C   UNL     1      -6.476 -21.463  -6.096  1.00  0.00     0.021 A 
ATOM     14  C   UNL     1      -6.330 -22.764  -6.599  1.00  0.00     0.016 A 
ATOM     15  C   UNL     1      -5.213 -23.531  -6.259  1.00  0.00     0.047 A 
ATOM     16  C   UNL     1      -4.224 -23.004  -5.416  1.00  0.00     0.115 A 
ATOM     17  C   UNL     1      -5.494 -20.946  -5.235  1.00  0.00     0.016 A 
ATOM     18  C   UNL     1      -4.371 -21.707  -4.903  1.00  0.00     0.047 A 
BRANCH  16  19
ATOM     19  O   UNL     1      -3.133 -23.795  -5.077  1.00  0.00    -0.508 OA
ATOM     20  H   UNL     1      -2.347 -23.420  -4.563  1.00  0.00     0.293 HD
ENDBRANCH  16  19
ENDBRANCH   3  13
BRANCH  10  21
ATOM     21  O   UNL     1     -11.554 -17.493  -7.402  1.00  0.00    -0.507 OA
ATOM     22  H   UNL     1     -11.835 -16.730  -6.794  1.00  0.00     0.293 HD
ENDBRANCH  10  21
BRANCH  11  23
ATOM     23  O   UNL     1     -13.394 -21.265  -5.004  1.00  0.00    -0.508 OA
ATOM     24  H   UNL     1     -13.282 -22.249  -4.835  1.00  0.00     0.293 HD
ENDBRANCH  11  23
ENDBRANCH   1   2
BRANCH   1  25
ATOM     25  C   UNL     1      -6.080 -18.851  -8.863  1.00  0.00     0.339 C 
ATOM     26  C   UNL     1      -5.380 -18.352  -7.549  1.00  0.00     0.214 C 
ATOM     27  O   UNL     1      -5.271 -19.231  -9.987  1.00  0.00    -0.332 OA
ATOM     28  C   UNL     1      -3.907 -18.745  -7.473  1.00  0.00     0.180 C 
ATOM     29  C   UNL     1      -3.846 -19.222  -9.900  1.00  0.00     0.179 C 
ATOM     30  C   UNL     1      -3.277 -18.310  -8.779  1.00  0.00     0.177 C 
BRANCH  26  31
ATOM     31  O   UNL     1      -5.470 -16.950  -7.479  1.00  0.00    -0.384 OA
ATOM     32  H   UNL     1      -4.552 -16.585  -7.471  1.00  0.00     0.211 HD
ENDBRANCH  26  31
BRANCH  28  33
ATOM     33  O   UNL     1      -3.284 -18.074  -6.398  1.00  0.00    -0.387 OA
ATOM     34  H   UNL     1      -4.011 -17.786  -5.781  1.00  0.00     0.211 HD
ENDBRANCH  28  33
BRANCH  29  35
ATOM     35  C   UNL     1      -3.286 -20.699  -9.903  1.00  0.00     0.191 C 
BRANCH  35  36
ATOM     36  O   UNL     1      -4.311 -21.630 -10.212  1.00  0.00    -0.394 OA
ATOM     37  H   UNL     1      -4.984 -21.492  -9.488  1.00  0.00     0.210 HD
ENDBRANCH  35  36
ENDBRANCH  29  35
BRANCH  30  38
ATOM     38  O   UNL     1      -1.875 -18.405  -8.701  1.00  0.00    -0.387 OA
ATOM     39  H   UNL     1      -1.539 -17.503  -8.440  1.00  0.00     0.211 HD
ENDBRANCH  30  38
ENDBRANCH   1  25
TORSDOF 11
ENDMDL
MODEL 5
REMARK VINA RESULT:    -5.769      1.437      5.982
REMARK INTER + INTRA:          -9.267
REMARK INTER:                  -8.558
REMARK INTRA:                  -0.709
REMARK UNBOUND:                -0.969
REMARK SMILES O=c1c(O[C@@H]2O[C@H](CO)[C@H](O)[C@@H](O)[C@H]2O)c(-c2ccc(O)cc2)oc2cc(O)cc(O)c12
REMARK SMILES IDX 4 1 3 2 16 3 24 4 2 5 25 6 1 7 32 8 26 9 30 10 27 11 29 12
REMARK SMILES IDX 17 13 18 14 19 15 20 16 23 17 22 18 21 19 31 21 28 23 5 25
REMARK SMILES IDX 14 26 6 27 12 28 7 29 10 30 15 31 13 33 8 35 9 36 11 38
REMARK H PARENT 21 20 31 22 28 24 15 32 13 34 9 37 11 39
REMARK Flexibility Score: inf
ROOT
ATOM      1  O   UNL     1      -7.085 -21.420  -8.674  1.00  0.00    -0.454 OA
ENDROOT
BRANCH   1   2
ATOM      2  C   UNL     1      -6.379 -20.565  -7.808  1.00  0.00     0.214 A 
ATOM      3  C   UNL     1      -7.012 -19.475  -7.172  1.00  0.00     0.180 A 
ATOM      4  O   UNL     1      -6.270 -18.473  -6.720  1.00  0.00    -0.452 OA
ATOM      5  C   UNL     1      -4.978 -20.676  -7.714  1.00  0.00     0.239 A 
ATOM      6  C   UNL     1      -4.946 -18.418  -6.864  1.00  0.00     0.146 A 
ATOM      7  O   UNL     1      -4.429 -21.782  -7.963  1.00  0.00    -0.285 OA
ATOM      8  C   UNL     1      -4.227 -19.534  -7.366  1.00  0.00     0.111 A 
ATOM      9  C   UNL     1      -4.284 -17.202  -6.691  1.00  0.00     0.094 A 
ATOM     10  C   UNL     1      -2.816 -19.453  -7.479  1.00  0.00     0.134 A 
ATOM     11  C   UNL     1      -2.966 -17.064  -7.096  1.00  0.00     0.123 A 
ATOM     12  C   UNL     1      -2.211 -18.190  -7.488  1.00  0.00     0.093 A 
BRANCH   3  13
ATOM     13  C   UNL     1      -8.485 -19.314  -7.149  1.00  0.00     0.021 A 
ATOM     14  C   UNL     1      -9.145 -18.254  -7.787  1.00  0.00     0.016 A 
ATOM     15  C   UNL     1     -10.524 -18.084  -7.629  1.00  0.00     0.047 A 
ATOM     16  C   UNL     1     -11.260 -18.977  -6.836  1.00  0.00     0.115 A 
ATOM     17  C   UNL     1      -9.221 -20.193  -6.339  1.00  0.00     0.016 A 
ATOM     18  C   UNL     1     -10.601 -20.033  -6.188  1.00  0.00     0.047 A 
BRANCH  16  19
ATOM     19  O   UNL     1     -12.625 -18.774  -6.679  1.00  0.00    -0.508 OA
ATOM     20  H   UNL     1     -13.255 -19.541  -6.490  1.00  0.00     0.293 HD
ENDBRANCH  16  19
ENDBRANCH   3  13
BRANCH  10  21
ATOM     21  O   UNL     1      -2.038 -20.600  -7.331  1.00  0.00    -0.507 OA
ATOM     22  H   UNL     1      -1.231 -20.614  -6.715  1.00  0.00     0.293 HD
ENDBRANCH  10  21
BRANCH  11  23
ATOM     23  O   UNL     1      -2.435 -15.783  -7.262  1.00  0.00    -0.508 OA
ATOM     24  H   UNL     1      -3.007 -14.967  -7.134  1.00  0.00     0.293 HD
ENDBRANCH  11  23
ENDBRANCH   1   2
BRANCH   1  25
ATOM     25  C   UNL     1      -6.625 -21.660 -10.008  1.00  0.00     0.339 C 
ATOM     26  C   UNL     1      -6.055 -23.120 -10.118  1.00  0.00     0.214 C 
ATOM     27  O   UNL     1      -7.623 -21.225 -10.945  1.00  0.00    -0.332 OA
ATOM     28  C   UNL     1      -6.948 -24.047 -10.937  1.00  0.00     0.180 C 
ATOM     29  C   UNL     1      -8.146 -22.121 -11.927  1.00  0.00     0.179 C 
ATOM     30  C   UNL     1      -7.228 -23.332 -12.243  1.00  0.00     0.177 C 
BRANCH  26  31
ATOM     31  O   UNL     1      -4.785 -23.076 -10.720  1.00  0.00    -0.384 OA
ATOM     32  H   UNL     1      -4.107 -23.066 -10.001  1.00  0.00     0.211 HD
ENDBRANCH  26  31
BRANCH  28  33
ATOM     33  O   UNL     1      -6.274 -25.261 -11.195  1.00  0.00    -0.387 OA
ATOM     34  H   UNL     1      -6.863 -25.792 -11.799  1.00  0.00     0.211 HD
ENDBRANCH  28  33
BRANCH  29  35
ATOM     35  C   UNL     1      -9.643 -22.492 -11.590  1.00  0.00     0.191 C 
BRANCH  35  36
ATOM     36  O   UNL     1     -10.090 -21.804 -10.433  1.00  0.00    -0.394 OA
ATOM     37  H   UNL     1     -11.020 -21.525 -10.666  1.00  0.00     0.210 HD
ENDBRANCH  35  36
ENDBRANCH  29  35
BRANCH  30  38
ATOM     38  O   UNL     1      -7.833 -24.211 -13.161  1.00  0.00    -0.387 OA
ATOM     39  H   UNL     1      -7.153 -24.904 -13.388  1.00  0.00     0.211 HD
ENDBRANCH  30  38
ENDBRANCH   1  25
TORSDOF 11
ENDMDL
MODEL 6
REMARK VINA RESULT:    -5.529     10.367     12.816
REMARK INTER + INTRA:          -8.922
REMARK INTER:                  -7.854
REMARK INTRA:                  -1.068
REMARK UNBOUND:                -0.969
REMARK SMILES O=c1c(O[C@@H]2O[C@H](CO)[C@H](O)[C@@H](O)[C@H]2O)c(-c2ccc(O)cc2)oc2cc(O)cc(O)c12
REMARK SMILES IDX 4 1 3 2 16 3 24 4 2 5 25 6 1 7 32 8 26 9 30 10 27 11 29 12
REMARK SMILES IDX 17 13 18 14 19 15 20 16 23 17 22 18 21 19 31 21 28 23 5 25
REMARK SMILES IDX 14 26 6 27 12 28 7 29 10 30 15 31 13 33 8 35 9 36 11 38
REMARK H PARENT 21 20 31 22 28 24 15 32 13 34 9 37 11 39
REMARK Flexibility Score: inf
ROOT
ATOM      1  O   UNL     1      -8.432 -13.937 -18.885  1.00  0.00    -0.454 OA
ENDROOT
BRANCH   1   2
ATOM      2  C   UNL     1      -8.901 -12.979 -17.967  1.00  0.00     0.214 A 
ATOM      3  C   UNL     1      -9.691 -13.348 -16.857  1.00  0.00     0.180 A 
ATOM      4  O   UNL     1     -10.448 -12.428 -16.271  1.00  0.00    -0.452 OA
ATOM      5  C   UNL     1      -8.742 -11.609 -18.254  1.00  0.00     0.239 A 
ATOM      6  C   UNL     1     -10.532 -11.169 -16.697  1.00  0.00     0.146 A 
ATOM      7  O   UNL     1      -7.796 -11.240 -18.999  1.00  0.00    -0.285 OA
ATOM      8  C   UNL     1      -9.667 -10.690 -17.714  1.00  0.00     0.111 A 
ATOM      9  C   UNL     1     -11.591 -10.366 -16.269  1.00  0.00     0.094 A 
ATOM     10  C   UNL     1      -9.762  -9.336 -18.123  1.00  0.00     0.134 A 
ATOM     11  C   UNL     1     -11.848  -9.159 -16.900  1.00  0.00     0.123 A 
ATOM     12  C   UNL     1     -10.931  -8.624 -17.830  1.00  0.00     0.093 A 
BRANCH   3  13
ATOM     13  C   UNL     1      -9.855 -14.757 -16.431  1.00  0.00     0.021 A 
ATOM     14  C   UNL     1     -10.655 -15.676 -17.125  1.00  0.00     0.016 A 
ATOM     15  C   UNL     1     -10.870 -16.956 -16.608  1.00  0.00     0.047 A 
ATOM     16  C   UNL     1     -10.281 -17.336 -15.394  1.00  0.00     0.115 A 
ATOM     17  C   UNL     1      -9.284 -15.134 -15.204  1.00  0.00     0.016 A 
ATOM     18  C   UNL     1      -9.488 -16.417 -14.691  1.00  0.00     0.047 A 
BRANCH  16  19
ATOM     19  O   UNL     1     -10.527 -18.609 -14.892  1.00  0.00    -0.508 OA
ATOM     20  H   UNL     1      -9.800 -19.310 -14.850  1.00  0.00     0.293 HD
ENDBRANCH  16  19
ENDBRANCH   3  13
BRANCH  10  21
ATOM     21  O   UNL     1      -8.629  -8.663 -18.578  1.00  0.00    -0.507 OA
ATOM     22  H   UNL     1      -8.584  -8.282 -19.517  1.00  0.00     0.293 HD
ENDBRANCH  10  21
BRANCH  11  23
ATOM     23  O   UNL     1     -13.092  -8.551 -16.725  1.00  0.00    -0.508 OA
ATOM     24  H   UNL     1     -13.745  -8.484 -17.485  1.00  0.00     0.293 HD
ENDBRANCH  11  23
ENDBRANCH   1   2
BRANCH   1  25
ATOM     25  C   UNL     1      -7.051 -14.310 -18.919  1.00  0.00     0.339 C 
ATOM     26  C   UNL     1      -6.293 -13.650 -17.712  1.00  0.00     0.214 C 
ATOM     27  O   UNL     1      -6.941 -15.727 -19.125  1.00  0.00    -0.332 OA
ATOM     28  C   UNL     1      -5.883 -14.658 -16.643  1.00  0.00     0.180 C 
ATOM     29  C   UNL     1      -6.209 -16.545 -18.212  1.00  0.00     0.179 C 
ATOM     30  C   UNL     1      -5.159 -15.777 -17.363  1.00  0.00     0.177 C 
BRANCH  26  31
ATOM     31  O   UNL     1      -5.135 -13.008 -18.188  1.00  0.00    -0.384 OA
ATOM     32  H   UNL     1      -4.676 -13.627 -18.806  1.00  0.00     0.211 HD
ENDBRANCH  26  31
BRANCH  28  33
ATOM     33  O   UNL     1      -5.012 -14.049 -15.714  1.00  0.00    -0.387 OA
ATOM     34  H   UNL     1      -4.329 -14.733 -15.471  1.00  0.00     0.211 HD
ENDBRANCH  28  33
BRANCH  29  35
ATOM     35  C   UNL     1      -7.194 -17.459 -17.382  1.00  0.00     0.191 C 
BRANCH  35  36
ATOM     36  O   UNL     1      -6.532 -18.620 -16.907  1.00  0.00    -0.394 OA
ATOM     37  H   UNL     1      -7.109 -19.370 -17.226  1.00  0.00     0.210 HD
ENDBRANCH  35  36
ENDBRANCH  29  35
BRANCH  30  38
ATOM     38  O   UNL     1      -4.527 -16.626 -16.435  1.00  0.00    -0.387 OA
ATOM     39  H   UNL     1      -3.601 -16.280 -16.311  1.00  0.00     0.211 HD
ENDBRANCH  30  38
ENDBRANCH   1  25
TORSDOF 11
ENDMDL
MODEL 7
REMARK VINA RESULT:    -5.502      1.589      5.446
REMARK INTER + INTRA:          -8.884
REMARK INTER:                  -7.819
REMARK INTRA:                  -1.065
REMARK UNBOUND:                -0.969
REMARK SMILES O=c1c(O[C@@H]2O[C@H](CO)[C@H](O)[C@@H](O)[C@H]2O)c(-c2ccc(O)cc2)oc2cc(O)cc(O)c12
REMARK SMILES IDX 4 1 3 2 16 3 24 4 2 5 25 6 1 7 32 8 26 9 30 10 27 11 29 12
REMARK SMILES IDX 17 13 18 14 19 15 20 16 23 17 22 18 21 19 31 21 28 23 5 25
REMARK SMILES IDX 14 26 6 27 12 28 7 29 10 30 15 31 13 33 8 35 9 36 11 38
REMARK H PARENT 21 20 31 22 28 24 15 32 13 34 9 37 11 39
REMARK Flexibility Score: inf
ROOT
ATOM      1  O   UNL     1      -7.137 -21.468  -8.396  1.00  0.00    -0.454 OA
ENDROOT
BRANCH   1   2
ATOM      2  C   UNL     1      -6.427 -20.563  -7.585  1.00  0.00     0.214 A 
ATOM      3  C   UNL     1      -7.041 -19.405  -7.062  1.00  0.00     0.180 A 
ATOM      4  O   UNL     1      -6.278 -18.390  -6.675  1.00  0.00    -0.452 OA
ATOM      5  C   UNL     1      -5.033 -20.709  -7.442  1.00  0.00     0.239 A 
ATOM      6  C   UNL     1      -4.951 -18.389  -6.785  1.00  0.00     0.146 A 
ATOM      7  O   UNL     1      -4.515 -21.848  -7.580  1.00  0.00    -0.285 OA
ATOM      8  C   UNL     1      -4.255 -19.564  -7.170  1.00  0.00     0.111 A 
ATOM      9  C   UNL     1      -4.254 -17.182  -6.696  1.00  0.00     0.094 A 
ATOM     10  C   UNL     1      -2.840 -19.536  -7.248  1.00  0.00     0.134 A 
ATOM     11  C   UNL     1      -2.922 -17.120  -7.074  1.00  0.00     0.123 A 
ATOM     12  C   UNL     1      -2.194 -18.298  -7.347  1.00  0.00     0.093 A 
BRANCH   3  13
ATOM     13  C   UNL     1      -8.508 -19.198  -7.096  1.00  0.00     0.021 A 
ATOM     14  C   UNL     1      -9.109 -18.111  -7.747  1.00  0.00     0.016 A 
ATOM     15  C   UNL     1     -10.487 -17.900  -7.642  1.00  0.00     0.047 A 
ATOM     16  C   UNL     1     -11.281 -18.777  -6.889  1.00  0.00     0.115 A 
ATOM     17  C   UNL     1      -9.303 -20.062  -6.326  1.00  0.00     0.016 A 
ATOM     18  C   UNL     1     -10.682 -19.860  -6.228  1.00  0.00     0.047 A 
BRANCH  16  19
ATOM     19  O   UNL     1     -12.645 -18.533  -6.785  1.00  0.00    -0.508 OA
ATOM     20  H   UNL     1     -13.011 -17.594  -6.716  1.00  0.00     0.293 HD
ENDBRANCH  16  19
ENDBRANCH   3  13
BRANCH  10  21
ATOM     21  O   UNL     1      -2.104 -20.689  -6.981  1.00  0.00    -0.507 OA
ATOM     22  H   UNL     1      -2.452 -21.403  -6.349  1.00  0.00     0.293 HD
ENDBRANCH  10  21
BRANCH  11  23
ATOM     23  O   UNL     1      -2.345 -15.875  -7.331  1.00  0.00    -0.508 OA
ATOM     24  H   UNL     1      -1.417 -15.660  -7.011  1.00  0.00     0.293 HD
ENDBRANCH  11  23
ENDBRANCH   1   2
BRANCH   1  25
ATOM     25  C   UNL     1      -7.095 -21.368  -9.823  1.00  0.00     0.339 C 
ATOM     26  C   UNL     1      -6.149 -20.187 -10.244  1.00  0.00     0.214 C 
ATOM     27  O   UNL     1      -6.884 -22.671 -10.389  1.00  0.00    -0.332 OA
ATOM     28  C   UNL     1      -4.843 -20.665 -10.873  1.00  0.00     0.180 C 
ATOM     29  C   UNL     1      -5.791 -22.916 -11.275  1.00  0.00     0.179 C 
ATOM     30  C   UNL     1      -5.225 -21.645 -11.964  1.00  0.00     0.177 C 
BRANCH  26  31
ATOM     31  O   UNL     1      -6.816 -19.366 -11.171  1.00  0.00    -0.384 OA
ATOM     32  H   UNL     1      -7.782 -19.398 -10.965  1.00  0.00     0.211 HD
ENDBRANCH  26  31
BRANCH  28  33
ATOM     33  O   UNL     1      -4.151 -19.572 -11.438  1.00  0.00    -0.387 OA
ATOM     34  H   UNL     1      -4.807 -19.081 -12.005  1.00  0.00     0.211 HD
ENDBRANCH  28  33
BRANCH  29  35
ATOM     35  C   UNL     1      -4.710 -23.828 -10.571  1.00  0.00     0.191 C 
BRANCH  35  36
ATOM     36  O   UNL     1      -5.107 -24.163  -9.252  1.00  0.00    -0.394 OA
ATOM     37  H   UNL     1      -5.698 -23.405  -8.982  1.00  0.00     0.210 HD
ENDBRANCH  35  36
ENDBRANCH  29  35
BRANCH  30  38
ATOM     38  O   UNL     1      -4.106 -21.947 -12.762  1.00  0.00    -0.387 OA
ATOM     39  H   UNL     1      -4.455 -22.298 -13.628  1.00  0.00     0.211 HD
ENDBRANCH  30  38
ENDBRANCH   1  25
TORSDOF 11
ENDMDL
MODEL 8
REMARK VINA RESULT:    -5.336      2.140      6.035
REMARK INTER + INTRA:          -8.645
REMARK INTER:                  -7.165
REMARK INTRA:                  -1.479
REMARK UNBOUND:                -0.969
REMARK SMILES O=c1c(O[C@@H]2O[C@H](CO)[C@H](O)[C@@H](O)[C@H]2O)c(-c2ccc(O)cc2)oc2cc(O)cc(O)c12
REMARK SMILES IDX 4 1 3 2 16 3 24 4 2 5 25 6 1 7 32 8 26 9 30 10 27 11 29 12
REMARK SMILES IDX 17 13 18 14 19 15 20 16 23 17 22 18 21 19 31 21 28 23 5 25
REMARK SMILES IDX 14 26 6 27 12 28 7 29 10 30 15 31 13 33 8 35 9 36 11 38
REMARK H PARENT 21 20 31 22 28 24 15 32 13 34 9 37 11 39
REMARK Flexibility Score: inf
ROOT
ATOM      1  O   UNL     1      -6.128 -21.053  -8.407  1.00  0.00    -0.454 OA
ENDROOT
BRANCH   1   2
ATOM      2  C   UNL     1      -7.168 -20.105  -8.403  1.00  0.00     0.214 A 
ATOM      3  C   UNL     1      -6.977 -18.805  -7.886  1.00  0.00     0.180 A 
ATOM      4  O   UNL     1      -8.037 -18.098  -7.514  1.00  0.00    -0.452 OA
ATOM      5  C   UNL     1      -8.474 -20.508  -8.745  1.00  0.00     0.239 A 
ATOM      6  C   UNL     1      -9.284 -18.563  -7.568  1.00  0.00     0.146 A 
ATOM      7  O   UNL     1      -8.634 -21.497  -9.507  1.00  0.00    -0.285 OA
ATOM      8  C   UNL     1      -9.567 -19.801  -8.201  1.00  0.00     0.111 A 
ATOM      9  C   UNL     1     -10.290 -17.922  -6.844  1.00  0.00     0.094 A 
ATOM     10  C   UNL     1     -10.909 -20.253  -8.267  1.00  0.00     0.134 A 
ATOM     11  C   UNL     1     -11.520 -18.536  -6.669  1.00  0.00     0.123 A 
ATOM     12  C   UNL     1     -11.849 -19.707  -7.385  1.00  0.00     0.093 A 
BRANCH   3  13
ATOM     13  C   UNL     1      -5.635 -18.264  -7.570  1.00  0.00     0.021 A 
ATOM     14  C   UNL     1      -5.164 -18.111  -6.258  1.00  0.00     0.016 A 
ATOM     15  C   UNL     1      -3.940 -17.482  -6.016  1.00  0.00     0.047 A 
ATOM     16  C   UNL     1      -3.168 -17.003  -7.084  1.00  0.00     0.115 A 
ATOM     17  C   UNL     1      -4.869 -17.764  -8.636  1.00  0.00     0.016 A 
ATOM     18  C   UNL     1      -3.640 -17.145  -8.398  1.00  0.00     0.047 A 
BRANCH  16  19
ATOM     19  O   UNL     1      -1.964 -16.364  -6.816  1.00  0.00    -0.508 OA
ATOM     20  H   UNL     1      -1.675 -16.157  -5.870  1.00  0.00     0.293 HD
ENDBRANCH  16  19
ENDBRANCH   3  13
BRANCH  10  21
ATOM     21  O   UNL     1     -11.331 -21.031  -9.344  1.00  0.00    -0.507 OA
ATOM     22  H   UNL     1     -10.854 -20.996 -10.239  1.00  0.00     0.293 HD
ENDBRANCH  10  21
BRANCH  11  23
ATOM     23  O   UNL     1     -12.374 -18.077  -5.664  1.00  0.00    -0.508 OA
ATOM     24  H   UNL     1     -12.323 -18.451  -4.733  1.00  0.00     0.293 HD
ENDBRANCH  11  23
ENDBRANCH   1   2
BRANCH   1  25
ATOM     25  C   UNL     1      -6.070 -22.086  -7.419  1.00  0.00     0.339 C 
ATOM     26  C   UNL     1      -5.528 -23.410  -8.068  1.00  0.00     0.214 C 
ATOM     27  O   UNL     1      -5.441 -21.580  -6.231  1.00  0.00    -0.332 OA
ATOM     28  C   UNL     1      -4.118 -23.766  -7.606  1.00  0.00     0.180 C 
ATOM     29  C   UNL     1      -4.296 -22.227  -5.675  1.00  0.00     0.179 C 
ATOM     30  C   UNL     1      -4.135 -23.714  -6.092  1.00  0.00     0.177 C 
BRANCH  26  31
ATOM     31  O   UNL     1      -6.387 -24.473  -7.736  1.00  0.00    -0.384 OA
ATOM     32  H   UNL     1      -7.312 -24.126  -7.724  1.00  0.00     0.211 HD
ENDBRANCH  26  31
BRANCH  28  33
ATOM     33  O   UNL     1      -3.785 -25.069  -8.034  1.00  0.00    -0.387 OA
ATOM     34  H   UNL     1      -4.627 -25.485  -8.364  1.00  0.00     0.211 HD
ENDBRANCH  28  33
BRANCH  29  35
ATOM     35  C   UNL     1      -3.008 -21.336  -5.880  1.00  0.00     0.191 C 
BRANCH  35  36
ATOM     36  O   UNL     1      -2.032 -21.618  -4.891  1.00  0.00    -0.394 OA
ATOM     37  H   UNL     1      -1.355 -22.170  -5.375  1.00  0.00     0.210 HD
ENDBRANCH  35  36
ENDBRANCH  29  35
BRANCH  30  38
ATOM     38  O   UNL     1      -2.951 -24.269  -5.572  1.00  0.00    -0.387 OA
ATOM     39  H   UNL     1      -2.399 -23.510  -5.236  1.00  0.00     0.211 HD
ENDBRANCH  30  38
ENDBRANCH   1  25
TORSDOF 11
ENDMDL
MODEL 9
REMARK VINA RESULT:    -5.316      4.489      7.516
REMARK INTER + INTRA:          -8.616
REMARK INTER:                  -7.218
REMARK INTRA:                  -1.398
REMARK UNBOUND:                -0.969
REMARK SMILES O=c1c(O[C@@H]2O[C@H](CO)[C@H](O)[C@@H](O)[C@H]2O)c(-c2ccc(O)cc2)oc2cc(O)cc(O)c12
REMARK SMILES IDX 4 1 3 2 16 3 24 4 2 5 25 6 1 7 32 8 26 9 30 10 27 11 29 12
REMARK SMILES IDX 17 13 18 14 19 15 20 16 23 17 22 18 21 19 31 21 28 23 5 25
REMARK SMILES IDX 14 26 6 27 12 28 7 29 10 30 15 31 13 33 8 35 9 36 11 38
REMARK H PARENT 21 20 31 22 28 24 15 32 13 34 9 37 11 39
REMARK Flexibility Score: inf
ROOT
ATOM      1  O   UNL     1      -4.313 -22.699  -5.495  1.00  0.00    -0.454 OA
ENDROOT
BRANCH   1   2
ATOM      2  C   UNL     1      -4.170 -23.812  -4.645  1.00  0.00     0.214 A 
ATOM      3  C   UNL     1      -4.656 -25.085  -5.012  1.00  0.00     0.180 A 
ATOM      4  O   UNL     1      -4.887 -25.985  -4.064  1.00  0.00    -0.452 OA
ATOM      5  C   UNL     1      -3.705 -23.623  -3.329  1.00  0.00     0.239 A 
ATOM      6  C   UNL     1      -4.717 -25.740  -2.766  1.00  0.00     0.146 A 
ATOM      7  O   UNL     1      -2.967 -22.636  -3.071  1.00  0.00    -0.285 OA
ATOM      8  C   UNL     1      -4.102 -24.537  -2.330  1.00  0.00     0.111 A 
ATOM      9  C   UNL     1      -5.304 -26.586  -1.823  1.00  0.00     0.094 A 
ATOM     10  C   UNL     1      -3.910 -24.322  -0.943  1.00  0.00     0.134 A 
ATOM     11  C   UNL     1      -5.369 -26.204  -0.492  1.00  0.00     0.123 A 
ATOM     12  C   UNL     1      -4.665 -25.071  -0.032  1.00  0.00     0.093 A 
BRANCH   3  13
ATOM     13  C   UNL     1      -5.094 -25.402  -6.392  1.00  0.00     0.021 A 
ATOM     14  C   UNL     1      -6.443 -25.545  -6.749  1.00  0.00     0.016 A 
ATOM     15  C   UNL     1      -6.791 -25.965  -8.036  1.00  0.00     0.047 A 
ATOM     16  C   UNL     1      -5.795 -26.241  -8.983  1.00  0.00     0.115 A 
ATOM     17  C   UNL     1      -4.099 -25.700  -7.336  1.00  0.00     0.016 A 
ATOM     18  C   UNL     1      -4.444 -26.109  -8.626  1.00  0.00     0.047 A 
BRANCH  16  19
ATOM     19  O   UNL     1      -6.167 -26.676 -10.249  1.00  0.00    -0.508 OA
ATOM     20  H   UNL     1      -6.904 -26.220 -10.769  1.00  0.00     0.293 HD
ENDBRANCH  16  19
ENDBRANCH   3  13
BRANCH  10  21
ATOM     21  O   UNL     1      -2.823 -23.570  -0.498  1.00  0.00    -0.507 OA
ATOM     22  H   UNL     1      -2.951 -22.655  -0.079  1.00  0.00     0.293 HD
ENDBRANCH  10  21
BRANCH  11  23
ATOM     23  O   UNL     1      -6.259 -26.859   0.362  1.00  0.00    -0.508 OA
ATOM     24  H   UNL     1      -5.925 -27.478   1.079  1.00  0.00     0.293 HD
ENDBRANCH  11  23
ENDBRANCH   1   2
BRANCH   1  25
ATOM     25  C   UNL     1      -5.354 -21.741  -5.285  1.00  0.00     0.339 C 
ATOM     26  C   UNL     1      -4.744 -20.294  -5.249  1.00  0.00     0.214 C 
ATOM     27  O   UNL     1      -6.448 -22.018  -6.173  1.00  0.00    -0.332 OA
ATOM     28  C   UNL     1      -5.101 -19.467  -6.481  1.00  0.00     0.180 C 
ATOM     29  C   UNL     1      -6.940 -21.017  -7.065  1.00  0.00     0.179 C 
ATOM     30  C   UNL     1      -6.604 -19.561  -6.642  1.00  0.00     0.177 C 
BRANCH  26  31
ATOM     31  O   UNL     1      -5.216 -19.621  -4.108  1.00  0.00    -0.384 OA
ATOM     32  H   UNL     1      -4.448 -19.467  -3.506  1.00  0.00     0.211 HD
ENDBRANCH  26  31
BRANCH  28  33
ATOM     33  O   UNL     1      -4.728 -18.120  -6.282  1.00  0.00    -0.387 OA
ATOM     34  H   UNL     1      -4.144 -17.869  -7.049  1.00  0.00     0.211 HD
ENDBRANCH  28  33
BRANCH  29  35
ATOM     35  C   UNL     1      -6.567 -21.379  -8.556  1.00  0.00     0.191 C 
BRANCH  35  36
ATOM     36  O   UNL     1      -7.635 -21.071  -9.437  1.00  0.00    -0.394 OA
ATOM     37  H   UNL     1      -7.245 -21.218 -10.345  1.00  0.00     0.210 HD
ENDBRANCH  35  36
ENDBRANCH  29  35
BRANCH  30  38
ATOM     38  O   UNL     1      -7.052 -18.631  -7.599  1.00  0.00    -0.387 OA
ATOM     39  H   UNL     1      -7.903 -18.247  -7.252  1.00  0.00     0.211 HD
ENDBRANCH  30  38
ENDBRANCH   1  25
TORSDOF 11
ENDMDL
