MODEL 1
REMARK VINA RESULT:    -5.543      0.000      0.000
REMARK INTER + INTRA:         -10.703
REMARK INTER:                  -9.432
REMARK INTRA:                  -1.272
REMARK UNBOUND:                -1.272
REMARK SMILES CCCCCCCCCCCCCC(=O)[O-]
REMARK SMILES IDX 8 1 9 2 10 3 11 4 12 5 13 6 14 7 15 8 16 9 7 10 6 11 5 12
REMARK SMILES IDX 4 13 3 14 2 15 1 16
REMARK H PARENT
REMARK Flexibility Score: inf
ROOT
ATOM      1  C   UNL     1      60.811 151.811   2.462  1.00  0.00     0.000 C 
ENDROOT
BRANCH   1   2
ATOM      2  C   UNL     1      61.827 151.537   3.582  1.00  0.00     0.000 C 
BRANCH   2   3
ATOM      3  C   UNL     1      63.280 151.732   3.121  1.00  0.00     0.000 C 
BRANCH   3   4
ATOM      4  C   UNL     1      64.297 151.481   4.246  1.00  0.00     0.000 C 
BRANCH   4   5
ATOM      5  C   UNL     1      65.017 150.126   4.117  1.00  0.00     0.006 C 
BRANCH   5   6
ATOM      6  C   UNL     1      65.013 149.292   5.411  1.00  0.00     0.053 C 
BRANCH   6   7
ATOM      7  C   UNL     1      63.630 148.982   5.896  1.00  0.00     0.041 C 
ATOM      8  O   UNL     1      63.133 149.629   6.856  1.00  0.00    -0.550 OA
ATOM      9  O   UNL     1      62.900 147.957   5.308  1.00  0.00    -0.550 OA
ENDBRANCH   6   7
ENDBRANCH   5   6
ENDBRANCH   4   5
ENDBRANCH   3   4
ENDBRANCH   2   3
ENDBRANCH   1   2
BRANCH   1  10
ATOM     10  C   UNL     1      61.268 152.976   1.578  1.00  0.00     0.000 C 
BRANCH  10  11
ATOM     11  C   UNL     1      60.068 153.688   0.939  1.00  0.00    -0.000 C 
BRANCH  11  12
ATOM     12  C   UNL     1      58.810 153.530   1.806  1.00  0.00    -0.000 C 
BRANCH  12  13
ATOM     13  C   UNL     1      58.209 154.880   2.225  1.00  0.00    -0.000 C 
BRANCH  13  14
ATOM     14  C   UNL     1      58.377 155.161   3.729  1.00  0.00    -0.000 C 
BRANCH  14  15
ATOM     15  C   UNL     1      58.619 153.879   4.542  1.00  0.00    -0.003 C 
ATOM     16  C   UNL     1      59.763 154.024   5.545  1.00  0.00     0.004 C 
ENDBRANCH  14  15
ENDBRANCH  13  14
ENDBRANCH  12  13
ENDBRANCH  11  12
ENDBRANCH  10  11
ENDBRANCH   1  10
TORSDOF 12
ENDMDL
MODEL 2
REMARK VINA RESULT:    -5.417      1.056      2.388
REMARK INTER + INTRA:         -10.490
REMARK INTER:                  -9.174
REMARK INTRA:                  -1.316
REMARK UNBOUND:                -1.272
REMARK SMILES CCCCCCCCCCCCCC(=O)[O-]
REMARK SMILES IDX 8 1 9 2 10 3 11 4 12 5 13 6 14 7 15 8 16 9 7 10 6 11 5 12
REMARK SMILES IDX 4 13 3 14 2 15 1 16
REMARK H PARENT
REMARK Flexibility Score: inf
ROOT
ATOM      1  C   UNL     1      63.498 151.466   3.301  1.00  0.00     0.000 C 
ENDROOT
BRANCH   1   2
ATOM      2  C   UNL     1      64.383 152.190   4.326  1.00  0.00     0.000 C 
BRANCH   2   3
ATOM      3  C   UNL     1      65.149 151.218   5.236  1.00  0.00     0.000 C 
BRANCH   3   4
ATOM      4  C   UNL     1      65.026 149.755   4.777  1.00  0.00     0.000 C 
BRANCH   4   5
ATOM      5  C   UNL     1      64.333 148.854   5.815  1.00  0.00     0.006 C 
BRANCH   5   6
ATOM      6  C   UNL     1      62.954 148.335   5.370  1.00  0.00     0.053 C 
BRANCH   6   7
ATOM      7  C   UNL     1      61.826 148.966   6.127  1.00  0.00     0.041 C 
ATOM      8  O   UNL     1      60.715 148.379   6.221  1.00  0.00    -0.550 OA
ATOM      9  O   UNL     1      61.989 150.220   6.703  1.00  0.00    -0.550 OA
ENDBRANCH   6   7
ENDBRANCH   5   6
ENDBRANCH   4   5
ENDBRANCH   3   4
ENDBRANCH   2   3
ENDBRANCH   1   2
BRANCH   1  10
ATOM     10  C   UNL     1      62.016 151.777   3.536  1.00  0.00     0.000 C 
BRANCH  10  11
ATOM     11  C   UNL     1      61.218 151.685   2.230  1.00  0.00    -0.000 C 
BRANCH  11  12
ATOM     12  C   UNL     1      61.320 152.992   1.430  1.00  0.00    -0.000 C 
BRANCH  12  13
ATOM     13  C   UNL     1      59.951 153.652   1.202  1.00  0.00    -0.000 C 
BRANCH  13  14
ATOM     14  C   UNL     1      58.904 153.217   2.242  1.00  0.00    -0.000 C 
BRANCH  14  15
ATOM     15  C   UNL     1      58.862 154.152   3.461  1.00  0.00    -0.003 C 
ATOM     16  C   UNL     1      58.843 153.392   4.787  1.00  0.00     0.004 C 
ENDBRANCH  14  15
ENDBRANCH  13  14
ENDBRANCH  12  13
ENDBRANCH  11  12
ENDBRANCH  10  11
ENDBRANCH   1  10
TORSDOF 12
ENDMDL
MODEL 3
REMARK VINA RESULT:    -5.343      2.893      6.264
REMARK INTER + INTRA:         -10.364
REMARK INTER:                  -8.848
REMARK INTRA:                  -1.516
REMARK UNBOUND:                -1.272
REMARK SMILES CCCCCCCCCCCCCC(=O)[O-]
REMARK SMILES IDX 8 1 9 2 10 3 11 4 12 5 13 6 14 7 15 8 16 9 7 10 6 11 5 12
REMARK SMILES IDX 4 13 3 14 2 15 1 16
REMARK H PARENT
REMARK Flexibility Score: inf
ROOT
ATOM      1  C   UNL     1      64.404 152.246   4.242  1.00  0.00     0.000 C 
ENDROOT
BRANCH   1   2
ATOM      2  C   UNL     1      63.508 151.457   3.274  1.00  0.00     0.000 C 
BRANCH   2   3
ATOM      3  C   UNL     1      62.023 151.824   3.411  1.00  0.00     0.000 C 
BRANCH   3   4
ATOM      4  C   UNL     1      61.352 152.097   2.055  1.00  0.00     0.000 C 
BRANCH   4   5
ATOM      5  C   UNL     1      59.984 152.791   2.187  1.00  0.00     0.006 C 
BRANCH   5   6
ATOM      6  C   UNL     1      59.426 152.801   3.621  1.00  0.00     0.053 C 
BRANCH   6   7
ATOM      7  C   UNL     1      59.055 154.175   4.088  1.00  0.00     0.041 C 
ATOM      8  O   UNL     1      59.423 154.584   5.221  1.00  0.00    -0.550 OA
ATOM      9  O   UNL     1      58.273 154.996   3.284  1.00  0.00    -0.550 OA
ENDBRANCH   6   7
ENDBRANCH   5   6
ENDBRANCH   4   5
ENDBRANCH   3   4
ENDBRANCH   2   3
ENDBRANCH   1   2
BRANCH   1  10
ATOM     10  C   UNL     1      65.007 151.325   5.308  1.00  0.00     0.000 C 
BRANCH  10  11
ATOM     11  C   UNL     1      65.055 149.872   4.819  1.00  0.00    -0.000 C 
BRANCH  11  12
ATOM     12  C   UNL     1      64.447 148.921   5.861  1.00  0.00    -0.000 C 
BRANCH  12  13
ATOM     13  C   UNL     1      63.109 148.320   5.401  1.00  0.00    -0.000 C 
BRANCH  13  14
ATOM     14  C   UNL     1      61.925 148.777   6.272  1.00  0.00    -0.000 C 
BRANCH  14  15
ATOM     15  C   UNL     1      62.331 149.843   7.302  1.00  0.00    -0.003 C 
ATOM     16  C   UNL     1      61.668 151.196   7.042  1.00  0.00     0.004 C 
ENDBRANCH  14  15
ENDBRANCH  13  14
ENDBRANCH  12  13
ENDBRANCH  11  12
ENDBRANCH  10  11
ENDBRANCH   1  10
TORSDOF 12
ENDMDL
MODEL 4
REMARK VINA RESULT:    -5.287      2.867      6.749
REMARK INTER + INTRA:         -10.267
REMARK INTER:                  -9.336
REMARK INTRA:                  -0.931
REMARK UNBOUND:                -1.272
REMARK SMILES CCCCCCCCCCCCCC(=O)[O-]
REMARK SMILES IDX 8 1 9 2 10 3 11 4 12 5 13 6 14 7 15 8 16 9 7 10 6 11 5 12
REMARK SMILES IDX 4 13 3 14 2 15 1 16
REMARK H PARENT
REMARK Flexibility Score: inf
ROOT
ATOM      1  C   UNL     1      61.237 152.833   1.556  1.00  0.00     0.000 C 
ENDROOT
BRANCH   1   2
ATOM      2  C   UNL     1      60.212 153.766   0.895  1.00  0.00     0.000 C 
BRANCH   2   3
ATOM      3  C   UNL     1      58.839 153.716   1.583  1.00  0.00     0.000 C 
BRANCH   3   4
ATOM      4  C   UNL     1      58.100 155.064   1.528  1.00  0.00     0.000 C 
BRANCH   4   5
ATOM      5  C   UNL     1      57.880 155.688   2.918  1.00  0.00     0.006 C 
BRANCH   5   6
ATOM      6  C   UNL     1      58.503 154.880   4.071  1.00  0.00     0.053 C 
BRANCH   6   7
ATOM      7  C   UNL     1      58.650 155.681   5.327  1.00  0.00     0.041 C 
ATOM      8  O   UNL     1      58.867 156.921   5.270  1.00  0.00    -0.550 OA
ATOM      9  O   UNL     1      58.580 155.054   6.565  1.00  0.00    -0.550 OA
ENDBRANCH   6   7
ENDBRANCH   5   6
ENDBRANCH   4   5
ENDBRANCH   3   4
ENDBRANCH   2   3
ENDBRANCH   1   2
BRANCH   1  10
ATOM     10  C   UNL     1      60.597 152.029   2.693  1.00  0.00     0.000 C 
BRANCH  10  11
ATOM     11  C   UNL     1      61.610 151.748   3.810  1.00  0.00    -0.000 C 
BRANCH  11  12
ATOM     12  C   UNL     1      63.013 151.510   3.232  1.00  0.00    -0.000 C 
BRANCH  12  13
ATOM     13  C   UNL     1      64.092 152.344   3.940  1.00  0.00    -0.000 C 
BRANCH  13  14
ATOM     14  C   UNL     1      65.091 151.475   4.724  1.00  0.00    -0.000 C 
BRANCH  14  15
ATOM     15  C   UNL     1      64.929 149.977   4.422  1.00  0.00    -0.003 C 
ATOM     16  C   UNL     1      65.274 149.092   5.621  1.00  0.00     0.004 C 
ENDBRANCH  14  15
ENDBRANCH  13  14
ENDBRANCH  12  13
ENDBRANCH  11  12
ENDBRANCH  10  11
ENDBRANCH   1  10
TORSDOF 12
ENDMDL
MODEL 5
REMARK VINA RESULT:    -5.240      3.082      5.768
REMARK INTER + INTRA:         -10.187
REMARK INTER:                  -8.393
REMARK INTRA:                  -1.795
REMARK UNBOUND:                -1.272
REMARK SMILES CCCCCCCCCCCCCC(=O)[O-]
REMARK SMILES IDX 8 1 9 2 10 3 11 4 12 5 13 6 14 7 15 8 16 9 7 10 6 11 5 12
REMARK SMILES IDX 4 13 3 14 2 15 1 16
REMARK H PARENT
REMARK Flexibility Score: inf
ROOT
ATOM      1  C   UNL     1      65.042 150.097   4.172  1.00  0.00     0.000 C 
ENDROOT
BRANCH   1   2
ATOM      2  C   UNL     1      65.037 151.600   4.488  1.00  0.00     0.000 C 
BRANCH   2   3
ATOM      3  C   UNL     1      63.826 152.327   3.884  1.00  0.00     0.000 C 
BRANCH   3   4
ATOM      4  C   UNL     1      62.922 151.391   3.063  1.00  0.00     0.000 C 
BRANCH   4   5
ATOM      5  C   UNL     1      61.477 151.906   2.939  1.00  0.00     0.006 C 
BRANCH   5   6
ATOM      6  C   UNL     1      61.217 152.733   1.667  1.00  0.00     0.053 C 
BRANCH   6   7
ATOM      7  C   UNL     1      59.907 153.458   1.706  1.00  0.00     0.041 C 
ATOM      8  O   UNL     1      59.390 153.896   0.643  1.00  0.00    -0.550 OA
ATOM      9  O   UNL     1      59.270 153.680   2.920  1.00  0.00    -0.550 OA
ENDBRANCH   6   7
ENDBRANCH   5   6
ENDBRANCH   4   5
ENDBRANCH   3   4
ENDBRANCH   2   3
ENDBRANCH   1   2
BRANCH   1  10
ATOM     10  C   UNL     1      65.015 149.264   5.459  1.00  0.00     0.000 C 
BRANCH  10  11
ATOM     11  C   UNL     1      63.636 148.630   5.677  1.00  0.00    -0.000 C 
BRANCH  11  12
ATOM     12  C   UNL     1      62.734 149.549   6.513  1.00  0.00    -0.000 C 
BRANCH  12  13
ATOM     13  C   UNL     1      61.312 149.662   5.940  1.00  0.00    -0.000 C 
BRANCH  13  14
ATOM     14  C   UNL     1      60.564 150.904   6.456  1.00  0.00    -0.000 C 
BRANCH  14  15
ATOM     15  C   UNL     1      61.492 151.887   7.186  1.00  0.00    -0.003 C 
ATOM     16  C   UNL     1      61.450 153.294   6.589  1.00  0.00     0.004 C 
ENDBRANCH  14  15
ENDBRANCH  13  14
ENDBRANCH  12  13
ENDBRANCH  11  12
ENDBRANCH  10  11
ENDBRANCH   1  10
TORSDOF 12
ENDMDL
MODEL 6
REMARK VINA RESULT:    -5.212      2.183      4.209
REMARK INTER + INTRA:         -10.141
REMARK INTER:                  -8.865
REMARK INTRA:                  -1.276
REMARK UNBOUND:                -1.272
REMARK SMILES CCCCCCCCCCCCCC(=O)[O-]
REMARK SMILES IDX 8 1 9 2 10 3 11 4 12 5 13 6 14 7 15 8 16 9 7 10 6 11 5 12
REMARK SMILES IDX 4 13 3 14 2 15 1 16
REMARK H PARENT
REMARK Flexibility Score: inf
ROOT
ATOM      1  C   UNL     1      64.967 151.186   5.372  1.00  0.00     0.000 C 
ENDROOT
BRANCH   1   2
ATOM      2  C   UNL     1      65.038 149.752   4.826  1.00  0.00     0.000 C 
BRANCH   2   3
ATOM      3  C   UNL     1      64.035 148.810   5.508  1.00  0.00     0.000 C 
BRANCH   3   4
ATOM      4  C   UNL     1      63.179 149.523   6.569  1.00  0.00     0.000 C 
BRANCH   4   5
ATOM      5  C   UNL     1      61.683 149.175   6.470  1.00  0.00     0.006 C 
BRANCH   5   6
ATOM      6  C   UNL     1      60.754 150.402   6.506  1.00  0.00     0.053 C 
BRANCH   6   7
ATOM      7  C   UNL     1      61.232 151.463   7.448  1.00  0.00     0.041 C 
ATOM      8  O   UNL     1      61.153 151.291   8.694  1.00  0.00    -0.550 OA
ATOM      9  O   UNL     1      61.736 152.659   6.953  1.00  0.00    -0.550 OA
ENDBRANCH   6   7
ENDBRANCH   5   6
ENDBRANCH   4   5
ENDBRANCH   3   4
ENDBRANCH   2   3
ENDBRANCH   1   2
BRANCH   1  10
ATOM     10  C   UNL     1      64.570 152.175   4.270  1.00  0.00     0.000 C 
BRANCH  10  11
ATOM     11  C   UNL     1      63.660 151.508   3.231  1.00  0.00    -0.000 C 
BRANCH  11  12
ATOM     12  C   UNL     1      62.182 151.797   3.529  1.00  0.00    -0.000 C 
BRANCH  12  13
ATOM     13  C   UNL     1      61.325 151.861   2.254  1.00  0.00    -0.000 C 
BRANCH  13  14
ATOM     14  C   UNL     1      60.038 152.682   2.448  1.00  0.00    -0.000 C 
BRANCH  14  15
ATOM     15  C   UNL     1      59.738 153.597   1.250  1.00  0.00    -0.003 C 
ATOM     16  C   UNL     1      60.983 153.905   0.417  1.00  0.00     0.004 C 
ENDBRANCH  14  15
ENDBRANCH  13  14
ENDBRANCH  12  13
ENDBRANCH  11  12
ENDBRANCH  10  11
ENDBRANCH   1  10
TORSDOF 12
ENDMDL
MODEL 7
REMARK VINA RESULT:    -5.201      3.412      6.435
REMARK INTER + INTRA:         -10.122
REMARK INTER:                  -8.988
REMARK INTRA:                  -1.134
REMARK UNBOUND:                -1.272
REMARK SMILES CCCCCCCCCCCCCC(=O)[O-]
REMARK SMILES IDX 8 1 9 2 10 3 11 4 12 5 13 6 14 7 15 8 16 9 7 10 6 11 5 12
REMARK SMILES IDX 4 13 3 14 2 15 1 16
REMARK H PARENT
REMARK Flexibility Score: inf
ROOT
ATOM      1  C   UNL     1      64.999 151.294   4.857  1.00  0.00     0.000 C 
ENDROOT
BRANCH   1   2
ATOM      2  C   UNL     1      64.198 152.267   3.978  1.00  0.00     0.000 C 
BRANCH   2   3
ATOM      3  C   UNL     1      63.153 151.552   3.107  1.00  0.00     0.000 C 
BRANCH   3   4
ATOM      4  C   UNL     1      61.740 151.606   3.712  1.00  0.00     0.000 C 
BRANCH   4   5
ATOM      5  C   UNL     1      60.647 151.894   2.667  1.00  0.00     0.006 C 
BRANCH   5   6
ATOM      6  C   UNL     1      61.065 152.913   1.592  1.00  0.00     0.053 C 
BRANCH   6   7
ATOM      7  C   UNL     1      59.908 153.706   1.064  1.00  0.00     0.041 C 
ATOM      8  O   UNL     1      59.911 154.121  -0.125  1.00  0.00    -0.550 OA
ATOM      9  O   UNL     1      58.839 154.014   1.896  1.00  0.00    -0.550 OA
ENDBRANCH   6   7
ENDBRANCH   5   6
ENDBRANCH   4   5
ENDBRANCH   3   4
ENDBRANCH   2   3
ENDBRANCH   1   2
BRANCH   1  10
ATOM     10  C   UNL     1      64.828 149.849   4.375  1.00  0.00     0.000 C 
BRANCH  10  11
ATOM     11  C   UNL     1      64.614 148.895   5.557  1.00  0.00    -0.000 C 
BRANCH  11  12
ATOM     12  C   UNL     1      63.444 149.360   6.436  1.00  0.00    -0.000 C 
BRANCH  12  13
ATOM     13  C   UNL     1      62.121 148.667   6.072  1.00  0.00    -0.000 C 
BRANCH  13  14
ATOM     14  C   UNL     1      60.889 149.490   6.486  1.00  0.00    -0.000 C 
BRANCH  14  15
ATOM     15  C   UNL     1      59.697 148.605   6.883  1.00  0.00    -0.003 C 
ATOM     16  C   UNL     1      60.126 147.222   7.372  1.00  0.00     0.004 C 
ENDBRANCH  14  15
ENDBRANCH  13  14
ENDBRANCH  12  13
ENDBRANCH  11  12
ENDBRANCH  10  11
ENDBRANCH   1  10
TORSDOF 12
ENDMDL
MODEL 8
REMARK VINA RESULT:    -5.110      2.050      6.169
REMARK INTER + INTRA:          -9.966
REMARK INTER:                  -8.783
REMARK INTRA:                  -1.182
REMARK UNBOUND:                -1.272
REMARK SMILES CCCCCCCCCCCCCC(=O)[O-]
REMARK SMILES IDX 8 1 9 2 10 3 11 4 12 5 13 6 14 7 15 8 16 9 7 10 6 11 5 12
REMARK SMILES IDX 4 13 3 14 2 15 1 16
REMARK H PARENT
REMARK Flexibility Score: inf
ROOT
ATOM      1  C   UNL     1      61.555 151.843   2.928  1.00  0.00     0.000 C 
ENDROOT
BRANCH   1   2
ATOM      2  C   UNL     1      61.268 152.620   1.634  1.00  0.00     0.000 C 
BRANCH   2   3
ATOM      3  C   UNL     1      59.914 153.346   1.669  1.00  0.00     0.000 C 
BRANCH   3   4
ATOM      4  C   UNL     1      59.093 153.008   2.924  1.00  0.00     0.000 C 
BRANCH   4   5
ATOM      5  C   UNL     1      58.885 154.218   3.853  1.00  0.00     0.006 C 
BRANCH   5   6
ATOM      6  C   UNL     1      58.843 153.857   5.348  1.00  0.00     0.053 C 
BRANCH   6   7
ATOM      7  C   UNL     1      60.136 154.138   6.049  1.00  0.00     0.041 C 
ATOM      8  O   UNL     1      61.021 153.245   6.135  1.00  0.00    -0.550 OA
ATOM      9  O   UNL     1      60.354 155.378   6.637  1.00  0.00    -0.550 OA
ENDBRANCH   6   7
ENDBRANCH   5   6
ENDBRANCH   4   5
ENDBRANCH   3   4
ENDBRANCH   2   3
ENDBRANCH   1   2
BRANCH   1  10
ATOM     10  C   UNL     1      63.026 151.417   2.999  1.00  0.00     0.000 C 
BRANCH  10  11
ATOM     11  C   UNL     1      63.786 152.232   4.053  1.00  0.00    -0.000 C 
BRANCH  11  12
ATOM     12  C   UNL     1      65.113 151.552   4.421  1.00  0.00    -0.000 C 
BRANCH  12  13
ATOM     13  C   UNL     1      65.114 150.048   4.102  1.00  0.00    -0.000 C 
BRANCH  13  14
ATOM     14  C   UNL     1      64.980 149.177   5.363  1.00  0.00    -0.000 C 
BRANCH  14  15
ATOM     15  C   UNL     1      63.524 148.781   5.652  1.00  0.00    -0.003 C 
ATOM     16  C   UNL     1      62.889 149.628   6.754  1.00  0.00     0.004 C 
ENDBRANCH  14  15
ENDBRANCH  13  14
ENDBRANCH  12  13
ENDBRANCH  11  12
ENDBRANCH  10  11
ENDBRANCH   1  10
TORSDOF 12
ENDMDL
MODEL 9
REMARK VINA RESULT:    -5.081      3.180      6.849
REMARK INTER + INTRA:          -9.918
REMARK INTER:                  -8.778
REMARK INTRA:                  -1.139
REMARK UNBOUND:                -1.272
REMARK SMILES CCCCCCCCCCCCCC(=O)[O-]
REMARK SMILES IDX 8 1 9 2 10 3 11 4 12 5 13 6 14 7 15 8 16 9 7 10 6 11 5 12
REMARK SMILES IDX 4 13 3 14 2 15 1 16
REMARK H PARENT
REMARK Flexibility Score: inf
ROOT
ATOM      1  C   UNL     1      61.631 150.568   6.244  1.00  0.00     0.000 C 
ENDROOT
BRANCH   1   2
ATOM      2  C   UNL     1      60.963 151.723   5.484  1.00  0.00     0.000 C 
BRANCH   2   3
ATOM      3  C   UNL     1      59.584 152.087   6.055  1.00  0.00     0.000 C 
BRANCH   3   4
ATOM      4  C   UNL     1      58.656 152.721   5.006  1.00  0.00     0.000 C 
BRANCH   4   5
ATOM      5  C   UNL     1      59.422 153.401   3.856  1.00  0.00     0.006 C 
BRANCH   5   6
ATOM      6  C   UNL     1      59.041 152.879   2.459  1.00  0.00     0.053 C 
BRANCH   6   7
ATOM      7  C   UNL     1      59.579 153.735   1.354  1.00  0.00     0.041 C 
ATOM      8  O   UNL     1      58.847 154.601   0.806  1.00  0.00    -0.550 OA
ATOM      9  O   UNL     1      60.882 153.556   0.906  1.00  0.00    -0.550 OA
ENDBRANCH   6   7
ENDBRANCH   5   6
ENDBRANCH   4   5
ENDBRANCH   3   4
ENDBRANCH   2   3
ENDBRANCH   1   2
BRANCH   1  10
ATOM     10  C   UNL     1      61.553 149.264   5.442  1.00  0.00     0.000 C 
BRANCH  10  11
ATOM     11  C   UNL     1      62.868 148.479   5.536  1.00  0.00    -0.000 C 
BRANCH  11  12
ATOM     12  C   UNL     1      63.975 149.334   6.169  1.00  0.00    -0.000 C 
BRANCH  12  13
ATOM     13  C   UNL     1      65.231 149.421   5.287  1.00  0.00    -0.000 C 
BRANCH  13  14
ATOM     14  C   UNL     1      64.924 149.936   3.870  1.00  0.00    -0.000 C 
BRANCH  14  15
ATOM     15  C   UNL     1      64.357 151.364   3.874  1.00  0.00    -0.003 C 
ATOM     16  C   UNL     1      65.211 152.336   4.689  1.00  0.00     0.004 C 
ENDBRANCH  14  15
ENDBRANCH  13  14
ENDBRANCH  12  13
ENDBRANCH  11  12
ENDBRANCH  10  11
ENDBRANCH   1  10
TORSDOF 12
ENDMDL
