MODEL 1
REMARK VINA RESULT:    -4.732      0.000      0.000
REMARK INTER + INTRA:          -5.576
REMARK INTER:                  -5.424
REMARK INTRA:                  -0.152
REMARK UNBOUND:                -0.152
REMARK SMILES O=C([O-])C=Cc1ccc(O)cc1
REMARK SMILES IDX 6 1 7 2 12 3 8 4 11 5 9 6 5 7 4 8 2 9 1 10 3 11 10 12
REMARK H PARENT 10 13
REMARK Flexibility Score: inf
ROOT
ATOM      1  C   UNL     1       7.927  -6.543  -7.424  1.00  0.00    -0.025 A 
ATOM      2  C   UNL     1       7.637  -7.724  -6.710  1.00  0.00     0.012 A 
ATOM      3  C   UNL     1       8.152  -5.355  -6.707  1.00  0.00     0.012 A 
ATOM      4  C   UNL     1       7.600  -7.714  -5.312  1.00  0.00     0.047 A 
ATOM      5  C   UNL     1       8.115  -5.350  -5.309  1.00  0.00     0.047 A 
ATOM      6  C   UNL     1       7.842  -6.531  -4.608  1.00  0.00     0.115 A 
ENDROOT
BRANCH   1   7
ATOM      7  C   UNL     1       7.966  -6.496  -8.907  1.00  0.00     0.010 C 
ATOM      8  C   UNL     1       8.238  -5.387  -9.610  1.00  0.00     0.025 C 
BRANCH   8   9
ATOM      9  C   UNL     1       8.258  -5.376 -11.082  1.00  0.00     0.064 C 
ATOM     10  O   UNL     1       7.553  -4.562 -11.738  1.00  0.00    -0.545 OA
ATOM     11  O   UNL     1       9.067  -6.277 -11.761  1.00  0.00    -0.545 OA
ENDBRANCH   8   9
ENDBRANCH   1   7
BRANCH   6  12
ATOM     12  O   UNL     1       7.802  -6.538  -3.216  1.00  0.00    -0.508 OA
ATOM     13  H   UNL     1       8.429  -7.119  -2.671  1.00  0.00     0.293 HD
ENDBRANCH   6  12
TORSDOF 3
ENDMDL
MODEL 2
REMARK VINA RESULT:    -4.709      0.109      1.682
REMARK INTER + INTRA:          -5.549
REMARK INTER:                  -5.409
REMARK INTRA:                  -0.140
REMARK UNBOUND:                -0.152
REMARK SMILES O=C([O-])C=Cc1ccc(O)cc1
REMARK SMILES IDX 6 1 7 2 12 3 8 4 11 5 9 6 5 7 4 8 2 9 1 10 3 11 10 12
REMARK H PARENT 10 13
REMARK Flexibility Score: inf
ROOT
ATOM      1  C   UNL     1       7.948  -6.483  -7.461  1.00  0.00    -0.025 A 
ATOM      2  C   UNL     1       8.118  -5.322  -6.679  1.00  0.00     0.012 A 
ATOM      3  C   UNL     1       7.732  -7.711  -6.813  1.00  0.00     0.012 A 
ATOM      4  C   UNL     1       8.049  -5.393  -5.284  1.00  0.00     0.047 A 
ATOM      5  C   UNL     1       7.661  -7.778  -5.417  1.00  0.00     0.047 A 
ATOM      6  C   UNL     1       7.817  -6.616  -4.649  1.00  0.00     0.115 A 
ENDROOT
BRANCH   1   7
ATOM      7  C   UNL     1       8.024  -6.467  -8.943  1.00  0.00     0.010 C 
ATOM      8  C   UNL     1       8.265  -5.363  -9.664  1.00  0.00     0.025 C 
BRANCH   8   9
ATOM      9  C   UNL     1       8.323  -5.383 -11.135  1.00  0.00     0.064 C 
ATOM     10  O   UNL     1       9.006  -6.245 -11.750  1.00  0.00    -0.545 OA
ATOM     11  O   UNL     1       7.613  -4.435 -11.859  1.00  0.00    -0.545 OA
ENDBRANCH   8   9
ENDBRANCH   1   7
BRANCH   6  12
ATOM     12  O   UNL     1       7.750  -6.669  -3.259  1.00  0.00    -0.508 OA
ATOM     13  H   UNL     1       7.785  -7.551  -2.761  1.00  0.00     0.293 HD
ENDBRANCH   6  12
TORSDOF 3
ENDMDL
MODEL 3
REMARK VINA RESULT:    -4.685     15.875     18.247
REMARK INTER + INTRA:          -5.521
REMARK INTER:                  -5.372
REMARK INTRA:                  -0.149
REMARK UNBOUND:                -0.152
REMARK SMILES O=C([O-])C=Cc1ccc(O)cc1
REMARK SMILES IDX 6 1 7 2 12 3 8 4 11 5 9 6 5 7 4 8 2 9 1 10 3 11 10 12
REMARK H PARENT 10 13
REMARK Flexibility Score: inf
ROOT
ATOM      1  C   UNL     1      20.159  -0.098 -19.182  1.00  0.00    -0.025 A 
ATOM      2  C   UNL     1      18.962  -0.760 -18.842  1.00  0.00     0.012 A 
ATOM      3  C   UNL     1      20.843   0.622 -18.188  1.00  0.00     0.012 A 
ATOM      4  C   UNL     1      18.480  -0.718 -17.530  1.00  0.00     0.047 A 
ATOM      5  C   UNL     1      20.358   0.660 -16.876  1.00  0.00     0.047 A 
ATOM      6  C   UNL     1      19.175  -0.013 -16.544  1.00  0.00     0.115 A 
ENDROOT
BRANCH   1   7
ATOM      7  C   UNL     1      20.709  -0.100 -20.561  1.00  0.00     0.010 C 
ATOM      8  C   UNL     1      21.379   0.930 -21.098  1.00  0.00     0.025 C 
BRANCH   8   9
ATOM      9  C   UNL     1      21.900   0.896 -22.474  1.00  0.00     0.064 C 
ATOM     10  O   UNL     1      22.222   1.955 -23.077  1.00  0.00    -0.545 OA
ATOM     11  O   UNL     1      22.040  -0.325 -23.121  1.00  0.00    -0.545 OA
ENDBRANCH   8   9
ENDBRANCH   1   7
BRANCH   6  12
ATOM     12  O   UNL     1      18.681   0.017 -15.242  1.00  0.00    -0.508 OA
ATOM     13  H   UNL     1      19.046  -0.597 -14.523  1.00  0.00     0.293 HD
ENDBRANCH   6  12
TORSDOF 3
ENDMDL
MODEL 4
REMARK VINA RESULT:    -4.676      2.952      3.995
REMARK INTER + INTRA:          -5.511
REMARK INTER:                  -5.375
REMARK INTRA:                  -0.136
REMARK UNBOUND:                -0.152
REMARK SMILES O=C([O-])C=Cc1ccc(O)cc1
REMARK SMILES IDX 6 1 7 2 12 3 8 4 11 5 9 6 5 7 4 8 2 9 1 10 3 11 10 12
REMARK H PARENT 10 13
REMARK Flexibility Score: inf
ROOT
ATOM      1  C   UNL     1       8.644  -5.301 -10.678  1.00  0.00    -0.025 A 
ATOM      2  C   UNL     1       8.011  -5.386  -9.421  1.00  0.00     0.012 A 
ATOM      3  C   UNL     1      10.029  -5.523 -10.756  1.00  0.00     0.012 A 
ATOM      4  C   UNL     1       8.750  -5.710  -8.279  1.00  0.00     0.047 A 
ATOM      5  C   UNL     1      10.764  -5.848  -9.612  1.00  0.00     0.047 A 
ATOM      6  C   UNL     1      10.124  -5.945  -8.369  1.00  0.00     0.115 A 
ENDROOT
BRANCH   1   7
ATOM      7  C   UNL     1       7.910  -4.949 -11.919  1.00  0.00     0.010 C 
ATOM      8  C   UNL     1       7.905  -3.723 -12.460  1.00  0.00     0.025 C 
BRANCH   8   9
ATOM      9  C   UNL     1       7.156  -3.408 -13.688  1.00  0.00     0.064 C 
ATOM     10  O   UNL     1       6.411  -2.393 -13.756  1.00  0.00    -0.545 OA
ATOM     11  O   UNL     1       7.271  -4.244 -14.790  1.00  0.00    -0.545 OA
ENDBRANCH   8   9
ENDBRANCH   1   7
BRANCH   6  12
ATOM     12  O   UNL     1      10.845  -6.268  -7.222  1.00  0.00    -0.508 OA
ATOM     13  H   UNL     1      10.401  -6.705  -6.423  1.00  0.00     0.293 HD
ENDBRANCH   6  12
TORSDOF 3
ENDMDL
MODEL 5
REMARK VINA RESULT:    -4.661      2.960      4.120
REMARK INTER + INTRA:          -5.494
REMARK INTER:                  -5.358
REMARK INTRA:                  -0.136
REMARK UNBOUND:                -0.152
REMARK SMILES O=C([O-])C=Cc1ccc(O)cc1
REMARK SMILES IDX 6 1 7 2 12 3 8 4 11 5 9 6 5 7 4 8 2 9 1 10 3 11 10 12
REMARK H PARENT 10 13
REMARK Flexibility Score: inf
ROOT
ATOM      1  C   UNL     1       8.891  -5.294 -10.726  1.00  0.00    -0.025 A 
ATOM      2  C   UNL     1      10.271  -5.583 -10.708  1.00  0.00     0.012 A 
ATOM      3  C   UNL     1       8.175  -5.329  -9.518  1.00  0.00     0.012 A 
ATOM      4  C   UNL     1      10.916  -5.875  -9.502  1.00  0.00     0.047 A 
ATOM      5  C   UNL     1       8.824  -5.619  -8.313  1.00  0.00     0.047 A 
ATOM      6  C   UNL     1      10.198  -5.891  -8.303  1.00  0.00     0.115 A 
ENDROOT
BRANCH   1   7
ATOM      7  C   UNL     1       8.155  -4.991 -11.979  1.00  0.00     0.010 C 
ATOM      8  C   UNL     1       7.912  -3.747 -12.418  1.00  0.00     0.025 C 
BRANCH   8   9
ATOM      9  C   UNL     1       7.168  -3.484 -13.661  1.00  0.00     0.064 C 
ATOM     10  O   UNL     1       7.210  -4.290 -14.629  1.00  0.00    -0.545 OA
ATOM     11  O   UNL     1       6.407  -2.328 -13.769  1.00  0.00    -0.545 OA
ENDBRANCH   8   9
ENDBRANCH   1   7
BRANCH   6  12
ATOM     12  O   UNL     1      10.856  -6.182  -7.110  1.00  0.00    -0.508 OA
ATOM     13  H   UNL     1      11.816  -6.507  -7.101  1.00  0.00     0.293 HD
ENDBRANCH   6  12
TORSDOF 3
ENDMDL
MODEL 6
REMARK VINA RESULT:    -4.588      1.777      6.066
REMARK INTER + INTRA:          -5.410
REMARK INTER:                  -5.272
REMARK INTRA:                  -0.139
REMARK UNBOUND:                -0.152
REMARK SMILES O=C([O-])C=Cc1ccc(O)cc1
REMARK SMILES IDX 6 1 7 2 12 3 8 4 11 5 9 6 5 7 4 8 2 9 1 10 3 11 10 12
REMARK H PARENT 10 13
REMARK Flexibility Score: inf
ROOT
ATOM      1  C   UNL     1       8.226  -5.759 -10.091  1.00  0.00    -0.025 A 
ATOM      2  C   UNL     1       8.320  -6.793 -11.045  1.00  0.00     0.012 A 
ATOM      3  C   UNL     1       7.854  -4.473 -10.519  1.00  0.00     0.012 A 
ATOM      4  C   UNL     1       8.022  -6.544 -12.388  1.00  0.00     0.047 A 
ATOM      5  C   UNL     1       7.555  -4.229 -11.863  1.00  0.00     0.047 A 
ATOM      6  C   UNL     1       7.637  -5.266 -12.802  1.00  0.00     0.115 A 
ENDROOT
BRANCH   1   7
ATOM      7  C   UNL     1       8.542  -5.965  -8.655  1.00  0.00     0.010 C 
ATOM      8  C   UNL     1       7.682  -5.711  -7.659  1.00  0.00     0.025 C 
BRANCH   8   9
ATOM      9  C   UNL     1       8.035  -5.918  -6.245  1.00  0.00     0.064 C 
ATOM     10  O   UNL     1       7.613  -6.919  -5.606  1.00  0.00    -0.545 OA
ATOM     11  O   UNL     1       8.848  -4.993  -5.602  1.00  0.00    -0.545 OA
ENDBRANCH   8   9
ENDBRANCH   1   7
BRANCH   6  12
ATOM     12  O   UNL     1       7.343  -5.036 -14.143  1.00  0.00    -0.508 OA
ATOM     13  H   UNL     1       8.063  -5.062 -14.855  1.00  0.00     0.293 HD
ENDBRANCH   6  12
TORSDOF 3
ENDMDL
MODEL 7
REMARK VINA RESULT:    -4.514      2.404      2.905
REMARK INTER + INTRA:          -5.325
REMARK INTER:                  -5.183
REMARK INTRA:                  -0.141
REMARK UNBOUND:                -0.152
REMARK SMILES O=C([O-])C=Cc1ccc(O)cc1
REMARK SMILES IDX 6 1 7 2 12 3 8 4 11 5 9 6 5 7 4 8 2 9 1 10 3 11 10 12
REMARK H PARENT 10 13
REMARK Flexibility Score: inf
ROOT
ATOM      1  C   UNL     1       9.534  -6.668  -7.528  1.00  0.00    -0.025 A 
ATOM      2  C   UNL     1       8.819  -5.900  -6.585  1.00  0.00     0.012 A 
ATOM      3  C   UNL     1       9.279  -8.047  -7.612  1.00  0.00     0.012 A 
ATOM      4  C   UNL     1       7.857  -6.501  -5.768  1.00  0.00     0.047 A 
ATOM      5  C   UNL     1       8.314  -8.644  -6.793  1.00  0.00     0.047 A 
ATOM      6  C   UNL     1       7.599  -7.871  -5.870  1.00  0.00     0.115 A 
ENDROOT
BRANCH   1   7
ATOM      7  C   UNL     1      10.573  -6.083  -8.411  1.00  0.00     0.010 C 
ATOM      8  C   UNL     1      10.643  -6.309  -9.730  1.00  0.00     0.025 C 
BRANCH   8   9
ATOM      9  C   UNL     1      11.696  -5.719 -10.573  1.00  0.00     0.064 C 
ATOM     10  O   UNL     1      11.547  -4.588 -11.109  1.00  0.00    -0.545 OA
ATOM     11  O   UNL     1      12.876  -6.421 -10.783  1.00  0.00    -0.545 OA
ENDBRANCH   8   9
ENDBRANCH   1   7
BRANCH   6  12
ATOM     12  O   UNL     1       6.637  -8.454  -5.049  1.00  0.00    -0.508 OA
ATOM     13  H   UNL     1       6.090  -7.901  -4.399  1.00  0.00     0.293 HD
ENDBRANCH   6  12
TORSDOF 3
ENDMDL
MODEL 8
REMARK VINA RESULT:    -4.506     14.188     17.322
REMARK INTER + INTRA:          -5.316
REMARK INTER:                  -5.178
REMARK INTRA:                  -0.138
REMARK UNBOUND:                -0.152
REMARK SMILES O=C([O-])C=Cc1ccc(O)cc1
REMARK SMILES IDX 6 1 7 2 12 3 8 4 11 5 9 6 5 7 4 8 2 9 1 10 3 11 10 12
REMARK H PARENT 10 13
REMARK Flexibility Score: inf
ROOT
ATOM      1  C   UNL     1      19.567  -0.726 -18.488  1.00  0.00    -0.025 A 
ATOM      2  C   UNL     1      20.646   0.121 -18.162  1.00  0.00     0.012 A 
ATOM      3  C   UNL     1      19.215  -0.887 -19.839  1.00  0.00     0.012 A 
ATOM      4  C   UNL     1      21.366   0.768 -19.170  1.00  0.00     0.047 A 
ATOM      5  C   UNL     1      19.940  -0.239 -20.845  1.00  0.00     0.047 A 
ATOM      6  C   UNL     1      21.020   0.589 -20.512  1.00  0.00     0.115 A 
ENDROOT
BRANCH   1   7
ATOM      7  C   UNL     1      18.761  -1.427 -17.457  1.00  0.00     0.010 C 
ATOM      8  C   UNL     1      18.350  -0.855 -16.317  1.00  0.00     0.025 C 
BRANCH   8   9
ATOM      9  C   UNL     1      17.561  -1.586 -15.311  1.00  0.00     0.064 C 
ATOM     10  O   UNL     1      16.499  -1.101 -14.836  1.00  0.00    -0.545 OA
ATOM     11  O   UNL     1      17.994  -2.832 -14.878  1.00  0.00    -0.545 OA
ENDBRANCH   8   9
ENDBRANCH   1   7
BRANCH   6  12
ATOM     12  O   UNL     1      21.748   1.240 -21.504  1.00  0.00    -0.508 OA
ATOM     13  H   UNL     1      21.672   0.972 -22.479  1.00  0.00     0.293 HD
ENDBRANCH   6  12
TORSDOF 3
ENDMDL
MODEL 9
REMARK VINA RESULT:    -4.503      1.352      5.926
REMARK INTER + INTRA:          -5.313
REMARK INTER:                  -5.174
REMARK INTRA:                  -0.139
REMARK UNBOUND:                -0.152
REMARK SMILES O=C([O-])C=Cc1ccc(O)cc1
REMARK SMILES IDX 6 1 7 2 12 3 8 4 11 5 9 6 5 7 4 8 2 9 1 10 3 11 10 12
REMARK H PARENT 10 13
REMARK Flexibility Score: inf
ROOT
ATOM      1  C   UNL     1       8.177  -6.561  -9.159  1.00  0.00    -0.025 A 
ATOM      2  C   UNL     1       8.262  -5.291  -9.764  1.00  0.00     0.012 A 
ATOM      3  C   UNL     1       7.951  -7.686  -9.971  1.00  0.00     0.012 A 
ATOM      4  C   UNL     1       8.147  -5.160 -11.151  1.00  0.00     0.047 A 
ATOM      5  C   UNL     1       7.839  -7.550 -11.359  1.00  0.00     0.047 A 
ATOM      6  C   UNL     1       7.939  -6.285 -11.953  1.00  0.00     0.115 A 
ENDROOT
BRANCH   1   7
ATOM      7  C   UNL     1       8.279  -6.756  -7.691  1.00  0.00     0.010 C 
ATOM      8  C   UNL     1       7.763  -5.909  -6.789  1.00  0.00     0.025 C 
BRANCH   8   9
ATOM      9  C   UNL     1       7.894  -6.129  -5.339  1.00  0.00     0.064 C 
ATOM     10  O   UNL     1       8.232  -5.194  -4.565  1.00  0.00    -0.545 OA
ATOM     11  O   UNL     1       7.641  -7.389  -4.815  1.00  0.00    -0.545 OA
ENDBRANCH   8   9
ENDBRANCH   1   7
BRANCH   6  12
ATOM     12  O   UNL     1       7.829  -6.138 -13.333  1.00  0.00    -0.508 OA
ATOM     13  H   UNL     1       8.101  -5.279 -13.797  1.00  0.00     0.293 HD
ENDBRANCH   6  12
TORSDOF 3
ENDMDL
