MODEL 1
REMARK VINA RESULT:    -5.057      0.000      0.000
REMARK INTER + INTRA:          -9.675
REMARK INTER:                  -8.604
REMARK INTRA:                  -1.071
REMARK UNBOUND:                -1.071
REMARK SMILES CCCCCCCCCCCCCC(=O)[O-]
REMARK SMILES IDX 8 1 9 2 10 3 11 4 12 5 13 6 14 7 15 8 16 9 7 10 6 11 5 12
REMARK SMILES IDX 4 13 3 14 2 15 1 16
REMARK H PARENT
REMARK Flexibility Score: inf
ROOT
ATOM      1  C   UNL     1      44.778  51.057  10.741  1.00  0.00     0.000 C 
ENDROOT
BRANCH   1   2
ATOM      2  C   UNL     1      45.960  50.602  11.609  1.00  0.00     0.000 C 
BRANCH   2   3
ATOM      3  C   UNL     1      47.146  50.166  10.737  1.00  0.00     0.000 C 
BRANCH   3   4
ATOM      4  C   UNL     1      47.426  48.654  10.815  1.00  0.00     0.000 C 
BRANCH   4   5
ATOM      5  C   UNL     1      46.436  47.766  10.035  1.00  0.00     0.006 C 
BRANCH   5   6
ATOM      6  C   UNL     1      46.435  46.288  10.456  1.00  0.00     0.053 C 
BRANCH   6   7
ATOM      7  C   UNL     1      45.058  45.698  10.427  1.00  0.00     0.041 C 
ATOM      8  O   UNL     1      44.642  45.115   9.391  1.00  0.00    -0.550 OA
ATOM      9  O   UNL     1      44.223  45.821  11.530  1.00  0.00    -0.550 OA
ENDBRANCH   6   7
ENDBRANCH   5   6
ENDBRANCH   4   5
ENDBRANCH   3   4
ENDBRANCH   2   3
ENDBRANCH   1   2
BRANCH   1  10
ATOM     10  C   UNL     1      43.464  50.337  11.090  1.00  0.00     0.000 C 
BRANCH  10  11
ATOM     11  C   UNL     1      43.575  49.274  12.203  1.00  0.00    -0.000 C 
BRANCH  11  12
ATOM     12  C   UNL     1      42.400  49.240  13.195  1.00  0.00    -0.000 C 
BRANCH  12  13
ATOM     13  C   UNL     1      42.428  50.344  14.270  1.00  0.00    -0.000 C 
BRANCH  13  14
ATOM     14  C   UNL     1      41.038  50.933  14.591  1.00  0.00    -0.000 C 
BRANCH  14  15
ATOM     15  C   UNL     1      40.022  50.693  13.464  1.00  0.00    -0.003 C 
ATOM     16  C   UNL     1      38.961  51.790  13.437  1.00  0.00     0.004 C 
ENDBRANCH  14  15
ENDBRANCH  13  14
ENDBRANCH  12  13
ENDBRANCH  11  12
ENDBRANCH  10  11
ENDBRANCH   1  10
TORSDOF 12
ENDMDL
MODEL 2
REMARK VINA RESULT:    -4.973      2.819      5.840
REMARK INTER + INTRA:          -9.532
REMARK INTER:                  -7.954
REMARK INTRA:                  -1.578
REMARK UNBOUND:                -1.071
REMARK SMILES CCCCCCCCCCCCCC(=O)[O-]
REMARK SMILES IDX 8 1 9 2 10 3 11 4 12 5 13 6 14 7 15 8 16 9 7 10 6 11 5 12
REMARK SMILES IDX 4 13 3 14 2 15 1 16
REMARK H PARENT
REMARK Flexibility Score: inf
ROOT
ATOM      1  C   UNL     1      46.466  50.734  11.446  1.00  0.00     0.000 C 
ENDROOT
BRANCH   1   2
ATOM      2  C   UNL     1      45.342  51.272  10.548  1.00  0.00     0.000 C 
BRANCH   2   3
ATOM      3  C   UNL     1      44.043  50.483  10.762  1.00  0.00     0.000 C 
BRANCH   3   4
ATOM      4  C   UNL     1      43.906  49.928  12.191  1.00  0.00     0.000 C 
BRANCH   4   5
ATOM      5  C   UNL     1      42.457  49.791  12.701  1.00  0.00     0.006 C 
BRANCH   5   6
ATOM      6  C   UNL     1      42.241  50.265  14.147  1.00  0.00     0.053 C 
BRANCH   6   7
ATOM      7  C   UNL     1      40.856  50.797  14.362  1.00  0.00     0.041 C 
ATOM      8  O   UNL     1      40.004  50.735  13.437  1.00  0.00    -0.550 OA
ATOM      9  O   UNL     1      40.518  51.391  15.571  1.00  0.00    -0.550 OA
ENDBRANCH   6   7
ENDBRANCH   5   6
ENDBRANCH   4   5
ENDBRANCH   3   4
ENDBRANCH   2   3
ENDBRANCH   1   2
BRANCH   1  10
ATOM     10  C   UNL     1      47.516  49.920  10.671  1.00  0.00     0.000 C 
BRANCH  10  11
ATOM     11  C   UNL     1      47.265  48.397  10.631  1.00  0.00    -0.000 C 
BRANCH  11  12
ATOM     12  C   UNL     1      46.628  47.873   9.332  1.00  0.00    -0.000 C 
BRANCH  12  13
ATOM     13  C   UNL     1      45.274  47.161   9.516  1.00  0.00    -0.000 C 
BRANCH  13  14
ATOM     14  C   UNL     1      45.234  46.209  10.731  1.00  0.00    -0.000 C 
BRANCH  14  15
ATOM     15  C   UNL     1      43.854  46.169  11.403  1.00  0.00    -0.003 C 
ATOM     16  C   UNL     1      42.799  46.847  10.532  1.00  0.00     0.004 C 
ENDBRANCH  14  15
ENDBRANCH  13  14
ENDBRANCH  12  13
ENDBRANCH  11  12
ENDBRANCH  10  11
ENDBRANCH   1  10
TORSDOF 12
ENDMDL
MODEL 3
REMARK VINA RESULT:    -4.948      3.286      6.838
REMARK INTER + INTRA:          -9.490
REMARK INTER:                  -8.225
REMARK INTRA:                  -1.265
REMARK UNBOUND:                -1.071
REMARK SMILES CCCCCCCCCCCCCC(=O)[O-]
REMARK SMILES IDX 8 1 9 2 10 3 11 4 12 5 13 6 14 7 15 8 16 9 7 10 6 11 5 12
REMARK SMILES IDX 4 13 3 14 2 15 1 16
REMARK H PARENT
REMARK Flexibility Score: inf
ROOT
ATOM      1  C   UNL     1      43.446  49.168  11.064  1.00  0.00     0.000 C 
ENDROOT
BRANCH   1   2
ATOM      2  C   UNL     1      43.436  47.830  11.816  1.00  0.00     0.000 C 
BRANCH   2   3
ATOM      3  C   UNL     1      42.235  47.743  12.768  1.00  0.00     0.000 C 
BRANCH   3   4
ATOM      4  C   UNL     1      40.891  48.005  12.065  1.00  0.00     0.000 C 
BRANCH   4   5
ATOM      5  C   UNL     1      39.955  48.991  12.793  1.00  0.00     0.006 C 
BRANCH   5   6
ATOM      6  C   UNL     1      40.592  50.348  13.127  1.00  0.00     0.053 C 
BRANCH   6   7
ATOM      7  C   UNL     1      39.736  51.158  14.052  1.00  0.00     0.041 C 
ATOM      8  O   UNL     1      40.076  51.315  15.255  1.00  0.00    -0.550 OA
ATOM      9  O   UNL     1      38.545  51.709  13.597  1.00  0.00    -0.550 OA
ENDBRANCH   6   7
ENDBRANCH   5   6
ENDBRANCH   4   5
ENDBRANCH   3   4
ENDBRANCH   2   3
ENDBRANCH   1   2
BRANCH   1  10
ATOM     10  C   UNL     1      44.151  50.291  11.844  1.00  0.00     0.000 C 
BRANCH  10  11
ATOM     11  C   UNL     1      45.256  51.035  11.065  1.00  0.00    -0.000 C 
BRANCH  11  12
ATOM     12  C   UNL     1      46.696  50.714  11.505  1.00  0.00    -0.000 C 
BRANCH  12  13
ATOM     13  C   UNL     1      47.522  49.912  10.482  1.00  0.00    -0.000 C 
BRANCH  13  14
ATOM     14  C   UNL     1      47.526  48.391  10.744  1.00  0.00    -0.000 C 
BRANCH  14  15
ATOM     15  C   UNL     1      46.636  47.621   9.756  1.00  0.00    -0.003 C 
ATOM     16  C   UNL     1      46.631  46.127  10.069  1.00  0.00     0.004 C 
ENDBRANCH  14  15
ENDBRANCH  13  14
ENDBRANCH  12  13
ENDBRANCH  11  12
ENDBRANCH  10  11
ENDBRANCH   1  10
TORSDOF 12
ENDMDL
MODEL 4
REMARK VINA RESULT:    -4.934      2.550      5.539
REMARK INTER + INTRA:          -9.466
REMARK INTER:                  -7.960
REMARK INTRA:                  -1.506
REMARK UNBOUND:                -1.071
REMARK SMILES CCCCCCCCCCCCCC(=O)[O-]
REMARK SMILES IDX 8 1 9 2 10 3 11 4 12 5 13 6 14 7 15 8 16 9 7 10 6 11 5 12
REMARK SMILES IDX 4 13 3 14 2 15 1 16
REMARK H PARENT
REMARK Flexibility Score: inf
ROOT
ATOM      1  C   UNL     1      46.611  51.133  11.452  1.00  0.00     0.000 C 
ENDROOT
BRANCH   1   2
ATOM      2  C   UNL     1      45.503  51.739  10.578  1.00  0.00     0.000 C 
BRANCH   2   3
ATOM      3  C   UNL     1      44.241  50.865  10.606  1.00  0.00     0.000 C 
BRANCH   3   4
ATOM      4  C   UNL     1      44.213  49.888  11.794  1.00  0.00     0.000 C 
BRANCH   4   5
ATOM      5  C   UNL     1      43.628  48.496  11.481  1.00  0.00     0.006 C 
BRANCH   5   6
ATOM      6  C   UNL     1      42.738  47.913  12.590  1.00  0.00     0.053 C 
BRANCH   6   7
ATOM      7  C   UNL     1      41.289  48.222  12.368  1.00  0.00     0.041 C 
ATOM      8  O   UNL     1      40.893  49.417  12.347  1.00  0.00    -0.550 OA
ATOM      9  O   UNL     1      40.372  47.190  12.218  1.00  0.00    -0.550 OA
ENDBRANCH   6   7
ENDBRANCH   5   6
ENDBRANCH   4   5
ENDBRANCH   3   4
ENDBRANCH   2   3
ENDBRANCH   1   2
BRANCH   1  10
ATOM     10  C   UNL     1      47.661  50.357  10.638  1.00  0.00     0.000 C 
BRANCH  10  11
ATOM     11  C   UNL     1      47.479  48.824  10.627  1.00  0.00    -0.000 C 
BRANCH  11  12
ATOM     12  C   UNL     1      46.764  48.259   9.386  1.00  0.00    -0.000 C 
BRANCH  12  13
ATOM     13  C   UNL     1      46.748  46.722   9.292  1.00  0.00    -0.000 C 
BRANCH  13  14
ATOM     14  C   UNL     1      46.516  46.019  10.647  1.00  0.00    -0.000 C 
BRANCH  14  15
ATOM     15  C   UNL     1      45.176  45.270  10.699  1.00  0.00    -0.003 C 
ATOM     16  C   UNL     1      44.453  45.341   9.357  1.00  0.00     0.004 C 
ENDBRANCH  14  15
ENDBRANCH  13  14
ENDBRANCH  12  13
ENDBRANCH  11  12
ENDBRANCH  10  11
ENDBRANCH   1  10
TORSDOF 12
ENDMDL
MODEL 5
REMARK VINA RESULT:    -4.879      2.744      6.300
REMARK INTER + INTRA:          -9.373
REMARK INTER:                  -7.840
REMARK INTRA:                  -1.533
REMARK UNBOUND:                -1.071
REMARK SMILES CCCCCCCCCCCCCC(=O)[O-]
REMARK SMILES IDX 8 1 9 2 10 3 11 4 12 5 13 6 14 7 15 8 16 9 7 10 6 11 5 12
REMARK SMILES IDX 4 13 3 14 2 15 1 16
REMARK H PARENT
REMARK Flexibility Score: inf
ROOT
ATOM      1  C   UNL     1      44.520  50.618  11.807  1.00  0.00     0.000 C 
ENDROOT
BRANCH   1   2
ATOM      2  C   UNL     1      43.954  50.232  10.433  1.00  0.00     0.000 C 
BRANCH   2   3
ATOM      3  C   UNL     1      42.905  49.119  10.565  1.00  0.00     0.000 C 
BRANCH   3   4
ATOM      4  C   UNL     1      42.957  48.401  11.925  1.00  0.00     0.000 C 
BRANCH   4   5
ATOM      5  C   UNL     1      41.658  48.475  12.752  1.00  0.00     0.006 C 
BRANCH   5   6
ATOM      6  C   UNL     1      40.903  49.808  12.637  1.00  0.00     0.053 C 
BRANCH   6   7
ATOM      7  C   UNL     1      40.902  50.566  13.930  1.00  0.00     0.041 C 
ATOM      8  O   UNL     1      39.884  51.221  14.278  1.00  0.00    -0.550 OA
ATOM      9  O   UNL     1      42.035  50.576  14.733  1.00  0.00    -0.550 OA
ENDBRANCH   6   7
ENDBRANCH   5   6
ENDBRANCH   4   5
ENDBRANCH   3   4
ENDBRANCH   2   3
ENDBRANCH   1   2
BRANCH   1  10
ATOM     10  C   UNL     1      46.019  50.964  11.763  1.00  0.00     0.000 C 
BRANCH  10  11
ATOM     11  C   UNL     1      46.692  50.785  10.386  1.00  0.00    -0.000 C 
BRANCH  11  12
ATOM     12  C   UNL     1      47.938  49.882  10.380  1.00  0.00    -0.000 C 
BRANCH  12  13
ATOM     13  C   UNL     1      47.664  48.398  10.691  1.00  0.00    -0.000 C 
BRANCH  13  14
ATOM     14  C   UNL     1      46.691  47.726   9.699  1.00  0.00    -0.000 C 
BRANCH  14  15
ATOM     15  C   UNL     1      45.752  46.721  10.384  1.00  0.00    -0.003 C 
ATOM     16  C   UNL     1      46.481  45.419  10.706  1.00  0.00     0.004 C 
ENDBRANCH  14  15
ENDBRANCH  13  14
ENDBRANCH  12  13
ENDBRANCH  11  12
ENDBRANCH  10  11
ENDBRANCH   1  10
TORSDOF 12
ENDMDL
MODEL 6
REMARK VINA RESULT:    -4.865      3.088      6.333
REMARK INTER + INTRA:          -9.349
REMARK INTER:                  -8.137
REMARK INTRA:                  -1.211
REMARK UNBOUND:                -1.071
REMARK SMILES CCCCCCCCCCCCCC(=O)[O-]
REMARK SMILES IDX 8 1 9 2 10 3 11 4 12 5 13 6 14 7 15 8 16 9 7 10 6 11 5 12
REMARK SMILES IDX 4 13 3 14 2 15 1 16
REMARK H PARENT
REMARK Flexibility Score: inf
ROOT
ATOM      1  C   UNL     1      44.493  46.107  11.021  1.00  0.00     0.000 C 
ENDROOT
BRANCH   1   2
ATOM      2  C   UNL     1      43.371  46.179  12.067  1.00  0.00     0.000 C 
BRANCH   2   3
ATOM      3  C   UNL     1      42.655  47.535  12.013  1.00  0.00     0.000 C 
BRANCH   3   4
ATOM      4  C   UNL     1      42.723  48.304  13.345  1.00  0.00     0.000 C 
BRANCH   4   5
ATOM      5  C   UNL     1      42.391  49.807  13.249  1.00  0.00     0.006 C 
BRANCH   5   6
ATOM      6  C   UNL     1      40.957  50.116  12.794  1.00  0.00     0.053 C 
BRANCH   6   7
ATOM      7  C   UNL     1      40.180  50.850  13.844  1.00  0.00     0.041 C 
ATOM      8  O   UNL     1      38.963  51.117  13.661  1.00  0.00    -0.550 OA
ATOM      9  O   UNL     1      40.809  51.269  15.010  1.00  0.00    -0.550 OA
ENDBRANCH   6   7
ENDBRANCH   5   6
ENDBRANCH   4   5
ENDBRANCH   3   4
ENDBRANCH   2   3
ENDBRANCH   1   2
BRANCH   1  10
ATOM     10  C   UNL     1      44.474  47.291  10.039  1.00  0.00     0.000 C 
BRANCH  10  11
ATOM     11  C   UNL     1      45.748  47.452   9.183  1.00  0.00    -0.000 C 
BRANCH  11  12
ATOM     12  C   UNL     1      47.072  47.208   9.929  1.00  0.00    -0.000 C 
BRANCH  12  13
ATOM     13  C   UNL     1      47.561  48.392  10.784  1.00  0.00    -0.000 C 
BRANCH  13  14
ATOM     14  C   UNL     1      47.045  49.764  10.299  1.00  0.00    -0.000 C 
BRANCH  14  15
ATOM     15  C   UNL     1      46.351  50.560  11.414  1.00  0.00    -0.003 C 
ATOM     16  C   UNL     1      44.952  50.997  10.989  1.00  0.00     0.004 C 
ENDBRANCH  14  15
ENDBRANCH  13  14
ENDBRANCH  12  13
ENDBRANCH  11  12
ENDBRANCH  10  11
ENDBRANCH   1  10
TORSDOF 12
ENDMDL
MODEL 7
REMARK VINA RESULT:    -4.839      2.615      6.307
REMARK INTER + INTRA:          -9.306
REMARK INTER:                  -8.025
REMARK INTRA:                  -1.281
REMARK UNBOUND:                -1.071
REMARK SMILES CCCCCCCCCCCCCC(=O)[O-]
REMARK SMILES IDX 8 1 9 2 10 3 11 4 12 5 13 6 14 7 15 8 16 9 7 10 6 11 5 12
REMARK SMILES IDX 4 13 3 14 2 15 1 16
REMARK H PARENT
REMARK Flexibility Score: inf
ROOT
ATOM      1  C   UNL     1      46.886  50.966  10.708  1.00  0.00     0.000 C 
ENDROOT
BRANCH   1   2
ATOM      2  C   UNL     1      45.636  51.168   9.840  1.00  0.00     0.000 C 
BRANCH   2   3
ATOM      3  C   UNL     1      44.357  51.017  10.674  1.00  0.00     0.000 C 
BRANCH   3   4
ATOM      4  C   UNL     1      44.522  50.048  11.858  1.00  0.00     0.000 C 
BRANCH   4   5
ATOM      5  C   UNL     1      43.589  48.821  11.832  1.00  0.00     0.006 C 
BRANCH   5   6
ATOM      6  C   UNL     1      42.764  48.618  13.112  1.00  0.00     0.053 C 
BRANCH   6   7
ATOM      7  C   UNL     1      41.953  49.831  13.455  1.00  0.00     0.041 C 
ATOM      8  O   UNL     1      40.977  50.164  12.734  1.00  0.00    -0.550 OA
ATOM      9  O   UNL     1      42.297  50.612  14.551  1.00  0.00    -0.550 OA
ENDBRANCH   6   7
ENDBRANCH   5   6
ENDBRANCH   4   5
ENDBRANCH   3   4
ENDBRANCH   2   3
ENDBRANCH   1   2
BRANCH   1  10
ATOM     10  C   UNL     1      47.840  49.895  10.149  1.00  0.00     0.000 C 
BRANCH  10  11
ATOM     11  C   UNL     1      47.638  48.476  10.722  1.00  0.00    -0.000 C 
BRANCH  11  12
ATOM     12  C   UNL     1      46.688  47.574   9.914  1.00  0.00    -0.000 C 
BRANCH  12  13
ATOM     13  C   UNL     1      46.195  46.320  10.661  1.00  0.00    -0.000 C 
BRANCH  13  14
ATOM     14  C   UNL     1      45.820  45.149   9.728  1.00  0.00    -0.000 C 
BRANCH  14  15
ATOM     15  C   UNL     1      46.381  45.324   8.309  1.00  0.00    -0.003 C 
ATOM     16  C   UNL     1      47.583  44.412   8.075  1.00  0.00     0.004 C 
ENDBRANCH  14  15
ENDBRANCH  13  14
ENDBRANCH  12  13
ENDBRANCH  11  12
ENDBRANCH  10  11
ENDBRANCH   1  10
TORSDOF 12
ENDMDL
MODEL 8
REMARK VINA RESULT:    -4.808      2.321      5.214
REMARK INTER + INTRA:          -9.253
REMARK INTER:                  -7.280
REMARK INTRA:                  -1.973
REMARK UNBOUND:                -1.071
REMARK SMILES CCCCCCCCCCCCCC(=O)[O-]
REMARK SMILES IDX 8 1 9 2 10 3 11 4 12 5 13 6 14 7 15 8 16 9 7 10 6 11 5 12
REMARK SMILES IDX 4 13 3 14 2 15 1 16
REMARK H PARENT
REMARK Flexibility Score: inf
ROOT
ATOM      1  C   UNL     1      45.861  51.013  11.759  1.00  0.00     0.000 C 
ENDROOT
BRANCH   1   2
ATOM      2  C   UNL     1      44.547  50.303  12.116  1.00  0.00     0.000 C 
BRANCH   2   3
ATOM      3  C   UNL     1      43.600  50.261  10.909  1.00  0.00     0.000 C 
BRANCH   3   4
ATOM      4  C   UNL     1      42.371  49.363  11.140  1.00  0.00     0.000 C 
BRANCH   4   5
ATOM      5  C   UNL     1      42.317  48.674  12.518  1.00  0.00     0.006 C 
BRANCH   5   6
ATOM      6  C   UNL     1      42.129  47.150  12.463  1.00  0.00     0.053 C 
BRANCH   6   7
ATOM      7  C   UNL     1      40.867  46.765  11.753  1.00  0.00     0.041 C 
ATOM      8  O   UNL     1      40.919  46.240  10.609  1.00  0.00    -0.550 OA
ATOM      9  O   UNL     1      39.633  47.017  12.338  1.00  0.00    -0.550 OA
ENDBRANCH   6   7
ENDBRANCH   5   6
ENDBRANCH   4   5
ENDBRANCH   3   4
ENDBRANCH   2   3
ENDBRANCH   1   2
BRANCH   1  10
ATOM     10  C   UNL     1      46.303  50.764  10.306  1.00  0.00     0.000 C 
BRANCH  10  11
ATOM     11  C   UNL     1      47.637  50.004  10.148  1.00  0.00    -0.000 C 
BRANCH  11  12
ATOM     12  C   UNL     1      47.631  48.557  10.672  1.00  0.00    -0.000 C 
BRANCH  12  13
ATOM     13  C   UNL     1      46.784  47.572   9.844  1.00  0.00    -0.000 C 
BRANCH  13  14
ATOM     14  C   UNL     1      45.616  46.942  10.633  1.00  0.00    -0.000 C 
BRANCH  14  15
ATOM     15  C   UNL     1      44.444  46.538   9.726  1.00  0.00    -0.003 C 
ATOM     16  C   UNL     1      44.280  47.519   8.568  1.00  0.00     0.004 C 
ENDBRANCH  14  15
ENDBRANCH  13  14
ENDBRANCH  12  13
ENDBRANCH  11  12
ENDBRANCH  10  11
ENDBRANCH   1  10
TORSDOF 12
ENDMDL
MODEL 9
REMARK VINA RESULT:    -4.756      2.593      5.041
REMARK INTER + INTRA:          -9.164
REMARK INTER:                  -7.515
REMARK INTRA:                  -1.649
REMARK UNBOUND:                -1.071
REMARK SMILES CCCCCCCCCCCCCC(=O)[O-]
REMARK SMILES IDX 8 1 9 2 10 3 11 4 12 5 13 6 14 7 15 8 16 9 7 10 6 11 5 12
REMARK SMILES IDX 4 13 3 14 2 15 1 16
REMARK H PARENT
REMARK Flexibility Score: inf
ROOT
ATOM      1  C   UNL     1      47.606  48.633  10.693  1.00  0.00     0.000 C 
ENDROOT
BRANCH   1   2
ATOM      2  C   UNL     1      47.707  50.147  10.456  1.00  0.00     0.000 C 
BRANCH   2   3
ATOM      3  C   UNL     1      46.585  50.633   9.529  1.00  0.00     0.000 C 
BRANCH   3   4
ATOM      4  C   UNL     1      45.612  51.605  10.221  1.00  0.00     0.000 C 
BRANCH   4   5
ATOM      5  C   UNL     1      44.250  50.998  10.610  1.00  0.00     0.006 C 
BRANCH   5   6
ATOM      6  C   UNL     1      44.286  50.086  11.846  1.00  0.00     0.053 C 
BRANCH   6   7
ATOM      7  C   UNL     1      42.912  49.771  12.353  1.00  0.00     0.041 C 
ATOM      8  O   UNL     1      42.763  49.194  13.462  1.00  0.00    -0.550 OA
ATOM      9  O   UNL     1      41.798  50.083  11.585  1.00  0.00    -0.550 OA
ENDBRANCH   6   7
ENDBRANCH   5   6
ENDBRANCH   4   5
ENDBRANCH   3   4
ENDBRANCH   2   3
ENDBRANCH   1   2
BRANCH   1  10
ATOM     10  C   UNL     1      46.769  47.911   9.622  1.00  0.00     0.000 C 
BRANCH  10  11
ATOM     11  C   UNL     1      46.975  46.384   9.549  1.00  0.00    -0.000 C 
BRANCH  11  12
ATOM     12  C   UNL     1      46.410  45.590  10.741  1.00  0.00    -0.000 C 
BRANCH  12  13
ATOM     13  C   UNL     1      44.912  45.247  10.638  1.00  0.00    -0.000 C 
BRANCH  13  14
ATOM     14  C   UNL     1      44.002  46.190  11.453  1.00  0.00    -0.000 C 
BRANCH  14  15
ATOM     15  C   UNL     1      42.755  46.627  10.669  1.00  0.00    -0.003 C 
ATOM     16  C   UNL     1      43.136  47.474   9.457  1.00  0.00     0.004 C 
ENDBRANCH  14  15
ENDBRANCH  13  14
ENDBRANCH  12  13
ENDBRANCH  11  12
ENDBRANCH  10  11
ENDBRANCH   1  10
TORSDOF 12
ENDMDL
