MODEL 1
REMARK VINA RESULT:    -5.297      0.000      0.000
REMARK INTER + INTRA:          -6.704
REMARK INTER:                  -6.381
REMARK INTRA:                  -0.323
REMARK UNBOUND:                -0.323
REMARK SMILES O=c1c(O)c(-c2ccc(O)c(O)c2)oc2cc(O)cc(O)c12
REMARK SMILES IDX 5 1 3 2 2 3 1 4 22 5 20 6 19 7 17 8 16 9 15 10 14 11 6 12
REMARK SMILES IDX 7 13 8 14 9 15 13 16 11 17 10 18 12 20 4 22 21 24 18 26
REMARK H PARENT 10 19 12 21 4 23 21 25 18 27
REMARK Flexibility Score: inf
ROOT
ATOM      1  C   UNL     1      74.437  71.693  25.665  1.00  0.00     0.180 A 
ATOM      2  C   UNL     1      75.835  71.722  25.801  1.00  0.00     0.208 A 
ATOM      3  C   UNL     1      76.451  70.841  26.705  1.00  0.00     0.238 A 
ATOM      4  O   UNL     1      77.707  70.834  26.782  1.00  0.00    -0.285 OA
ATOM      5  C   UNL     1      75.659  69.954  27.475  1.00  0.00     0.111 A 
ATOM      6  C   UNL     1      76.173  69.048  28.450  1.00  0.00     0.134 A 
ATOM      7  C   UNL     1      75.311  68.126  29.057  1.00  0.00     0.093 A 
ATOM      8  C   UNL     1      73.946  68.121  28.774  1.00  0.00     0.123 A 
ATOM      9  C   UNL     1      73.423  69.044  27.867  1.00  0.00     0.094 A 
ATOM     10  C   UNL     1      74.263  69.951  27.217  1.00  0.00     0.146 A 
ATOM     11  O   UNL     1      73.728  70.805  26.353  1.00  0.00    -0.452 OA
ENDROOT
BRANCH   1  12
ATOM     12  C   UNL     1      73.714  72.607  24.752  1.00  0.00     0.025 A 
ATOM     13  C   UNL     1      73.309  73.869  25.216  1.00  0.00     0.016 A 
ATOM     14  C   UNL     1      72.644  74.756  24.365  1.00  0.00     0.051 A 
ATOM     15  C   UNL     1      72.390  74.401  23.034  1.00  0.00     0.157 A 
ATOM     16  C   UNL     1      73.475  72.263  23.410  1.00  0.00     0.062 A 
ATOM     17  C   UNL     1      72.812  73.150  22.553  1.00  0.00     0.158 A 
BRANCH  15  18
ATOM     18  O   UNL     1      71.725  75.287  22.188  1.00  0.00    -0.504 OA
ATOM     19  H   UNL     1      71.323  74.982  21.309  1.00  0.00     0.293 HD
ENDBRANCH  15  18
BRANCH  17  20
ATOM     20  O   UNL     1      72.586  72.773  21.230  1.00  0.00    -0.504 OA
ATOM     21  H   UNL     1      73.298  72.867  20.515  1.00  0.00     0.293 HD
ENDBRANCH  17  20
ENDBRANCH   1  12
BRANCH   2  22
ATOM     22  O   UNL     1      76.599  72.589  25.016  1.00  0.00    -0.502 OA
ATOM     23  H   UNL     1      76.828  72.389  24.050  1.00  0.00     0.293 HD
ENDBRANCH   2  22
BRANCH   6  24
ATOM     24  O   UNL     1      77.504  69.031  28.874  1.00  0.00    -0.507 OA
ATOM     25  H   UNL     1      78.237  69.611  28.493  1.00  0.00     0.293 HD
ENDBRANCH   6  24
BRANCH   8  26
ATOM     26  O   UNL     1      73.117  67.200  29.409  1.00  0.00    -0.508 OA
ATOM     27  H   UNL     1      73.271  66.924  30.372  1.00  0.00     0.293 HD
ENDBRANCH   8  26
TORSDOF 6
ENDMDL
MODEL 2
REMARK VINA RESULT:    -5.192      1.587      6.744
REMARK INTER + INTRA:          -6.578
REMARK INTER:                  -6.656
REMARK INTRA:                   0.079
REMARK UNBOUND:                -0.323
REMARK SMILES O=c1c(O)c(-c2ccc(O)c(O)c2)oc2cc(O)cc(O)c12
REMARK SMILES IDX 5 1 3 2 2 3 1 4 22 5 20 6 19 7 17 8 16 9 15 10 14 11 6 12
REMARK SMILES IDX 7 13 8 14 9 15 13 16 11 17 10 18 12 20 4 22 21 24 18 26
REMARK H PARENT 10 19 12 21 4 23 21 25 18 27
REMARK Flexibility Score: inf
ROOT
ATOM      1  C   UNL     1      74.697  71.583  25.388  1.00  0.00     0.180 A 
ATOM      2  C   UNL     1      75.027  71.621  24.022  1.00  0.00     0.208 A 
ATOM      3  C   UNL     1      74.135  72.228  23.123  1.00  0.00     0.238 A 
ATOM      4  O   UNL     1      74.461  72.307  21.910  1.00  0.00    -0.285 OA
ATOM      5  C   UNL     1      72.917  72.773  23.597  1.00  0.00     0.111 A 
ATOM      6  C   UNL     1      71.922  73.374  22.770  1.00  0.00     0.134 A 
ATOM      7  C   UNL     1      70.816  73.997  23.362  1.00  0.00     0.093 A 
ATOM      8  C   UNL     1      70.637  73.984  24.745  1.00  0.00     0.123 A 
ATOM      9  C   UNL     1      71.574  73.346  25.559  1.00  0.00     0.094 A 
ATOM     10  C   UNL     1      72.706  72.748  25.001  1.00  0.00     0.146 A 
ATOM     11  O   UNL     1      73.579  72.161  25.811  1.00  0.00    -0.452 OA
ENDROOT
BRANCH   1  12
ATOM     12  C   UNL     1      75.574  70.940  26.392  1.00  0.00     0.025 A 
ATOM     13  C   UNL     1      76.945  71.243  26.408  1.00  0.00     0.016 A 
ATOM     14  C   UNL     1      77.787  70.663  27.360  1.00  0.00     0.051 A 
ATOM     15  C   UNL     1      77.269  69.786  28.321  1.00  0.00     0.157 A 
ATOM     16  C   UNL     1      75.054  70.075  27.371  1.00  0.00     0.062 A 
ATOM     17  C   UNL     1      75.895  69.494  28.328  1.00  0.00     0.158 A 
BRANCH  15  18
ATOM     18  O   UNL     1      78.112  69.207  29.268  1.00  0.00    -0.504 OA
ATOM     19  H   UNL     1      77.760  68.865  30.155  1.00  0.00     0.293 HD
ENDBRANCH  15  18
BRANCH  17  20
ATOM     20  O   UNL     1      75.346  68.635  29.280  1.00  0.00    -0.504 OA
ATOM     21  H   UNL     1      75.664  67.680  29.391  1.00  0.00     0.293 HD
ENDBRANCH  17  20
ENDBRANCH   1  12
BRANCH   2  22
ATOM     22  O   UNL     1      76.243  71.097  23.578  1.00  0.00    -0.502 OA
ATOM     23  H   UNL     1      76.342  70.139  23.264  1.00  0.00     0.293 HD
ENDBRANCH   2  22
BRANCH   6  24
ATOM     24  O   UNL     1      71.957  73.363  21.373  1.00  0.00    -0.507 OA
ATOM     25  H   UNL     1      71.912  72.531  20.803  1.00  0.00     0.293 HD
ENDBRANCH   6  24
BRANCH   8  26
ATOM     26  O   UNL     1      69.517  74.600  25.298  1.00  0.00    -0.508 OA
ATOM     27  H   UNL     1      68.775  74.061  25.731  1.00  0.00     0.293 HD
ENDBRANCH   8  26
TORSDOF 6
ENDMDL
MODEL 3
REMARK VINA RESULT:    -5.187      2.209      2.948
REMARK INTER + INTRA:          -6.571
REMARK INTER:                  -6.308
REMARK INTRA:                  -0.263
REMARK UNBOUND:                -0.323
REMARK SMILES O=c1c(O)c(-c2ccc(O)c(O)c2)oc2cc(O)cc(O)c12
REMARK SMILES IDX 5 1 3 2 2 3 1 4 22 5 20 6 19 7 17 8 16 9 15 10 14 11 6 12
REMARK SMILES IDX 7 13 8 14 9 15 13 16 11 17 10 18 12 20 4 22 21 24 18 26
REMARK H PARENT 10 19 12 21 4 23 21 25 18 27
REMARK Flexibility Score: inf
ROOT
ATOM      1  C   UNL     1      73.837  73.088  25.867  1.00  0.00     0.180 A 
ATOM      2  C   UNL     1      74.522  74.174  26.438  1.00  0.00     0.208 A 
ATOM      3  C   UNL     1      75.433  73.933  27.479  1.00  0.00     0.238 A 
ATOM      4  O   UNL     1      76.084  74.902  27.949  1.00  0.00    -0.285 OA
ATOM      5  C   UNL     1      75.635  72.612  27.948  1.00  0.00     0.111 A 
ATOM      6  C   UNL     1      76.502  72.257  29.024  1.00  0.00     0.134 A 
ATOM      7  C   UNL     1      76.723  70.905  29.316  1.00  0.00     0.093 A 
ATOM      8  C   UNL     1      76.059  69.899  28.616  1.00  0.00     0.123 A 
ATOM      9  C   UNL     1      75.162  70.237  27.602  1.00  0.00     0.094 A 
ATOM     10  C   UNL     1      74.949  71.575  27.262  1.00  0.00     0.146 A 
ATOM     11  O   UNL     1      74.096  71.854  26.284  1.00  0.00    -0.452 OA
ENDROOT
BRANCH   1  12
ATOM     12  C   UNL     1      72.843  73.265  24.783  1.00  0.00     0.025 A 
ATOM     13  C   UNL     1      73.145  72.814  23.489  1.00  0.00     0.016 A 
ATOM     14  C   UNL     1      72.214  72.953  22.456  1.00  0.00     0.051 A 
ATOM     15  C   UNL     1      70.962  73.529  22.706  1.00  0.00     0.157 A 
ATOM     16  C   UNL     1      71.578  73.824  25.035  1.00  0.00     0.062 A 
ATOM     17  C   UNL     1      70.642  73.963  24.003  1.00  0.00     0.158 A 
BRANCH  15  18
ATOM     18  O   UNL     1      70.037  73.667  21.673  1.00  0.00    -0.504 OA
ATOM     19  H   UNL     1      70.217  73.301  20.745  1.00  0.00     0.293 HD
ENDBRANCH  15  18
BRANCH  17  20
ATOM     20  O   UNL     1      69.398  74.527  24.287  1.00  0.00    -0.504 OA
ATOM     21  H   UNL     1      68.648  74.548  23.607  1.00  0.00     0.293 HD
ENDBRANCH  17  20
ENDBRANCH   1  12
BRANCH   2  22
ATOM     22  O   UNL     1      74.326  75.466  25.946  1.00  0.00    -0.502 OA
ATOM     23  H   UNL     1      74.992  76.214  26.097  1.00  0.00     0.293 HD
ENDBRANCH   2  22
BRANCH   6  24
ATOM     24  O   UNL     1      77.145  73.186  29.847  1.00  0.00    -0.507 OA
ATOM     25  H   UNL     1      78.070  73.557  29.684  1.00  0.00     0.293 HD
ENDBRANCH   6  24
BRANCH   8  26
ATOM     26  O   UNL     1      76.291  68.566  28.944  1.00  0.00    -0.508 OA
ATOM     27  H   UNL     1      76.253  67.833  28.244  1.00  0.00     0.293 HD
ENDBRANCH   8  26
TORSDOF 6
ENDMDL
MODEL 4
REMARK VINA RESULT:    -5.185      1.833      7.389
REMARK INTER + INTRA:          -6.569
REMARK INTER:                  -6.502
REMARK INTRA:                  -0.067
REMARK UNBOUND:                -0.323
REMARK SMILES O=c1c(O)c(-c2ccc(O)c(O)c2)oc2cc(O)cc(O)c12
REMARK SMILES IDX 5 1 3 2 2 3 1 4 22 5 20 6 19 7 17 8 16 9 15 10 14 11 6 12
REMARK SMILES IDX 7 13 8 14 9 15 13 16 11 17 10 18 12 20 4 22 21 24 18 26
REMARK H PARENT 10 19 12 21 4 23 21 25 18 27
REMARK Flexibility Score: inf
ROOT
ATOM      1  C   UNL     1      74.187  71.752  25.372  1.00  0.00     0.180 A 
ATOM      2  C   UNL     1      72.833  71.393  25.247  1.00  0.00     0.208 A 
ATOM      3  C   UNL     1      72.017  72.115  24.362  1.00  0.00     0.238 A 
ATOM      4  O   UNL     1      70.820  71.755  24.214  1.00  0.00    -0.285 OA
ATOM      5  C   UNL     1      72.558  73.199  23.627  1.00  0.00     0.111 A 
ATOM      6  C   UNL     1      71.813  74.024  22.734  1.00  0.00     0.134 A 
ATOM      7  C   UNL     1      72.479  74.983  21.961  1.00  0.00     0.093 A 
ATOM      8  C   UNL     1      73.851  75.191  22.096  1.00  0.00     0.123 A 
ATOM      9  C   UNL     1      74.580  74.429  23.012  1.00  0.00     0.094 A 
ATOM     10  C   UNL     1      73.949  73.439  23.770  1.00  0.00     0.146 A 
ATOM     11  O   UNL     1      74.680  72.730  24.621  1.00  0.00    -0.452 OA
ENDROOT
BRANCH   1  12
ATOM     12  C   UNL     1      75.104  71.054  26.302  1.00  0.00     0.025 A 
ATOM     13  C   UNL     1      76.334  70.573  25.826  1.00  0.00     0.016 A 
ATOM     14  C   UNL     1      77.224  69.930  26.691  1.00  0.00     0.051 A 
ATOM     15  C   UNL     1      76.905  69.773  28.045  1.00  0.00     0.157 A 
ATOM     16  C   UNL     1      74.796  70.913  27.666  1.00  0.00     0.062 A 
ATOM     17  C   UNL     1      75.686  70.272  28.536  1.00  0.00     0.158 A 
BRANCH  15  18
ATOM     18  O   UNL     1      77.793  69.129  28.905  1.00  0.00    -0.504 OA
ATOM     19  H   UNL     1      78.219  68.242  28.662  1.00  0.00     0.293 HD
ENDBRANCH  15  18
BRANCH  17  20
ATOM     20  O   UNL     1      75.345  70.145  29.882  1.00  0.00    -0.504 OA
ATOM     21  H   UNL     1      76.018  69.858  30.583  1.00  0.00     0.293 HD
ENDBRANCH  17  20
ENDBRANCH   1  12
BRANCH   2  22
ATOM     22  O   UNL     1      72.325  70.308  25.965  1.00  0.00    -0.502 OA
ATOM     23  H   UNL     1      71.336  70.092  25.997  1.00  0.00     0.293 HD
ENDBRANCH   2  22
BRANCH   6  24
ATOM     24  O   UNL     1      70.424  73.963  22.589  1.00  0.00    -0.507 OA
ATOM     25  H   UNL     1      69.939  73.915  21.705  1.00  0.00     0.293 HD
ENDBRANCH   6  24
BRANCH   8  26
ATOM     26  O   UNL     1      74.479  76.164  21.323  1.00  0.00    -0.508 OA
ATOM     27  H   UNL     1      75.360  75.982  20.855  1.00  0.00     0.293 HD
ENDBRANCH   8  26
TORSDOF 6
ENDMDL
MODEL 5
REMARK VINA RESULT:    -4.901      1.603      7.089
REMARK INTER + INTRA:          -6.228
REMARK INTER:                  -5.927
REMARK INTRA:                  -0.301
REMARK UNBOUND:                -0.323
REMARK SMILES O=c1c(O)c(-c2ccc(O)c(O)c2)oc2cc(O)cc(O)c12
REMARK SMILES IDX 5 1 3 2 2 3 1 4 22 5 20 6 19 7 17 8 16 9 15 10 14 11 6 12
REMARK SMILES IDX 7 13 8 14 9 15 13 16 11 17 10 18 12 20 4 22 21 24 18 26
REMARK H PARENT 10 19 12 21 4 23 21 25 18 27
REMARK Flexibility Score: inf
ROOT
ATOM      1  C   UNL     1      74.952  72.262  25.679  1.00  0.00     0.180 A 
ATOM      2  C   UNL     1      74.278  73.413  26.121  1.00  0.00     0.208 A 
ATOM      3  C   UNL     1      73.551  74.175  25.193  1.00  0.00     0.238 A 
ATOM      4  O   UNL     1      72.905  75.174  25.605  1.00  0.00    -0.285 OA
ATOM      5  C   UNL     1      73.520  73.787  23.831  1.00  0.00     0.111 A 
ATOM      6  C   UNL     1      72.849  74.506  22.798  1.00  0.00     0.134 A 
ATOM      7  C   UNL     1      72.775  73.959  21.511  1.00  0.00     0.093 A 
ATOM      8  C   UNL     1      73.402  72.753  21.204  1.00  0.00     0.123 A 
ATOM      9  C   UNL     1      74.113  72.070  22.193  1.00  0.00     0.094 A 
ATOM     10  C   UNL     1      74.173  72.572  23.495  1.00  0.00     0.146 A 
ATOM     11  O   UNL     1      74.850  71.887  24.409  1.00  0.00    -0.452 OA
ENDROOT
BRANCH   1  12
ATOM     12  C   UNL     1      75.759  71.422  26.593  1.00  0.00     0.025 A 
ATOM     13  C   UNL     1      77.145  71.632  26.681  1.00  0.00     0.016 A 
ATOM     14  C   UNL     1      77.923  70.864  27.552  1.00  0.00     0.051 A 
ATOM     15  C   UNL     1      77.326  69.888  28.359  1.00  0.00     0.157 A 
ATOM     16  C   UNL     1      75.161  70.455  27.419  1.00  0.00     0.062 A 
ATOM     17  C   UNL     1      75.937  69.686  28.295  1.00  0.00     0.158 A 
BRANCH  15  18
ATOM     18  O   UNL     1      78.105  69.123  29.225  1.00  0.00    -0.504 OA
ATOM     19  H   UNL     1      77.716  68.340  29.738  1.00  0.00     0.293 HD
ENDBRANCH  15  18
BRANCH  17  20
ATOM     20  O   UNL     1      75.310  68.731  29.096  1.00  0.00    -0.504 OA
ATOM     21  H   UNL     1      75.818  67.959  29.511  1.00  0.00     0.293 HD
ENDBRANCH  17  20
ENDBRANCH   1  12
BRANCH   2  22
ATOM     22  O   UNL     1      74.303  73.766  27.473  1.00  0.00    -0.502 OA
ATOM     23  H   UNL     1      74.168  74.719  27.789  1.00  0.00     0.293 HD
ENDBRANCH   2  22
BRANCH   6  24
ATOM     24  O   UNL     1      72.266  75.765  22.975  1.00  0.00    -0.507 OA
ATOM     25  H   UNL     1      72.386  76.547  22.349  1.00  0.00     0.293 HD
ENDBRANCH   6  24
BRANCH   8  26
ATOM     26  O   UNL     1      73.321  72.246  19.910  1.00  0.00    -0.508 OA
ATOM     27  H   UNL     1      74.024  71.613  19.543  1.00  0.00     0.293 HD
ENDBRANCH   8  26
TORSDOF 6
ENDMDL
MODEL 6
REMARK VINA RESULT:    -4.889      2.571      3.968
REMARK INTER + INTRA:          -6.213
REMARK INTER:                  -5.897
REMARK INTRA:                  -0.316
REMARK UNBOUND:                -0.323
REMARK SMILES O=c1c(O)c(-c2ccc(O)c(O)c2)oc2cc(O)cc(O)c12
REMARK SMILES IDX 5 1 3 2 2 3 1 4 22 5 20 6 19 7 17 8 16 9 15 10 14 11 6 12
REMARK SMILES IDX 7 13 8 14 9 15 13 16 11 17 10 18 12 20 4 22 21 24 18 26
REMARK H PARENT 10 19 12 21 4 23 21 25 18 27
REMARK Flexibility Score: inf
ROOT
ATOM      1  C   UNL     1      73.994  72.596  26.196  1.00  0.00     0.180 A 
ATOM      2  C   UNL     1      74.138  71.297  26.713  1.00  0.00     0.208 A 
ATOM      3  C   UNL     1      75.098  71.063  27.710  1.00  0.00     0.238 A 
ATOM      4  O   UNL     1      75.185  69.911  28.208  1.00  0.00    -0.285 OA
ATOM      5  C   UNL     1      75.915  72.127  28.165  1.00  0.00     0.111 A 
ATOM      6  C   UNL     1      76.947  71.996  29.142  1.00  0.00     0.134 A 
ATOM      7  C   UNL     1      77.603  73.140  29.612  1.00  0.00     0.093 A 
ATOM      8  C   UNL     1      77.311  74.402  29.094  1.00  0.00     0.123 A 
ATOM      9  C   UNL     1      76.345  74.534  28.095  1.00  0.00     0.094 A 
ATOM     10  C   UNL     1      75.647  73.415  27.633  1.00  0.00     0.146 A 
ATOM     11  O   UNL     1      74.729  73.585  26.689  1.00  0.00    -0.452 OA
ENDROOT
BRANCH   1  12
ATOM     12  C   UNL     1      73.021  72.914  25.126  1.00  0.00     0.025 A 
ATOM     13  C   UNL     1      73.372  72.692  23.785  1.00  0.00     0.016 A 
ATOM     14  C   UNL     1      72.462  72.967  22.761  1.00  0.00     0.051 A 
ATOM     15  C   UNL     1      71.183  73.451  23.063  1.00  0.00     0.157 A 
ATOM     16  C   UNL     1      71.729  73.381  25.427  1.00  0.00     0.062 A 
ATOM     17  C   UNL     1      70.814  73.655  24.403  1.00  0.00     0.158 A 
BRANCH  15  18
ATOM     18  O   UNL     1      70.278  73.725  22.039  1.00  0.00    -0.504 OA
ATOM     19  H   UNL     1      70.581  74.110  21.151  1.00  0.00     0.293 HD
ENDBRANCH  15  18
BRANCH  17  20
ATOM     20  O   UNL     1      69.543  74.122  24.738  1.00  0.00    -0.504 OA
ATOM     21  H   UNL     1      68.910  74.503  24.045  1.00  0.00     0.293 HD
ENDBRANCH  17  20
ENDBRANCH   1  12
BRANCH   2  22
ATOM     22  O   UNL     1      73.307  70.266  26.266  1.00  0.00    -0.502 OA
ATOM     23  H   UNL     1      72.442  70.023  26.734  1.00  0.00     0.293 HD
ENDBRANCH   2  22
BRANCH   6  24
ATOM     24  O   UNL     1      77.381  70.772  29.659  1.00  0.00    -0.507 OA
ATOM     25  H   UNL     1      76.798  69.956  29.773  1.00  0.00     0.293 HD
ENDBRANCH   6  24
BRANCH   8  26
ATOM     26  O   UNL     1      77.995  75.516  29.573  1.00  0.00    -0.508 OA
ATOM     27  H   UNL     1      78.750  75.426  30.244  1.00  0.00     0.293 HD
ENDBRANCH   8  26
TORSDOF 6
ENDMDL
MODEL 7
REMARK VINA RESULT:    -4.763      2.003      7.012
REMARK INTER + INTRA:          -6.060
REMARK INTER:                  -5.746
REMARK INTRA:                  -0.314
REMARK UNBOUND:                -0.323
REMARK SMILES O=c1c(O)c(-c2ccc(O)c(O)c2)oc2cc(O)cc(O)c12
REMARK SMILES IDX 5 1 3 2 2 3 1 4 22 5 20 6 19 7 17 8 16 9 15 10 14 11 6 12
REMARK SMILES IDX 7 13 8 14 9 15 13 16 11 17 10 18 12 20 4 22 21 24 18 26
REMARK H PARENT 10 19 12 21 4 23 21 25 18 27
REMARK Flexibility Score: inf
ROOT
ATOM      1  C   UNL     1      75.091  72.658  25.257  1.00  0.00     0.180 A 
ATOM      2  C   UNL     1      75.804  73.841  24.997  1.00  0.00     0.208 A 
ATOM      3  C   UNL     1      75.275  74.768  24.085  1.00  0.00     0.238 A 
ATOM      4  O   UNL     1      75.890  75.850  23.898  1.00  0.00    -0.285 OA
ATOM      5  C   UNL     1      74.050  74.493  23.430  1.00  0.00     0.111 A 
ATOM      6  C   UNL     1      73.442  75.342  22.457  1.00  0.00     0.134 A 
ATOM      7  C   UNL     1      72.165  75.033  21.972  1.00  0.00     0.093 A 
ATOM      8  C   UNL     1      71.503  73.874  22.374  1.00  0.00     0.123 A 
ATOM      9  C   UNL     1      72.115  73.005  23.280  1.00  0.00     0.094 A 
ATOM     10  C   UNL     1      73.372  73.305  23.810  1.00  0.00     0.146 A 
ATOM     11  O   UNL     1      73.913  72.459  24.677  1.00  0.00    -0.452 OA
ENDROOT
BRANCH   1  12
ATOM     12  C   UNL     1      75.596  71.622  26.187  1.00  0.00     0.025 A 
ATOM     13  C   UNL     1      76.523  70.673  25.726  1.00  0.00     0.016 A 
ATOM     14  C   UNL     1      77.028  69.699  26.592  1.00  0.00     0.051 A 
ATOM     15  C   UNL     1      76.628  69.671  27.934  1.00  0.00     0.157 A 
ATOM     16  C   UNL     1      75.213  71.603  27.539  1.00  0.00     0.062 A 
ATOM     17  C   UNL     1      75.719  70.631  28.410  1.00  0.00     0.158 A 
BRANCH  15  18
ATOM     18  O   UNL     1      77.132  68.697  28.794  1.00  0.00    -0.504 OA
ATOM     19  H   UNL     1      77.457  68.929  29.726  1.00  0.00     0.293 HD
ENDBRANCH  15  18
BRANCH  17  20
ATOM     20  O   UNL     1      75.312  70.638  29.744  1.00  0.00    -0.504 OA
ATOM     21  H   UNL     1      75.741  70.041  30.441  1.00  0.00     0.293 HD
ENDBRANCH  17  20
ENDBRANCH   1  12
BRANCH   2  22
ATOM     22  O   UNL     1      77.000  74.104  25.670  1.00  0.00    -0.502 OA
ATOM     23  H   UNL     1      77.698  73.389  25.838  1.00  0.00     0.293 HD
ENDBRANCH   2  22
BRANCH   6  24
ATOM     24  O   UNL     1      74.057  76.476  21.918  1.00  0.00    -0.507 OA
ATOM     25  H   UNL     1      73.575  77.328  21.671  1.00  0.00     0.293 HD
ENDBRANCH   6  24
BRANCH   8  26
ATOM     26  O   UNL     1      70.241  73.590  21.859  1.00  0.00    -0.508 OA
ATOM     27  H   UNL     1      70.089  73.474  20.863  1.00  0.00     0.293 HD
ENDBRANCH   8  26
TORSDOF 6
ENDMDL
MODEL 8
REMARK VINA RESULT:    -4.709      1.710      6.988
REMARK INTER + INTRA:          -5.996
REMARK INTER:                  -5.729
REMARK INTRA:                  -0.267
REMARK UNBOUND:                -0.323
REMARK SMILES O=c1c(O)c(-c2ccc(O)c(O)c2)oc2cc(O)cc(O)c12
REMARK SMILES IDX 5 1 3 2 2 3 1 4 22 5 20 6 19 7 17 8 16 9 15 10 14 11 6 12
REMARK SMILES IDX 7 13 8 14 9 15 13 16 11 17 10 18 12 20 4 22 21 24 18 26
REMARK H PARENT 10 19 12 21 4 23 21 25 18 27
REMARK Flexibility Score: inf
ROOT
ATOM      1  C   UNL     1      74.631  71.901  25.844  1.00  0.00     0.180 A 
ATOM      2  C   UNL     1      74.574  73.262  26.192  1.00  0.00     0.208 A 
ATOM      3  C   UNL     1      74.344  74.213  25.186  1.00  0.00     0.238 A 
ATOM      4  O   UNL     1      74.238  75.424  25.512  1.00  0.00    -0.285 OA
ATOM      5  C   UNL     1      74.192  73.795  23.841  1.00  0.00     0.111 A 
ATOM      6  C   UNL     1      73.996  74.676  22.736  1.00  0.00     0.134 A 
ATOM      7  C   UNL     1      73.727  74.144  21.469  1.00  0.00     0.093 A 
ATOM      8  C   UNL     1      73.712  72.766  21.254  1.00  0.00     0.123 A 
ATOM      9  C   UNL     1      73.962  71.897  22.316  1.00  0.00     0.094 A 
ATOM     10  C   UNL     1      74.197  72.396  23.600  1.00  0.00     0.146 A 
ATOM     11  O   UNL     1      74.420  71.535  24.585  1.00  0.00    -0.452 OA
ENDROOT
BRANCH   1  12
ATOM     12  C   UNL     1      74.894  70.842  26.845  1.00  0.00     0.025 A 
ATOM     13  C   UNL     1      73.862  69.963  27.208  1.00  0.00     0.016 A 
ATOM     14  C   UNL     1      74.094  68.943  28.135  1.00  0.00     0.051 A 
ATOM     15  C   UNL     1      75.364  68.777  28.699  1.00  0.00     0.157 A 
ATOM     16  C   UNL     1      76.174  70.660  27.398  1.00  0.00     0.062 A 
ATOM     17  C   UNL     1      76.411  69.638  28.325  1.00  0.00     0.158 A 
BRANCH  15  18
ATOM     18  O   UNL     1      75.592  67.761  29.625  1.00  0.00    -0.504 OA
ATOM     19  H   UNL     1      74.936  67.566  30.373  1.00  0.00     0.293 HD
ENDBRANCH  15  18
BRANCH  17  20
ATOM     20  O   UNL     1      77.691  69.489  28.859  1.00  0.00    -0.504 OA
ATOM     21  H   UNL     1      78.484  69.221  28.288  1.00  0.00     0.293 HD
ENDBRANCH  17  20
ENDBRANCH   1  12
BRANCH   2  22
ATOM     22  O   UNL     1      74.704  73.651  27.528  1.00  0.00    -0.502 OA
ATOM     23  H   UNL     1      74.460  74.580  27.850  1.00  0.00     0.293 HD
ENDBRANCH   2  22
BRANCH   6  24
ATOM     24  O   UNL     1      74.081  76.068  22.823  1.00  0.00    -0.507 OA
ATOM     25  H   UNL     1      73.734  76.710  22.126  1.00  0.00     0.293 HD
ENDBRANCH   6  24
BRANCH   8  26
ATOM     26  O   UNL     1      73.457  72.273  19.977  1.00  0.00    -0.508 OA
ATOM     27  H   UNL     1      72.677  71.651  19.795  1.00  0.00     0.293 HD
ENDBRANCH   8  26
TORSDOF 6
ENDMDL
MODEL 9
REMARK VINA RESULT:    -4.591      2.021      6.980
REMARK INTER + INTRA:          -5.854
REMARK INTER:                  -5.558
REMARK INTRA:                  -0.296
REMARK UNBOUND:                -0.323
REMARK SMILES O=c1c(O)c(-c2ccc(O)c(O)c2)oc2cc(O)cc(O)c12
REMARK SMILES IDX 5 1 3 2 2 3 1 4 22 5 20 6 19 7 17 8 16 9 15 10 14 11 6 12
REMARK SMILES IDX 7 13 8 14 9 15 13 16 11 17 10 18 12 20 4 22 21 24 18 26
REMARK H PARENT 10 19 12 21 4 23 21 25 18 27
REMARK Flexibility Score: inf
ROOT
ATOM      1  C   UNL     1      75.625  71.885  24.812  1.00  0.00     0.180 A 
ATOM      2  C   UNL     1      76.063  71.152  23.696  1.00  0.00     0.208 A 
ATOM      3  C   UNL     1      75.491  71.416  22.441  1.00  0.00     0.238 A 
ATOM      4  O   UNL     1      75.926  70.795  21.436  1.00  0.00    -0.285 OA
ATOM      5  C   UNL     1      74.477  72.397  22.320  1.00  0.00     0.111 A 
ATOM      6  C   UNL     1      73.800  72.717  21.106  1.00  0.00     0.134 A 
ATOM      7  C   UNL     1      72.906  73.795  21.076  1.00  0.00     0.093 A 
ATOM      8  C   UNL     1      72.616  74.521  22.231  1.00  0.00     0.123 A 
ATOM      9  C   UNL     1      73.227  74.178  23.437  1.00  0.00     0.094 A 
ATOM     10  C   UNL     1      74.152  73.131  23.490  1.00  0.00     0.146 A 
ATOM     11  O   UNL     1      74.719  72.844  24.655  1.00  0.00    -0.452 OA
ENDROOT
BRANCH   1  12
ATOM     12  C   UNL     1      76.162  71.647  26.171  1.00  0.00     0.025 A 
ATOM     13  C   UNL     1      77.383  72.232  26.544  1.00  0.00     0.016 A 
ATOM     14  C   UNL     1      77.898  72.037  27.828  1.00  0.00     0.051 A 
ATOM     15  C   UNL     1      77.192  71.270  28.763  1.00  0.00     0.157 A 
ATOM     16  C   UNL     1      75.447  70.895  27.119  1.00  0.00     0.062 A 
ATOM     17  C   UNL     1      75.959  70.700  28.408  1.00  0.00     0.158 A 
BRANCH  15  18
ATOM     18  O   UNL     1      77.710  71.076  30.043  1.00  0.00    -0.504 OA
ATOM     19  H   UNL     1      78.227  71.804  30.523  1.00  0.00     0.293 HD
ENDBRANCH  15  18
BRANCH  17  20
ATOM     20  O   UNL     1      75.225  69.943  29.321  1.00  0.00    -0.504 OA
ATOM     21  H   UNL     1      75.659  69.244  29.912  1.00  0.00     0.293 HD
ENDBRANCH  17  20
ENDBRANCH   1  12
BRANCH   2  22
ATOM     22  O   UNL     1      77.081  70.205  23.833  1.00  0.00    -0.502 OA
ATOM     23  H   UNL     1      76.908  69.208  23.778  1.00  0.00     0.293 HD
ENDBRANCH   2  22
BRANCH   6  24
ATOM     24  O   UNL     1      73.947  71.997  19.917  1.00  0.00    -0.507 OA
ATOM     25  H   UNL     1      74.466  72.315  19.112  1.00  0.00     0.293 HD
ENDBRANCH   6  24
BRANCH   8  26
ATOM     26  O   UNL     1      71.710  75.577  22.168  1.00  0.00    -0.508 OA
ATOM     27  H   UNL     1      70.710  75.420  22.212  1.00  0.00     0.293 HD
ENDBRANCH   8  26
TORSDOF 6
ENDMDL
