MODEL 1
REMARK VINA RESULT:    -4.330      0.000      0.000
REMARK INTER + INTRA:         -16.686
REMARK INTER:                 -11.417
REMARK INTRA:                  -5.270
REMARK UNBOUND:                -5.270
REMARK SMILES CCCCCCCCCCCCCCCCCCCCCCCCCCCCCC(=O)[O-]
REMARK SMILES IDX 16 1 17 2 18 3 19 4 20 5 21 6 22 7 23 8 24 9 25 10 26 11
REMARK SMILES IDX 27 12 28 13 29 14 30 15 31 16 32 17 15 18 14 19 13 20 12 21
REMARK SMILES IDX 11 22 10 23 9 24 8 25 7 26 6 27 5 28 4 29 3 30 2 31 1 32
REMARK H PARENT
REMARK Flexibility Score: inf
ROOT
ATOM      1  C   UNL     1     -12.549 -12.434  27.001  1.00  0.00     0.000 C 
ENDROOT
BRANCH   1   2
ATOM      2  C   UNL     1     -13.528 -12.353  28.183  1.00  0.00     0.000 C 
BRANCH   2   3
ATOM      3  C   UNL     1     -12.823 -12.025  29.511  1.00  0.00     0.000 C 
BRANCH   3   4
ATOM      4  C   UNL     1     -12.945 -10.542  29.898  1.00  0.00     0.000 C 
BRANCH   4   5
ATOM      5  C   UNL     1     -11.645  -9.724  29.780  1.00  0.00     0.000 C 
BRANCH   5   6
ATOM      6  C   UNL     1     -11.248  -9.382  28.329  1.00  0.00     0.000 C 
BRANCH   6   7
ATOM      7  C   UNL     1     -12.145  -8.301  27.702  1.00  0.00     0.000 C 
BRANCH   7   8
ATOM      8  C   UNL     1     -12.322  -8.476  26.183  1.00  0.00     0.000 C 
BRANCH   8   9
ATOM      9  C   UNL     1     -13.661  -9.135  25.788  1.00  0.00     0.000 C 
BRANCH   9  10
ATOM     10  C   UNL     1     -14.703  -9.056  26.919  1.00  0.00     0.000 C 
BRANCH  10  11
ATOM     11  C   UNL     1     -15.676  -7.874  26.756  1.00  0.00     0.000 C 
BRANCH  11  12
ATOM     12  C   UNL     1     -15.929  -7.443  25.299  1.00  0.00     0.000 C 
BRANCH  12  13
ATOM     13  C   UNL     1     -15.704  -5.938  25.078  1.00  0.00     0.006 C 
BRANCH  13  14
ATOM     14  C   UNL     1     -14.293  -5.629  24.557  1.00  0.00     0.053 C 
BRANCH  14  15
ATOM     15  C   UNL     1     -14.119  -6.003  23.115  1.00  0.00     0.041 C 
ATOM     16  O   UNL     1     -14.603  -5.278  22.207  1.00  0.00    -0.550 OA
ATOM     17  O   UNL     1     -13.475  -7.189  22.779  1.00  0.00    -0.550 OA
ENDBRANCH  14  15
ENDBRANCH  13  14
ENDBRANCH  12  13
ENDBRANCH  11  12
ENDBRANCH  10  11
ENDBRANCH   9  10
ENDBRANCH   8   9
ENDBRANCH   7   8
ENDBRANCH   6   7
ENDBRANCH   5   6
ENDBRANCH   4   5
ENDBRANCH   3   4
ENDBRANCH   2   3
ENDBRANCH   1   2
BRANCH   1  18
ATOM     18  C   UNL     1     -11.141 -12.879  27.432  1.00  0.00     0.000 C 
BRANCH  18  19
ATOM     19  C   UNL     1     -10.076 -12.627  26.350  1.00  0.00     0.000 C 
BRANCH  19  20
ATOM     20  C   UNL     1     -10.463 -11.527  25.341  1.00  0.00     0.000 C 
BRANCH  20  21
ATOM     21  C   UNL     1     -10.477 -12.034  23.891  1.00  0.00     0.000 C 
BRANCH  21  22
ATOM     22  C   UNL     1     -11.766 -11.607  23.172  1.00  0.00     0.000 C 
BRANCH  22  23
ATOM     23  C   UNL     1     -12.481 -12.783  22.486  1.00  0.00     0.000 C 
BRANCH  23  24
ATOM     24  C   UNL     1     -12.004 -14.151  22.996  1.00  0.00    -0.000 C 
BRANCH  24  25
ATOM     25  C   UNL     1     -12.920 -14.658  24.120  1.00  0.00    -0.000 C 
BRANCH  25  26
ATOM     26  C   UNL     1     -12.174 -15.506  25.163  1.00  0.00    -0.000 C 
BRANCH  26  27
ATOM     27  C   UNL     1     -13.129 -16.290  26.081  1.00  0.00    -0.000 C 
BRANCH  27  28
ATOM     28  C   UNL     1     -12.635 -16.345  27.536  1.00  0.00    -0.000 C 
BRANCH  28  29
ATOM     29  C   UNL     1     -11.173 -16.806  27.651  1.00  0.00    -0.000 C 
BRANCH  29  30
ATOM     30  C   UNL     1     -11.012 -18.256  27.180  1.00  0.00    -0.000 C 
BRANCH  30  31
ATOM     31  C   UNL     1     -10.509 -19.151  28.317  1.00  0.00    -0.003 C 
ATOM     32  C   UNL     1     -11.349 -18.970  29.578  1.00  0.00     0.004 C 
ENDBRANCH  30  31
ENDBRANCH  29  30
ENDBRANCH  28  29
ENDBRANCH  27  28
ENDBRANCH  26  27
ENDBRANCH  25  26
ENDBRANCH  24  25
ENDBRANCH  23  24
ENDBRANCH  22  23
ENDBRANCH  21  22
ENDBRANCH  20  21
ENDBRANCH  19  20
ENDBRANCH  18  19
ENDBRANCH   1  18
TORSDOF 28
ENDMDL
MODEL 2
REMARK VINA RESULT:    -4.235      3.928      7.859
REMARK INTER + INTRA:         -16.437
REMARK INTER:                  -9.838
REMARK INTRA:                  -6.599
REMARK UNBOUND:                -5.270
REMARK SMILES CCCCCCCCCCCCCCCCCCCCCCCCCCCCCC(=O)[O-]
REMARK SMILES IDX 16 1 17 2 18 3 19 4 20 5 21 6 22 7 23 8 24 9 25 10 26 11
REMARK SMILES IDX 27 12 28 13 29 14 30 15 31 16 32 17 15 18 14 19 13 20 12 21
REMARK SMILES IDX 11 22 10 23 9 24 8 25 7 26 6 27 5 28 4 29 3 30 2 31 1 32
REMARK H PARENT
REMARK Flexibility Score: inf
ROOT
ATOM      1  C   UNL     1     -12.582  -8.458  26.280  1.00  0.00     0.000 C 
ENDROOT
BRANCH   1   2
ATOM      2  C   UNL     1     -11.631  -8.691  27.466  1.00  0.00     0.000 C 
BRANCH   2   3
ATOM      3  C   UNL     1     -10.689  -9.885  27.240  1.00  0.00     0.000 C 
BRANCH   3   4
ATOM      4  C   UNL     1     -10.789 -10.459  25.817  1.00  0.00     0.000 C 
BRANCH   4   5
ATOM      5  C   UNL     1     -10.326 -11.920  25.664  1.00  0.00     0.000 C 
BRANCH   5   6
ATOM      6  C   UNL     1     -10.527 -12.498  24.248  1.00  0.00     0.000 C 
BRANCH   6   7
ATOM      7  C   UNL     1     -11.930 -12.216  23.681  1.00  0.00     0.000 C 
BRANCH   7   8
ATOM      8  C   UNL     1     -12.898 -13.398  23.863  1.00  0.00     0.000 C 
BRANCH   8   9
ATOM      9  C   UNL     1     -12.218 -14.680  24.389  1.00  0.00     0.000 C 
BRANCH   9  10
ATOM     10  C   UNL     1     -13.089 -15.419  25.422  1.00  0.00     0.000 C 
BRANCH  10  11
ATOM     11  C   UNL     1     -12.413 -16.686  25.978  1.00  0.00     0.000 C 
BRANCH  11  12
ATOM     12  C   UNL     1     -10.951 -16.883  25.537  1.00  0.00     0.000 C 
BRANCH  12  13
ATOM     13  C   UNL     1     -10.024 -17.257  26.706  1.00  0.00     0.006 C 
BRANCH  13  14
ATOM     14  C   UNL     1     -10.646 -18.315  27.629  1.00  0.00     0.053 C 
BRANCH  14  15
ATOM     15  C   UNL     1      -9.752 -18.670  28.779  1.00  0.00     0.041 C 
ATOM     16  O   UNL     1      -9.161 -17.768  29.428  1.00  0.00    -0.550 OA
ATOM     17  O   UNL     1      -9.520 -20.005  29.091  1.00  0.00    -0.550 OA
ENDBRANCH  14  15
ENDBRANCH  13  14
ENDBRANCH  12  13
ENDBRANCH  11  12
ENDBRANCH  10  11
ENDBRANCH   9  10
ENDBRANCH   8   9
ENDBRANCH   7   8
ENDBRANCH   6   7
ENDBRANCH   5   6
ENDBRANCH   4   5
ENDBRANCH   3   4
ENDBRANCH   2   3
ENDBRANCH   1   2
BRANCH   1  18
ATOM     18  C   UNL     1     -14.013  -8.119  26.730  1.00  0.00     0.000 C 
BRANCH  18  19
ATOM     19  C   UNL     1     -14.986  -9.300  26.571  1.00  0.00     0.000 C 
BRANCH  19  20
ATOM     20  C   UNL     1     -14.365 -10.528  25.876  1.00  0.00     0.000 C 
BRANCH  20  21
ATOM     21  C   UNL     1     -14.703 -11.844  26.592  1.00  0.00     0.000 C 
BRANCH  21  22
ATOM     22  C   UNL     1     -13.564 -12.264  27.537  1.00  0.00     0.000 C 
BRANCH  22  23
ATOM     23  C   UNL     1     -13.545 -11.451  28.841  1.00  0.00     0.000 C 
BRANCH  23  24
ATOM     24  C   UNL     1     -13.909 -12.293  30.074  1.00  0.00    -0.000 C 
BRANCH  24  25
ATOM     25  C   UNL     1     -12.824 -12.168  31.154  1.00  0.00    -0.000 C 
BRANCH  25  26
ATOM     26  C   UNL     1     -12.006 -10.872  31.033  1.00  0.00    -0.000 C 
BRANCH  26  27
ATOM     27  C   UNL     1     -10.524 -11.135  30.715  1.00  0.00    -0.000 C 
BRANCH  27  28
ATOM     28  C   UNL     1     -10.214 -12.631  30.541  1.00  0.00    -0.000 C 
BRANCH  28  29
ATOM     29  C   UNL     1      -9.805 -12.990  29.103  1.00  0.00    -0.000 C 
BRANCH  29  30
ATOM     30  C   UNL     1     -10.640 -14.157  28.566  1.00  0.00    -0.000 C 
BRANCH  30  31
ATOM     31  C   UNL     1     -11.165 -15.031  29.711  1.00  0.00    -0.003 C 
ATOM     32  C   UNL     1     -12.541 -15.603  29.385  1.00  0.00     0.004 C 
ENDBRANCH  30  31
ENDBRANCH  29  30
ENDBRANCH  28  29
ENDBRANCH  27  28
ENDBRANCH  26  27
ENDBRANCH  25  26
ENDBRANCH  24  25
ENDBRANCH  23  24
ENDBRANCH  22  23
ENDBRANCH  21  22
ENDBRANCH  20  21
ENDBRANCH  19  20
ENDBRANCH  18  19
ENDBRANCH   1  18
TORSDOF 28
ENDMDL
MODEL 3
REMARK VINA RESULT:    -4.210      3.685      8.921
REMARK INTER + INTRA:         -16.370
REMARK INTER:                 -10.713
REMARK INTRA:                  -5.657
REMARK UNBOUND:                -5.270
REMARK SMILES CCCCCCCCCCCCCCCCCCCCCCCCCCCCCC(=O)[O-]
REMARK SMILES IDX 16 1 17 2 18 3 19 4 20 5 21 6 22 7 23 8 24 9 25 10 26 11
REMARK SMILES IDX 27 12 28 13 29 14 30 15 31 16 32 17 15 18 14 19 13 20 12 21
REMARK SMILES IDX 11 22 10 23 9 24 8 25 7 26 6 27 5 28 4 29 3 30 2 31 1 32
REMARK H PARENT
REMARK Flexibility Score: inf
ROOT
ATOM      1  C   UNL     1     -10.544 -15.872  25.343  1.00  0.00     0.000 C 
ENDROOT
BRANCH   1   2
ATOM      2  C   UNL     1     -11.989 -16.236  25.721  1.00  0.00     0.000 C 
BRANCH   2   3
ATOM      3  C   UNL     1     -12.059 -17.213  26.907  1.00  0.00     0.000 C 
BRANCH   3   4
ATOM      4  C   UNL     1     -10.746 -17.985  27.118  1.00  0.00     0.000 C 
BRANCH   4   5
ATOM      5  C   UNL     1     -10.812 -19.118  28.158  1.00  0.00     0.000 C 
BRANCH   5   6
ATOM      6  C   UNL     1     -10.634 -18.644  29.616  1.00  0.00     0.000 C 
BRANCH   6   7
ATOM      7  C   UNL     1     -11.933 -18.736  30.437  1.00  0.00     0.000 C 
BRANCH   7   8
ATOM      8  C   UNL     1     -12.545 -17.357  30.743  1.00  0.00     0.000 C 
BRANCH   8   9
ATOM      9  C   UNL     1     -11.517 -16.205  30.725  1.00  0.00     0.000 C 
BRANCH   9  10
ATOM     10  C   UNL     1     -11.991 -15.017  29.869  1.00  0.00     0.000 C 
BRANCH  10  11
ATOM     11  C   UNL     1     -10.889 -14.467  28.945  1.00  0.00     0.000 C 
BRANCH  11  12
ATOM     12  C   UNL     1      -9.527 -15.175  29.075  1.00  0.00     0.000 C 
BRANCH  12  13
ATOM     13  C   UNL     1      -8.447 -14.550  28.176  1.00  0.00     0.006 C 
BRANCH  13  14
ATOM     14  C   UNL     1      -7.141 -15.357  28.185  1.00  0.00     0.053 C 
BRANCH  14  15
ATOM     15  C   UNL     1      -7.254 -16.640  27.415  1.00  0.00     0.041 C 
ATOM     16  O   UNL     1      -7.355 -16.622  26.161  1.00  0.00    -0.550 OA
ATOM     17  O   UNL     1      -7.313 -17.852  28.093  1.00  0.00    -0.550 OA
ENDBRANCH  14  15
ENDBRANCH  13  14
ENDBRANCH  12  13
ENDBRANCH  11  12
ENDBRANCH  10  11
ENDBRANCH   9  10
ENDBRANCH   8   9
ENDBRANCH   7   8
ENDBRANCH   6   7
ENDBRANCH   5   6
ENDBRANCH   4   5
ENDBRANCH   3   4
ENDBRANCH   2   3
ENDBRANCH   1   2
BRANCH   1  18
ATOM     18  C   UNL     1     -10.448 -14.518  24.619  1.00  0.00     0.000 C 
BRANCH  18  19
ATOM     19  C   UNL     1     -10.698 -13.321  25.551  1.00  0.00     0.000 C 
BRANCH  19  20
ATOM     20  C   UNL     1     -11.734 -12.316  25.008  1.00  0.00     0.000 C 
BRANCH  20  21
ATOM     21  C   UNL     1     -13.181 -12.757  25.277  1.00  0.00     0.000 C 
BRANCH  21  22
ATOM     22  C   UNL     1     -13.448 -12.871  26.786  1.00  0.00     0.000 C 
BRANCH  22  23
ATOM     23  C   UNL     1     -13.942 -11.553  27.404  1.00  0.00     0.000 C 
BRANCH  23  24
ATOM     24  C   UNL     1     -13.321 -11.270  28.781  1.00  0.00    -0.000 C 
BRANCH  24  25
ATOM     25  C   UNL     1     -11.854 -10.839  28.634  1.00  0.00    -0.000 C 
BRANCH  25  26
ATOM     26  C   UNL     1     -11.552  -9.501  29.327  1.00  0.00    -0.000 C 
BRANCH  26  27
ATOM     27  C   UNL     1     -11.583  -8.310  28.353  1.00  0.00    -0.000 C 
BRANCH  27  28
ATOM     28  C   UNL     1     -11.442  -8.745  26.884  1.00  0.00    -0.000 C 
BRANCH  28  29
ATOM     29  C   UNL     1     -12.597  -8.243  26.003  1.00  0.00    -0.000 C 
BRANCH  29  30
ATOM     30  C   UNL     1     -12.732  -9.092  24.734  1.00  0.00    -0.000 C 
BRANCH  30  31
ATOM     31  C   UNL     1     -13.104  -8.222  23.527  1.00  0.00    -0.003 C 
ATOM     32  C   UNL     1     -12.724  -6.762  23.758  1.00  0.00     0.004 C 
ENDBRANCH  30  31
ENDBRANCH  29  30
ENDBRANCH  28  29
ENDBRANCH  27  28
ENDBRANCH  26  27
ENDBRANCH  25  26
ENDBRANCH  24  25
ENDBRANCH  23  24
ENDBRANCH  22  23
ENDBRANCH  21  22
ENDBRANCH  20  21
ENDBRANCH  19  20
ENDBRANCH  18  19
ENDBRANCH   1  18
TORSDOF 28
ENDMDL
MODEL 4
REMARK VINA RESULT:    -4.201      3.269      6.929
REMARK INTER + INTRA:         -16.347
REMARK INTER:                  -9.904
REMARK INTRA:                  -6.443
REMARK UNBOUND:                -5.270
REMARK SMILES CCCCCCCCCCCCCCCCCCCCCCCCCCCCCC(=O)[O-]
REMARK SMILES IDX 16 1 17 2 18 3 19 4 20 5 21 6 22 7 23 8 24 9 25 10 26 11
REMARK SMILES IDX 27 12 28 13 29 14 30 15 31 16 32 17 15 18 14 19 13 20 12 21
REMARK SMILES IDX 11 22 10 23 9 24 8 25 7 26 6 27 5 28 4 29 3 30 2 31 1 32
REMARK H PARENT
REMARK Flexibility Score: inf
ROOT
ATOM      1  C   UNL     1     -10.902  -9.696  27.577  1.00  0.00     0.000 C 
ENDROOT
BRANCH   1   2
ATOM      2  C   UNL     1     -12.033  -9.437  28.586  1.00  0.00     0.000 C 
BRANCH   2   3
ATOM      3  C   UNL     1     -11.588  -9.663  30.041  1.00  0.00     0.000 C 
BRANCH   3   4
ATOM      4  C   UNL     1     -12.322 -10.836  30.711  1.00  0.00     0.000 C 
BRANCH   4   5
ATOM      5  C   UNL     1     -13.518 -11.398  29.921  1.00  0.00     0.000 C 
BRANCH   5   6
ATOM      6  C   UNL     1     -13.858 -12.866  30.255  1.00  0.00     0.000 C 
BRANCH   6   7
ATOM      7  C   UNL     1     -13.315 -13.308  31.625  1.00  0.00     0.000 C 
BRANCH   7   8
ATOM      8  C   UNL     1     -13.097 -14.829  31.720  1.00  0.00     0.000 C 
BRANCH   8   9
ATOM      9  C   UNL     1     -13.042 -15.533  30.347  1.00  0.00     0.000 C 
BRANCH   9  10
ATOM     10  C   UNL     1     -12.292 -16.876  30.412  1.00  0.00     0.000 C 
BRANCH  10  11
ATOM     11  C   UNL     1     -11.531 -17.200  29.114  1.00  0.00     0.000 C 
BRANCH  11  12
ATOM     12  C   UNL     1     -12.201 -16.682  27.827  1.00  0.00     0.000 C 
BRANCH  12  13
ATOM     13  C   UNL     1     -11.540 -17.232  26.552  1.00  0.00     0.006 C 
BRANCH  13  14
ATOM     14  C   UNL     1     -10.043 -16.899  26.480  1.00  0.00     0.053 C 
BRANCH  14  15
ATOM     15  C   UNL     1      -9.623 -16.437  25.116  1.00  0.00     0.041 C 
ATOM     16  O   UNL     1      -8.406 -16.412  24.800  1.00  0.00    -0.550 OA
ATOM     17  O   UNL     1     -10.577 -15.972  24.218  1.00  0.00    -0.550 OA
ENDBRANCH  14  15
ENDBRANCH  13  14
ENDBRANCH  12  13
ENDBRANCH  11  12
ENDBRANCH  10  11
ENDBRANCH   9  10
ENDBRANCH   8   9
ENDBRANCH   7   8
ENDBRANCH   6   7
ENDBRANCH   5   6
ENDBRANCH   4   5
ENDBRANCH   3   4
ENDBRANCH   2   3
ENDBRANCH   1   2
BRANCH   1  18
ATOM     18  C   UNL     1     -11.341  -9.453  26.124  1.00  0.00     0.000 C 
BRANCH  18  19
ATOM     19  C   UNL     1     -11.810  -8.010  25.872  1.00  0.00     0.000 C 
BRANCH  19  20
ATOM     20  C   UNL     1     -13.166  -7.915  25.144  1.00  0.00     0.000 C 
BRANCH  20  21
ATOM     21  C   UNL     1     -14.357  -7.896  26.115  1.00  0.00     0.000 C 
BRANCH  21  22
ATOM     22  C   UNL     1     -15.348  -9.025  25.789  1.00  0.00     0.000 C 
BRANCH  22  23
ATOM     23  C   UNL     1     -14.979 -10.354  26.465  1.00  0.00     0.000 C 
BRANCH  23  24
ATOM     24  C   UNL     1     -14.292 -11.340  25.507  1.00  0.00    -0.000 C 
BRANCH  24  25
ATOM     25  C   UNL     1     -14.728 -12.782  25.812  1.00  0.00    -0.000 C 
BRANCH  25  26
ATOM     26  C   UNL     1     -13.541 -13.720  26.085  1.00  0.00    -0.000 C 
BRANCH  26  27
ATOM     27  C   UNL     1     -12.424 -13.040  26.896  1.00  0.00    -0.000 C 
BRANCH  27  28
ATOM     28  C   UNL     1     -11.029 -13.278  26.293  1.00  0.00    -0.000 C 
BRANCH  28  29
ATOM     29  C   UNL     1      -9.902 -13.126  27.327  1.00  0.00    -0.000 C 
BRANCH  29  30
ATOM     30  C   UNL     1     -10.325 -13.682  28.691  1.00  0.00    -0.000 C 
BRANCH  30  31
ATOM     31  C   UNL     1      -9.552 -13.002  29.826  1.00  0.00    -0.003 C 
ATOM     32  C   UNL     1      -9.572 -13.847  31.096  1.00  0.00     0.004 C 
ENDBRANCH  30  31
ENDBRANCH  29  30
ENDBRANCH  28  29
ENDBRANCH  27  28
ENDBRANCH  26  27
ENDBRANCH  25  26
ENDBRANCH  24  25
ENDBRANCH  23  24
ENDBRANCH  22  23
ENDBRANCH  21  22
ENDBRANCH  20  21
ENDBRANCH  19  20
ENDBRANCH  18  19
ENDBRANCH   1  18
TORSDOF 28
ENDMDL
MODEL 5
REMARK VINA RESULT:    -4.198      3.360      8.118
REMARK INTER + INTRA:         -16.340
REMARK INTER:                 -10.066
REMARK INTRA:                  -6.274
REMARK UNBOUND:                -5.270
REMARK SMILES CCCCCCCCCCCCCCCCCCCCCCCCCCCCCC(=O)[O-]
REMARK SMILES IDX 16 1 17 2 18 3 19 4 20 5 21 6 22 7 23 8 24 9 25 10 26 11
REMARK SMILES IDX 27 12 28 13 29 14 30 15 31 16 32 17 15 18 14 19 13 20 12 21
REMARK SMILES IDX 11 22 10 23 9 24 8 25 7 26 6 27 5 28 4 29 3 30 2 31 1 32
REMARK H PARENT
REMARK Flexibility Score: inf
ROOT
ATOM      1  C   UNL     1     -14.098 -12.994  25.840  1.00  0.00     0.000 C 
ENDROOT
BRANCH   1   2
ATOM      2  C   UNL     1     -13.053 -13.755  26.672  1.00  0.00     0.000 C 
BRANCH   2   3
ATOM      3  C   UNL     1     -12.779 -13.086  28.030  1.00  0.00     0.000 C 
BRANCH   3   4
ATOM      4  C   UNL     1     -13.813 -12.001  28.375  1.00  0.00     0.000 C 
BRANCH   4   5
ATOM      5  C   UNL     1     -13.512 -11.191  29.650  1.00  0.00     0.000 C 
BRANCH   5   6
ATOM      6  C   UNL     1     -12.247 -11.653  30.403  1.00  0.00     0.000 C 
BRANCH   6   7
ATOM      7  C   UNL     1     -10.994 -10.846  30.019  1.00  0.00     0.000 C 
BRANCH   7   8
ATOM      8  C   UNL     1      -9.687 -11.630  30.237  1.00  0.00     0.000 C 
BRANCH   8   9
ATOM      9  C   UNL     1      -9.909 -13.086  30.700  1.00  0.00     0.000 C 
BRANCH   9  10
ATOM     10  C   UNL     1      -9.101 -14.093  29.861  1.00  0.00     0.000 C 
BRANCH  10  11
ATOM     11  C   UNL     1      -9.041 -13.717  28.369  1.00  0.00     0.000 C 
BRANCH  11  12
ATOM     12  C   UNL     1      -8.748 -14.894  27.420  1.00  0.00     0.000 C 
BRANCH  12  13
ATOM     13  C   UNL     1      -9.771 -15.002  26.277  1.00  0.00     0.006 C 
BRANCH  13  14
ATOM     14  C   UNL     1      -9.886 -16.432  25.730  1.00  0.00     0.053 C 
BRANCH  14  15
ATOM     15  C   UNL     1     -11.003 -17.202  26.370  1.00  0.00     0.041 C 
ATOM     16  O   UNL     1     -12.021 -17.521  25.702  1.00  0.00    -0.550 OA
ATOM     17  O   UNL     1     -10.946 -17.510  27.724  1.00  0.00    -0.550 OA
ENDBRANCH  14  15
ENDBRANCH  13  14
ENDBRANCH  12  13
ENDBRANCH  11  12
ENDBRANCH  10  11
ENDBRANCH   9  10
ENDBRANCH   8   9
ENDBRANCH   7   8
ENDBRANCH   6   7
ENDBRANCH   5   6
ENDBRANCH   4   5
ENDBRANCH   3   4
ENDBRANCH   2   3
ENDBRANCH   1   2
BRANCH   1  18
ATOM     18  C   UNL     1     -13.578 -12.615  24.444  1.00  0.00     0.000 C 
BRANCH  18  19
ATOM     19  C   UNL     1     -12.067 -12.858  24.281  1.00  0.00     0.000 C 
BRANCH  19  20
ATOM     20  C   UNL     1     -11.221 -11.570  24.337  1.00  0.00     0.000 C 
BRANCH  20  21
ATOM     21  C   UNL     1     -10.195 -11.588  25.480  1.00  0.00     0.000 C 
BRANCH  21  22
ATOM     22  C   UNL     1     -10.515 -10.504  26.522  1.00  0.00     0.000 C 
BRANCH  22  23
ATOM     23  C   UNL     1     -11.688  -9.604  26.103  1.00  0.00     0.000 C 
BRANCH  23  24
ATOM     24  C   UNL     1     -12.053  -8.562  27.172  1.00  0.00    -0.000 C 
BRANCH  24  25
ATOM     25  C   UNL     1     -13.575  -8.373  27.246  1.00  0.00    -0.000 C 
BRANCH  25  26
ATOM     26  C   UNL     1     -14.342  -9.325  26.313  1.00  0.00    -0.000 C 
BRANCH  26  27
ATOM     27  C   UNL     1     -15.678  -8.733  25.833  1.00  0.00    -0.000 C 
BRANCH  27  28
ATOM     28  C   UNL     1     -15.644  -7.199  25.737  1.00  0.00    -0.000 C 
BRANCH  28  29
ATOM     29  C   UNL     1     -15.284  -6.700  24.328  1.00  0.00    -0.000 C 
BRANCH  29  30
ATOM     30  C   UNL     1     -13.955  -5.936  24.335  1.00  0.00    -0.000 C 
BRANCH  30  31
ATOM     31  C   UNL     1     -12.790  -6.856  23.952  1.00  0.00    -0.003 C 
ATOM     32  C   UNL     1     -13.249  -7.973  23.019  1.00  0.00     0.004 C 
ENDBRANCH  30  31
ENDBRANCH  29  30
ENDBRANCH  28  29
ENDBRANCH  27  28
ENDBRANCH  26  27
ENDBRANCH  25  26
ENDBRANCH  24  25
ENDBRANCH  23  24
ENDBRANCH  22  23
ENDBRANCH  21  22
ENDBRANCH  20  21
ENDBRANCH  19  20
ENDBRANCH  18  19
ENDBRANCH   1  18
TORSDOF 28
ENDMDL
MODEL 6
REMARK VINA RESULT:    -4.187      2.424      5.846
REMARK INTER + INTRA:         -16.310
REMARK INTER:                 -10.647
REMARK INTRA:                  -5.663
REMARK UNBOUND:                -5.270
REMARK SMILES CCCCCCCCCCCCCCCCCCCCCCCCCCCCCC(=O)[O-]
REMARK SMILES IDX 16 1 17 2 18 3 19 4 20 5 21 6 22 7 23 8 24 9 25 10 26 11
REMARK SMILES IDX 27 12 28 13 29 14 30 15 31 16 32 17 15 18 14 19 13 20 12 21
REMARK SMILES IDX 11 22 10 23 9 24 8 25 7 26 6 27 5 28 4 29 3 30 2 31 1 32
REMARK H PARENT
REMARK Flexibility Score: inf
ROOT
ATOM      1  C   UNL     1     -11.124 -10.899  28.253  1.00  0.00     0.000 C 
ENDROOT
BRANCH   1   2
ATOM      2  C   UNL     1     -11.636  -9.720  29.098  1.00  0.00     0.000 C 
BRANCH   2   3
ATOM      3  C   UNL     1     -11.743  -8.417  28.286  1.00  0.00     0.000 C 
BRANCH   3   4
ATOM      4  C   UNL     1     -11.271  -8.583  26.833  1.00  0.00     0.000 C 
BRANCH   4   5
ATOM      5  C   UNL     1     -12.189  -7.952  25.769  1.00  0.00     0.000 C 
BRANCH   5   6
ATOM      6  C   UNL     1     -13.684  -7.953  26.150  1.00  0.00     0.000 C 
BRANCH   6   7
ATOM      7  C   UNL     1     -14.460  -9.127  25.527  1.00  0.00     0.000 C 
BRANCH   7   8
ATOM      8  C   UNL     1     -14.425 -10.396  26.398  1.00  0.00     0.000 C 
BRANCH   8   9
ATOM      9  C   UNL     1     -13.892 -11.641  25.656  1.00  0.00     0.000 C 
BRANCH   9  10
ATOM     10  C   UNL     1     -13.119 -11.269  24.378  1.00  0.00     0.000 C 
BRANCH  10  11
ATOM     11  C   UNL     1     -11.592 -11.331  24.561  1.00  0.00     0.000 C 
BRANCH  11  12
ATOM     12  C   UNL     1     -11.041 -12.725  24.917  1.00  0.00     0.000 C 
BRANCH  12  13
ATOM     13  C   UNL     1     -10.606 -13.524  23.678  1.00  0.00     0.006 C 
BRANCH  13  14
ATOM     14  C   UNL     1     -11.706 -14.472  23.179  1.00  0.00     0.053 C 
BRANCH  14  15
ATOM     15  C   UNL     1     -12.506 -13.881  22.056  1.00  0.00     0.041 C 
ATOM     16  O   UNL     1     -11.937 -13.223  21.146  1.00  0.00    -0.550 OA
ATOM     17  O   UNL     1     -13.890 -14.004  22.052  1.00  0.00    -0.550 OA
ENDBRANCH  14  15
ENDBRANCH  13  14
ENDBRANCH  12  13
ENDBRANCH  11  12
ENDBRANCH  10  11
ENDBRANCH   9  10
ENDBRANCH   8   9
ENDBRANCH   7   8
ENDBRANCH   6   7
ENDBRANCH   5   6
ENDBRANCH   4   5
ENDBRANCH   3   4
ENDBRANCH   2   3
ENDBRANCH   1   2
BRANCH   1  18
ATOM     18  C   UNL     1     -11.849 -12.215  28.578  1.00  0.00     0.000 C 
BRANCH  18  19
ATOM     19  C   UNL     1     -13.112 -12.009  29.434  1.00  0.00     0.000 C 
BRANCH  19  20
ATOM     20  C   UNL     1     -13.373 -13.148  30.440  1.00  0.00     0.000 C 
BRANCH  20  21
ATOM     21  C   UNL     1     -12.308 -14.252  30.369  1.00  0.00     0.000 C 
BRANCH  21  22
ATOM     22  C   UNL     1     -12.953 -15.644  30.466  1.00  0.00     0.000 C 
BRANCH  22  23
ATOM     23  C   UNL     1     -11.938 -16.748  30.804  1.00  0.00     0.000 C 
BRANCH  23  24
ATOM     24  C   UNL     1     -12.571 -18.147  30.849  1.00  0.00    -0.000 C 
BRANCH  24  25
ATOM     25  C   UNL     1     -11.512 -19.228  30.581  1.00  0.00    -0.000 C 
BRANCH  25  26
ATOM     26  C   UNL     1     -10.353 -18.725  29.704  1.00  0.00    -0.000 C 
BRANCH  26  27
ATOM     27  C   UNL     1     -10.511 -19.127  28.228  1.00  0.00    -0.000 C 
BRANCH  27  28
ATOM     28  C   UNL     1     -10.507 -17.913  27.282  1.00  0.00    -0.000 C 
BRANCH  28  29
ATOM     29  C   UNL     1     -11.892 -17.260  27.148  1.00  0.00    -0.000 C 
BRANCH  29  30
ATOM     30  C   UNL     1     -11.774 -15.739  26.999  1.00  0.00    -0.000 C 
BRANCH  30  31
ATOM     31  C   UNL     1     -13.105 -15.125  26.550  1.00  0.00    -0.003 C 
ATOM     32  C   UNL     1     -13.974 -16.152  25.831  1.00  0.00     0.004 C 
ENDBRANCH  30  31
ENDBRANCH  29  30
ENDBRANCH  28  29
ENDBRANCH  27  28
ENDBRANCH  26  27
ENDBRANCH  25  26
ENDBRANCH  24  25
ENDBRANCH  23  24
ENDBRANCH  22  23
ENDBRANCH  21  22
ENDBRANCH  20  21
ENDBRANCH  19  20
ENDBRANCH  18  19
ENDBRANCH   1  18
TORSDOF 28
ENDMDL
MODEL 7
REMARK VINA RESULT:    -4.179      2.476      6.932
REMARK INTER + INTRA:         -16.290
REMARK INTER:                  -9.458
REMARK INTRA:                  -6.833
REMARK UNBOUND:                -5.270
REMARK SMILES CCCCCCCCCCCCCCCCCCCCCCCCCCCCCC(=O)[O-]
REMARK SMILES IDX 16 1 17 2 18 3 19 4 20 5 21 6 22 7 23 8 24 9 25 10 26 11
REMARK SMILES IDX 27 12 28 13 29 14 30 15 31 16 32 17 15 18 14 19 13 20 12 21
REMARK SMILES IDX 11 22 10 23 9 24 8 25 7 26 6 27 5 28 4 29 3 30 2 31 1 32
REMARK H PARENT
REMARK Flexibility Score: inf
ROOT
ATOM      1  C   UNL     1     -12.742 -10.382  22.320  1.00  0.00     0.000 C 
ENDROOT
BRANCH   1   2
ATOM      2  C   UNL     1     -12.422 -10.906  23.729  1.00  0.00     0.000 C 
BRANCH   2   3
ATOM      3  C   UNL     1     -11.267 -11.923  23.732  1.00  0.00     0.000 C 
BRANCH   3   4
ATOM      4  C   UNL     1     -10.811 -12.299  25.151  1.00  0.00     0.000 C 
BRANCH   4   5
ATOM      5  C   UNL     1     -10.138 -13.678  25.279  1.00  0.00     0.000 C 
BRANCH   5   6
ATOM      6  C   UNL     1     -10.233 -14.544  24.005  1.00  0.00     0.000 C 
BRANCH   6   7
ATOM      7  C   UNL     1     -10.220 -16.053  24.306  1.00  0.00     0.000 C 
BRANCH   7   8
ATOM      8  C   UNL     1      -9.759 -16.374  25.739  1.00  0.00     0.000 C 
BRANCH   8   9
ATOM      9  C   UNL     1     -10.867 -16.987  26.623  1.00  0.00     0.000 C 
BRANCH   9  10
ATOM     10  C   UNL     1     -12.217 -17.069  25.888  1.00  0.00     0.000 C 
BRANCH  10  11
ATOM     11  C   UNL     1     -13.304 -16.188  26.533  1.00  0.00     0.000 C 
BRANCH  11  12
ATOM     12  C   UNL     1     -14.320 -15.590  25.542  1.00  0.00     0.000 C 
BRANCH  12  13
ATOM     13  C   UNL     1     -13.671 -14.618  24.543  1.00  0.00     0.006 C 
BRANCH  13  14
ATOM     14  C   UNL     1     -14.712 -13.856  23.710  1.00  0.00     0.053 C 
BRANCH  14  15
ATOM     15  C   UNL     1     -14.350 -13.795  22.256  1.00  0.00     0.041 C 
ATOM     16  O   UNL     1     -13.213 -14.168  21.867  1.00  0.00    -0.550 OA
ATOM     17  O   UNL     1     -15.250 -13.263  21.340  1.00  0.00    -0.550 OA
ENDBRANCH  14  15
ENDBRANCH  13  14
ENDBRANCH  12  13
ENDBRANCH  11  12
ENDBRANCH  10  11
ENDBRANCH   9  10
ENDBRANCH   8   9
ENDBRANCH   7   8
ENDBRANCH   6   7
ENDBRANCH   5   6
ENDBRANCH   4   5
ENDBRANCH   3   4
ENDBRANCH   2   3
ENDBRANCH   1   2
BRANCH   1  18
ATOM     18  C   UNL     1     -14.224 -10.006  22.153  1.00  0.00     0.000 C 
BRANCH  18  19
ATOM     19  C   UNL     1     -15.023 -10.128  23.462  1.00  0.00     0.000 C 
BRANCH  19  20
ATOM     20  C   UNL     1     -15.674  -8.806  23.918  1.00  0.00     0.000 C 
BRANCH  20  21
ATOM     21  C   UNL     1     -14.964  -7.571  23.344  1.00  0.00     0.000 C 
BRANCH  21  22
ATOM     22  C   UNL     1     -14.120  -6.872  24.422  1.00  0.00     0.000 C 
BRANCH  22  23
ATOM     23  C   UNL     1     -12.614  -7.130  24.258  1.00  0.00     0.000 C 
BRANCH  23  24
ATOM     24  C   UNL     1     -12.001  -7.867  25.459  1.00  0.00    -0.000 C 
BRANCH  24  25
ATOM     25  C   UNL     1     -13.081  -8.197  26.500  1.00  0.00    -0.000 C 
BRANCH  25  26
ATOM     26  C   UNL     1     -12.881  -9.574  27.153  1.00  0.00    -0.000 C 
BRANCH  26  27
ATOM     27  C   UNL     1     -14.162 -10.426  27.140  1.00  0.00    -0.000 C 
BRANCH  27  28
ATOM     28  C   UNL     1     -13.872 -11.925  26.948  1.00  0.00    -0.000 C 
BRANCH  28  29
ATOM     29  C   UNL     1     -13.787 -12.688  28.279  1.00  0.00    -0.000 C 
BRANCH  29  30
ATOM     30  C   UNL     1     -12.367 -13.211  28.526  1.00  0.00    -0.000 C 
BRANCH  30  31
ATOM     31  C   UNL     1     -11.593 -12.278  29.464  1.00  0.00    -0.003 C 
ATOM     32  C   UNL     1     -10.384 -11.666  28.763  1.00  0.00     0.004 C 
ENDBRANCH  30  31
ENDBRANCH  29  30
ENDBRANCH  28  29
ENDBRANCH  27  28
ENDBRANCH  26  27
ENDBRANCH  25  26
ENDBRANCH  24  25
ENDBRANCH  23  24
ENDBRANCH  22  23
ENDBRANCH  21  22
ENDBRANCH  20  21
ENDBRANCH  19  20
ENDBRANCH  18  19
ENDBRANCH   1  18
TORSDOF 28
ENDMDL
MODEL 8
REMARK VINA RESULT:    -4.164      2.789      6.182
REMARK INTER + INTRA:         -16.250
REMARK INTER:                 -10.518
REMARK INTRA:                  -5.732
REMARK UNBOUND:                -5.270
REMARK SMILES CCCCCCCCCCCCCCCCCCCCCCCCCCCCCC(=O)[O-]
REMARK SMILES IDX 16 1 17 2 18 3 19 4 20 5 21 6 22 7 23 8 24 9 25 10 26 11
REMARK SMILES IDX 27 12 28 13 29 14 30 15 31 16 32 17 15 18 14 19 13 20 12 21
REMARK SMILES IDX 11 22 10 23 9 24 8 25 7 26 6 27 5 28 4 29 3 30 2 31 1 32
REMARK H PARENT
REMARK Flexibility Score: inf
ROOT
ATOM      1  C   UNL     1     -10.828 -10.568  29.001  1.00  0.00     0.000 C 
ENDROOT
BRANCH   1   2
ATOM      2  C   UNL     1     -11.653  -9.358  29.471  1.00  0.00     0.000 C 
BRANCH   2   3
ATOM      3  C   UNL     1     -11.592  -8.183  28.480  1.00  0.00     0.000 C 
BRANCH   3   4
ATOM      4  C   UNL     1     -11.220  -8.628  27.055  1.00  0.00     0.000 C 
BRANCH   4   5
ATOM      5  C   UNL     1     -12.377  -8.607  26.039  1.00  0.00     0.000 C 
BRANCH   5   6
ATOM      6  C   UNL     1     -13.779  -8.584  26.684  1.00  0.00     0.000 C 
BRANCH   6   7
ATOM      7  C   UNL     1     -14.383  -9.989  26.853  1.00  0.00     0.000 C 
BRANCH   7   8
ATOM      8  C   UNL     1     -13.973 -10.956  25.728  1.00  0.00     0.000 C 
BRANCH   8   9
ATOM      9  C   UNL     1     -13.292 -12.245  26.238  1.00  0.00     0.000 C 
BRANCH   9  10
ATOM     10  C   UNL     1     -11.758 -12.177  26.126  1.00  0.00     0.000 C 
BRANCH  10  11
ATOM     11  C   UNL     1     -11.092 -13.564  26.169  1.00  0.00     0.000 C 
BRANCH  11  12
ATOM     12  C   UNL     1     -12.002 -14.730  25.737  1.00  0.00     0.000 C 
BRANCH  12  13
ATOM     13  C   UNL     1     -11.580 -15.344  24.392  1.00  0.00     0.006 C 
BRANCH  13  14
ATOM     14  C   UNL     1     -10.133 -14.991  24.017  1.00  0.00     0.053 C 
BRANCH  14  15
ATOM     15  C   UNL     1     -10.031 -14.352  22.664  1.00  0.00     0.041 C 
ATOM     16  O   UNL     1      -8.959 -14.418  22.009  1.00  0.00    -0.550 OA
ATOM     17  O   UNL     1     -11.104 -13.628  22.157  1.00  0.00    -0.550 OA
ENDBRANCH  14  15
ENDBRANCH  13  14
ENDBRANCH  12  13
ENDBRANCH  11  12
ENDBRANCH  10  11
ENDBRANCH   9  10
ENDBRANCH   8   9
ENDBRANCH   7   8
ENDBRANCH   6   7
ENDBRANCH   5   6
ENDBRANCH   4   5
ENDBRANCH   3   4
ENDBRANCH   2   3
ENDBRANCH   1   2
BRANCH   1  18
ATOM     18  C   UNL     1     -11.191 -11.857  29.757  1.00  0.00     0.000 C 
BRANCH  18  19
ATOM     19  C   UNL     1     -12.685 -11.942  30.114  1.00  0.00     0.000 C 
BRANCH  19  20
ATOM     20  C   UNL     1     -13.329 -13.302  29.777  1.00  0.00     0.000 C 
BRANCH  20  21
ATOM     21  C   UNL     1     -12.287 -14.379  29.440  1.00  0.00     0.000 C 
BRANCH  21  22
ATOM     22  C   UNL     1     -12.777 -15.771  29.870  1.00  0.00     0.000 C 
BRANCH  22  23
ATOM     23  C   UNL     1     -12.602 -16.023  31.376  1.00  0.00     0.000 C 
BRANCH  23  24
ATOM     24  C   UNL     1     -11.973 -17.391  31.683  1.00  0.00    -0.000 C 
BRANCH  24  25
ATOM     25  C   UNL     1     -12.324 -18.407  30.585  1.00  0.00    -0.000 C 
BRANCH  25  26
ATOM     26  C   UNL     1     -11.259 -19.503  30.421  1.00  0.00    -0.000 C 
BRANCH  26  27
ATOM     27  C   UNL     1     -10.232 -19.171  29.326  1.00  0.00    -0.000 C 
BRANCH  27  28
ATOM     28  C   UNL     1     -10.884 -18.961  27.949  1.00  0.00    -0.000 C 
BRANCH  28  29
ATOM     29  C   UNL     1     -10.543 -17.595  27.332  1.00  0.00    -0.000 C 
BRANCH  29  30
ATOM     30  C   UNL     1      -9.104 -17.183  27.664  1.00  0.00    -0.000 C 
BRANCH  30  31
ATOM     31  C   UNL     1      -9.056 -15.756  28.222  1.00  0.00    -0.003 C 
ATOM     32  C   UNL     1      -8.981 -15.757  29.745  1.00  0.00     0.004 C 
ENDBRANCH  30  31
ENDBRANCH  29  30
ENDBRANCH  28  29
ENDBRANCH  27  28
ENDBRANCH  26  27
ENDBRANCH  25  26
ENDBRANCH  24  25
ENDBRANCH  23  24
ENDBRANCH  22  23
ENDBRANCH  21  22
ENDBRANCH  20  21
ENDBRANCH  19  20
ENDBRANCH  18  19
ENDBRANCH   1  18
TORSDOF 28
ENDMDL
MODEL 9
REMARK VINA RESULT:    -4.134      2.249      5.888
REMARK INTER + INTRA:         -16.171
REMARK INTER:                  -9.492
REMARK INTRA:                  -6.679
REMARK UNBOUND:                -5.270
REMARK SMILES CCCCCCCCCCCCCCCCCCCCCCCCCCCCCC(=O)[O-]
REMARK SMILES IDX 16 1 17 2 18 3 19 4 20 5 21 6 22 7 23 8 24 9 25 10 26 11
REMARK SMILES IDX 27 12 28 13 29 14 30 15 31 16 32 17 15 18 14 19 13 20 12 21
REMARK SMILES IDX 11 22 10 23 9 24 8 25 7 26 6 27 5 28 4 29 3 30 2 31 1 32
REMARK H PARENT
REMARK Flexibility Score: inf
ROOT
ATOM      1  C   UNL     1     -13.183  -7.507  24.943  1.00  0.00     0.000 C 
ENDROOT
BRANCH   1   2
ATOM      2  C   UNL     1     -11.995  -8.457  25.168  1.00  0.00     0.000 C 
BRANCH   2   3
ATOM      3  C   UNL     1     -11.605  -8.569  26.652  1.00  0.00     0.000 C 
BRANCH   3   4
ATOM      4  C   UNL     1     -10.889  -9.890  26.979  1.00  0.00     0.000 C 
BRANCH   4   5
ATOM      5  C   UNL     1     -10.842 -10.913  25.828  1.00  0.00     0.000 C 
BRANCH   5   6
ATOM      6  C   UNL     1     -10.159 -12.246  26.200  1.00  0.00     0.000 C 
BRANCH   6   7
ATOM      7  C   UNL     1     -11.160 -13.401  26.375  1.00  0.00     0.000 C 
BRANCH   7   8
ATOM      8  C   UNL     1     -10.718 -14.690  25.659  1.00  0.00     0.000 C 
BRANCH   8   9
ATOM      9  C   UNL     1     -11.792 -15.799  25.663  1.00  0.00     0.000 C 
BRANCH   9  10
ATOM     10  C   UNL     1     -13.112 -15.329  26.301  1.00  0.00     0.000 C 
BRANCH  10  11
ATOM     11  C   UNL     1     -14.320 -15.475  25.358  1.00  0.00     0.000 C 
BRANCH  11  12
ATOM     12  C   UNL     1     -15.110 -14.175  25.117  1.00  0.00     0.000 C 
BRANCH  12  13
ATOM     13  C   UNL     1     -14.862 -13.581  23.721  1.00  0.00     0.006 C 
BRANCH  13  14
ATOM     14  C   UNL     1     -13.670 -12.613  23.701  1.00  0.00     0.053 C 
BRANCH  14  15
ATOM     15  C   UNL     1     -12.517 -13.140  22.900  1.00  0.00     0.041 C 
ATOM     16  O   UNL     1     -11.488 -12.436  22.726  1.00  0.00    -0.550 OA
ATOM     17  O   UNL     1     -12.608 -14.387  22.292  1.00  0.00    -0.550 OA
ENDBRANCH  14  15
ENDBRANCH  13  14
ENDBRANCH  12  13
ENDBRANCH  11  12
ENDBRANCH  10  11
ENDBRANCH   9  10
ENDBRANCH   8   9
ENDBRANCH   7   8
ENDBRANCH   6   7
ENDBRANCH   5   6
ENDBRANCH   4   5
ENDBRANCH   3   4
ENDBRANCH   2   3
ENDBRANCH   1   2
BRANCH   1  18
ATOM     18  C   UNL     1     -14.259  -7.640  26.034  1.00  0.00     0.000 C 
BRANCH  18  19
ATOM     19  C   UNL     1     -15.477  -8.462  25.577  1.00  0.00     0.000 C 
BRANCH  19  20
ATOM     20  C   UNL     1     -15.370  -9.965  25.905  1.00  0.00     0.000 C 
BRANCH  20  21
ATOM     21  C   UNL     1     -14.630 -10.230  27.225  1.00  0.00     0.000 C 
BRANCH  21  22
ATOM     22  C   UNL     1     -14.145 -11.686  27.301  1.00  0.00     0.000 C 
BRANCH  22  23
ATOM     23  C   UNL     1     -13.629 -12.069  28.697  1.00  0.00     0.000 C 
BRANCH  23  24
ATOM     24  C   UNL     1     -13.524 -10.864  29.645  1.00  0.00    -0.000 C 
BRANCH  24  25
ATOM     25  C   UNL     1     -12.238 -10.944  30.481  1.00  0.00    -0.000 C 
BRANCH  25  26
ATOM     26  C   UNL     1     -11.242 -11.986  29.948  1.00  0.00    -0.000 C 
BRANCH  26  27
ATOM     27  C   UNL     1     -10.848 -13.026  31.010  1.00  0.00    -0.000 C 
BRANCH  27  28
ATOM     28  C   UNL     1     -11.774 -14.255  31.005  1.00  0.00    -0.000 C 
BRANCH  28  29
ATOM     29  C   UNL     1     -11.707 -15.043  29.688  1.00  0.00    -0.000 C 
BRANCH  29  30
ATOM     30  C   UNL     1     -10.274 -15.502  29.391  1.00  0.00    -0.000 C 
BRANCH  30  31
ATOM     31  C   UNL     1     -10.262 -16.907  28.778  1.00  0.00    -0.003 C 
ATOM     32  C   UNL     1     -11.546 -17.664  29.102  1.00  0.00     0.004 C 
ENDBRANCH  30  31
ENDBRANCH  29  30
ENDBRANCH  28  29
ENDBRANCH  27  28
ENDBRANCH  26  27
ENDBRANCH  25  26
ENDBRANCH  24  25
ENDBRANCH  23  24
ENDBRANCH  22  23
ENDBRANCH  21  22
ENDBRANCH  20  21
ENDBRANCH  19  20
ENDBRANCH  18  19
ENDBRANCH   1  18
TORSDOF 28
ENDMDL
