MODEL 1
REMARK VINA RESULT:   147.870      0.000      0.000
REMARK INTER + INTRA:         161.610
REMARK INTER:                 160.837
REMARK INTRA:                   0.773
REMARK UNBOUND:                 0.773
REMARK SMILES C[C@@H]1[C@H](C)CC[C@]2(C(=O)[O-])CC[C@@]3(C)C(=CC[C@@H]4[C@]5(C)CC[C@H](O)C(C)(C)[C@H]5CC[C@@]43C)[C@@H]12
REMARK SMILES IDX 7 1 6 2 11 3 33 4 5 5 12 6 15 7 2 8 3 9 13 10 16 11 1 12
REMARK SMILES IDX 4 13 14 14 31 15 17 16 18 17 30 18 32 19 19 20 29 21 28 22
REMARK SMILES IDX 21 23 20 24 25 25 22 26 23 27 26 28 27 29 8 30 9 31 10 32
REMARK SMILES IDX 24 33
REMARK H PARENT 24 34
REMARK Flexibility Score: inf
ROOT
ATOM      1  C   UNL     1     -42.485  29.598 -22.404  1.00  0.00     0.017 C 
ATOM      2  C   UNL     1     -44.021  29.398 -22.311  1.00  0.00     0.014 C 
ATOM      3  C   UNL     1     -41.717  28.291 -22.069  1.00  0.00     0.014 C 
ATOM      4  C   UNL     1     -42.102  30.617 -21.271  1.00  0.00     0.030 C 
ATOM      5  C   UNL     1     -44.771  30.738 -22.514  1.00  0.00     0.004 C 
ATOM      6  C   UNL     1     -40.161  28.458 -22.088  1.00  0.00     0.013 C 
ATOM      7  C   UNL     1     -40.627  30.532 -20.801  1.00  0.00    -0.063 C 
ATOM      8  C   UNL     1     -42.763  32.015 -21.448  1.00  0.00    -0.003 C 
ATOM      9  C   UNL     1     -44.327  31.868 -21.540  1.00  0.00    -0.011 C 
ATOM     10  C   UNL     1     -39.575  29.889 -21.708  1.00  0.00    -0.006 C 
ATOM     11  C   UNL     1     -40.444  30.574 -19.467  1.00  0.00    -0.027 C 
ATOM     12  C   UNL     1     -42.341  33.033 -20.375  1.00  0.00     0.008 C 
ATOM     13  C   UNL     1     -45.027  31.692 -20.174  1.00  0.00     0.008 C 
ATOM     14  C   UNL     1     -39.452  30.760 -23.013  1.00  0.00     0.017 C 
ATOM     15  C   UNL     1     -38.108  29.769 -21.011  1.00  0.00    -0.020 C 
ATOM     16  C   UNL     1     -39.292  30.005 -18.719  1.00  0.00     0.032 C 
ATOM     17  C   UNL     1     -38.230  29.203 -19.531  1.00  0.00     0.006 C 
ATOM     18  C   UNL     1     -37.367  31.152 -20.887  1.00  0.00     0.008 C 
ATOM     19  C   UNL     1     -37.263  28.831 -21.940  1.00  0.00     0.012 C 
ATOM     20  C   UNL     1     -36.846  29.105 -18.716  1.00  0.00    -0.025 C 
ATOM     21  C   UNL     1     -36.010  31.097 -20.145  1.00  0.00     0.005 C 
ATOM     22  C   UNL     1     -36.136  30.514 -18.721  1.00  0.00     0.003 C 
ATOM     23  C   UNL     1     -37.102  28.705 -17.221  1.00  0.00     0.010 C 
ATOM     24  C   UNL     1     -35.971  27.966 -19.337  1.00  0.00     0.012 C 
ATOM     25  C   UNL     1     -34.842  30.642 -17.816  1.00  0.00    -0.006 C 
ATOM     26  C   UNL     1     -35.847  28.780 -16.327  1.00  0.00     0.033 C 
ATOM     27  C   UNL     1     -35.184  30.167 -16.363  1.00  0.00     0.120 C 
ATOM     28  C   UNL     1     -34.393  32.130 -17.738  1.00  0.00     0.014 C 
ATOM     29  C   UNL     1     -33.619  29.854 -18.355  1.00  0.00     0.014 C 
ENDROOT
BRANCH   1  30
ATOM     30  C   UNL     1     -42.208  29.968 -23.867  1.00  0.00     0.048 C 
ATOM     31  O   UNL     1     -41.773  31.118 -24.146  1.00  0.00    -0.550 OA
ATOM     32  O   UNL     1     -42.308  29.048 -24.902  1.00  0.00    -0.550 OA
ENDBRANCH   1  30
BRANCH  27  33
ATOM     33  O   UNL     1     -36.052  31.081 -15.732  1.00  0.00    -0.393 OA
ATOM     34  H   UNL     1     -36.982  30.816 -15.958  1.00  0.00     0.210 HD
ENDBRANCH  27  33
TORSDOF 2
ENDMDL
MODEL 2
REMARK VINA RESULT:   148.641      2.836      5.427
REMARK INTER + INTRA:         162.447
REMARK INTER:                 159.731
REMARK INTRA:                   2.717
REMARK UNBOUND:                 0.773
REMARK SMILES C[C@@H]1[C@H](C)CC[C@]2(C(=O)[O-])CC[C@@]3(C)C(=CC[C@@H]4[C@]5(C)CC[C@H](O)C(C)(C)[C@H]5CC[C@@]43C)[C@@H]12
REMARK SMILES IDX 7 1 6 2 11 3 33 4 5 5 12 6 15 7 2 8 3 9 13 10 16 11 1 12
REMARK SMILES IDX 4 13 14 14 31 15 17 16 18 17 30 18 32 19 19 20 29 21 28 22
REMARK SMILES IDX 21 23 20 24 25 25 22 26 23 27 26 28 27 29 8 30 9 31 10 32
REMARK SMILES IDX 24 33
REMARK H PARENT 24 34
REMARK Flexibility Score: inf
ROOT
ATOM      1  C   UNL     1     -38.641  29.050 -21.582  1.00  0.00     0.017 C 
ATOM      2  C   UNL     1     -39.200  28.622 -22.965  1.00  0.00     0.014 C 
ATOM      3  C   UNL     1     -37.696  30.276 -21.703  1.00  0.00     0.014 C 
ATOM      4  C   UNL     1     -37.738  27.865 -21.083  1.00  0.00     0.030 C 
ATOM      5  C   UNL     1     -40.031  27.320 -22.851  1.00  0.00     0.004 C 
ATOM      6  C   UNL     1     -37.056  30.708 -20.341  1.00  0.00     0.013 C 
ATOM      7  C   UNL     1     -36.653  28.273 -20.054  1.00  0.00    -0.063 C 
ATOM      8  C   UNL     1     -38.521  26.537 -20.875  1.00  0.00    -0.003 C 
ATOM      9  C   UNL     1     -39.265  26.131 -22.201  1.00  0.00    -0.011 C 
ATOM     10  C   UNL     1     -36.810  29.570 -19.255  1.00  0.00    -0.006 C 
ATOM     11  C   UNL     1     -35.432  27.745 -20.264  1.00  0.00    -0.027 C 
ATOM     12  C   UNL     1     -37.652  25.392 -20.327  1.00  0.00     0.008 C 
ATOM     13  C   UNL     1     -38.359  25.451 -23.251  1.00  0.00     0.008 C 
ATOM     14  C   UNL     1     -38.088  29.437 -18.347  1.00  0.00     0.017 C 
ATOM     15  C   UNL     1     -35.524  29.908 -18.315  1.00  0.00    -0.020 C 
ATOM     16  C   UNL     1     -34.135  28.322 -19.819  1.00  0.00     0.032 C 
ATOM     17  C   UNL     1     -34.167  29.714 -19.119  1.00  0.00     0.006 C 
ATOM     18  C   UNL     1     -35.417  28.974 -17.053  1.00  0.00     0.008 C 
ATOM     19  C   UNL     1     -35.722  31.385 -17.827  1.00  0.00     0.012 C 
ATOM     20  C   UNL     1     -32.823  29.955 -18.269  1.00  0.00    -0.025 C 
ATOM     21  C   UNL     1     -34.158  29.199 -16.183  1.00  0.00     0.005 C 
ATOM     22  C   UNL     1     -32.847  29.041 -16.983  1.00  0.00     0.003 C 
ATOM     23  C   UNL     1     -31.553  29.568 -19.105  1.00  0.00     0.010 C 
ATOM     24  C   UNL     1     -32.694  31.481 -17.946  1.00  0.00     0.012 C 
ATOM     25  C   UNL     1     -31.520  29.024 -16.119  1.00  0.00    -0.006 C 
ATOM     26  C   UNL     1     -30.239  29.585 -18.297  1.00  0.00     0.033 C 
ATOM     27  C   UNL     1     -30.307  28.686 -17.052  1.00  0.00     0.120 C 
ATOM     28  C   UNL     1     -31.608  27.915 -15.031  1.00  0.00     0.014 C 
ATOM     29  C   UNL     1     -31.248  30.349 -15.359  1.00  0.00     0.014 C 
ENDROOT
BRANCH   1  30
ATOM     30  C   UNL     1     -39.866  29.456 -20.753  1.00  0.00     0.048 C 
ATOM     31  O   UNL     1     -39.715  30.185 -19.735  1.00  0.00    -0.550 OA
ATOM     32  O   UNL     1     -41.164  29.149 -21.139  1.00  0.00    -0.550 OA
ENDBRANCH   1  30
BRANCH  27  33
ATOM     33  O   UNL     1     -30.371  27.346 -17.485  1.00  0.00    -0.393 OA
ATOM     34  H   UNL     1     -30.215  26.767 -16.692  1.00  0.00     0.210 HD
ENDBRANCH  27  33
TORSDOF 2
ENDMDL
MODEL 3
REMARK VINA RESULT:   149.949      2.874      8.040
REMARK INTER + INTRA:         163.870
REMARK INTER:                 162.958
REMARK INTRA:                   0.912
REMARK UNBOUND:                 0.773
REMARK SMILES C[C@@H]1[C@H](C)CC[C@]2(C(=O)[O-])CC[C@@]3(C)C(=CC[C@@H]4[C@]5(C)CC[C@H](O)C(C)(C)[C@H]5CC[C@@]43C)[C@@H]12
REMARK SMILES IDX 7 1 6 2 11 3 33 4 5 5 12 6 15 7 2 8 3 9 13 10 16 11 1 12
REMARK SMILES IDX 4 13 14 14 31 15 17 16 18 17 30 18 32 19 19 20 29 21 28 22
REMARK SMILES IDX 21 23 20 24 25 25 22 26 23 27 26 28 27 29 8 30 9 31 10 32
REMARK SMILES IDX 24 33
REMARK H PARENT 24 34
REMARK Flexibility Score: inf
ROOT
ATOM      1  C   UNL     1     -37.787  28.400 -22.351  1.00  0.00     0.017 C 
ATOM      2  C   UNL     1     -36.642  27.932 -23.288  1.00  0.00     0.014 C 
ATOM      3  C   UNL     1     -39.036  27.487 -22.476  1.00  0.00     0.014 C 
ATOM      4  C   UNL     1     -38.238  29.811 -22.875  1.00  0.00     0.030 C 
ATOM      5  C   UNL     1     -35.454  28.925 -23.256  1.00  0.00     0.004 C 
ATOM      6  C   UNL     1     -40.242  27.955 -21.596  1.00  0.00     0.013 C 
ATOM      7  C   UNL     1     -39.687  30.206 -22.490  1.00  0.00    -0.063 C 
ATOM      8  C   UNL     1     -37.114  30.884 -22.804  1.00  0.00    -0.003 C 
ATOM      9  C   UNL     1     -35.845  30.394 -23.593  1.00  0.00    -0.011 C 
ATOM     10  C   UNL     1     -40.377  29.516 -21.309  1.00  0.00    -0.006 C 
ATOM     11  C   UNL     1     -40.417  30.756 -23.479  1.00  0.00    -0.027 C 
ATOM     12  C   UNL     1     -37.572  32.282 -23.257  1.00  0.00     0.008 C 
ATOM     13  C   UNL     1     -35.943  30.574 -25.125  1.00  0.00     0.008 C 
ATOM     14  C   UNL     1     -39.582  29.871 -19.998  1.00  0.00     0.017 C 
ATOM     15  C   UNL     1     -41.933  29.958 -21.123  1.00  0.00    -0.020 C 
ATOM     16  C   UNL     1     -41.900  30.743 -23.591  1.00  0.00     0.032 C 
ATOM     17  C   UNL     1     -42.697  29.944 -22.516  1.00  0.00     0.006 C 
ATOM     18  C   UNL     1     -42.097  31.417 -20.553  1.00  0.00     0.008 C 
ATOM     19  C   UNL     1     -42.549  28.948 -20.094  1.00  0.00     0.012 C 
ATOM     20  C   UNL     1     -44.229  30.431 -22.465  1.00  0.00    -0.025 C 
ATOM     21  C   UNL     1     -43.559  31.912 -20.449  1.00  0.00     0.005 C 
ATOM     22  C   UNL     1     -44.301  31.861 -21.801  1.00  0.00     0.003 C 
ATOM     23  C   UNL     1     -44.830  30.546 -23.909  1.00  0.00     0.010 C 
ATOM     24  C   UNL     1     -45.080  29.353 -21.714  1.00  0.00     0.012 C 
ATOM     25  C   UNL     1     -45.718  32.568 -21.827  1.00  0.00    -0.006 C 
ATOM     26  C   UNL     1     -46.230  31.192 -23.959  1.00  0.00     0.033 C 
ATOM     27  C   UNL     1     -46.257  32.581 -23.299  1.00  0.00     0.120 C 
ATOM     28  C   UNL     1     -45.585  34.044 -21.355  1.00  0.00     0.014 C 
ATOM     29  C   UNL     1     -46.765  31.911 -20.888  1.00  0.00     0.014 C 
ENDROOT
BRANCH   1  30
ATOM     30  C   UNL     1     -37.228  28.274 -20.928  1.00  0.00     0.048 C 
ATOM     31  O   UNL     1     -36.704  27.188 -20.559  1.00  0.00    -0.550 OA
ATOM     32  O   UNL     1     -37.169  29.349 -20.051  1.00  0.00    -0.550 OA
ENDBRANCH   1  30
BRANCH  27  33
ATOM     33  O   UNL     1     -45.497  33.458 -24.099  1.00  0.00    -0.393 OA
ATOM     34  H   UNL     1     -45.739  33.285 -25.046  1.00  0.00     0.210 HD
ENDBRANCH  27  33
TORSDOF 2
ENDMDL
MODEL 4
REMARK VINA RESULT:   150.651      3.135      5.196
REMARK INTER + INTRA:         164.634
REMARK INTER:                 161.761
REMARK INTRA:                   2.873
REMARK UNBOUND:                 0.773
REMARK SMILES C[C@@H]1[C@H](C)CC[C@]2(C(=O)[O-])CC[C@@]3(C)C(=CC[C@@H]4[C@]5(C)CC[C@H](O)C(C)(C)[C@H]5CC[C@@]43C)[C@@H]12
REMARK SMILES IDX 7 1 6 2 11 3 33 4 5 5 12 6 15 7 2 8 3 9 13 10 16 11 1 12
REMARK SMILES IDX 4 13 14 14 31 15 17 16 18 17 30 18 32 19 19 20 29 21 28 22
REMARK SMILES IDX 21 23 20 24 25 25 22 26 23 27 26 28 27 29 8 30 9 31 10 32
REMARK SMILES IDX 24 33
REMARK H PARENT 24 34
REMARK Flexibility Score: inf
ROOT
ATOM      1  C   UNL     1     -44.558  32.473 -21.446  1.00  0.00     0.017 C 
ATOM      2  C   UNL     1     -45.440  33.577 -22.087  1.00  0.00     0.014 C 
ATOM      3  C   UNL     1     -43.212  33.048 -20.927  1.00  0.00     0.014 C 
ATOM      4  C   UNL     1     -44.178  31.482 -22.605  1.00  0.00     0.030 C 
ATOM      5  C   UNL     1     -46.718  32.971 -22.720  1.00  0.00     0.004 C 
ATOM      6  C   UNL     1     -42.259  31.961 -20.328  1.00  0.00     0.013 C 
ATOM      7  C   UNL     1     -42.885  30.665 -22.353  1.00  0.00    -0.063 C 
ATOM      8  C   UNL     1     -45.410  30.777 -23.243  1.00  0.00    -0.003 C 
ATOM      9  C   UNL     1     -46.440  31.848 -23.761  1.00  0.00    -0.011 C 
ATOM     10  C   UNL     1     -42.361  30.489 -20.925  1.00  0.00    -0.006 C 
ATOM     11  C   UNL     1     -42.046  30.575 -23.403  1.00  0.00    -0.027 C 
ATOM     12  C   UNL     1     -45.036  29.760 -24.335  1.00  0.00     0.008 C 
ATOM     13  C   UNL     1     -46.069  32.473 -25.125  1.00  0.00     0.008 C 
ATOM     14  C   UNL     1     -43.428  29.672 -20.106  1.00  0.00     0.017 C 
ATOM     15  C   UNL     1     -40.931  29.714 -20.854  1.00  0.00    -0.020 C 
ATOM     16  C   UNL     1     -40.578  30.349 -23.340  1.00  0.00     0.032 C 
ATOM     17  C   UNL     1     -39.916  30.296 -21.929  1.00  0.00     0.006 C 
ATOM     18  C   UNL     1     -41.046  28.173 -21.156  1.00  0.00     0.008 C 
ATOM     19  C   UNL     1     -40.413  29.896 -19.385  1.00  0.00     0.012 C 
ATOM     20  C   UNL     1     -38.488  29.559 -21.998  1.00  0.00    -0.025 C 
ATOM     21  C   UNL     1     -39.697  27.416 -21.191  1.00  0.00     0.005 C 
ATOM     22  C   UNL     1     -38.709  28.012 -22.216  1.00  0.00     0.003 C 
ATOM     23  C   UNL     1     -37.638  30.094 -23.202  1.00  0.00     0.010 C 
ATOM     24  C   UNL     1     -37.681  29.896 -20.700  1.00  0.00     0.012 C 
ATOM     25  C   UNL     1     -37.402  27.156 -22.479  1.00  0.00    -0.006 C 
ATOM     26  C   UNL     1     -36.337  29.303 -23.454  1.00  0.00     0.033 C 
ATOM     27  C   UNL     1     -36.596  27.801 -23.657  1.00  0.00     0.120 C 
ATOM     28  C   UNL     1     -37.791  25.710 -22.903  1.00  0.00     0.014 C 
ATOM     29  C   UNL     1     -36.488  27.005 -21.235  1.00  0.00     0.014 C 
ENDROOT
BRANCH   1  30
ATOM     30  C   UNL     1     -45.362  31.950 -20.249  1.00  0.00     0.048 C 
ATOM     31  O   UNL     1     -46.449  32.509 -19.937  1.00  0.00    -0.550 OA
ATOM     32  O   UNL     1     -45.002  30.806 -19.550  1.00  0.00    -0.550 OA
ENDBRANCH   1  30
BRANCH  27  33
ATOM     33  O   UNL     1     -37.283  27.638 -24.878  1.00  0.00    -0.393 OA
ATOM     34  H   UNL     1     -38.049  27.029 -24.711  1.00  0.00     0.210 HD
ENDBRANCH  27  33
TORSDOF 2
ENDMDL
