MODEL 1
REMARK VINA RESULT:    -5.421      0.000      0.000
REMARK INTER + INTRA:          -6.817
REMARK INTER:                  -6.530
REMARK INTRA:                  -0.288
REMARK UNBOUND:                -0.288
REMARK SMILES O=c1c(O)c(-c2ccc(O)c(O)c2)oc2cc(O)cc(O)c12
REMARK SMILES IDX 5 1 3 2 2 3 1 4 22 5 20 6 19 7 17 8 16 9 15 10 14 11 6 12
REMARK SMILES IDX 7 13 8 14 9 15 13 16 11 17 10 18 12 20 4 22 21 24 18 26
REMARK H PARENT 10 19 12 21 4 23 21 25 18 27
REMARK Flexibility Score: inf
ROOT
ATOM      1  C   UNL     1      16.958  -6.142  27.476  1.00  0.00     0.180 A 
ATOM      2  C   UNL     1      15.910  -5.519  28.176  1.00  0.00     0.208 A 
ATOM      3  C   UNL     1      16.172  -4.331  28.879  1.00  0.00     0.238 A 
ATOM      4  O   UNL     1      15.243  -3.808  29.549  1.00  0.00    -0.285 OA
ATOM      5  C   UNL     1      17.473  -3.774  28.860  1.00  0.00     0.111 A 
ATOM      6  C   UNL     1      17.842  -2.555  29.503  1.00  0.00     0.134 A 
ATOM      7  C   UNL     1      19.187  -2.165  29.527  1.00  0.00     0.093 A 
ATOM      8  C   UNL     1      20.166  -2.919  28.876  1.00  0.00     0.123 A 
ATOM      9  C   UNL     1      19.807  -4.079  28.195  1.00  0.00     0.094 A 
ATOM     10  C   UNL     1      18.479  -4.512  28.183  1.00  0.00     0.146 A 
ATOM     11  O   UNL     1      18.182  -5.630  27.532  1.00  0.00    -0.452 OA
ENDROOT
BRANCH   1  12
ATOM     12  C   UNL     1      16.754  -7.382  26.692  1.00  0.00     0.025 A 
ATOM     13  C   UNL     1      17.109  -8.640  27.209  1.00  0.00     0.016 A 
ATOM     14  C   UNL     1      16.884  -9.799  26.461  1.00  0.00     0.051 A 
ATOM     15  C   UNL     1      16.290  -9.720  25.194  1.00  0.00     0.157 A 
ATOM     16  C   UNL     1      16.140  -7.309  25.431  1.00  0.00     0.062 A 
ATOM     17  C   UNL     1      15.914  -8.468  24.679  1.00  0.00     0.158 A 
BRANCH  15  18
ATOM     18  O   UNL     1      16.070 -10.878  24.450  1.00  0.00    -0.504 OA
ATOM     19  H   UNL     1      16.832 -11.490  24.183  1.00  0.00     0.293 HD
ENDBRANCH  15  18
BRANCH  17  20
ATOM     20  O   UNL     1      15.315  -8.356  23.425  1.00  0.00    -0.504 OA
ATOM     21  H   UNL     1      14.686  -9.062  23.063  1.00  0.00     0.293 HD
ENDBRANCH  17  20
ENDBRANCH   1  12
BRANCH   2  22
ATOM     22  O   UNL     1      14.638  -6.098  28.200  1.00  0.00    -0.502 OA
ATOM     23  H   UNL     1      14.174  -6.427  27.363  1.00  0.00     0.293 HD
ENDBRANCH   2  22
BRANCH   6  24
ATOM     24  O   UNL     1      16.929  -1.682  30.104  1.00  0.00    -0.507 OA
ATOM     25  H   UNL     1      15.958  -1.896  30.278  1.00  0.00     0.293 HD
ENDBRANCH   6  24
BRANCH   8  26
ATOM     26  O   UNL     1      21.500  -2.516  28.892  1.00  0.00    -0.508 OA
ATOM     27  H   UNL     1      21.814  -1.702  28.376  1.00  0.00     0.293 HD
ENDBRANCH   8  26
TORSDOF 6
ENDMDL
MODEL 2
REMARK VINA RESULT:    -5.165      0.779      1.505
REMARK INTER + INTRA:          -6.509
REMARK INTER:                  -6.176
REMARK INTRA:                  -0.333
REMARK UNBOUND:                -0.288
REMARK SMILES O=c1c(O)c(-c2ccc(O)c(O)c2)oc2cc(O)cc(O)c12
REMARK SMILES IDX 5 1 3 2 2 3 1 4 22 5 20 6 19 7 17 8 16 9 15 10 14 11 6 12
REMARK SMILES IDX 7 13 8 14 9 15 13 16 11 17 10 18 12 20 4 22 21 24 18 26
REMARK H PARENT 10 19 12 21 4 23 21 25 18 27
REMARK Flexibility Score: inf
ROOT
ATOM      1  C   UNL     1      16.829  -6.447  27.158  1.00  0.00     0.180 A 
ATOM      2  C   UNL     1      15.785  -5.817  27.859  1.00  0.00     0.208 A 
ATOM      3  C   UNL     1      16.067  -4.661  28.606  1.00  0.00     0.238 A 
ATOM      4  O   UNL     1      15.141  -4.135  29.276  1.00  0.00    -0.285 OA
ATOM      5  C   UNL     1      17.383  -4.142  28.630  1.00  0.00     0.111 A 
ATOM      6  C   UNL     1      17.774  -2.956  29.320  1.00  0.00     0.134 A 
ATOM      7  C   UNL     1      19.129  -2.606  29.382  1.00  0.00     0.093 A 
ATOM      8  C   UNL     1      20.099  -3.366  28.725  1.00  0.00     0.123 A 
ATOM      9  C   UNL     1      19.721  -4.492  27.998  1.00  0.00     0.094 A 
ATOM     10  C   UNL     1      18.381  -4.885  27.948  1.00  0.00     0.146 A 
ATOM     11  O   UNL     1      18.065  -5.973  27.253  1.00  0.00    -0.452 OA
ENDROOT
BRANCH   1  12
ATOM     12  C   UNL     1      16.605  -7.654  26.329  1.00  0.00     0.025 A 
ATOM     13  C   UNL     1      16.256  -7.553  24.971  1.00  0.00     0.016 A 
ATOM     14  C   UNL     1      16.074  -8.706  24.202  1.00  0.00     0.051 A 
ATOM     15  C   UNL     1      16.251  -9.973  24.773  1.00  0.00     0.157 A 
ATOM     16  C   UNL     1      16.801  -8.925  26.892  1.00  0.00     0.062 A 
ATOM     17  C   UNL     1      16.619 -10.082  26.125  1.00  0.00     0.158 A 
BRANCH  15  18
ATOM     18  O   UNL     1      16.066 -11.121  24.004  1.00  0.00    -0.504 OA
ATOM     19  H   UNL     1      15.656 -11.079  23.079  1.00  0.00     0.293 HD
ENDBRANCH  15  18
BRANCH  17  20
ATOM     20  O   UNL     1      16.809 -11.327  26.722  1.00  0.00    -0.504 OA
ATOM     21  H   UNL     1      17.476 -12.000  26.364  1.00  0.00     0.293 HD
ENDBRANCH  17  20
ENDBRANCH   1  12
BRANCH   2  22
ATOM     22  O   UNL     1      14.498  -6.360  27.840  1.00  0.00    -0.502 OA
ATOM     23  H   UNL     1      14.274  -7.214  27.344  1.00  0.00     0.293 HD
ENDBRANCH   2  22
BRANCH   6  24
ATOM     24  O   UNL     1      16.875  -2.077  29.933  1.00  0.00    -0.507 OA
ATOM     25  H   UNL     1      16.319  -2.299  30.746  1.00  0.00     0.293 HD
ENDBRANCH   6  24
BRANCH   8  26
ATOM     26  O   UNL     1      21.442  -3.003  28.778  1.00  0.00    -0.508 OA
ATOM     27  H   UNL     1      21.750  -2.069  28.531  1.00  0.00     0.293 HD
ENDBRANCH   8  26
TORSDOF 6
ENDMDL
MODEL 3
REMARK VINA RESULT:    -5.156      9.236     12.468
REMARK INTER + INTRA:          -6.498
REMARK INTER:                  -6.375
REMARK INTRA:                  -0.123
REMARK UNBOUND:                -0.288
REMARK SMILES O=c1c(O)c(-c2ccc(O)c(O)c2)oc2cc(O)cc(O)c12
REMARK SMILES IDX 5 1 3 2 2 3 1 4 22 5 20 6 19 7 17 8 16 9 15 10 14 11 6 12
REMARK SMILES IDX 7 13 8 14 9 15 13 16 11 17 10 18 12 20 4 22 21 24 18 26
REMARK H PARENT 10 19 12 21 4 23 21 25 18 27
REMARK Flexibility Score: inf
ROOT
ATOM      1  C   UNL     1      23.559   4.062  25.760  1.00  0.00     0.180 A 
ATOM      2  C   UNL     1      22.364   4.629  26.238  1.00  0.00     0.208 A 
ATOM      3  C   UNL     1      21.697   4.009  27.308  1.00  0.00     0.238 A 
ATOM      4  O   UNL     1      20.600   4.490  27.695  1.00  0.00    -0.285 OA
ATOM      5  C   UNL     1      22.241   2.842  27.896  1.00  0.00     0.111 A 
ATOM      6  C   UNL     1      21.672   2.155  29.010  1.00  0.00     0.134 A 
ATOM      7  C   UNL     1      22.224   0.937  29.426  1.00  0.00     0.093 A 
ATOM      8  C   UNL     1      23.363   0.415  28.810  1.00  0.00     0.123 A 
ATOM      9  C   UNL     1      23.961   1.108  27.760  1.00  0.00     0.094 A 
ATOM     10  C   UNL     1      23.413   2.308  27.300  1.00  0.00     0.146 A 
ATOM     11  O   UNL     1      24.008   2.930  26.289  1.00  0.00    -0.452 OA
ENDROOT
BRANCH   1  12
ATOM     12  C   UNL     1      24.331   4.671  24.653  1.00  0.00     0.025 A 
ATOM     13  C   UNL     1      24.815   5.989  24.737  1.00  0.00     0.016 A 
ATOM     14  C   UNL     1      25.563   6.534  23.689  1.00  0.00     0.051 A 
ATOM     15  C   UNL     1      25.849   5.768  22.551  1.00  0.00     0.157 A 
ATOM     16  C   UNL     1      24.638   3.901  23.519  1.00  0.00     0.062 A 
ATOM     17  C   UNL     1      25.386   4.444  22.467  1.00  0.00     0.158 A 
BRANCH  15  18
ATOM     18  O   UNL     1      26.593   6.316  21.507  1.00  0.00    -0.504 OA
ATOM     19  H   UNL     1      26.832   7.301  21.486  1.00  0.00     0.293 HD
ENDBRANCH  15  18
BRANCH  17  20
ATOM     20  O   UNL     1      25.659   3.655  21.352  1.00  0.00    -0.504 OA
ATOM     21  H   UNL     1      26.226   3.988  20.582  1.00  0.00     0.293 HD
ENDBRANCH  17  20
ENDBRANCH   1  12
BRANCH   2  22
ATOM     22  O   UNL     1      21.833   5.769  25.629  1.00  0.00    -0.502 OA
ATOM     23  H   UNL     1      21.717   6.646  26.122  1.00  0.00     0.293 HD
ENDBRANCH   2  22
BRANCH   6  24
ATOM     24  O   UNL     1      20.589   2.636  29.754  1.00  0.00    -0.507 OA
ATOM     25  H   UNL     1      19.651   2.267  29.707  1.00  0.00     0.293 HD
ENDBRANCH   6  24
BRANCH   8  26
ATOM     26  O   UNL     1      23.915  -0.789  29.240  1.00  0.00    -0.508 OA
ATOM     27  H   UNL     1      23.393  -1.434  29.823  1.00  0.00     0.293 HD
ENDBRANCH   8  26
TORSDOF 6
ENDMDL
MODEL 4
REMARK VINA RESULT:    -5.067      1.623      7.130
REMARK INTER + INTRA:          -6.391
REMARK INTER:                  -6.110
REMARK INTRA:                  -0.281
REMARK UNBOUND:                -0.288
REMARK SMILES O=c1c(O)c(-c2ccc(O)c(O)c2)oc2cc(O)cc(O)c12
REMARK SMILES IDX 5 1 3 2 2 3 1 4 22 5 20 6 19 7 17 8 16 9 15 10 14 11 6 12
REMARK SMILES IDX 7 13 8 14 9 15 13 16 11 17 10 18 12 20 4 22 21 24 18 26
REMARK H PARENT 10 19 12 21 4 23 21 25 18 27
REMARK Flexibility Score: inf
ROOT
ATOM      1  C   UNL     1      17.620  -6.612  27.746  1.00  0.00     0.180 A 
ATOM      2  C   UNL     1      17.808  -7.779  28.508  1.00  0.00     0.208 A 
ATOM      3  C   UNL     1      17.400  -9.013  27.975  1.00  0.00     0.238 A 
ATOM      4  O   UNL     1      17.522 -10.046  28.683  1.00  0.00    -0.285 OA
ATOM      5  C   UNL     1      16.825  -9.067  26.683  1.00  0.00     0.111 A 
ATOM      6  C   UNL     1      16.412 -10.266  26.029  1.00  0.00     0.134 A 
ATOM      7  C   UNL     1      15.736 -10.188  24.805  1.00  0.00     0.093 A 
ATOM      8  C   UNL     1      15.514  -8.958  24.182  1.00  0.00     0.123 A 
ATOM      9  C   UNL     1      15.966  -7.786  24.784  1.00  0.00     0.094 A 
ATOM     10  C   UNL     1      16.613  -7.829  26.021  1.00  0.00     0.146 A 
ATOM     11  O   UNL     1      17.017  -6.687  26.565  1.00  0.00    -0.452 OA
ENDROOT
BRANCH   1  12
ATOM     12  C   UNL     1      18.046  -5.279  28.230  1.00  0.00     0.025 A 
ATOM     13  C   UNL     1      17.123  -4.370  28.777  1.00  0.00     0.016 A 
ATOM     14  C   UNL     1      17.552  -3.127  29.250  1.00  0.00     0.051 A 
ATOM     15  C   UNL     1      18.908  -2.778  29.195  1.00  0.00     0.157 A 
ATOM     16  C   UNL     1      19.407  -4.934  28.196  1.00  0.00     0.062 A 
ATOM     17  C   UNL     1      19.840  -3.688  28.668  1.00  0.00     0.158 A 
BRANCH  15  18
ATOM     18  O   UNL     1      19.332  -1.537  29.665  1.00  0.00    -0.504 OA
ATOM     19  H   UNL     1      18.837  -0.684  29.432  1.00  0.00     0.293 HD
ENDBRANCH  15  18
BRANCH  17  20
ATOM     20  O   UNL     1      21.197  -3.376  28.605  1.00  0.00    -0.504 OA
ATOM     21  H   UNL     1      21.526  -2.456  28.339  1.00  0.00     0.293 HD
ENDBRANCH  17  20
ENDBRANCH   1  12
BRANCH   2  22
ATOM     22  O   UNL     1      18.358  -7.701  29.790  1.00  0.00    -0.502 OA
ATOM     23  H   UNL     1      19.335  -7.893  29.976  1.00  0.00     0.293 HD
ENDBRANCH   2  22
BRANCH   6  24
ATOM     24  O   UNL     1      16.665 -11.550  26.521  1.00  0.00    -0.507 OA
ATOM     25  H   UNL     1      16.545 -11.831  27.483  1.00  0.00     0.293 HD
ENDBRANCH   6  24
BRANCH   8  26
ATOM     26  O   UNL     1      14.855  -8.890  22.957  1.00  0.00    -0.508 OA
ATOM     27  H   UNL     1      14.831  -8.035  22.413  1.00  0.00     0.293 HD
ENDBRANCH   8  26
TORSDOF 6
ENDMDL
MODEL 5
REMARK VINA RESULT:    -5.059      7.043      9.875
REMARK INTER + INTRA:          -6.382
REMARK INTER:                  -6.119
REMARK INTRA:                  -0.263
REMARK UNBOUND:                -0.288
REMARK SMILES O=c1c(O)c(-c2ccc(O)c(O)c2)oc2cc(O)cc(O)c12
REMARK SMILES IDX 5 1 3 2 2 3 1 4 22 5 20 6 19 7 17 8 16 9 15 10 14 11 6 12
REMARK SMILES IDX 7 13 8 14 9 15 13 16 11 17 10 18 12 20 4 22 21 24 18 26
REMARK H PARENT 10 19 12 21 4 23 21 25 18 27
REMARK Flexibility Score: inf
ROOT
ATOM      1  C   UNL     1      22.202   1.545  28.561  1.00  0.00     0.180 A 
ATOM      2  C   UNL     1      21.363   2.599  28.963  1.00  0.00     0.208 A 
ATOM      3  C   UNL     1      21.205   3.707  28.114  1.00  0.00     0.238 A 
ATOM      4  O   UNL     1      20.496   4.670  28.504  1.00  0.00    -0.285 OA
ATOM      5  C   UNL     1      21.876   3.740  26.869  1.00  0.00     0.111 A 
ATOM      6  C   UNL     1      21.759   4.793  25.913  1.00  0.00     0.134 A 
ATOM      7  C   UNL     1      22.569   4.783  24.770  1.00  0.00     0.093 A 
ATOM      8  C   UNL     1      23.446   3.726  24.519  1.00  0.00     0.123 A 
ATOM      9  C   UNL     1      23.525   2.663  25.416  1.00  0.00     0.094 A 
ATOM     10  C   UNL     1      22.755   2.663  26.582  1.00  0.00     0.146 A 
ATOM     11  O   UNL     1      22.869   1.636  27.416  1.00  0.00    -0.452 OA
ENDROOT
BRANCH   1  12
ATOM     12  C   UNL     1      22.398   0.333  29.390  1.00  0.00     0.025 A 
ATOM     13  C   UNL     1      23.199   0.360  30.546  1.00  0.00     0.016 A 
ATOM     14  C   UNL     1      23.350  -0.789  31.326  1.00  0.00     0.051 A 
ATOM     15  C   UNL     1      22.694  -1.976  30.973  1.00  0.00     0.157 A 
ATOM     16  C   UNL     1      21.727  -0.852  29.052  1.00  0.00     0.062 A 
ATOM     17  C   UNL     1      21.876  -2.006  29.831  1.00  0.00     0.158 A 
BRANCH  15  18
ATOM     18  O   UNL     1      22.849  -3.121  31.753  1.00  0.00    -0.504 OA
ATOM     19  H   UNL     1      22.051  -3.621  32.125  1.00  0.00     0.293 HD
ENDBRANCH  15  18
BRANCH  17  20
ATOM     20  O   UNL     1      21.205  -3.168  29.456  1.00  0.00    -0.504 OA
ATOM     21  H   UNL     1      21.401  -3.646  28.585  1.00  0.00     0.293 HD
ENDBRANCH  17  20
ENDBRANCH   1  12
BRANCH   2  22
ATOM     22  O   UNL     1      20.727   2.556  30.207  1.00  0.00    -0.502 OA
ATOM     23  H   UNL     1      20.952   3.200  30.956  1.00  0.00     0.293 HD
ENDBRANCH   2  22
BRANCH   6  24
ATOM     24  O   UNL     1      20.849   5.849  26.022  1.00  0.00    -0.507 OA
ATOM     25  H   UNL     1      21.077   6.771  26.363  1.00  0.00     0.293 HD
ENDBRANCH   6  24
BRANCH   8  26
ATOM     26  O   UNL     1      24.237   3.716  23.373  1.00  0.00    -0.508 OA
ATOM     27  H   UNL     1      24.814   4.510  23.119  1.00  0.00     0.293 HD
ENDBRANCH   8  26
TORSDOF 6
ENDMDL
MODEL 6
REMARK VINA RESULT:    -4.849      8.196     11.183
REMARK INTER + INTRA:          -6.129
REMARK INTER:                  -5.806
REMARK INTRA:                  -0.323
REMARK UNBOUND:                -0.288
REMARK SMILES O=c1c(O)c(-c2ccc(O)c(O)c2)oc2cc(O)cc(O)c12
REMARK SMILES IDX 5 1 3 2 2 3 1 4 22 5 20 6 19 7 17 8 16 9 15 10 14 11 6 12
REMARK SMILES IDX 7 13 8 14 9 15 13 16 11 17 10 18 12 20 4 22 21 24 18 26
REMARK H PARENT 10 19 12 21 4 23 21 25 18 27
REMARK Flexibility Score: inf
ROOT
ATOM      1  C   UNL     1      23.317   1.722  27.966  1.00  0.00     0.180 A 
ATOM      2  C   UNL     1      23.868   0.457  28.234  1.00  0.00     0.208 A 
ATOM      3  C   UNL     1      23.290  -0.340  29.237  1.00  0.00     0.238 A 
ATOM      4  O   UNL     1      23.821  -1.447  29.509  1.00  0.00    -0.285 OA
ATOM      5  C   UNL     1      22.160   0.133  29.946  1.00  0.00     0.111 A 
ATOM      6  C   UNL     1      21.470  -0.605  30.954  1.00  0.00     0.134 A 
ATOM      7  C   UNL     1      20.444   0.011  31.681  1.00  0.00     0.093 A 
ATOM      8  C   UNL     1      20.042   1.318  31.393  1.00  0.00     0.123 A 
ATOM      9  C   UNL     1      20.670   2.026  30.372  1.00  0.00     0.094 A 
ATOM     10  C   UNL     1      21.720   1.449  29.652  1.00  0.00     0.146 A 
ATOM     11  O   UNL     1      22.298   2.164  28.694  1.00  0.00    -0.452 OA
ENDROOT
BRANCH   1  12
ATOM     12  C   UNL     1      23.856   2.608  26.908  1.00  0.00     0.025 A 
ATOM     13  C   UNL     1      23.313   2.612  25.611  1.00  0.00     0.016 A 
ATOM     14  C   UNL     1      23.822   3.474  24.636  1.00  0.00     0.051 A 
ATOM     15  C   UNL     1      24.869   4.353  24.944  1.00  0.00     0.157 A 
ATOM     16  C   UNL     1      24.891   3.504  27.218  1.00  0.00     0.062 A 
ATOM     17  C   UNL     1      25.404   4.369  26.243  1.00  0.00     0.158 A 
BRANCH  15  18
ATOM     18  O   UNL     1      25.375   5.209  23.968  1.00  0.00    -0.504 OA
ATOM     19  H   UNL     1      26.262   5.683  24.087  1.00  0.00     0.293 HD
ENDBRANCH  15  18
BRANCH  17  20
ATOM     20  O   UNL     1      26.441   5.235  26.584  1.00  0.00    -0.504 OA
ATOM     21  H   UNL     1      26.551   5.601  27.522  1.00  0.00     0.293 HD
ENDBRANCH  17  20
ENDBRANCH   1  12
BRANCH   2  22
ATOM     22  O   UNL     1      24.998   0.019  27.537  1.00  0.00    -0.502 OA
ATOM     23  H   UNL     1      25.223  -0.962  27.427  1.00  0.00     0.293 HD
ENDBRANCH   2  22
BRANCH   6  24
ATOM     24  O   UNL     1      21.731  -1.945  31.258  1.00  0.00    -0.507 OA
ATOM     25  H   UNL     1      22.133  -2.269  32.125  1.00  0.00     0.293 HD
ENDBRANCH   6  24
BRANCH   8  26
ATOM     26  O   UNL     1      19.010   1.918  32.111  1.00  0.00    -0.508 OA
ATOM     27  H   UNL     1      19.157   2.287  33.045  1.00  0.00     0.293 HD
ENDBRANCH   8  26
TORSDOF 6
ENDMDL
MODEL 7
REMARK VINA RESULT:    -4.839      7.963     11.096
REMARK INTER + INTRA:          -6.116
REMARK INTER:                  -5.793
REMARK INTRA:                  -0.324
REMARK UNBOUND:                -0.288
REMARK SMILES O=c1c(O)c(-c2ccc(O)c(O)c2)oc2cc(O)cc(O)c12
REMARK SMILES IDX 5 1 3 2 2 3 1 4 22 5 20 6 19 7 17 8 16 9 15 10 14 11 6 12
REMARK SMILES IDX 7 13 8 14 9 15 13 16 11 17 10 18 12 20 4 22 21 24 18 26
REMARK H PARENT 10 19 12 21 4 23 21 25 18 27
REMARK Flexibility Score: inf
ROOT
ATOM      1  C   UNL     1      22.967   2.188  27.920  1.00  0.00     0.180 A 
ATOM      2  C   UNL     1      24.156   2.341  27.186  1.00  0.00     0.208 A 
ATOM      3  C   UNL     1      24.188   3.258  26.122  1.00  0.00     0.238 A 
ATOM      4  O   UNL     1      25.238   3.350  25.435  1.00  0.00    -0.285 OA
ATOM      5  C   UNL     1      23.035   4.021  25.816  1.00  0.00     0.111 A 
ATOM      6  C   UNL     1      22.966   5.006  24.787  1.00  0.00     0.134 A 
ATOM      7  C   UNL     1      21.737   5.608  24.488  1.00  0.00     0.093 A 
ATOM      8  C   UNL     1      20.589   5.305  25.224  1.00  0.00     0.123 A 
ATOM      9  C   UNL     1      20.660   4.389  26.269  1.00  0.00     0.094 A 
ATOM     10  C   UNL     1      21.864   3.746  26.568  1.00  0.00     0.146 A 
ATOM     11  O   UNL     1      21.884   2.870  27.566  1.00  0.00    -0.452 OA
ENDROOT
BRANCH   1  12
ATOM     12  C   UNL     1      22.864   1.260  29.069  1.00  0.00     0.025 A 
ATOM     13  C   UNL     1      23.077   1.702  30.387  1.00  0.00     0.016 A 
ATOM     14  C   UNL     1      22.951   0.813  31.458  1.00  0.00     0.051 A 
ATOM     15  C   UNL     1      22.597  -0.523  31.232  1.00  0.00     0.157 A 
ATOM     16  C   UNL     1      22.490  -0.075  28.849  1.00  0.00     0.062 A 
ATOM     17  C   UNL     1      22.363  -0.968  29.920  1.00  0.00     0.158 A 
BRANCH  15  18
ATOM     18  O   UNL     1      22.474  -1.407  32.302  1.00  0.00    -0.504 OA
ATOM     19  H   UNL     1      21.742  -1.303  32.995  1.00  0.00     0.293 HD
ENDBRANCH  15  18
BRANCH  17  20
ATOM     20  O   UNL     1      22.003  -2.290  29.660  1.00  0.00    -0.504 OA
ATOM     21  H   UNL     1      22.661  -3.054  29.749  1.00  0.00     0.293 HD
ENDBRANCH  17  20
ENDBRANCH   1  12
BRANCH   2  22
ATOM     22  O   UNL     1      25.276   1.561  27.490  1.00  0.00    -0.502 OA
ATOM     23  H   UNL     1      26.079   1.499  26.876  1.00  0.00     0.293 HD
ENDBRANCH   2  22
BRANCH   6  24
ATOM     24  O   UNL     1      24.071   5.448  24.053  1.00  0.00    -0.507 OA
ATOM     25  H   UNL     1      24.863   4.873  23.806  1.00  0.00     0.293 HD
ENDBRANCH   6  24
BRANCH   8  26
ATOM     26  O   UNL     1      19.374   5.920  24.930  1.00  0.00    -0.508 OA
ATOM     27  H   UNL     1      18.527   5.381  24.788  1.00  0.00     0.293 HD
ENDBRANCH   8  26
TORSDOF 6
ENDMDL
MODEL 8
REMARK VINA RESULT:    -4.733      1.780      7.243
REMARK INTER + INTRA:          -5.989
REMARK INTER:                  -5.753
REMARK INTRA:                  -0.236
REMARK UNBOUND:                -0.288
REMARK SMILES O=c1c(O)c(-c2ccc(O)c(O)c2)oc2cc(O)cc(O)c12
REMARK SMILES IDX 5 1 3 2 2 3 1 4 22 5 20 6 19 7 17 8 16 9 15 10 14 11 6 12
REMARK SMILES IDX 7 13 8 14 9 15 13 16 11 17 10 18 12 20 4 22 21 24 18 26
REMARK H PARENT 10 19 12 21 4 23 21 25 18 27
REMARK Flexibility Score: inf
ROOT
ATOM      1  C   UNL     1      16.736  -7.559  26.616  1.00  0.00     0.180 A 
ATOM      2  C   UNL     1      16.172  -7.682  25.334  1.00  0.00     0.208 A 
ATOM      3  C   UNL     1      16.186  -8.936  24.701  1.00  0.00     0.238 A 
ATOM      4  O   UNL     1      15.729  -9.027  23.532  1.00  0.00    -0.285 OA
ATOM      5  C   UNL     1      16.748 -10.053  25.364  1.00  0.00     0.111 A 
ATOM      6  C   UNL     1      16.780 -11.378  24.835  1.00  0.00     0.134 A 
ATOM      7  C   UNL     1      17.477 -12.380  25.522  1.00  0.00     0.093 A 
ATOM      8  C   UNL     1      18.089 -12.119  26.750  1.00  0.00     0.123 A 
ATOM      9  C   UNL     1      18.012 -10.843  27.304  1.00  0.00     0.094 A 
ATOM     10  C   UNL     1      17.354  -9.815  26.625  1.00  0.00     0.146 A 
ATOM     11  O   UNL     1      17.315  -8.611  27.184  1.00  0.00    -0.452 OA
ENDROOT
BRANCH   1  12
ATOM     12  C   UNL     1      16.737  -6.276  27.356  1.00  0.00     0.025 A 
ATOM     13  C   UNL     1      15.547  -5.721  27.858  1.00  0.00     0.016 A 
ATOM     14  C   UNL     1      15.575  -4.521  28.575  1.00  0.00     0.051 A 
ATOM     15  C   UNL     1      16.792  -3.867  28.813  1.00  0.00     0.157 A 
ATOM     16  C   UNL     1      17.956  -5.628  27.615  1.00  0.00     0.062 A 
ATOM     17  C   UNL     1      17.988  -4.426  28.332  1.00  0.00     0.158 A 
BRANCH  15  18
ATOM     18  O   UNL     1      16.816  -2.670  29.526  1.00  0.00    -0.504 OA
ATOM     19  H   UNL     1      16.260  -2.540  30.363  1.00  0.00     0.293 HD
ENDBRANCH  15  18
BRANCH  17  20
ATOM     20  O   UNL     1      19.215  -3.804  28.557  1.00  0.00    -0.504 OA
ATOM     21  H   UNL     1      20.068  -4.331  28.700  1.00  0.00     0.293 HD
ENDBRANCH  17  20
ENDBRANCH   1  12
BRANCH   2  22
ATOM     22  O   UNL     1      15.642  -6.561  24.688  1.00  0.00    -0.502 OA
ATOM     23  H   UNL     1      16.223  -5.806  24.344  1.00  0.00     0.293 HD
ENDBRANCH   2  22
BRANCH   6  24
ATOM     24  O   UNL     1      16.125 -11.766  23.662  1.00  0.00    -0.507 OA
ATOM     25  H   UNL     1      16.346 -12.594  23.128  1.00  0.00     0.293 HD
ENDBRANCH   6  24
BRANCH   8  26
ATOM     26  O   UNL     1      18.767 -13.125  27.434  1.00  0.00    -0.508 OA
ATOM     27  H   UNL     1      19.778 -13.195  27.409  1.00  0.00     0.293 HD
ENDBRANCH   8  26
TORSDOF 6
ENDMDL
MODEL 9
REMARK VINA RESULT:    -4.672     10.351     13.286
REMARK INTER + INTRA:          -5.915
REMARK INTER:                  -5.773
REMARK INTRA:                  -0.142
REMARK UNBOUND:                -0.288
REMARK SMILES O=c1c(O)c(-c2ccc(O)c(O)c2)oc2cc(O)cc(O)c12
REMARK SMILES IDX 5 1 3 2 2 3 1 4 22 5 20 6 19 7 17 8 16 9 15 10 14 11 6 12
REMARK SMILES IDX 7 13 8 14 9 15 13 16 11 17 10 18 12 20 4 22 21 24 18 26
REMARK H PARENT 10 19 12 21 4 23 21 25 18 27
REMARK Flexibility Score: inf
ROOT
ATOM      1  C   UNL     1      24.119   4.485  25.726  1.00  0.00     0.180 A 
ATOM      2  C   UNL     1      24.688   3.389  26.399  1.00  0.00     0.208 A 
ATOM      3  C   UNL     1      24.003   2.826  27.488  1.00  0.00     0.238 A 
ATOM      4  O   UNL     1      24.543   1.881  28.119  1.00  0.00    -0.285 OA
ATOM      5  C   UNL     1      22.751   3.356  27.881  1.00  0.00     0.111 A 
ATOM      6  C   UNL     1      21.950   2.841  28.944  1.00  0.00     0.134 A 
ATOM      7  C   UNL     1      20.790   3.524  29.330  1.00  0.00     0.093 A 
ATOM      8  C   UNL     1      20.368   4.668  28.649  1.00  0.00     0.123 A 
ATOM      9  C   UNL     1      21.111   5.145  27.571  1.00  0.00     0.094 A 
ATOM     10  C   UNL     1      22.291   4.505  27.186  1.00  0.00     0.146 A 
ATOM     11  O   UNL     1      22.975   5.000  26.161  1.00  0.00    -0.452 OA
ENDROOT
BRANCH   1  12
ATOM     12  C   UNL     1      24.769   5.115  24.555  1.00  0.00     0.025 A 
ATOM     13  C   UNL     1      25.241   6.439  24.605  1.00  0.00     0.016 A 
ATOM     14  C   UNL     1      25.874   7.005  23.495  1.00  0.00     0.051 A 
ATOM     15  C   UNL     1      26.058   6.254  22.326  1.00  0.00     0.157 A 
ATOM     16  C   UNL     1      24.974   4.360  23.389  1.00  0.00     0.062 A 
ATOM     17  C   UNL     1      25.607   4.924  22.274  1.00  0.00     0.158 A 
BRANCH  15  18
ATOM     18  O   UNL     1      26.687   6.823  21.220  1.00  0.00    -0.504 OA
ATOM     19  H   UNL     1      26.592   6.426  20.293  1.00  0.00     0.293 HD
ENDBRANCH  15  18
BRANCH  17  20
ATOM     20  O   UNL     1      25.780   4.149  21.129  1.00  0.00    -0.504 OA
ATOM     21  H   UNL     1      25.062   4.066  20.421  1.00  0.00     0.293 HD
ENDBRANCH  17  20
ENDBRANCH   1  12
BRANCH   2  22
ATOM     22  O   UNL     1      25.936   2.895  26.008  1.00  0.00    -0.502 OA
ATOM     23  H   UNL     1      26.038   2.118  25.366  1.00  0.00     0.293 HD
ENDBRANCH   2  22
BRANCH   6  24
ATOM     24  O   UNL     1      22.233   1.655  29.630  1.00  0.00    -0.507 OA
ATOM     25  H   UNL     1      23.082   1.120  29.526  1.00  0.00     0.293 HD
ENDBRANCH   6  24
BRANCH   8  26
ATOM     26  O   UNL     1      19.205   5.333  29.029  1.00  0.00    -0.508 OA
ATOM     27  H   UNL     1      19.162   5.885  29.878  1.00  0.00     0.293 HD
ENDBRANCH   8  26
TORSDOF 6
ENDMDL
