MODEL 1
REMARK VINA RESULT:    -3.664      0.000      0.000
REMARK INTER + INTRA:         -12.727
REMARK INTER:                  -8.377
REMARK INTRA:                  -4.349
REMARK UNBOUND:                -4.349
REMARK SMILES CCCCCCCCCCCCCCCCCCCCCCCC(=O)[O-]
REMARK SMILES IDX 13 1 14 2 15 3 16 4 17 5 18 6 19 7 20 8 21 9 22 10 23 11
REMARK SMILES IDX 24 12 25 13 26 14 12 15 11 16 10 17 9 18 8 19 7 20 6 21 5 22
REMARK SMILES IDX 4 23 3 24 2 25 1 26
REMARK H PARENT
REMARK Flexibility Score: inf
ROOT
ATOM      1  C   UNL     1      30.155  33.544  23.383  1.00  0.00     0.000 C 
ENDROOT
BRANCH   1   2
ATOM      2  C   UNL     1      28.960  32.711  22.885  1.00  0.00     0.000 C 
BRANCH   2   3
ATOM      3  C   UNL     1      28.212  33.378  21.719  1.00  0.00     0.000 C 
BRANCH   3   4
ATOM      4  C   UNL     1      28.723  32.908  20.347  1.00  0.00     0.000 C 
BRANCH   4   5
ATOM      5  C   UNL     1      29.744  33.882  19.732  1.00  0.00     0.000 C 
BRANCH   5   6
ATOM      6  C   UNL     1      31.006  33.167  19.224  1.00  0.00     0.000 C 
BRANCH   6   7
ATOM      7  C   UNL     1      31.907  34.086  18.386  1.00  0.00     0.000 C 
BRANCH   7   8
ATOM      8  C   UNL     1      33.354  34.046  18.891  1.00  0.00     0.000 C 
BRANCH   8   9
ATOM      9  C   UNL     1      33.705  32.657  19.448  1.00  0.00     0.000 C 
BRANCH   9  10
ATOM     10  C   UNL     1      34.655  31.872  18.531  1.00  0.00     0.006 C 
BRANCH  10  11
ATOM     11  C   UNL     1      33.911  31.055  17.466  1.00  0.00     0.053 C 
BRANCH  11  12
ATOM     12  C   UNL     1      34.222  31.571  16.098  1.00  0.00     0.041 C 
ATOM     13  O   UNL     1      35.158  31.063  15.425  1.00  0.00    -0.550 OA
ATOM     14  O   UNL     1      33.501  32.640  15.578  1.00  0.00    -0.550 OA
ENDBRANCH  11  12
ENDBRANCH  10  11
ENDBRANCH   9  10
ENDBRANCH   8   9
ENDBRANCH   7   8
ENDBRANCH   6   7
ENDBRANCH   5   6
ENDBRANCH   4   5
ENDBRANCH   3   4
ENDBRANCH   2   3
ENDBRANCH   1   2
BRANCH   1  15
ATOM     15  C   UNL     1      31.539  33.041  22.926  1.00  0.00     0.000 C 
BRANCH  15  16
ATOM     16  C   UNL     1      32.560  34.147  22.589  1.00  0.00     0.000 C 
BRANCH  16  17
ATOM     17  C   UNL     1      32.057  35.583  22.812  1.00  0.00     0.000 C 
BRANCH  17  18
ATOM     18  C   UNL     1      31.899  36.369  21.501  1.00  0.00    -0.000 C 
BRANCH  18  19
ATOM     19  C   UNL     1      30.467  36.892  21.343  1.00  0.00    -0.000 C 
BRANCH  19  20
ATOM     20  C   UNL     1      29.800  37.088  22.713  1.00  0.00    -0.000 C 
BRANCH  20  21
ATOM     21  C   UNL     1      28.273  36.894  22.667  1.00  0.00    -0.000 C 
BRANCH  21  22
ATOM     22  C   UNL     1      27.579  36.846  24.044  1.00  0.00    -0.000 C 
BRANCH  22  23
ATOM     23  C   UNL     1      27.985  35.662  24.939  1.00  0.00    -0.000 C 
BRANCH  23  24
ATOM     24  C   UNL     1      28.306  36.086  26.380  1.00  0.00    -0.000 C 
BRANCH  24  25
ATOM     25  C   UNL     1      29.431  37.128  26.408  1.00  0.00    -0.003 C 
ATOM     26  C   UNL     1      30.796  36.469  26.225  1.00  0.00     0.004 C 
ENDBRANCH  24  25
ENDBRANCH  23  24
ENDBRANCH  22  23
ENDBRANCH  21  22
ENDBRANCH  20  21
ENDBRANCH  19  20
ENDBRANCH  18  19
ENDBRANCH  17  18
ENDBRANCH  16  17
ENDBRANCH  15  16
ENDBRANCH   1  15
TORSDOF 22
ENDMDL
MODEL 2
REMARK VINA RESULT:    -3.553      2.172      4.689
REMARK INTER + INTRA:         -12.471
REMARK INTER:                  -8.554
REMARK INTRA:                  -3.917
REMARK UNBOUND:                -4.349
REMARK SMILES CCCCCCCCCCCCCCCCCCCCCCCC(=O)[O-]
REMARK SMILES IDX 13 1 14 2 15 3 16 4 17 5 18 6 19 7 20 8 21 9 22 10 23 11
REMARK SMILES IDX 24 12 25 13 26 14 12 15 11 16 10 17 9 18 8 19 7 20 6 21 5 22
REMARK SMILES IDX 4 23 3 24 2 25 1 26
REMARK H PARENT
REMARK Flexibility Score: inf
ROOT
ATOM      1  C   UNL     1      31.658  33.286  18.929  1.00  0.00     0.000 C 
ENDROOT
BRANCH   1   2
ATOM      2  C   UNL     1      32.838  32.788  18.075  1.00  0.00     0.000 C 
BRANCH   2   3
ATOM      3  C   UNL     1      33.599  31.622  18.729  1.00  0.00     0.000 C 
BRANCH   3   4
ATOM      4  C   UNL     1      34.212  32.007  20.085  1.00  0.00     0.000 C 
BRANCH   4   5
ATOM      5  C   UNL     1      35.684  32.440  19.967  1.00  0.00     0.000 C 
BRANCH   5   6
ATOM      6  C   UNL     1      35.893  33.918  20.331  1.00  0.00     0.000 C 
BRANCH   6   7
ATOM      7  C   UNL     1      36.617  34.700  19.225  1.00  0.00     0.000 C 
BRANCH   7   8
ATOM      8  C   UNL     1      35.617  35.474  18.357  1.00  0.00     0.000 C 
BRANCH   8   9
ATOM      9  C   UNL     1      35.240  34.671  17.102  1.00  0.00     0.000 C 
BRANCH   9  10
ATOM     10  C   UNL     1      36.468  34.153  16.337  1.00  0.00     0.006 C 
BRANCH  10  11
ATOM     11  C   UNL     1      36.521  32.620  16.271  1.00  0.00     0.053 C 
BRANCH  11  12
ATOM     12  C   UNL     1      35.625  32.112  15.186  1.00  0.00     0.041 C 
ATOM     13  O   UNL     1      35.676  32.615  14.033  1.00  0.00    -0.550 OA
ATOM     14  O   UNL     1      34.707  31.105  15.459  1.00  0.00    -0.550 OA
ENDBRANCH  11  12
ENDBRANCH  10  11
ENDBRANCH   9  10
ENDBRANCH   8   9
ENDBRANCH   7   8
ENDBRANCH   6   7
ENDBRANCH   5   6
ENDBRANCH   4   5
ENDBRANCH   3   4
ENDBRANCH   2   3
ENDBRANCH   1   2
BRANCH   1  15
ATOM     15  C   UNL     1      31.493  34.817  18.988  1.00  0.00     0.000 C 
BRANCH  15  16
ATOM     16  C   UNL     1      31.357  35.408  20.406  1.00  0.00     0.000 C 
BRANCH  16  17
ATOM     17  C   UNL     1      32.537  35.112  21.347  1.00  0.00     0.000 C 
BRANCH  17  18
ATOM     18  C   UNL     1      32.086  34.611  22.728  1.00  0.00    -0.000 C 
BRANCH  18  19
ATOM     19  C   UNL     1      31.957  33.084  22.744  1.00  0.00    -0.000 C 
BRANCH  19  20
ATOM     20  C   UNL     1      30.528  32.658  23.114  1.00  0.00    -0.000 C 
BRANCH  20  21
ATOM     21  C   UNL     1      29.592  33.856  23.357  1.00  0.00    -0.000 C 
BRANCH  21  22
ATOM     22  C   UNL     1      28.254  33.807  22.591  1.00  0.00    -0.000 C 
BRANCH  22  23
ATOM     23  C   UNL     1      28.302  33.071  21.241  1.00  0.00    -0.000 C 
BRANCH  23  24
ATOM     24  C   UNL     1      27.873  33.957  20.062  1.00  0.00    -0.000 C 
BRANCH  24  25
ATOM     25  C   UNL     1      26.379  34.295  20.144  1.00  0.00    -0.003 C 
ATOM     26  C   UNL     1      25.520  33.075  19.824  1.00  0.00     0.004 C 
ENDBRANCH  24  25
ENDBRANCH  23  24
ENDBRANCH  22  23
ENDBRANCH  21  22
ENDBRANCH  20  21
ENDBRANCH  19  20
ENDBRANCH  18  19
ENDBRANCH  17  18
ENDBRANCH  16  17
ENDBRANCH  15  16
ENDBRANCH   1  15
TORSDOF 22
ENDMDL
MODEL 3
REMARK VINA RESULT:    -3.546      2.054      4.402
REMARK INTER + INTRA:         -12.456
REMARK INTER:                  -8.937
REMARK INTRA:                  -3.518
REMARK UNBOUND:                -4.349
REMARK SMILES CCCCCCCCCCCCCCCCCCCCCCCC(=O)[O-]
REMARK SMILES IDX 13 1 14 2 15 3 16 4 17 5 18 6 19 7 20 8 21 9 22 10 23 11
REMARK SMILES IDX 24 12 25 13 26 14 12 15 11 16 10 17 9 18 8 19 7 20 6 21 5 22
REMARK SMILES IDX 4 23 3 24 2 25 1 26
REMARK H PARENT
REMARK Flexibility Score: inf
ROOT
ATOM      1  C   UNL     1      33.458  36.194  20.564  1.00  0.00     0.000 C 
ENDROOT
BRANCH   1   2
ATOM      2  C   UNL     1      32.502  36.023  19.370  1.00  0.00     0.000 C 
BRANCH   2   3
ATOM      3  C   UNL     1      31.121  35.484  19.783  1.00  0.00     0.000 C 
BRANCH   3   4
ATOM      4  C   UNL     1      30.932  34.004  19.412  1.00  0.00     0.000 C 
BRANCH   4   5
ATOM      5  C   UNL     1      31.974  33.513  18.392  1.00  0.00     0.000 C 
BRANCH   5   6
ATOM      6  C   UNL     1      32.714  32.253  18.868  1.00  0.00     0.000 C 
BRANCH   6   7
ATOM      7  C   UNL     1      34.051  32.045  18.141  1.00  0.00     0.000 C 
BRANCH   7   8
ATOM      8  C   UNL     1      33.965  30.868  17.161  1.00  0.00     0.000 C 
BRANCH   8   9
ATOM      9  C   UNL     1      34.512  31.260  15.779  1.00  0.00     0.000 C 
BRANCH   9  10
ATOM     10  C   UNL     1      33.698  32.380  15.114  1.00  0.00     0.006 C 
BRANCH  10  11
ATOM     11  C   UNL     1      34.527  33.649  14.868  1.00  0.00     0.053 C 
BRANCH  11  12
ATOM     12  C   UNL     1      33.968  34.798  15.645  1.00  0.00     0.041 C 
ATOM     13  O   UNL     1      34.624  35.300  16.596  1.00  0.00    -0.550 OA
ATOM     14  O   UNL     1      32.705  35.293  15.341  1.00  0.00    -0.550 OA
ENDBRANCH  11  12
ENDBRANCH  10  11
ENDBRANCH   9  10
ENDBRANCH   8   9
ENDBRANCH   7   8
ENDBRANCH   6   7
ENDBRANCH   5   6
ENDBRANCH   4   5
ENDBRANCH   3   4
ENDBRANCH   2   3
ENDBRANCH   1   2
BRANCH   1  15
ATOM     15  C   UNL     1      34.250  34.930  20.955  1.00  0.00     0.000 C 
BRANCH  15  16
ATOM     16  C   UNL     1      33.927  34.359  22.350  1.00  0.00     0.000 C 
BRANCH  16  17
ATOM     17  C   UNL     1      33.079  33.076  22.345  1.00  0.00     0.000 C 
BRANCH  17  18
ATOM     18  C   UNL     1      31.687  33.279  22.962  1.00  0.00    -0.000 C 
BRANCH  18  19
ATOM     19  C   UNL     1      31.415  34.764  23.227  1.00  0.00    -0.000 C 
BRANCH  19  20
ATOM     20  C   UNL     1      30.038  34.962  23.878  1.00  0.00    -0.000 C 
BRANCH  20  21
ATOM     21  C   UNL     1      28.972  33.998  23.327  1.00  0.00    -0.000 C 
BRANCH  21  22
ATOM     22  C   UNL     1      28.259  34.475  22.045  1.00  0.00    -0.000 C 
BRANCH  22  23
ATOM     23  C   UNL     1      27.692  33.353  21.157  1.00  0.00    -0.000 C 
BRANCH  23  24
ATOM     24  C   UNL     1      26.692  33.868  20.112  1.00  0.00    -0.000 C 
BRANCH  24  25
ATOM     25  C   UNL     1      25.282  33.331  20.389  1.00  0.00    -0.003 C 
ATOM     26  C   UNL     1      24.875  32.289  19.351  1.00  0.00     0.004 C 
ENDBRANCH  24  25
ENDBRANCH  23  24
ENDBRANCH  22  23
ENDBRANCH  21  22
ENDBRANCH  20  21
ENDBRANCH  19  20
ENDBRANCH  18  19
ENDBRANCH  17  18
ENDBRANCH  16  17
ENDBRANCH  15  16
ENDBRANCH   1  15
TORSDOF 22
ENDMDL
MODEL 4
REMARK VINA RESULT:    -3.534      2.077      4.520
REMARK INTER + INTRA:         -12.429
REMARK INTER:                  -8.508
REMARK INTRA:                  -3.921
REMARK UNBOUND:                -4.349
REMARK SMILES CCCCCCCCCCCCCCCCCCCCCCCC(=O)[O-]
REMARK SMILES IDX 13 1 14 2 15 3 16 4 17 5 18 6 19 7 20 8 21 9 22 10 23 11
REMARK SMILES IDX 24 12 25 13 26 14 12 15 11 16 10 17 9 18 8 19 7 20 6 21 5 22
REMARK SMILES IDX 4 23 3 24 2 25 1 26
REMARK H PARENT
REMARK Flexibility Score: inf
ROOT
ATOM      1  C   UNL     1      30.056  33.554  23.277  1.00  0.00     0.000 C 
ENDROOT
BRANCH   1   2
ATOM      2  C   UNL     1      31.453  33.278  22.694  1.00  0.00     0.000 C 
BRANCH   2   3
ATOM      3  C   UNL     1      32.470  34.382  23.031  1.00  0.00     0.000 C 
BRANCH   3   4
ATOM      4  C   UNL     1      33.706  34.342  22.118  1.00  0.00     0.000 C 
BRANCH   4   5
ATOM      5  C   UNL     1      33.835  33.012  21.355  1.00  0.00     0.000 C 
BRANCH   5   6
ATOM      6  C   UNL     1      35.014  33.010  20.369  1.00  0.00     0.000 C 
BRANCH   6   7
ATOM      7  C   UNL     1      35.189  31.658  19.662  1.00  0.00     0.000 C 
BRANCH   7   8
ATOM      8  C   UNL     1      34.174  31.500  18.523  1.00  0.00     0.000 C 
BRANCH   8   9
ATOM      9  C   UNL     1      34.694  32.142  17.227  1.00  0.00     0.000 C 
BRANCH   9  10
ATOM     10  C   UNL     1      34.406  31.288  15.983  1.00  0.00     0.006 C 
BRANCH  10  11
ATOM     11  C   UNL     1      34.301  32.125  14.701  1.00  0.00     0.053 C 
BRANCH  11  12
ATOM     12  C   UNL     1      33.581  33.408  14.970  1.00  0.00     0.041 C 
ATOM     13  O   UNL     1      32.327  33.419  15.098  1.00  0.00    -0.550 OA
ATOM     14  O   UNL     1      34.291  34.600  15.045  1.00  0.00    -0.550 OA
ENDBRANCH  11  12
ENDBRANCH  10  11
ENDBRANCH   9  10
ENDBRANCH   8   9
ENDBRANCH   7   8
ENDBRANCH   6   7
ENDBRANCH   5   6
ENDBRANCH   4   5
ENDBRANCH   3   4
ENDBRANCH   2   3
ENDBRANCH   1   2
BRANCH   1  15
ATOM     15  C   UNL     1      28.912  32.729  22.654  1.00  0.00     0.000 C 
BRANCH  15  16
ATOM     16  C   UNL     1      28.711  32.928  21.138  1.00  0.00     0.000 C 
BRANCH  16  17
ATOM     17  C   UNL     1      27.266  33.237  20.710  1.00  0.00     0.000 C 
BRANCH  17  18
ATOM     18  C   UNL     1      27.126  34.609  20.033  1.00  0.00    -0.000 C 
BRANCH  18  19
ATOM     19  C   UNL     1      27.073  35.733  21.074  1.00  0.00    -0.000 C 
BRANCH  19  20
ATOM     20  C   UNL     1      28.077  36.845  20.734  1.00  0.00    -0.000 C 
BRANCH  20  21
ATOM     21  C   UNL     1      29.193  36.983  21.784  1.00  0.00    -0.000 C 
BRANCH  21  22
ATOM     22  C   UNL     1      30.618  36.703  21.265  1.00  0.00    -0.000 C 
BRANCH  22  23
ATOM     23  C   UNL     1      30.697  35.763  20.049  1.00  0.00    -0.000 C 
BRANCH  23  24
ATOM     24  C   UNL     1      31.936  36.017  19.178  1.00  0.00    -0.000 C 
BRANCH  24  25
ATOM     25  C   UNL     1      32.320  34.758  18.390  1.00  0.00    -0.003 C 
ATOM     26  C   UNL     1      31.336  33.622  18.652  1.00  0.00     0.004 C 
ENDBRANCH  24  25
ENDBRANCH  23  24
ENDBRANCH  22  23
ENDBRANCH  21  22
ENDBRANCH  20  21
ENDBRANCH  19  20
ENDBRANCH  18  19
ENDBRANCH  17  18
ENDBRANCH  16  17
ENDBRANCH  15  16
ENDBRANCH   1  15
TORSDOF 22
ENDMDL
MODEL 5
REMARK VINA RESULT:    -3.499      1.103      2.922
REMARK INTER + INTRA:         -12.348
REMARK INTER:                  -8.249
REMARK INTRA:                  -4.098
REMARK UNBOUND:                -4.349
REMARK SMILES CCCCCCCCCCCCCCCCCCCCCCCC(=O)[O-]
REMARK SMILES IDX 13 1 14 2 15 3 16 4 17 5 18 6 19 7 20 8 21 9 22 10 23 11
REMARK SMILES IDX 24 12 25 13 26 14 12 15 11 16 10 17 9 18 8 19 7 20 6 21 5 22
REMARK SMILES IDX 4 23 3 24 2 25 1 26
REMARK H PARENT
REMARK Flexibility Score: inf
ROOT
ATOM      1  C   UNL     1      31.951  32.816  22.785  1.00  0.00     0.000 C 
ENDROOT
BRANCH   1   2
ATOM      2  C   UNL     1      33.162  33.752  22.622  1.00  0.00     0.000 C 
BRANCH   2   3
ATOM      3  C   UNL     1      32.819  35.226  22.898  1.00  0.00     0.000 C 
BRANCH   3   4
ATOM      4  C   UNL     1      32.995  36.113  21.655  1.00  0.00     0.000 C 
BRANCH   4   5
ATOM      5  C   UNL     1      31.653  36.609  21.088  1.00  0.00     0.000 C 
BRANCH   5   6
ATOM      6  C   UNL     1      31.423  36.156  19.638  1.00  0.00     0.000 C 
BRANCH   6   7
ATOM      7  C   UNL     1      30.860  34.729  19.548  1.00  0.00     0.000 C 
BRANCH   7   8
ATOM      8  C   UNL     1      31.601  33.914  18.481  1.00  0.00     0.000 C 
BRANCH   8   9
ATOM      9  C   UNL     1      32.484  32.834  19.128  1.00  0.00     0.000 C 
BRANCH   9  10
ATOM     10  C   UNL     1      33.906  32.804  18.547  1.00  0.00     0.006 C 
BRANCH  10  11
ATOM     11  C   UNL     1      34.219  31.493  17.813  1.00  0.00     0.053 C 
BRANCH  11  12
ATOM     12  C   UNL     1      34.217  31.709  16.333  1.00  0.00     0.041 C 
ATOM     13  O   UNL     1      34.588  30.789  15.556  1.00  0.00    -0.550 OA
ATOM     14  O   UNL     1      33.840  32.941  15.811  1.00  0.00    -0.550 OA
ENDBRANCH  11  12
ENDBRANCH  10  11
ENDBRANCH   9  10
ENDBRANCH   8   9
ENDBRANCH   7   8
ENDBRANCH   6   7
ENDBRANCH   5   6
ENDBRANCH   4   5
ENDBRANCH   3   4
ENDBRANCH   2   3
ENDBRANCH   1   2
BRANCH   1  15
ATOM     15  C   UNL     1      30.606  33.524  23.040  1.00  0.00     0.000 C 
BRANCH  15  16
ATOM     16  C   UNL     1      29.353  32.667  22.771  1.00  0.00     0.000 C 
BRANCH  16  17
ATOM     17  C   UNL     1      28.124  33.450  22.278  1.00  0.00     0.000 C 
BRANCH  17  18
ATOM     18  C   UNL     1      27.775  33.148  20.813  1.00  0.00    -0.000 C 
BRANCH  18  19
ATOM     19  C   UNL     1      27.436  34.436  20.052  1.00  0.00    -0.000 C 
BRANCH  19  20
ATOM     20  C   UNL     1      26.963  35.534  21.015  1.00  0.00    -0.000 C 
BRANCH  20  21
ATOM     21  C   UNL     1      27.861  36.784  20.985  1.00  0.00    -0.000 C 
BRANCH  21  22
ATOM     22  C   UNL     1      27.861  37.622  22.280  1.00  0.00    -0.000 C 
BRANCH  22  23
ATOM     23  C   UNL     1      28.806  37.118  23.384  1.00  0.00    -0.000 C 
BRANCH  23  24
ATOM     24  C   UNL     1      28.099  36.224  24.413  1.00  0.00    -0.000 C 
BRANCH  24  25
ATOM     25  C   UNL     1      28.865  36.203  25.741  1.00  0.00    -0.003 C 
ATOM     26  C   UNL     1      30.372  36.275  25.509  1.00  0.00     0.004 C 
ENDBRANCH  24  25
ENDBRANCH  23  24
ENDBRANCH  22  23
ENDBRANCH  21  22
ENDBRANCH  20  21
ENDBRANCH  19  20
ENDBRANCH  18  19
ENDBRANCH  17  18
ENDBRANCH  16  17
ENDBRANCH  15  16
ENDBRANCH   1  15
TORSDOF 22
ENDMDL
MODEL 6
REMARK VINA RESULT:    -3.453      1.474      3.466
REMARK INTER + INTRA:         -12.244
REMARK INTER:                  -8.309
REMARK INTRA:                  -3.935
REMARK UNBOUND:                -4.349
REMARK SMILES CCCCCCCCCCCCCCCCCCCCCCCC(=O)[O-]
REMARK SMILES IDX 13 1 14 2 15 3 16 4 17 5 18 6 19 7 20 8 21 9 22 10 23 11
REMARK SMILES IDX 24 12 25 13 26 14 12 15 11 16 10 17 9 18 8 19 7 20 6 21 5 22
REMARK SMILES IDX 4 23 3 24 2 25 1 26
REMARK H PARENT
REMARK Flexibility Score: inf
ROOT
ATOM      1  C   UNL     1      32.371  35.552  22.014  1.00  0.00     0.000 C 
ENDROOT
BRANCH   1   2
ATOM      2  C   UNL     1      32.224  34.327  22.934  1.00  0.00     0.000 C 
BRANCH   2   3
ATOM      3  C   UNL     1      33.032  33.113  22.447  1.00  0.00     0.000 C 
BRANCH   3   4
ATOM      4  C   UNL     1      34.452  33.493  21.997  1.00  0.00     0.000 C 
BRANCH   4   5
ATOM      5  C   UNL     1      34.706  33.175  20.512  1.00  0.00     0.000 C 
BRANCH   5   6
ATOM      6  C   UNL     1      33.915  31.950  20.030  1.00  0.00     0.000 C 
BRANCH   6   7
ATOM      7  C   UNL     1      33.489  32.065  18.558  1.00  0.00     0.000 C 
BRANCH   7   8
ATOM      8  C   UNL     1      34.045  30.898  17.733  1.00  0.00     0.000 C 
BRANCH   8   9
ATOM      9  C   UNL     1      34.236  31.305  16.263  1.00  0.00     0.000 C 
BRANCH   9  10
ATOM     10  C   UNL     1      34.605  32.787  16.100  1.00  0.00     0.006 C 
BRANCH  10  11
ATOM     11  C   UNL     1      34.136  33.370  14.760  1.00  0.00     0.053 C 
BRANCH  11  12
ATOM     12  C   UNL     1      32.657  33.592  14.774  1.00  0.00     0.041 C 
ATOM     13  O   UNL     1      32.099  34.088  15.789  1.00  0.00    -0.550 OA
ATOM     14  O   UNL     1      31.888  33.216  13.679  1.00  0.00    -0.550 OA
ENDBRANCH  11  12
ENDBRANCH  10  11
ENDBRANCH   9  10
ENDBRANCH   8   9
ENDBRANCH   7   8
ENDBRANCH   6   7
ENDBRANCH   5   6
ENDBRANCH   4   5
ENDBRANCH   3   4
ENDBRANCH   2   3
ENDBRANCH   1   2
BRANCH   1  15
ATOM     15  C   UNL     1      31.061  36.306  21.713  1.00  0.00     0.000 C 
BRANCH  15  16
ATOM     16  C   UNL     1      30.357  35.900  20.403  1.00  0.00     0.000 C 
BRANCH  16  17
ATOM     17  C   UNL     1      31.016  34.733  19.647  1.00  0.00     0.000 C 
BRANCH  17  18
ATOM     18  C   UNL     1      30.226  33.422  19.769  1.00  0.00    -0.000 C 
BRANCH  18  19
ATOM     19  C   UNL     1      28.951  33.623  20.596  1.00  0.00    -0.000 C 
BRANCH  19  20
ATOM     20  C   UNL     1      28.963  32.734  21.849  1.00  0.00    -0.000 C 
BRANCH  20  21
ATOM     21  C   UNL     1      28.689  33.522  23.143  1.00  0.00    -0.000 C 
BRANCH  21  22
ATOM     22  C   UNL     1      27.982  34.879  22.945  1.00  0.00    -0.000 C 
BRANCH  22  23
ATOM     23  C   UNL     1      28.137  35.871  24.110  1.00  0.00    -0.000 C 
BRANCH  23  24
ATOM     24  C   UNL     1      29.341  35.554  25.009  1.00  0.00    -0.000 C 
BRANCH  24  25
ATOM     25  C   UNL     1      30.081  36.836  25.410  1.00  0.00    -0.003 C 
ATOM     26  C   UNL     1      31.544  36.548  25.734  1.00  0.00     0.004 C 
ENDBRANCH  24  25
ENDBRANCH  23  24
ENDBRANCH  22  23
ENDBRANCH  21  22
ENDBRANCH  20  21
ENDBRANCH  19  20
ENDBRANCH  18  19
ENDBRANCH  17  18
ENDBRANCH  16  17
ENDBRANCH  15  16
ENDBRANCH   1  15
TORSDOF 22
ENDMDL
MODEL 7
REMARK VINA RESULT:    -3.420      2.109      3.586
REMARK INTER + INTRA:         -12.168
REMARK INTER:                  -8.224
REMARK INTRA:                  -3.944
REMARK UNBOUND:                -4.349
REMARK SMILES CCCCCCCCCCCCCCCCCCCCCCCC(=O)[O-]
REMARK SMILES IDX 13 1 14 2 15 3 16 4 17 5 18 6 19 7 20 8 21 9 22 10 23 11
REMARK SMILES IDX 24 12 25 13 26 14 12 15 11 16 10 17 9 18 8 19 7 20 6 21 5 22
REMARK SMILES IDX 4 23 3 24 2 25 1 26
REMARK H PARENT
REMARK Flexibility Score: inf
ROOT
ATOM      1  C   UNL     1      31.691  33.197  22.913  1.00  0.00     0.000 C 
ENDROOT
BRANCH   1   2
ATOM      2  C   UNL     1      32.630  34.400  22.711  1.00  0.00     0.000 C 
BRANCH   2   3
ATOM      3  C   UNL     1      31.941  35.585  22.013  1.00  0.00     0.000 C 
BRANCH   3   4
ATOM      4  C   UNL     1      32.751  36.117  20.819  1.00  0.00     0.000 C 
BRANCH   4   5
ATOM      5  C   UNL     1      32.153  35.695  19.465  1.00  0.00     0.000 C 
BRANCH   5   6
ATOM      6  C   UNL     1      30.888  34.836  19.622  1.00  0.00     0.000 C 
BRANCH   6   7
ATOM      7  C   UNL     1      31.074  33.411  19.081  1.00  0.00     0.000 C 
BRANCH   7   8
ATOM      8  C   UNL     1      32.393  33.285  18.308  1.00  0.00     0.000 C 
BRANCH   8   9
ATOM      9  C   UNL     1      33.239  32.121  18.848  1.00  0.00     0.000 C 
BRANCH   9  10
ATOM     10  C   UNL     1      34.235  32.563  19.930  1.00  0.00     0.006 C 
BRANCH  10  11
ATOM     11  C   UNL     1      35.474  31.660  20.000  1.00  0.00     0.053 C 
BRANCH  11  12
ATOM     12  C   UNL     1      36.633  32.405  20.582  1.00  0.00     0.041 C 
ATOM     13  O   UNL     1      36.482  33.107  21.618  1.00  0.00    -0.550 OA
ATOM     14  O   UNL     1      37.875  32.354  19.960  1.00  0.00    -0.550 OA
ENDBRANCH  11  12
ENDBRANCH  10  11
ENDBRANCH   9  10
ENDBRANCH   8   9
ENDBRANCH   7   8
ENDBRANCH   6   7
ENDBRANCH   5   6
ENDBRANCH   4   5
ENDBRANCH   3   4
ENDBRANCH   2   3
ENDBRANCH   1   2
BRANCH   1  15
ATOM     15  C   UNL     1      30.209  33.555  23.140  1.00  0.00     0.000 C 
BRANCH  15  16
ATOM     16  C   UNL     1      29.201  32.723  22.321  1.00  0.00     0.000 C 
BRANCH  16  17
ATOM     17  C   UNL     1      27.910  33.465  21.937  1.00  0.00     0.000 C 
BRANCH  17  18
ATOM     18  C   UNL     1      27.573  33.340  20.443  1.00  0.00    -0.000 C 
BRANCH  18  19
ATOM     19  C   UNL     1      27.004  34.654  19.895  1.00  0.00    -0.000 C 
BRANCH  19  20
ATOM     20  C   UNL     1      27.067  35.763  20.955  1.00  0.00    -0.000 C 
BRANCH  20  21
ATOM     21  C   UNL     1      28.245  36.730  20.740  1.00  0.00    -0.000 C 
BRANCH  21  22
ATOM     22  C   UNL     1      28.457  37.764  21.864  1.00  0.00    -0.000 C 
BRANCH  22  23
ATOM     23  C   UNL     1      28.934  37.183  23.206  1.00  0.00    -0.000 C 
BRANCH  23  24
ATOM     24  C   UNL     1      27.787  36.957  24.201  1.00  0.00    -0.000 C 
BRANCH  24  25
ATOM     25  C   UNL     1      28.034  35.704  25.050  1.00  0.00    -0.003 C 
ATOM     26  C   UNL     1      28.423  36.075  26.479  1.00  0.00     0.004 C 
ENDBRANCH  24  25
ENDBRANCH  23  24
ENDBRANCH  22  23
ENDBRANCH  21  22
ENDBRANCH  20  21
ENDBRANCH  19  20
ENDBRANCH  18  19
ENDBRANCH  17  18
ENDBRANCH  16  17
ENDBRANCH  15  16
ENDBRANCH   1  15
TORSDOF 22
ENDMDL
MODEL 8
REMARK VINA RESULT:    -3.401      3.401      7.982
REMARK INTER + INTRA:         -12.123
REMARK INTER:                  -8.196
REMARK INTRA:                  -3.927
REMARK UNBOUND:                -4.349
REMARK SMILES CCCCCCCCCCCCCCCCCCCCCCCC(=O)[O-]
REMARK SMILES IDX 13 1 14 2 15 3 16 4 17 5 18 6 19 7 20 8 21 9 22 10 23 11
REMARK SMILES IDX 24 12 25 13 26 14 12 15 11 16 10 17 9 18 8 19 7 20 6 21 5 22
REMARK SMILES IDX 4 23 3 24 2 25 1 26
REMARK H PARENT
REMARK Flexibility Score: inf
ROOT
ATOM      1  C   UNL     1      32.376  35.073  17.392  1.00  0.00     0.000 C 
ENDROOT
BRANCH   1   2
ATOM      2  C   UNL     1      31.692  33.772  17.848  1.00  0.00     0.000 C 
BRANCH   2   3
ATOM      3  C   UNL     1      31.027  33.899  19.229  1.00  0.00     0.000 C 
BRANCH   3   4
ATOM      4  C   UNL     1      31.433  35.189  19.961  1.00  0.00     0.000 C 
BRANCH   4   5
ATOM      5  C   UNL     1      32.190  34.911  21.272  1.00  0.00     0.000 C 
BRANCH   5   6
ATOM      6  C   UNL     1      32.331  33.409  21.563  1.00  0.00     0.000 C 
BRANCH   6   7
ATOM      7  C   UNL     1      31.836  33.031  22.967  1.00  0.00     0.000 C 
BRANCH   7   8
ATOM      8  C   UNL     1      30.529  33.761  23.301  1.00  0.00     0.000 C 
BRANCH   8   9
ATOM      9  C   UNL     1      29.313  32.989  22.765  1.00  0.00     0.000 C 
BRANCH   9  10
ATOM     10  C   UNL     1      28.367  33.871  21.937  1.00  0.00     0.006 C 
BRANCH  10  11
ATOM     11  C   UNL     1      27.752  33.124  20.745  1.00  0.00     0.053 C 
BRANCH  11  12
ATOM     12  C   UNL     1      26.718  33.971  20.074  1.00  0.00     0.041 C 
ATOM     13  O   UNL     1      26.468  35.128  20.504  1.00  0.00    -0.550 OA
ATOM     14  O   UNL     1      26.004  33.468  18.993  1.00  0.00    -0.550 OA
ENDBRANCH  11  12
ENDBRANCH  10  11
ENDBRANCH   9  10
ENDBRANCH   8   9
ENDBRANCH   7   8
ENDBRANCH   6   7
ENDBRANCH   5   6
ENDBRANCH   4   5
ENDBRANCH   3   4
ENDBRANCH   2   3
ENDBRANCH   1   2
BRANCH   1  15
ATOM     15  C   UNL     1      32.644  35.176  15.877  1.00  0.00     0.000 C 
BRANCH  15  16
ATOM     16  C   UNL     1      32.325  33.903  15.068  1.00  0.00     0.000 C 
BRANCH  16  17
ATOM     17  C   UNL     1      33.306  33.600  13.922  1.00  0.00     0.000 C 
BRANCH  17  18
ATOM     18  C   UNL     1      34.437  32.649  14.343  1.00  0.00    -0.000 C 
BRANCH  18  19
ATOM     19  C   UNL     1      33.947  31.640  15.388  1.00  0.00    -0.000 C 
BRANCH  19  20
ATOM     20  C   UNL     1      34.863  31.638  16.621  1.00  0.00    -0.000 C 
BRANCH  20  21
ATOM     21  C   UNL     1      34.117  31.279  17.919  1.00  0.00    -0.000 C 
BRANCH  21  22
ATOM     22  C   UNL     1      34.715  31.885  19.206  1.00  0.00    -0.000 C 
BRANCH  22  23
ATOM     23  C   UNL     1      35.115  33.367  19.105  1.00  0.00    -0.000 C 
BRANCH  23  24
ATOM     24  C   UNL     1      36.636  33.579  19.150  1.00  0.00    -0.000 C 
BRANCH  24  25
ATOM     25  C   UNL     1      37.041  34.818  18.343  1.00  0.00    -0.003 C 
ATOM     26  C   UNL     1      36.153  34.990  17.114  1.00  0.00     0.004 C 
ENDBRANCH  24  25
ENDBRANCH  23  24
ENDBRANCH  22  23
ENDBRANCH  21  22
ENDBRANCH  20  21
ENDBRANCH  19  20
ENDBRANCH  18  19
ENDBRANCH  17  18
ENDBRANCH  16  17
ENDBRANCH  15  16
ENDBRANCH   1  15
TORSDOF 22
ENDMDL
MODEL 9
REMARK VINA RESULT:    -3.361      3.092      4.724
REMARK INTER + INTRA:         -12.034
REMARK INTER:                  -7.950
REMARK INTRA:                  -4.084
REMARK UNBOUND:                -4.349
REMARK SMILES CCCCCCCCCCCCCCCCCCCCCCCC(=O)[O-]
REMARK SMILES IDX 13 1 14 2 15 3 16 4 17 5 18 6 19 7 20 8 21 9 22 10 23 11
REMARK SMILES IDX 24 12 25 13 26 14 12 15 11 16 10 17 9 18 8 19 7 20 6 21 5 22
REMARK SMILES IDX 4 23 3 24 2 25 1 26
REMARK H PARENT
REMARK Flexibility Score: inf
ROOT
ATOM      1  C   UNL     1      32.024  34.918  20.381  1.00  0.00     0.000 C 
ENDROOT
BRANCH   1   2
ATOM      2  C   UNL     1      31.479  34.865  18.942  1.00  0.00     0.000 C 
BRANCH   2   3
ATOM      3  C   UNL     1      31.730  33.511  18.259  1.00  0.00     0.000 C 
BRANCH   3   4
ATOM      4  C   UNL     1      32.644  33.633  17.028  1.00  0.00     0.000 C 
BRANCH   4   5
ATOM      5  C   UNL     1      34.007  32.949  17.234  1.00  0.00     0.000 C 
BRANCH   5   6
ATOM      6  C   UNL     1      33.947  31.819  18.275  1.00  0.00     0.000 C 
BRANCH   6   7
ATOM      7  C   UNL     1      34.889  32.063  19.464  1.00  0.00     0.000 C 
BRANCH   7   8
ATOM      8  C   UNL     1      35.373  33.518  19.491  1.00  0.00     0.000 C 
BRANCH   8   9
ATOM      9  C   UNL     1      36.761  33.625  20.140  1.00  0.00     0.000 C 
BRANCH   9  10
ATOM     10  C   UNL     1      36.918  32.707  21.362  1.00  0.00     0.006 C 
BRANCH  10  11
ATOM     11  C   UNL     1      36.369  33.335  22.650  1.00  0.00     0.053 C 
BRANCH  11  12
ATOM     12  C   UNL     1      37.128  34.577  22.992  1.00  0.00     0.041 C 
ATOM     13  O   UNL     1      36.543  35.693  23.018  1.00  0.00    -0.550 OA
ATOM     14  O   UNL     1      38.492  34.509  23.248  1.00  0.00    -0.550 OA
ENDBRANCH  11  12
ENDBRANCH  10  11
ENDBRANCH   9  10
ENDBRANCH   8   9
ENDBRANCH   7   8
ENDBRANCH   6   7
ENDBRANCH   5   6
ENDBRANCH   4   5
ENDBRANCH   3   4
ENDBRANCH   2   3
ENDBRANCH   1   2
BRANCH   1  15
ATOM     15  C   UNL     1      32.000  33.577  21.140  1.00  0.00     0.000 C 
BRANCH  15  16
ATOM     16  C   UNL     1      32.035  33.693  22.677  1.00  0.00     0.000 C 
BRANCH  16  17
ATOM     17  C   UNL     1      30.657  33.802  23.352  1.00  0.00     0.000 C 
BRANCH  17  18
ATOM     18  C   UNL     1      29.721  32.641  22.985  1.00  0.00    -0.000 C 
BRANCH  18  19
ATOM     19  C   UNL     1      28.364  33.162  22.497  1.00  0.00    -0.000 C 
BRANCH  19  20
ATOM     20  C   UNL     1      28.270  33.096  20.965  1.00  0.00    -0.000 C 
BRANCH  20  21
ATOM     21  C   UNL     1      28.158  34.486  20.314  1.00  0.00    -0.000 C 
BRANCH  21  22
ATOM     22  C   UNL     1      27.748  35.626  21.270  1.00  0.00    -0.000 C 
BRANCH  22  23
ATOM     23  C   UNL     1      28.860  36.640  21.591  1.00  0.00    -0.000 C 
BRANCH  23  24
ATOM     24  C   UNL     1      28.915  37.014  23.079  1.00  0.00    -0.000 C 
BRANCH  24  25
ATOM     25  C   UNL     1      27.665  36.519  23.817  1.00  0.00    -0.003 C 
ATOM     26  C   UNL     1      28.040  35.776  25.097  1.00  0.00     0.004 C 
ENDBRANCH  24  25
ENDBRANCH  23  24
ENDBRANCH  22  23
ENDBRANCH  21  22
ENDBRANCH  20  21
ENDBRANCH  19  20
ENDBRANCH  18  19
ENDBRANCH  17  18
ENDBRANCH  16  17
ENDBRANCH  15  16
ENDBRANCH   1  15
TORSDOF 22
ENDMDL
