MODEL 1
REMARK VINA RESULT:    -7.160      0.000      0.000
REMARK INTER + INTRA:         -12.534
REMARK INTER:                 -10.509
REMARK INTRA:                  -2.024
REMARK UNBOUND:                -2.024
REMARK SMILES O=c1c(O[C@@H]2O[C@@H](CO)[C@H](O)[C@H](O)[C@@H]2O)c(-c2ccc(O)c(O)c2)oc2cc(O)cc(O)c12
REMARK SMILES IDX 4 1 3 2 16 3 25 4 2 5 26 6 1 7 33 8 27 9 31 10 28 11 30 12
REMARK SMILES IDX 17 13 18 14 19 15 20 16 24 17 22 18 21 19 23 21 32 23 29 25
REMARK SMILES IDX 5 27 14 28 6 29 12 30 7 31 10 32 15 33 13 35 8 37 9 38 11 40
REMARK H PARENT 21 20 23 22 32 24 29 26 15 34 13 36 9 39 11 41
REMARK Flexibility Score: inf
ROOT
ATOM      1  O   UNL     1     -37.651   5.244  81.876  1.00  0.00    -0.454 OA
ENDROOT
BRANCH   1   2
ATOM      2  C   UNL     1     -38.494   4.804  80.832  1.00  0.00     0.214 A 
ATOM      3  C   UNL     1     -37.977   4.797  79.521  1.00  0.00     0.180 A 
ATOM      4  O   UNL     1     -38.700   4.320  78.515  1.00  0.00    -0.452 OA
ATOM      5  C   UNL     1     -39.817   4.339  81.028  1.00  0.00     0.239 A 
ATOM      6  C   UNL     1     -39.935   3.861  78.659  1.00  0.00     0.146 A 
ATOM      7  O   UNL     1     -40.334   4.349  82.175  1.00  0.00    -0.285 OA
ATOM      8  C   UNL     1     -40.558   3.857  79.927  1.00  0.00     0.111 A 
ATOM      9  C   UNL     1     -40.617   3.383  77.535  1.00  0.00     0.094 A 
ATOM     10  C   UNL     1     -41.884   3.368  80.040  1.00  0.00     0.134 A 
ATOM     11  C   UNL     1     -41.924   2.901  77.654  1.00  0.00     0.123 A 
ATOM     12  C   UNL     1     -42.552   2.896  78.901  1.00  0.00     0.093 A 
BRANCH   3  13
ATOM     13  C   UNL     1     -36.622   5.298  79.220  1.00  0.00     0.025 A 
ATOM     14  C   UNL     1     -36.446   6.627  78.807  1.00  0.00     0.016 A 
ATOM     15  C   UNL     1     -35.167   7.119  78.538  1.00  0.00     0.051 A 
ATOM     16  C   UNL     1     -34.045   6.299  78.695  1.00  0.00     0.157 A 
ATOM     17  C   UNL     1     -35.493   4.482  79.403  1.00  0.00     0.062 A 
ATOM     18  C   UNL     1     -34.208   4.973  79.136  1.00  0.00     0.158 A 
BRANCH  16  19
ATOM     19  O   UNL     1     -32.782   6.815  78.416  1.00  0.00    -0.504 OA
ATOM     20  H   UNL     1     -31.940   6.261  78.512  1.00  0.00     0.293 HD
ENDBRANCH  16  19
BRANCH  18  21
ATOM     21  O   UNL     1     -33.094   4.153  79.310  1.00  0.00    -0.504 OA
ATOM     22  H   UNL     1     -32.172   4.440  79.002  1.00  0.00     0.293 HD
ENDBRANCH  18  21
ENDBRANCH   3  13
BRANCH  10  23
ATOM     23  O   UNL     1     -42.541   3.347  81.272  1.00  0.00    -0.507 OA
ATOM     24  H   UNL     1     -42.550   2.520  81.857  1.00  0.00     0.293 HD
ENDBRANCH  10  23
BRANCH  11  25
ATOM     25  O   UNL     1     -42.609   2.425  76.539  1.00  0.00    -0.508 OA
ATOM     26  H   UNL     1     -42.195   2.444  75.614  1.00  0.00     0.293 HD
ENDBRANCH  11  25
ENDBRANCH   1   2
BRANCH   1  27
ATOM     27  C   UNL     1     -37.573   6.565  82.425  1.00  0.00     0.339 C 
ATOM     28  C   UNL     1     -37.869   6.552  83.939  1.00  0.00     0.214 C 
ATOM     29  O   UNL     1     -36.315   7.166  82.158  1.00  0.00    -0.332 OA
ATOM     30  C   UNL     1     -36.730   5.879  84.725  1.00  0.00     0.180 C 
ATOM     31  C   UNL     1     -35.248   6.443  82.753  1.00  0.00     0.179 C 
ATOM     32  C   UNL     1     -35.375   6.469  84.295  1.00  0.00     0.177 C 
BRANCH  28  33
ATOM     33  O   UNL     1     -39.083   5.895  84.198  1.00  0.00    -0.384 OA
ATOM     34  H   UNL     1     -38.882   4.923  84.228  1.00  0.00     0.211 HD
ENDBRANCH  28  33
BRANCH  30  35
ATOM     35  O   UNL     1     -36.732   4.491  84.509  1.00  0.00    -0.387 OA
ATOM     36  H   UNL     1     -37.270   4.323  83.692  1.00  0.00     0.211 HD
ENDBRANCH  30  35
BRANCH  31  37
ATOM     37  C   UNL     1     -33.931   7.088  82.287  1.00  0.00     0.191 C 
BRANCH  37  38
ATOM     38  O   UNL     1     -33.410   7.948  83.266  1.00  0.00    -0.394 OA
ATOM     39  H   UNL     1     -33.175   8.795  82.805  1.00  0.00     0.210 HD
ENDBRANCH  37  38
ENDBRANCH  31  37
BRANCH  32  40
ATOM     40  O   UNL     1     -34.331   5.733  84.882  1.00  0.00    -0.387 OA
ATOM     41  H   UNL     1     -34.752   4.992  85.389  1.00  0.00     0.211 HD
ENDBRANCH  32  40
ENDBRANCH   1  27
TORSDOF 12
ENDMDL
MODEL 2
REMARK VINA RESULT:    -6.815      1.412      2.811
REMARK INTER + INTRA:         -12.027
REMARK INTER:                 -11.360
REMARK INTRA:                  -0.667
REMARK UNBOUND:                -2.024
REMARK SMILES O=c1c(O[C@@H]2O[C@@H](CO)[C@H](O)[C@H](O)[C@@H]2O)c(-c2ccc(O)c(O)c2)oc2cc(O)cc(O)c12
REMARK SMILES IDX 4 1 3 2 16 3 25 4 2 5 26 6 1 7 33 8 27 9 31 10 28 11 30 12
REMARK SMILES IDX 17 13 18 14 19 15 20 16 24 17 22 18 21 19 23 21 32 23 29 25
REMARK SMILES IDX 5 27 14 28 6 29 12 30 7 31 10 32 15 33 13 35 8 37 9 38 11 40
REMARK H PARENT 21 20 23 22 32 24 29 26 15 34 13 36 9 39 11 41
REMARK Flexibility Score: inf
ROOT
ATOM      1  O   UNL     1     -37.882   5.455  81.741  1.00  0.00    -0.454 OA
ENDROOT
BRANCH   1   2
ATOM      2  C   UNL     1     -38.677   4.938  80.696  1.00  0.00     0.214 A 
ATOM      3  C   UNL     1     -38.099   4.828  79.415  1.00  0.00     0.180 A 
ATOM      4  O   UNL     1     -38.777   4.276  78.415  1.00  0.00    -0.452 OA
ATOM      5  C   UNL     1     -40.011   4.492  80.864  1.00  0.00     0.239 A 
ATOM      6  C   UNL     1     -40.020   3.832  78.535  1.00  0.00     0.146 A 
ATOM      7  O   UNL     1     -40.581   4.592  81.980  1.00  0.00    -0.285 OA
ATOM      8  C   UNL     1     -40.701   3.928  79.769  1.00  0.00     0.111 A 
ATOM      9  C   UNL     1     -40.651   3.270  77.421  1.00  0.00     0.094 A 
ATOM     10  C   UNL     1     -42.034   3.453  79.856  1.00  0.00     0.134 A 
ATOM     11  C   UNL     1     -41.965   2.802  77.514  1.00  0.00     0.123 A 
ATOM     12  C   UNL     1     -42.651   2.896  78.727  1.00  0.00     0.093 A 
BRANCH   3  13
ATOM     13  C   UNL     1     -36.728   5.301  79.141  1.00  0.00     0.025 A 
ATOM     14  C   UNL     1     -36.511   6.642  78.792  1.00  0.00     0.016 A 
ATOM     15  C   UNL     1     -35.216   7.107  78.550  1.00  0.00     0.051 A 
ATOM     16  C   UNL     1     -34.121   6.246  78.670  1.00  0.00     0.157 A 
ATOM     17  C   UNL     1     -35.626   4.443  79.286  1.00  0.00     0.062 A 
ATOM     18  C   UNL     1     -34.325   4.907  79.045  1.00  0.00     0.158 A 
BRANCH  16  19
ATOM     19  O   UNL     1     -32.841   6.737  78.418  1.00  0.00    -0.504 OA
ATOM     20  H   UNL     1     -32.583   7.135  77.524  1.00  0.00     0.293 HD
ENDBRANCH  16  19
BRANCH  18  21
ATOM     21  O   UNL     1     -33.238   4.046  79.181  1.00  0.00    -0.504 OA
ATOM     22  H   UNL     1     -32.640   4.071  80.000  1.00  0.00     0.293 HD
ENDBRANCH  18  21
ENDBRANCH   3  13
BRANCH  10  23
ATOM     23  O   UNL     1     -42.749   3.529  81.053  1.00  0.00    -0.507 OA
ATOM     24  H   UNL     1     -43.021   2.698  81.565  1.00  0.00     0.293 HD
ENDBRANCH  10  23
BRANCH  11  25
ATOM     25  O   UNL     1     -42.600   2.243  76.407  1.00  0.00    -0.508 OA
ATOM     26  H   UNL     1     -42.114   2.115  75.526  1.00  0.00     0.293 HD
ENDBRANCH  11  25
ENDBRANCH   1   2
BRANCH   1  27
ATOM     27  C   UNL     1     -36.927   4.740  82.534  1.00  0.00     0.339 C 
ATOM     28  C   UNL     1     -36.890   5.282  83.978  1.00  0.00     0.214 C 
ATOM     29  O   UNL     1     -37.182   3.343  82.522  1.00  0.00    -0.332 OA
ATOM     30  C   UNL     1     -38.177   4.924  84.741  1.00  0.00     0.180 C 
ATOM     31  C   UNL     1     -38.449   3.033  83.082  1.00  0.00     0.179 C 
ATOM     32  C   UNL     1     -38.485   3.426  84.578  1.00  0.00     0.177 C 
BRANCH  28  33
ATOM     33  O   UNL     1     -36.705   6.674  83.976  1.00  0.00    -0.384 OA
ATOM     34  H   UNL     1     -36.739   6.967  83.027  1.00  0.00     0.211 HD
ENDBRANCH  28  33
BRANCH  30  35
ATOM     35  O   UNL     1     -39.261   5.685  84.268  1.00  0.00    -0.387 OA
ATOM     36  H   UNL     1     -39.735   6.042  85.064  1.00  0.00     0.211 HD
ENDBRANCH  30  35
BRANCH  31  37
ATOM     37  C   UNL     1     -38.687   1.526  82.890  1.00  0.00     0.191 C 
BRANCH  37  38
ATOM     38  O   UNL     1     -40.052   1.211  82.972  1.00  0.00    -0.394 OA
ATOM     39  H   UNL     1     -40.259   0.636  82.190  1.00  0.00     0.210 HD
ENDBRANCH  37  38
ENDBRANCH  31  37
BRANCH  32  40
ATOM     40  O   UNL     1     -39.748   3.140  85.125  1.00  0.00    -0.387 OA
ATOM     41  H   UNL     1     -39.800   3.618  85.993  1.00  0.00     0.211 HD
ENDBRANCH  32  40
ENDBRANCH   1  27
TORSDOF 12
ENDMDL
MODEL 3
REMARK VINA RESULT:    -6.562      2.066      7.576
REMARK INTER + INTRA:         -11.655
REMARK INTER:                  -9.623
REMARK INTRA:                  -2.032
REMARK UNBOUND:                -2.024
REMARK SMILES O=c1c(O[C@@H]2O[C@@H](CO)[C@H](O)[C@H](O)[C@@H]2O)c(-c2ccc(O)c(O)c2)oc2cc(O)cc(O)c12
REMARK SMILES IDX 4 1 3 2 16 3 25 4 2 5 26 6 1 7 33 8 27 9 31 10 28 11 30 12
REMARK SMILES IDX 17 13 18 14 19 15 20 16 24 17 22 18 21 19 23 21 32 23 29 25
REMARK SMILES IDX 5 27 14 28 6 29 12 30 7 31 10 32 15 33 13 35 8 37 9 38 11 40
REMARK H PARENT 21 20 23 22 32 24 29 26 15 34 13 36 9 39 11 41
REMARK Flexibility Score: inf
ROOT
ATOM      1  O   UNL     1     -38.075   5.194  79.686  1.00  0.00    -0.454 OA
ENDROOT
BRANCH   1   2
ATOM      2  C   UNL     1     -36.885   5.819  80.115  1.00  0.00     0.214 A 
ATOM      3  C   UNL     1     -36.484   5.633  81.454  1.00  0.00     0.180 A 
ATOM      4  O   UNL     1     -35.334   6.134  81.889  1.00  0.00    -0.452 OA
ATOM      5  C   UNL     1     -36.050   6.594  79.273  1.00  0.00     0.239 A 
ATOM      6  C   UNL     1     -34.517   6.850  81.129  1.00  0.00     0.146 A 
ATOM      7  O   UNL     1     -36.375   6.811  78.078  1.00  0.00    -0.285 OA
ATOM      8  C   UNL     1     -34.843   7.123  79.781  1.00  0.00     0.111 A 
ATOM      9  C   UNL     1     -33.329   7.337  81.681  1.00  0.00     0.094 A 
ATOM     10  C   UNL     1     -33.951   7.902  79.003  1.00  0.00     0.134 A 
ATOM     11  C   UNL     1     -32.452   8.104  80.907  1.00  0.00     0.123 A 
ATOM     12  C   UNL     1     -32.765   8.385  79.575  1.00  0.00     0.093 A 
BRANCH   3  13
ATOM     13  C   UNL     1     -37.311   4.871  82.410  1.00  0.00     0.025 A 
ATOM     14  C   UNL     1     -38.134   5.554  83.318  1.00  0.00     0.016 A 
ATOM     15  C   UNL     1     -38.936   4.844  84.215  1.00  0.00     0.051 A 
ATOM     16  C   UNL     1     -38.941   3.446  84.206  1.00  0.00     0.157 A 
ATOM     17  C   UNL     1     -37.335   3.467  82.385  1.00  0.00     0.062 A 
ATOM     18  C   UNL     1     -38.139   2.752  83.282  1.00  0.00     0.158 A 
BRANCH  16  19
ATOM     19  O   UNL     1     -39.748   2.764  85.115  1.00  0.00    -0.504 OA
ATOM     20  H   UNL     1     -39.732   1.755  85.198  1.00  0.00     0.293 HD
ENDBRANCH  16  19
BRANCH  18  21
ATOM     21  O   UNL     1     -38.150   1.358  83.257  1.00  0.00    -0.504 OA
ATOM     22  H   UNL     1     -37.908   0.811  84.075  1.00  0.00     0.293 HD
ENDBRANCH  18  21
ENDBRANCH   3  13
BRANCH  10  23
ATOM     23  O   UNL     1     -34.232   8.200  77.668  1.00  0.00    -0.507 OA
ATOM     24  H   UNL     1     -35.032   8.762  77.404  1.00  0.00     0.293 HD
ENDBRANCH  10  23
BRANCH  11  25
ATOM     25  O   UNL     1     -31.268   8.594  81.451  1.00  0.00    -0.508 OA
ATOM     26  H   UNL     1     -30.367   8.199  81.203  1.00  0.00     0.293 HD
ENDBRANCH  11  25
ENDBRANCH   1   2
BRANCH   1  27
ATOM     27  C   UNL     1     -39.352   5.812  79.488  1.00  0.00     0.339 C 
ATOM     28  C   UNL     1     -39.882   5.544  78.063  1.00  0.00     0.214 C 
ATOM     29  O   UNL     1     -40.291   5.393  80.466  1.00  0.00    -0.332 OA
ATOM     30  C   UNL     1     -40.280   4.068  77.886  1.00  0.00     0.180 C 
ATOM     31  C   UNL     1     -40.531   3.995  80.403  1.00  0.00     0.179 C 
ATOM     32  C   UNL     1     -41.184   3.624  79.050  1.00  0.00     0.177 C 
BRANCH  28  33
ATOM     33  O   UNL     1     -38.919   5.899  77.105  1.00  0.00    -0.384 OA
ATOM     34  H   UNL     1     -38.592   5.053  76.700  1.00  0.00     0.211 HD
ENDBRANCH  28  33
BRANCH  30  35
ATOM     35  O   UNL     1     -39.139   3.250  77.833  1.00  0.00    -0.387 OA
ATOM     36  H   UNL     1     -39.456   2.311  77.775  1.00  0.00     0.211 HD
ENDBRANCH  30  35
BRANCH  31  37
ATOM     37  C   UNL     1     -41.441   3.625  81.587  1.00  0.00     0.191 C 
BRANCH  37  38
ATOM     38  O   UNL     1     -42.793   3.630  81.211  1.00  0.00    -0.394 OA
ATOM     39  H   UNL     1     -43.189   4.459  81.587  1.00  0.00     0.210 HD
ENDBRANCH  37  38
ENDBRANCH  31  37
BRANCH  32  40
ATOM     40  O   UNL     1     -41.399   2.236  78.979  1.00  0.00    -0.387 OA
ATOM     41  H   UNL     1     -41.848   2.060  78.112  1.00  0.00     0.211 HD
ENDBRANCH  32  40
ENDBRANCH   1  27
TORSDOF 12
ENDMDL
MODEL 4
REMARK VINA RESULT:    -6.373      1.217      2.107
REMARK INTER + INTRA:         -11.378
REMARK INTER:                  -9.804
REMARK INTRA:                  -1.573
REMARK UNBOUND:                -2.024
REMARK SMILES O=c1c(O[C@@H]2O[C@@H](CO)[C@H](O)[C@H](O)[C@@H]2O)c(-c2ccc(O)c(O)c2)oc2cc(O)cc(O)c12
REMARK SMILES IDX 4 1 3 2 16 3 25 4 2 5 26 6 1 7 33 8 27 9 31 10 28 11 30 12
REMARK SMILES IDX 17 13 18 14 19 15 20 16 24 17 22 18 21 19 23 21 32 23 29 25
REMARK SMILES IDX 5 27 14 28 6 29 12 30 7 31 10 32 15 33 13 35 8 37 9 38 11 40
REMARK H PARENT 21 20 23 22 32 24 29 26 15 34 13 36 9 39 11 41
REMARK Flexibility Score: inf
ROOT
ATOM      1  O   UNL     1     -37.626   5.327  81.952  1.00  0.00    -0.454 OA
ENDROOT
BRANCH   1   2
ATOM      2  C   UNL     1     -38.449   4.870  80.901  1.00  0.00     0.214 A 
ATOM      3  C   UNL     1     -37.907   4.840  79.600  1.00  0.00     0.180 A 
ATOM      4  O   UNL     1     -38.611   4.346  78.588  1.00  0.00    -0.452 OA
ATOM      5  C   UNL     1     -39.775   4.406  81.079  1.00  0.00     0.239 A 
ATOM      6  C   UNL     1     -39.849   3.888  78.717  1.00  0.00     0.146 A 
ATOM      7  O   UNL     1     -40.314   4.436  82.216  1.00  0.00    -0.285 OA
ATOM      8  C   UNL     1     -40.495   3.905  79.973  1.00  0.00     0.111 A 
ATOM      9  C   UNL     1     -40.509   3.390  77.589  1.00  0.00     0.094 A 
ATOM     10  C   UNL     1     -41.823   3.417  80.069  1.00  0.00     0.134 A 
ATOM     11  C   UNL     1     -41.818   2.909  77.691  1.00  0.00     0.123 A 
ATOM     12  C   UNL     1     -42.469   2.925  78.926  1.00  0.00     0.093 A 
BRANCH   3  13
ATOM     13  C   UNL     1     -36.547   5.338  79.316  1.00  0.00     0.025 A 
ATOM     14  C   UNL     1     -35.446   4.484  79.476  1.00  0.00     0.016 A 
ATOM     15  C   UNL     1     -34.155   4.937  79.192  1.00  0.00     0.051 A 
ATOM     16  C   UNL     1     -33.948   6.239  78.729  1.00  0.00     0.157 A 
ATOM     17  C   UNL     1     -36.342   6.638  78.827  1.00  0.00     0.062 A 
ATOM     18  C   UNL     1     -35.048   7.095  78.540  1.00  0.00     0.158 A 
BRANCH  16  19
ATOM     19  O   UNL     1     -32.649   6.665  78.458  1.00  0.00    -0.504 OA
ATOM     20  H   UNL     1     -32.111   7.209  79.122  1.00  0.00     0.293 HD
ENDBRANCH  16  19
BRANCH  18  21
ATOM     21  O   UNL     1     -34.852   8.390  78.064  1.00  0.00    -0.504 OA
ATOM     22  H   UNL     1     -35.194   9.199  78.569  1.00  0.00     0.293 HD
ENDBRANCH  18  21
ENDBRANCH   3  13
BRANCH  10  23
ATOM     23  O   UNL     1     -42.503   3.417  81.288  1.00  0.00    -0.507 OA
ATOM     24  H   UNL     1     -42.543   4.241  81.876  1.00  0.00     0.293 HD
ENDBRANCH  10  23
BRANCH  11  25
ATOM     25  O   UNL     1     -42.481   2.413  76.571  1.00  0.00    -0.508 OA
ATOM     26  H   UNL     1     -43.474   2.565  76.434  1.00  0.00     0.293 HD
ENDBRANCH  11  25
ENDBRANCH   1   2
BRANCH   1  27
ATOM     27  C   UNL     1     -37.978   6.261  82.980  1.00  0.00     0.339 C 
ATOM     28  C   UNL     1     -36.879   6.334  84.061  1.00  0.00     0.214 C 
ATOM     29  O   UNL     1     -38.248   7.548  82.444  1.00  0.00    -0.332 OA
ATOM     30  C   UNL     1     -35.608   7.012  83.520  1.00  0.00     0.180 C 
ATOM     31  C   UNL     1     -37.111   8.102  81.800  1.00  0.00     0.179 C 
ATOM     32  C   UNL     1     -35.975   8.335  82.824  1.00  0.00     0.177 C 
BRANCH  28  33
ATOM     33  O   UNL     1     -36.571   5.048  84.536  1.00  0.00    -0.384 OA
ATOM     34  H   UNL     1     -37.388   4.704  84.984  1.00  0.00     0.211 HD
ENDBRANCH  28  33
BRANCH  30  35
ATOM     35  O   UNL     1     -34.943   6.169  82.614  1.00  0.00    -0.387 OA
ATOM     36  H   UNL     1     -34.739   6.710  81.807  1.00  0.00     0.211 HD
ENDBRANCH  30  35
BRANCH  31  37
ATOM     37  C   UNL     1     -37.548   9.418  81.134  1.00  0.00     0.191 C 
BRANCH  37  38
ATOM     38  O   UNL     1     -36.627   9.823  80.156  1.00  0.00    -0.394 OA
ATOM     39  H   UNL     1     -37.114   9.826  79.290  1.00  0.00     0.210 HD
ENDBRANCH  37  38
ENDBRANCH  31  37
BRANCH  32  40
ATOM     40  O   UNL     1     -34.841   8.861  82.180  1.00  0.00    -0.387 OA
ATOM     41  H   UNL     1     -34.050   8.540  82.685  1.00  0.00     0.211 HD
ENDBRANCH  32  40
ENDBRANCH   1  27
TORSDOF 12
ENDMDL
MODEL 5
REMARK VINA RESULT:    -6.362      2.006      6.321
REMARK INTER + INTRA:         -11.362
REMARK INTER:                  -9.467
REMARK INTRA:                  -1.895
REMARK UNBOUND:                -2.024
REMARK SMILES O=c1c(O[C@@H]2O[C@@H](CO)[C@H](O)[C@H](O)[C@@H]2O)c(-c2ccc(O)c(O)c2)oc2cc(O)cc(O)c12
REMARK SMILES IDX 4 1 3 2 16 3 25 4 2 5 26 6 1 7 33 8 27 9 31 10 28 11 30 12
REMARK SMILES IDX 17 13 18 14 19 15 20 16 24 17 22 18 21 19 23 21 32 23 29 25
REMARK SMILES IDX 5 27 14 28 6 29 12 30 7 31 10 32 15 33 13 35 8 37 9 38 11 40
REMARK H PARENT 21 20 23 22 32 24 29 26 15 34 13 36 9 39 11 41
REMARK Flexibility Score: inf
ROOT
ATOM      1  O   UNL     1     -37.606   5.512  81.836  1.00  0.00    -0.454 OA
ENDROOT
BRANCH   1   2
ATOM      2  C   UNL     1     -36.887   6.199  80.835  1.00  0.00     0.214 A 
ATOM      3  C   UNL     1     -37.198   5.923  79.488  1.00  0.00     0.180 A 
ATOM      4  O   UNL     1     -36.607   6.597  78.508  1.00  0.00    -0.452 OA
ATOM      5  C   UNL     1     -35.894   7.172  81.102  1.00  0.00     0.239 A 
ATOM      6  C   UNL     1     -35.685   7.527  78.717  1.00  0.00     0.146 A 
ATOM      7  O   UNL     1     -35.561   7.436  82.286  1.00  0.00    -0.285 OA
ATOM      8  C   UNL     1     -35.277   7.853  80.030  1.00  0.00     0.111 A 
ATOM      9  C   UNL     1     -35.117   8.178  77.617  1.00  0.00     0.094 A 
ATOM     10  C   UNL     1     -34.280   8.844  80.213  1.00  0.00     0.134 A 
ATOM     11  C   UNL     1     -34.135   9.156  77.805  1.00  0.00     0.123 A 
ATOM     12  C   UNL     1     -33.720   9.484  79.098  1.00  0.00     0.093 A 
BRANCH   3  13
ATOM     13  C   UNL     1     -38.194   4.898  79.117  1.00  0.00     0.025 A 
ATOM     14  C   UNL     1     -39.558   5.224  79.105  1.00  0.00     0.016 A 
ATOM     15  C   UNL     1     -40.508   4.269  78.737  1.00  0.00     0.051 A 
ATOM     16  C   UNL     1     -40.109   2.982  78.360  1.00  0.00     0.157 A 
ATOM     17  C   UNL     1     -37.791   3.614  78.715  1.00  0.00     0.062 A 
ATOM     18  C   UNL     1     -38.742   2.654  78.344  1.00  0.00     0.158 A 
BRANCH  16  19
ATOM     19  O   UNL     1     -41.080   2.048  78.002  1.00  0.00    -0.504 OA
ATOM     20  H   UNL     1     -41.920   2.310  77.502  1.00  0.00     0.293 HD
ENDBRANCH  16  19
BRANCH  18  21
ATOM     21  O   UNL     1     -38.335   1.378  77.955  1.00  0.00    -0.504 OA
ATOM     22  H   UNL     1     -38.875   0.554  78.191  1.00  0.00     0.293 HD
ENDBRANCH  18  21
ENDBRANCH   3  13
BRANCH  10  23
ATOM     23  O   UNL     1     -33.842   9.198  81.490  1.00  0.00    -0.507 OA
ATOM     24  H   UNL     1     -34.038  10.109  81.888  1.00  0.00     0.293 HD
ENDBRANCH  10  23
BRANCH  11  25
ATOM     25  O   UNL     1     -33.565   9.808  76.715  1.00  0.00    -0.508 OA
ATOM     26  H   UNL     1     -32.698   9.485  76.298  1.00  0.00     0.293 HD
ENDBRANCH  11  25
ENDBRANCH   1   2
BRANCH   1  27
ATOM     27  C   UNL     1     -37.316   4.216  82.373  1.00  0.00     0.339 C 
ATOM     28  C   UNL     1     -37.009   4.300  83.883  1.00  0.00     0.214 C 
ATOM     29  O   UNL     1     -38.370   3.299  82.120  1.00  0.00    -0.332 OA
ATOM     30  C   UNL     1     -38.274   4.636  84.692  1.00  0.00     0.180 C 
ATOM     31  C   UNL     1     -39.582   3.704  82.737  1.00  0.00     0.179 C 
ATOM     32  C   UNL     1     -39.427   3.705  84.276  1.00  0.00     0.177 C 
BRANCH  28  33
ATOM     33  O   UNL     1     -36.013   5.258  84.130  1.00  0.00    -0.384 OA
ATOM     34  H   UNL     1     -35.191   4.942  83.672  1.00  0.00     0.211 HD
ENDBRANCH  28  33
BRANCH  30  35
ATOM     35  O   UNL     1     -38.650   5.975  84.489  1.00  0.00    -0.387 OA
ATOM     36  H   UNL     1     -37.883   6.539  84.769  1.00  0.00     0.211 HD
ENDBRANCH  30  35
BRANCH  31  37
ATOM     37  C   UNL     1     -40.684   2.731  82.283  1.00  0.00     0.191 C 
BRANCH  37  38
ATOM     38  O   UNL     1     -41.932   3.369  82.216  1.00  0.00    -0.394 OA
ATOM     39  H   UNL     1     -41.945   3.879  81.364  1.00  0.00     0.210 HD
ENDBRANCH  37  38
ENDBRANCH  31  37
BRANCH  32  40
ATOM     40  O   UNL     1     -40.621   4.129  84.885  1.00  0.00    -0.387 OA
ATOM     41  H   UNL     1     -40.691   5.107  84.730  1.00  0.00     0.211 HD
ENDBRANCH  32  40
ENDBRANCH   1  27
TORSDOF 12
ENDMDL
MODEL 6
REMARK VINA RESULT:    -6.339     10.537     13.569
REMARK INTER + INTRA:         -11.328
REMARK INTER:                  -9.927
REMARK INTRA:                  -1.401
REMARK UNBOUND:                -2.024
REMARK SMILES O=c1c(O[C@@H]2O[C@@H](CO)[C@H](O)[C@H](O)[C@@H]2O)c(-c2ccc(O)c(O)c2)oc2cc(O)cc(O)c12
REMARK SMILES IDX 4 1 3 2 16 3 25 4 2 5 26 6 1 7 33 8 27 9 31 10 28 11 30 12
REMARK SMILES IDX 17 13 18 14 19 15 20 16 24 17 22 18 21 19 23 21 32 23 29 25
REMARK SMILES IDX 5 27 14 28 6 29 12 30 7 31 10 32 15 33 13 35 8 37 9 38 11 40
REMARK H PARENT 21 20 23 22 32 24 29 26 15 34 13 36 9 39 11 41
REMARK Flexibility Score: inf
ROOT
ATOM      1  O   UNL     1     -39.547  -7.282  81.337  1.00  0.00    -0.454 OA
ENDROOT
BRANCH   1   2
ATOM      2  C   UNL     1     -39.710  -5.970  81.832  1.00  0.00     0.214 A 
ATOM      3  C   UNL     1     -40.998  -5.399  81.784  1.00  0.00     0.180 A 
ATOM      4  O   UNL     1     -41.223  -4.200  82.307  1.00  0.00    -0.452 OA
ATOM      5  C   UNL     1     -38.665  -5.206  82.406  1.00  0.00     0.239 A 
ATOM      6  C   UNL     1     -40.276  -3.460  82.868  1.00  0.00     0.146 A 
ATOM      7  O   UNL     1     -37.493  -5.661  82.450  1.00  0.00    -0.285 OA
ATOM      8  C   UNL     1     -38.944  -3.927  82.936  1.00  0.00     0.111 A 
ATOM      9  C   UNL     1     -40.613  -2.206  83.388  1.00  0.00     0.094 A 
ATOM     10  C   UNL     1     -37.957  -3.103  83.532  1.00  0.00     0.134 A 
ATOM     11  C   UNL     1     -39.634  -1.399  83.976  1.00  0.00     0.123 A 
ATOM     12  C   UNL     1     -38.313  -1.848  84.045  1.00  0.00     0.093 A 
BRANCH   3  13
ATOM     13  C   UNL     1     -42.137  -6.109  81.170  1.00  0.00     0.025 A 
ATOM     14  C   UNL     1     -43.068  -6.768  81.986  1.00  0.00     0.016 A 
ATOM     15  C   UNL     1     -44.162  -7.428  81.419  1.00  0.00     0.051 A 
ATOM     16  C   UNL     1     -44.350  -7.423  80.033  1.00  0.00     0.157 A 
ATOM     17  C   UNL     1     -42.340  -6.083  79.781  1.00  0.00     0.062 A 
ATOM     18  C   UNL     1     -43.437  -6.742  79.208  1.00  0.00     0.158 A 
BRANCH  16  19
ATOM     19  O   UNL     1     -45.447  -8.092  79.495  1.00  0.00    -0.504 OA
ATOM     20  H   UNL     1     -45.395  -9.059  79.198  1.00  0.00     0.293 HD
ENDBRANCH  16  19
BRANCH  18  21
ATOM     21  O   UNL     1     -43.626  -6.719  77.828  1.00  0.00    -0.504 OA
ATOM     22  H   UNL     1     -42.970  -7.162  77.195  1.00  0.00     0.293 HD
ENDBRANCH  18  21
ENDBRANCH   3  13
BRANCH  10  23
ATOM     23  O   UNL     1     -36.628  -3.521  83.619  1.00  0.00    -0.507 OA
ATOM     24  H   UNL     1     -36.358  -4.481  83.441  1.00  0.00     0.293 HD
ENDBRANCH  10  23
BRANCH  11  25
ATOM     25  O   UNL     1     -39.962  -0.149  84.494  1.00  0.00    -0.508 OA
ATOM     26  H   UNL     1     -40.869   0.031  84.910  1.00  0.00     0.293 HD
ENDBRANCH  11  25
ENDBRANCH   1   2
BRANCH   1  27
ATOM     27  C   UNL     1     -39.394  -8.482  82.104  1.00  0.00     0.339 C 
ATOM     28  C   UNL     1     -39.837  -9.717  81.292  1.00  0.00     0.214 C 
ATOM     29  O   UNL     1     -38.063  -8.634  82.573  1.00  0.00    -0.332 OA
ATOM     30  C   UNL     1     -38.853 -10.016  80.148  1.00  0.00     0.180 C 
ATOM     31  C   UNL     1     -37.135  -8.745  81.504  1.00  0.00     0.179 C 
ATOM     32  C   UNL     1     -37.411 -10.029  80.685  1.00  0.00     0.177 C 
BRANCH  28  33
ATOM     33  O   UNL     1     -41.129  -9.528  80.776  1.00  0.00    -0.384 OA
ATOM     34  H   UNL     1     -41.750 -10.038  81.360  1.00  0.00     0.211 HD
ENDBRANCH  28  33
BRANCH  30  35
ATOM     35  O   UNL     1     -38.970  -9.054  79.130  1.00  0.00    -0.387 OA
ATOM     36  H   UNL     1     -38.348  -8.314  79.355  1.00  0.00     0.211 HD
ENDBRANCH  30  35
BRANCH  31  37
ATOM     37  C   UNL     1     -35.723  -8.758  82.112  1.00  0.00     0.191 C 
BRANCH  37  38
ATOM     38  O   UNL     1     -35.006  -7.604  81.761  1.00  0.00    -0.394 OA
ATOM     39  H   UNL     1     -34.914  -7.063  82.588  1.00  0.00     0.210 HD
ENDBRANCH  37  38
ENDBRANCH  31  37
BRANCH  32  40
ATOM     40  O   UNL     1     -36.507 -10.125  79.613  1.00  0.00    -0.387 OA
ATOM     41  H   UNL     1     -35.863  -9.376  79.713  1.00  0.00     0.211 HD
ENDBRANCH  32  40
ENDBRANCH   1  27
TORSDOF 12
ENDMDL
MODEL 7
REMARK VINA RESULT:    -6.171      3.139      5.762
REMARK INTER + INTRA:         -11.081
REMARK INTER:                  -9.239
REMARK INTRA:                  -1.842
REMARK UNBOUND:                -2.024
REMARK SMILES O=c1c(O[C@@H]2O[C@@H](CO)[C@H](O)[C@H](O)[C@@H]2O)c(-c2ccc(O)c(O)c2)oc2cc(O)cc(O)c12
REMARK SMILES IDX 4 1 3 2 16 3 25 4 2 5 26 6 1 7 33 8 27 9 31 10 28 11 30 12
REMARK SMILES IDX 17 13 18 14 19 15 20 16 24 17 22 18 21 19 23 21 32 23 29 25
REMARK SMILES IDX 5 27 14 28 6 29 12 30 7 31 10 32 15 33 13 35 8 37 9 38 11 40
REMARK H PARENT 21 20 23 22 32 24 29 26 15 34 13 36 9 39 11 41
REMARK Flexibility Score: inf
ROOT
ATOM      1  O   UNL     1     -36.983   5.950  80.147  1.00  0.00    -0.454 OA
ENDROOT
BRANCH   1   2
ATOM      2  C   UNL     1     -38.020   6.608  79.451  1.00  0.00     0.214 A 
ATOM      3  C   UNL     1     -39.327   6.519  79.970  1.00  0.00     0.180 A 
ATOM      4  O   UNL     1     -40.325   7.182  79.398  1.00  0.00    -0.452 OA
ATOM      5  C   UNL     1     -37.820   7.380  78.281  1.00  0.00     0.239 A 
ATOM      6  C   UNL     1     -40.177   7.928  78.313  1.00  0.00     0.146 A 
ATOM      7  O   UNL     1     -36.676   7.470  77.764  1.00  0.00    -0.285 OA
ATOM      8  C   UNL     1     -38.913   8.056  77.695  1.00  0.00     0.111 A 
ATOM      9  C   UNL     1     -41.292   8.586  77.783  1.00  0.00     0.094 A 
ATOM     10  C   UNL     1     -38.795   8.853  76.529  1.00  0.00     0.134 A 
ATOM     11  C   UNL     1     -41.169   9.372  76.634  1.00  0.00     0.123 A 
ATOM     12  C   UNL     1     -39.925   9.502  76.011  1.00  0.00     0.093 A 
BRANCH   3  13
ATOM     13  C   UNL     1     -39.633   5.706  81.164  1.00  0.00     0.025 A 
ATOM     14  C   UNL     1     -39.294   6.185  82.438  1.00  0.00     0.016 A 
ATOM     15  C   UNL     1     -39.596   5.434  83.577  1.00  0.00     0.051 A 
ATOM     16  C   UNL     1     -40.253   4.206  83.461  1.00  0.00     0.157 A 
ATOM     17  C   UNL     1     -40.315   4.484  81.049  1.00  0.00     0.062 A 
ATOM     18  C   UNL     1     -40.621   3.729  82.190  1.00  0.00     0.158 A 
BRANCH  16  19
ATOM     19  O   UNL     1     -40.537   3.477  84.614  1.00  0.00    -0.504 OA
ATOM     20  H   UNL     1     -39.944   2.721  84.933  1.00  0.00     0.293 HD
ENDBRANCH  16  19
BRANCH  18  21
ATOM     21  O   UNL     1     -41.290   2.513  82.068  1.00  0.00    -0.504 OA
ATOM     22  H   UNL     1     -41.301   1.999  81.194  1.00  0.00     0.293 HD
ENDBRANCH  18  21
ENDBRANCH   3  13
BRANCH  10  23
ATOM     23  O   UNL     1     -37.567   9.006  75.882  1.00  0.00    -0.507 OA
ATOM     24  H   UNL     1     -37.034   9.865  75.948  1.00  0.00     0.293 HD
ENDBRANCH  10  23
BRANCH  11  25
ATOM     25  O   UNL     1     -42.275  10.028  76.100  1.00  0.00    -0.508 OA
ATOM     26  H   UNL     1     -42.950  10.498  76.694  1.00  0.00     0.293 HD
ENDBRANCH  11  25
ENDBRANCH   1   2
BRANCH   1  27
ATOM     27  C   UNL     1     -36.556   4.592  79.980  1.00  0.00     0.339 C 
ATOM     28  C   UNL     1     -35.078   4.527  79.543  1.00  0.00     0.214 C 
ATOM     29  O   UNL     1     -36.771   3.830  81.159  1.00  0.00    -0.332 OA
ATOM     30  C   UNL     1     -34.139   4.953  80.685  1.00  0.00     0.180 C 
ATOM     31  C   UNL     1     -36.023   4.332  82.256  1.00  0.00     0.179 C 
ATOM     32  C   UNL     1     -34.507   4.201  81.976  1.00  0.00     0.177 C 
BRANCH  28  33
ATOM     33  O   UNL     1     -34.862   5.338  78.417  1.00  0.00    -0.384 OA
ATOM     34  H   UNL     1     -35.714   5.817  78.241  1.00  0.00     0.211 HD
ENDBRANCH  28  33
BRANCH  30  35
ATOM     35  O   UNL     1     -34.223   6.339  80.904  1.00  0.00    -0.387 OA
ATOM     36  H   UNL     1     -34.882   6.698  80.255  1.00  0.00     0.211 HD
ENDBRANCH  30  35
BRANCH  31  37
ATOM     37  C   UNL     1     -36.436   3.534  83.504  1.00  0.00     0.191 C 
BRANCH  37  38
ATOM     38  O   UNL     1     -35.370   2.762  83.990  1.00  0.00    -0.394 OA
ATOM     39  H   UNL     1     -34.555   3.068  83.511  1.00  0.00     0.210 HD
ENDBRANCH  37  38
ENDBRANCH  31  37
BRANCH  32  40
ATOM     40  O   UNL     1     -33.767   4.720  83.053  1.00  0.00    -0.387 OA
ATOM     41  H   UNL     1     -33.513   3.949  83.624  1.00  0.00     0.211 HD
ENDBRANCH  32  40
ENDBRANCH   1  27
TORSDOF 12
ENDMDL
MODEL 8
REMARK VINA RESULT:    -6.133      2.236      6.650
REMARK INTER + INTRA:         -11.025
REMARK INTER:                 -10.021
REMARK INTRA:                  -1.004
REMARK UNBOUND:                -2.024
REMARK SMILES O=c1c(O[C@@H]2O[C@@H](CO)[C@H](O)[C@H](O)[C@@H]2O)c(-c2ccc(O)c(O)c2)oc2cc(O)cc(O)c12
REMARK SMILES IDX 4 1 3 2 16 3 25 4 2 5 26 6 1 7 33 8 27 9 31 10 28 11 30 12
REMARK SMILES IDX 17 13 18 14 19 15 20 16 24 17 22 18 21 19 23 21 32 23 29 25
REMARK SMILES IDX 5 27 14 28 6 29 12 30 7 31 10 32 15 33 13 35 8 37 9 38 11 40
REMARK H PARENT 21 20 23 22 32 24 29 26 15 34 13 36 9 39 11 41
REMARK Flexibility Score: inf
ROOT
ATOM      1  O   UNL     1     -37.544   4.093  82.437  1.00  0.00    -0.454 OA
ENDROOT
BRANCH   1   2
ATOM      2  C   UNL     1     -36.591   4.976  81.885  1.00  0.00     0.214 A 
ATOM      3  C   UNL     1     -36.695   5.289  80.514  1.00  0.00     0.180 A 
ATOM      4  O   UNL     1     -35.874   6.174  79.962  1.00  0.00    -0.452 OA
ATOM      5  C   UNL     1     -35.559   5.593  82.631  1.00  0.00     0.239 A 
ATOM      6  C   UNL     1     -34.905   6.785  80.629  1.00  0.00     0.146 A 
ATOM      7  O   UNL     1     -35.407   5.327  83.852  1.00  0.00    -0.285 OA
ATOM      8  C   UNL     1     -34.696   6.515  82.000  1.00  0.00     0.111 A 
ATOM      9  C   UNL     1     -34.089   7.700  79.956  1.00  0.00     0.094 A 
ATOM     10  C   UNL     1     -33.642   7.179  82.678  1.00  0.00     0.134 A 
ATOM     11  C   UNL     1     -33.053   8.353  80.631  1.00  0.00     0.123 A 
ATOM     12  C   UNL     1     -32.832   8.090  81.985  1.00  0.00     0.093 A 
BRANCH   3  13
ATOM     13  C   UNL     1     -37.718   4.665  79.653  1.00  0.00     0.025 A 
ATOM     14  C   UNL     1     -38.817   5.421  79.216  1.00  0.00     0.016 A 
ATOM     15  C   UNL     1     -39.781   4.847  78.384  1.00  0.00     0.051 A 
ATOM     16  C   UNL     1     -39.654   3.520  77.964  1.00  0.00     0.157 A 
ATOM     17  C   UNL     1     -37.578   3.340  79.209  1.00  0.00     0.062 A 
ATOM     18  C   UNL     1     -38.543   2.762  78.374  1.00  0.00     0.158 A 
BRANCH  16  19
ATOM     19  O   UNL     1     -40.634   2.973  77.137  1.00  0.00    -0.504 OA
ATOM     20  H   UNL     1     -40.702   1.976  76.969  1.00  0.00     0.293 HD
ENDBRANCH  16  19
BRANCH  18  21
ATOM     21  O   UNL     1     -38.401   1.443  77.946  1.00  0.00    -0.504 OA
ATOM     22  H   UNL     1     -38.964   0.696  78.335  1.00  0.00     0.293 HD
ENDBRANCH  18  21
ENDBRANCH   3  13
BRANCH  10  23
ATOM     23  O   UNL     1     -33.395   6.942  84.031  1.00  0.00    -0.507 OA
ATOM     24  H   UNL     1     -33.724   6.104  84.494  1.00  0.00     0.293 HD
ENDBRANCH  10  23
BRANCH  11  25
ATOM     25  O   UNL     1     -32.235   9.263  79.966  1.00  0.00    -0.508 OA
ATOM     26  H   UNL     1     -32.377  10.263  80.052  1.00  0.00     0.293 HD
ENDBRANCH  11  25
ENDBRANCH   1   2
BRANCH   1  27
ATOM     27  C   UNL     1     -38.072   4.115  83.769  1.00  0.00     0.339 C 
ATOM     28  C   UNL     1     -39.434   4.840  83.811  1.00  0.00     0.214 C 
ATOM     29  O   UNL     1     -38.176   2.807  84.310  1.00  0.00    -0.332 OA
ATOM     30  C   UNL     1     -40.528   4.011  83.114  1.00  0.00     0.180 C 
ATOM     31  C   UNL     1     -39.066   1.995  83.561  1.00  0.00     0.179 C 
ATOM     32  C   UNL     1     -40.504   2.564  83.635  1.00  0.00     0.177 C 
BRANCH  28  33
ATOM     33  O   UNL     1     -39.337   6.106  83.211  1.00  0.00    -0.384 OA
ATOM     34  H   UNL     1     -40.026   6.139  82.497  1.00  0.00     0.211 HD
ENDBRANCH  28  33
BRANCH  30  35
ATOM     35  O   UNL     1     -40.341   4.016  81.721  1.00  0.00    -0.387 OA
ATOM     36  H   UNL     1     -39.918   3.151  81.480  1.00  0.00     0.211 HD
ENDBRANCH  30  35
BRANCH  31  37
ATOM     37  C   UNL     1     -38.995   0.570  84.138  1.00  0.00     0.191 C 
BRANCH  37  38
ATOM     38  O   UNL     1     -39.456  -0.378  83.212  1.00  0.00    -0.394 OA
ATOM     39  H   UNL     1     -40.121  -0.940  83.689  1.00  0.00     0.210 HD
ENDBRANCH  37  38
ENDBRANCH  31  37
BRANCH  32  40
ATOM     40  O   UNL     1     -41.380   1.771  82.874  1.00  0.00    -0.387 OA
ATOM     41  H   UNL     1     -40.860   1.432  82.099  1.00  0.00     0.211 HD
ENDBRANCH  32  40
ENDBRANCH   1  27
TORSDOF 12
ENDMDL
MODEL 9
REMARK VINA RESULT:    -5.992      2.630      5.086
REMARK INTER + INTRA:         -10.818
REMARK INTER:                  -8.940
REMARK INTRA:                  -1.878
REMARK UNBOUND:                -2.024
REMARK SMILES O=c1c(O[C@@H]2O[C@@H](CO)[C@H](O)[C@H](O)[C@@H]2O)c(-c2ccc(O)c(O)c2)oc2cc(O)cc(O)c12
REMARK SMILES IDX 4 1 3 2 16 3 25 4 2 5 26 6 1 7 33 8 27 9 31 10 28 11 30 12
REMARK SMILES IDX 17 13 18 14 19 15 20 16 24 17 22 18 21 19 23 21 32 23 29 25
REMARK SMILES IDX 5 27 14 28 6 29 12 30 7 31 10 32 15 33 13 35 8 37 9 38 11 40
REMARK H PARENT 21 20 23 22 32 24 29 26 15 34 13 36 9 39 11 41
REMARK Flexibility Score: inf
ROOT
ATOM      1  O   UNL     1     -38.053   6.018  79.466  1.00  0.00    -0.454 OA
ENDROOT
BRANCH   1   2
ATOM      2  C   UNL     1     -38.070   5.022  80.466  1.00  0.00     0.214 A 
ATOM      3  C   UNL     1     -36.858   4.716  81.116  1.00  0.00     0.180 A 
ATOM      4  O   UNL     1     -36.833   3.844  82.117  1.00  0.00    -0.452 OA
ATOM      5  C   UNL     1     -39.238   4.337  80.879  1.00  0.00     0.239 A 
ATOM      6  C   UNL     1     -37.906   3.193  82.544  1.00  0.00     0.146 A 
ATOM      7  O   UNL     1     -40.341   4.556  80.312  1.00  0.00    -0.285 OA
ATOM      8  C   UNL     1     -39.164   3.404  81.936  1.00  0.00     0.111 A 
ATOM      9  C   UNL     1     -37.776   2.291  83.604  1.00  0.00     0.094 A 
ATOM     10  C   UNL     1     -40.287   2.681  82.412  1.00  0.00     0.134 A 
ATOM     11  C   UNL     1     -38.888   1.582  84.071  1.00  0.00     0.123 A 
ATOM     12  C   UNL     1     -40.136   1.778  83.474  1.00  0.00     0.093 A 
BRANCH   3  13
ATOM     13  C   UNL     1     -35.586   5.355  80.725  1.00  0.00     0.025 A 
ATOM     14  C   UNL     1     -34.669   4.653  79.930  1.00  0.00     0.016 A 
ATOM     15  C   UNL     1     -33.471   5.254  79.537  1.00  0.00     0.051 A 
ATOM     16  C   UNL     1     -33.180   6.568  79.917  1.00  0.00     0.157 A 
ATOM     17  C   UNL     1     -35.306   6.683  81.085  1.00  0.00     0.062 A 
ATOM     18  C   UNL     1     -34.106   7.290  80.692  1.00  0.00     0.158 A 
BRANCH  16  19
ATOM     19  O   UNL     1     -31.976   7.141  79.514  1.00  0.00    -0.504 OA
ATOM     20  H   UNL     1     -31.564   7.928  80.001  1.00  0.00     0.293 HD
ENDBRANCH  16  19
BRANCH  18  21
ATOM     21  O   UNL     1     -33.831   8.606  81.061  1.00  0.00    -0.504 OA
ATOM     22  H   UNL     1     -34.489   9.153  81.604  1.00  0.00     0.293 HD
ENDBRANCH  18  21
ENDBRANCH   3  13
BRANCH  10  23
ATOM     23  O   UNL     1     -41.549   2.854  81.841  1.00  0.00    -0.507 OA
ATOM     24  H   UNL     1     -42.395   2.582  82.326  1.00  0.00     0.293 HD
ENDBRANCH  10  23
BRANCH  11  25
ATOM     25  O   UNL     1     -38.765   0.681  85.124  1.00  0.00    -0.508 OA
ATOM     26  H   UNL     1     -39.554   0.132  85.448  1.00  0.00     0.293 HD
ENDBRANCH  11  25
ENDBRANCH   1   2
BRANCH   1  27
ATOM     27  C   UNL     1     -37.661   5.861  78.096  1.00  0.00     0.339 C 
ATOM     28  C   UNL     1     -38.864   6.059  77.150  1.00  0.00     0.214 C 
ATOM     29  O   UNL     1     -36.597   6.736  77.755  1.00  0.00    -0.332 OA
ATOM     30  C   UNL     1     -39.314   7.530  77.122  1.00  0.00     0.180 C 
ATOM     31  C   UNL     1     -36.971   8.099  77.890  1.00  0.00     0.179 C 
ATOM     32  C   UNL     1     -38.100   8.447  76.890  1.00  0.00     0.177 C 
BRANCH  28  33
ATOM     33  O   UNL     1     -39.935   5.238  77.538  1.00  0.00    -0.384 OA
ATOM     34  H   UNL     1     -40.764   5.669  77.201  1.00  0.00     0.211 HD
ENDBRANCH  28  33
BRANCH  30  35
ATOM     35  O   UNL     1     -39.947   7.879  78.327  1.00  0.00    -0.387 OA
ATOM     36  H   UNL     1     -39.689   7.196  79.000  1.00  0.00     0.211 HD
ENDBRANCH  30  35
BRANCH  31  37
ATOM     37  C   UNL     1     -35.716   8.953  77.641  1.00  0.00     0.191 C 
BRANCH  37  38
ATOM     38  O   UNL     1     -35.454   9.802  78.726  1.00  0.00    -0.394 OA
ATOM     39  H   UNL     1     -34.664   9.428  79.196  1.00  0.00     0.210 HD
ENDBRANCH  37  38
ENDBRANCH  31  37
BRANCH  32  40
ATOM     40  O   UNL     1     -38.485   9.790  77.040  1.00  0.00    -0.387 OA
ATOM     41  H   UNL     1     -38.246  10.254  76.196  1.00  0.00     0.211 HD
ENDBRANCH  32  40
ENDBRANCH   1  27
TORSDOF 12
ENDMDL
