MODEL 1
REMARK VINA RESULT:    -7.033      0.000      0.000
REMARK INTER + INTRA:         -14.227
REMARK INTER:                 -11.555
REMARK INTRA:                  -2.672
REMARK UNBOUND:                -2.672
REMARK SMILES C[C@@H]1O[C@H](OC[C@H]2O[C@@H](Oc3c(-c4ccc(O)c(O)c4)oc4cc(O)cc(O)c4c3=O)[C@@H](O)[C@@H](O)[C@H]2O)[C@H](O)[C@@H](O)[C@@H]1O
REMARK SMILES IDX 7 1 36 2 34 3 32 4 9 5 8 6 6 7 5 8 4 9 1 10 2 11 42 12 3 13
REMARK SMILES IDX 40 14 38 15 43 16 41 18 39 20 37 22 35 24 10 26 11 27 12 28
REMARK SMILES IDX 30 29 21 30 29 31 31 32 22 33 27 34 23 35 26 36 24 37 13 38
REMARK SMILES IDX 20 39 14 40 18 41 15 42 16 43 19 44 17 46 28 48 25 50 33 52
REMARK H PARENT 43 17 41 19 39 21 37 23 35 25 19 45 17 47 28 49 25 51 33 53
REMARK Flexibility Score: inf
ROOT
ATOM      1  C   UNL     1      28.147  11.631  26.858  1.00  0.00     0.180 C 
ATOM      2  C   UNL     1      27.285  12.564  27.778  1.00  0.00     0.177 C 
ATOM      3  C   UNL     1      28.113  13.334  28.847  1.00  0.00     0.180 C 
ATOM      4  C   UNL     1      29.441  12.617  29.179  1.00  0.00     0.214 C 
ATOM      5  C   UNL     1      29.279  11.102  28.913  1.00  0.00     0.339 C 
ATOM      6  O   UNL     1      29.116  10.828  27.535  1.00  0.00    -0.332 OA
ENDROOT
BRANCH   1   7
ATOM      7  C   UNL     1      28.856  12.355  25.700  1.00  0.00     0.198 C 
BRANCH   7   8
ATOM      8  O   UNL     1      29.635  11.408  24.991  1.00  0.00    -0.347 OA
BRANCH   8   9
ATOM      9  C   UNL     1      29.074  11.093  23.728  1.00  0.00     0.281 C 
ATOM     10  C   UNL     1      32.083  11.864  23.605  1.00  0.00     0.041 C 
ATOM     11  C   UNL     1      31.135  11.315  22.522  1.00  0.00     0.150 C 
ATOM     12  C   UNL     1      31.246   9.786  22.322  1.00  0.00     0.174 C 
ATOM     13  O   UNL     1      29.786  11.759  22.688  1.00  0.00    -0.344 OA
ATOM     14  C   UNL     1      30.484   9.023  23.422  1.00  0.00     0.179 C 
ATOM     15  C   UNL     1      29.053   9.567  23.520  1.00  0.00     0.202 C 
BRANCH  12  16
ATOM     16  O   UNL     1      32.597   9.389  22.296  1.00  0.00    -0.388 OA
ATOM     17  H   UNL     1      33.020   9.820  21.511  1.00  0.00     0.211 HD
ENDBRANCH  12  16
BRANCH  14  18
ATOM     18  O   UNL     1      30.470   7.637  23.163  1.00  0.00    -0.387 OA
ATOM     19  H   UNL     1      30.384   7.510  22.181  1.00  0.00     0.211 HD
ENDBRANCH  14  18
BRANCH  15  20
ATOM     20  O   UNL     1      28.381   8.943  24.586  1.00  0.00    -0.385 OA
ATOM     21  H   UNL     1      27.712   8.327  24.184  1.00  0.00     0.211 HD
ENDBRANCH  15  20
ENDBRANCH   8   9
ENDBRANCH   7   8
ENDBRANCH   1   7
BRANCH   2  22
ATOM     22  O   UNL     1      26.413  13.407  27.062  1.00  0.00    -0.387 OA
ATOM     23  H   UNL     1      25.946  13.998  27.710  1.00  0.00     0.211 HD
ENDBRANCH   2  22
BRANCH   3  24
ATOM     24  O   UNL     1      28.316  14.691  28.520  1.00  0.00    -0.387 OA
ATOM     25  H   UNL     1      29.091  15.026  29.033  1.00  0.00     0.211 HD
ENDBRANCH   3  24
BRANCH   5  26
ATOM     26  O   UNL     1      30.453  10.450  29.394  1.00  0.00    -0.454 OA
BRANCH  26  27
ATOM     27  C   UNL     1      30.491   9.597  30.505  1.00  0.00     0.214 A 
ATOM     28  C   UNL     1      30.439   8.203  30.306  1.00  0.00     0.180 A 
ATOM     29  C   UNL     1      30.580  10.092  31.820  1.00  0.00     0.239 A 
ATOM     30  O   UNL     1      30.523   7.384  31.350  1.00  0.00    -0.452 OA
ATOM     31  C   UNL     1      30.673   9.189  32.898  1.00  0.00     0.111 A 
ATOM     32  O   UNL     1      30.538  11.332  32.024  1.00  0.00    -0.285 OA
ATOM     33  C   UNL     1      30.637   7.806  32.604  1.00  0.00     0.146 A 
ATOM     34  C   UNL     1      30.792   9.601  34.247  1.00  0.00     0.134 A 
ATOM     35  C   UNL     1      30.711   6.865  33.635  1.00  0.00     0.094 A 
ATOM     36  C   UNL     1      30.865   8.642  35.269  1.00  0.00     0.093 A 
ATOM     37  C   UNL     1      30.819   7.279  34.968  1.00  0.00     0.123 A 
BRANCH  28  38
ATOM     38  C   UNL     1      30.323   7.597  28.955  1.00  0.00     0.025 A 
ATOM     39  C   UNL     1      29.049   7.407  28.394  1.00  0.00     0.062 A 
ATOM     40  C   UNL     1      31.457   7.240  28.203  1.00  0.00     0.016 A 
ATOM     41  C   UNL     1      28.905   6.836  27.124  1.00  0.00     0.158 A 
ATOM     42  C   UNL     1      31.315   6.663  26.937  1.00  0.00     0.051 A 
ATOM     43  C   UNL     1      30.040   6.457  26.393  1.00  0.00     0.157 A 
BRANCH  41  44
ATOM     44  O   UNL     1      27.622   6.648  26.611  1.00  0.00    -0.504 OA
ATOM     45  H   UNL     1      26.887   6.204  27.149  1.00  0.00     0.293 HD
ENDBRANCH  41  44
BRANCH  43  46
ATOM     46  O   UNL     1      29.900   5.875  25.134  1.00  0.00    -0.504 OA
ATOM     47  H   UNL     1      30.507   6.131  24.366  1.00  0.00     0.293 HD
ENDBRANCH  43  46
ENDBRANCH  28  38
BRANCH  34  48
ATOM     48  O   UNL     1      30.847  10.955  34.580  1.00  0.00    -0.507 OA
ATOM     49  H   UNL     1      30.745  11.680  33.879  1.00  0.00     0.293 HD
ENDBRANCH  34  48
BRANCH  37  50
ATOM     50  O   UNL     1      30.880   6.344  36.003  1.00  0.00    -0.508 OA
ATOM     51  H   UNL     1      31.159   6.607  36.936  1.00  0.00     0.293 HD
ENDBRANCH  37  50
ENDBRANCH  26  27
ENDBRANCH   5  26
BRANCH   4  52
ATOM     52  O   UNL     1      30.526  13.196  28.482  1.00  0.00    -0.384 OA
ATOM     53  H   UNL     1      30.203  13.845  27.798  1.00  0.00     0.211 HD
ENDBRANCH   4  52
TORSDOF 16
ENDMDL
MODEL 2
REMARK VINA RESULT:    -6.983      2.312      5.547
REMARK INTER + INTRA:         -14.146
REMARK INTER:                 -11.709
REMARK INTRA:                  -2.437
REMARK UNBOUND:                -2.672
REMARK SMILES C[C@@H]1O[C@H](OC[C@H]2O[C@@H](Oc3c(-c4ccc(O)c(O)c4)oc4cc(O)cc(O)c4c3=O)[C@@H](O)[C@@H](O)[C@H]2O)[C@H](O)[C@@H](O)[C@@H]1O
REMARK SMILES IDX 7 1 36 2 34 3 32 4 9 5 8 6 6 7 5 8 4 9 1 10 2 11 42 12 3 13
REMARK SMILES IDX 40 14 38 15 43 16 41 18 39 20 37 22 35 24 10 26 11 27 12 28
REMARK SMILES IDX 30 29 21 30 29 31 31 32 22 33 27 34 23 35 26 36 24 37 13 38
REMARK SMILES IDX 20 39 14 40 18 41 15 42 16 43 19 44 17 46 28 48 25 50 33 52
REMARK H PARENT 43 17 41 19 39 21 37 23 35 25 19 45 17 47 28 49 25 51 33 53
REMARK Flexibility Score: inf
ROOT
ATOM      1  C   UNL     1      29.953  10.666  23.983  1.00  0.00     0.180 C 
ATOM      2  C   UNL     1      31.267   9.905  23.590  1.00  0.00     0.177 C 
ATOM      3  C   UNL     1      31.242   8.387  23.931  1.00  0.00     0.180 C 
ATOM      4  C   UNL     1      30.248   8.065  25.069  1.00  0.00     0.214 C 
ATOM      5  C   UNL     1      30.085   9.313  25.968  1.00  0.00     0.339 C 
ATOM      6  O   UNL     1      29.438  10.368  25.282  1.00  0.00    -0.332 OA
ENDROOT
BRANCH   1   7
ATOM      7  C   UNL     1      28.803  10.519  22.971  1.00  0.00     0.198 C 
BRANCH   7   8
ATOM      8  O   UNL     1      28.219  11.793  22.770  1.00  0.00    -0.347 OA
BRANCH   8   9
ATOM      9  C   UNL     1      29.073  12.667  22.051  1.00  0.00     0.281 C 
ATOM     10  C   UNL     1      26.381  12.081  20.611  1.00  0.00     0.041 C 
ATOM     11  C   UNL     1      27.514  13.069  20.274  1.00  0.00     0.150 C 
ATOM     12  C   UNL     1      27.242  14.510  20.765  1.00  0.00     0.174 C 
ATOM     13  O   UNL     1      28.804  12.584  20.654  1.00  0.00    -0.344 OA
ATOM     14  C   UNL     1      27.526  14.647  22.273  1.00  0.00     0.179 C 
ATOM     15  C   UNL     1      28.928  14.107  22.578  1.00  0.00     0.202 C 
BRANCH  12  16
ATOM     16  O   UNL     1      25.915  14.885  20.480  1.00  0.00    -0.388 OA
ATOM     17  H   UNL     1      25.555  14.237  19.824  1.00  0.00     0.211 HD
ENDBRANCH  12  16
BRANCH  14  18
ATOM     18  O   UNL     1      27.410  15.989  22.692  1.00  0.00    -0.387 OA
ATOM     19  H   UNL     1      27.047  16.516  21.931  1.00  0.00     0.211 HD
ENDBRANCH  14  18
BRANCH  15  20
ATOM     20  O   UNL     1      29.157  14.140  23.965  1.00  0.00    -0.385 OA
ATOM     21  H   UNL     1      30.142  14.178  24.094  1.00  0.00     0.211 HD
ENDBRANCH  15  20
ENDBRANCH   8   9
ENDBRANCH   7   8
ENDBRANCH   1   7
BRANCH   2  22
ATOM     22  O   UNL     1      31.685  10.153  22.267  1.00  0.00    -0.387 OA
ATOM     23  H   UNL     1      32.143  11.034  22.244  1.00  0.00     0.211 HD
ENDBRANCH   2  22
BRANCH   3  24
ATOM     24  O   UNL     1      31.031   7.568  22.802  1.00  0.00    -0.387 OA
ATOM     25  H   UNL     1      31.456   6.691  22.966  1.00  0.00     0.211 HD
ENDBRANCH   3  24
BRANCH   5  26
ATOM     26  O   UNL     1      29.306   8.933  27.101  1.00  0.00    -0.454 OA
BRANCH  26  27
ATOM     27  C   UNL     1      29.717   9.080  28.433  1.00  0.00     0.214 A 
ATOM     28  C   UNL     1      29.535  10.320  29.077  1.00  0.00     0.180 A 
ATOM     29  C   UNL     1      30.306   8.023  29.151  1.00  0.00     0.239 A 
ATOM     30  O   UNL     1      29.877  10.456  30.354  1.00  0.00    -0.452 OA
ATOM     31  C   UNL     1      30.647   8.208  30.506  1.00  0.00     0.111 A 
ATOM     32  O   UNL     1      30.557   6.936  28.569  1.00  0.00    -0.285 OA
ATOM     33  C   UNL     1      30.409   9.478  31.078  1.00  0.00     0.146 A 
ATOM     34  C   UNL     1      31.219   7.189  31.308  1.00  0.00     0.134 A 
ATOM     35  C   UNL     1      30.740   9.722  32.414  1.00  0.00     0.094 A 
ATOM     36  C   UNL     1      31.545   7.454  32.647  1.00  0.00     0.093 A 
ATOM     37  C   UNL     1      31.314   8.715  33.199  1.00  0.00     0.123 A 
BRANCH  28  38
ATOM     38  C   UNL     1      28.942  11.494  28.388  1.00  0.00     0.025 A 
ATOM     39  C   UNL     1      29.779  12.546  27.977  1.00  0.00     0.062 A 
ATOM     40  C   UNL     1      27.567  11.568  28.100  1.00  0.00     0.016 A 
ATOM     41  C   UNL     1      29.251  13.668  27.327  1.00  0.00     0.158 A 
ATOM     42  C   UNL     1      27.037  12.691  27.456  1.00  0.00     0.051 A 
ATOM     43  C   UNL     1      27.875  13.745  27.070  1.00  0.00     0.157 A 
BRANCH  41  44
ATOM     44  O   UNL     1      30.113  14.698  26.953  1.00  0.00    -0.504 OA
ATOM     45  H   UNL     1      29.913  15.311  26.172  1.00  0.00     0.293 HD
ENDBRANCH  41  44
BRANCH  43  46
ATOM     46  O   UNL     1      27.344  14.868  26.436  1.00  0.00    -0.504 OA
ATOM     47  H   UNL     1      26.864  14.792  25.548  1.00  0.00     0.293 HD
ENDBRANCH  43  46
ENDBRANCH  28  38
BRANCH  34  48
ATOM     48  O   UNL     1      31.456   5.917  30.787  1.00  0.00    -0.507 OA
ATOM     49  H   UNL     1      32.394   5.590  30.587  1.00  0.00     0.293 HD
ENDBRANCH  34  48
BRANCH  37  50
ATOM     50  O   UNL     1      31.660   8.957  34.529  1.00  0.00    -0.508 OA
ATOM     51  H   UNL     1      32.003   8.221  35.128  1.00  0.00     0.293 HD
ENDBRANCH  37  50
ENDBRANCH  26  27
ENDBRANCH   5  26
BRANCH   4  52
ATOM     52  O   UNL     1      29.024   7.576  24.560  1.00  0.00    -0.384 OA
ATOM     53  H   UNL     1      28.259   7.877  25.124  1.00  0.00     0.211 HD
ENDBRANCH   4  52
TORSDOF 16
ENDMDL
MODEL 3
REMARK VINA RESULT:    -6.667      3.436      7.199
REMARK INTER + INTRA:         -13.627
REMARK INTER:                 -11.361
REMARK INTRA:                  -2.266
REMARK UNBOUND:                -2.672
REMARK SMILES C[C@@H]1O[C@H](OC[C@H]2O[C@@H](Oc3c(-c4ccc(O)c(O)c4)oc4cc(O)cc(O)c4c3=O)[C@@H](O)[C@@H](O)[C@H]2O)[C@H](O)[C@@H](O)[C@@H]1O
REMARK SMILES IDX 7 1 36 2 34 3 32 4 9 5 8 6 6 7 5 8 4 9 1 10 2 11 42 12 3 13
REMARK SMILES IDX 40 14 38 15 43 16 41 18 39 20 37 22 35 24 10 26 11 27 12 28
REMARK SMILES IDX 30 29 21 30 29 31 31 32 22 33 27 34 23 35 26 36 24 37 13 38
REMARK SMILES IDX 20 39 14 40 18 41 15 42 16 43 19 44 17 46 28 48 25 50 33 52
REMARK H PARENT 43 17 41 19 39 21 37 23 35 25 19 45 17 47 28 49 25 51 33 53
REMARK Flexibility Score: inf
ROOT
ATOM      1  C   UNL     1      27.887  13.313  25.835  1.00  0.00     0.180 C 
ATOM      2  C   UNL     1      28.593  14.651  25.421  1.00  0.00     0.177 C 
ATOM      3  C   UNL     1      28.940  15.578  26.621  1.00  0.00     0.180 C 
ATOM      4  C   UNL     1      28.034  15.307  27.844  1.00  0.00     0.214 C 
ATOM      5  C   UNL     1      26.683  14.734  27.357  1.00  0.00     0.339 C 
ATOM      6  O   UNL     1      26.835  13.446  26.793  1.00  0.00    -0.332 OA
ENDROOT
BRANCH   1   7
ATOM      7  C   UNL     1      28.843  12.213  26.331  1.00  0.00     0.198 C 
BRANCH   7   8
ATOM      8  O   UNL     1      29.561  11.711  25.219  1.00  0.00    -0.347 OA
BRANCH   8   9
ATOM      9  C   UNL     1      30.208  10.483  25.509  1.00  0.00     0.281 C 
ATOM     10  C   UNL     1      27.967  10.241  23.369  1.00  0.00     0.041 C 
ATOM     11  C   UNL     1      29.004   9.217  23.867  1.00  0.00     0.150 C 
ATOM     12  C   UNL     1      30.251   9.109  22.958  1.00  0.00     0.174 C 
ATOM     13  O   UNL     1      29.335   9.387  25.247  1.00  0.00    -0.344 OA
ATOM     14  C   UNL     1      31.228  10.273  23.212  1.00  0.00     0.179 C 
ATOM     15  C   UNL     1      31.522  10.371  24.714  1.00  0.00     0.202 C 
BRANCH  12  16
ATOM     16  O   UNL     1      29.870   9.076  21.602  1.00  0.00    -0.388 OA
ATOM     17  H   UNL     1      29.997   9.986  21.233  1.00  0.00     0.211 HD
ENDBRANCH  12  16
BRANCH  14  18
ATOM     18  O   UNL     1      32.423  10.101  22.483  1.00  0.00    -0.387 OA
ATOM     19  H   UNL     1      32.876  10.985  22.427  1.00  0.00     0.211 HD
ENDBRANCH  14  18
BRANCH  15  20
ATOM     20  O   UNL     1      32.336  11.490  24.964  1.00  0.00    -0.385 OA
ATOM     21  H   UNL     1      31.936  12.254  24.470  1.00  0.00     0.211 HD
ENDBRANCH  15  20
ENDBRANCH   8   9
ENDBRANCH   7   8
ENDBRANCH   1   7
BRANCH   2  22
ATOM     22  O   UNL     1      29.685  14.463  24.552  1.00  0.00    -0.387 OA
ATOM     23  H   UNL     1      30.507  14.784  25.008  1.00  0.00     0.211 HD
ENDBRANCH   2  22
BRANCH   3  24
ATOM     24  O   UNL     1      30.307  15.554  26.964  1.00  0.00    -0.387 OA
ATOM     25  H   UNL     1      30.840  15.685  26.144  1.00  0.00     0.211 HD
ENDBRANCH   3  24
BRANCH   5  26
ATOM     26  O   UNL     1      25.811  14.662  28.484  1.00  0.00    -0.454 OA
BRANCH  26  27
ATOM     27  C   UNL     1      24.747  13.759  28.609  1.00  0.00     0.214 A 
ATOM     28  C   UNL     1      24.893  12.636  29.448  1.00  0.00     0.180 A 
ATOM     29  C   UNL     1      23.532  13.940  27.922  1.00  0.00     0.239 A 
ATOM     30  O   UNL     1      23.873  11.799  29.612  1.00  0.00    -0.452 OA
ATOM     31  C   UNL     1      22.474  13.032  28.130  1.00  0.00     0.111 A 
ATOM     32  O   UNL     1      23.414  14.887  27.103  1.00  0.00    -0.285 OA
ATOM     33  C   UNL     1      22.700  11.947  29.007  1.00  0.00     0.146 A 
ATOM     34  C   UNL     1      21.211  13.156  27.500  1.00  0.00     0.134 A 
ATOM     35  C   UNL     1      21.690  11.008  29.239  1.00  0.00     0.094 A 
ATOM     36  C   UNL     1      20.211  12.203  27.746  1.00  0.00     0.093 A 
ATOM     37  C   UNL     1      20.448  11.129  28.606  1.00  0.00     0.123 A 
BRANCH  28  38
ATOM     38  C   UNL     1      26.147  12.357  30.192  1.00  0.00     0.025 A 
ATOM     39  C   UNL     1      26.283  12.827  31.510  1.00  0.00     0.062 A 
ATOM     40  C   UNL     1      27.191  11.601  29.629  1.00  0.00     0.016 A 
ATOM     41  C   UNL     1      27.454  12.583  32.238  1.00  0.00     0.158 A 
ATOM     42  C   UNL     1      28.363  11.362  30.353  1.00  0.00     0.051 A 
ATOM     43  C   UNL     1      28.500  11.853  31.658  1.00  0.00     0.157 A 
BRANCH  41  44
ATOM     44  O   UNL     1      27.556  13.084  33.536  1.00  0.00    -0.504 OA
ATOM     45  H   UNL     1      27.265  14.024  33.774  1.00  0.00     0.293 HD
ENDBRANCH  41  44
BRANCH  43  46
ATOM     46  O   UNL     1      29.673  11.621  32.376  1.00  0.00    -0.504 OA
ATOM     47  H   UNL     1      29.648  11.369  33.356  1.00  0.00     0.293 HD
ENDBRANCH  43  46
ENDBRANCH  28  38
BRANCH  34  48
ATOM     48  O   UNL     1      20.942  14.221  26.641  1.00  0.00    -0.507 OA
ATOM     49  H   UNL     1      19.998  14.557  26.488  1.00  0.00     0.293 HD
ENDBRANCH  34  48
BRANCH  37  50
ATOM     50  O   UNL     1      19.441  10.187  28.823  1.00  0.00    -0.508 OA
ATOM     51  H   UNL     1      19.197   9.503  28.123  1.00  0.00     0.293 HD
ENDBRANCH  37  50
ENDBRANCH  26  27
ENDBRANCH   5  26
BRANCH   4  52
ATOM     52  O   UNL     1      28.683  14.484  28.791  1.00  0.00    -0.384 OA
ATOM     53  H   UNL     1      28.079  13.754  29.102  1.00  0.00     0.211 HD
ENDBRANCH   4  52
TORSDOF 16
ENDMDL
MODEL 4
REMARK VINA RESULT:    -6.657      1.759      5.038
REMARK INTER + INTRA:         -13.610
REMARK INTER:                 -11.276
REMARK INTRA:                  -2.333
REMARK UNBOUND:                -2.672
REMARK SMILES C[C@@H]1O[C@H](OC[C@H]2O[C@@H](Oc3c(-c4ccc(O)c(O)c4)oc4cc(O)cc(O)c4c3=O)[C@@H](O)[C@@H](O)[C@H]2O)[C@H](O)[C@@H](O)[C@@H]1O
REMARK SMILES IDX 7 1 36 2 34 3 32 4 9 5 8 6 6 7 5 8 4 9 1 10 2 11 42 12 3 13
REMARK SMILES IDX 40 14 38 15 43 16 41 18 39 20 37 22 35 24 10 26 11 27 12 28
REMARK SMILES IDX 30 29 21 30 29 31 31 32 22 33 27 34 23 35 26 36 24 37 13 38
REMARK SMILES IDX 20 39 14 40 18 41 15 42 16 43 19 44 17 46 28 48 25 50 33 52
REMARK H PARENT 43 17 41 19 39 21 37 23 35 25 19 45 17 47 28 49 25 51 33 53
REMARK Flexibility Score: inf
ROOT
ATOM      1  C   UNL     1      29.986   9.669  24.815  1.00  0.00     0.180 C 
ATOM      2  C   UNL     1      30.763   8.319  24.631  1.00  0.00     0.177 C 
ATOM      3  C   UNL     1      30.125   7.117  25.387  1.00  0.00     0.180 C 
ATOM      4  C   UNL     1      29.266   7.576  26.586  1.00  0.00     0.214 C 
ATOM      5  C   UNL     1      29.796   8.936  27.099  1.00  0.00     0.339 C 
ATOM      6  O   UNL     1      29.585   9.968  26.154  1.00  0.00    -0.332 OA
ENDROOT
BRANCH   1   7
ATOM      7  C   UNL     1      28.755   9.827  23.905  1.00  0.00     0.198 C 
BRANCH   7   8
ATOM      8  O   UNL     1      29.056  10.788  22.910  1.00  0.00    -0.347 OA
BRANCH   8   9
ATOM      9  C   UNL     1      28.623  12.088  23.273  1.00  0.00     0.281 C 
ATOM     10  C   UNL     1      31.584  11.971  22.336  1.00  0.00     0.041 C 
ATOM     11  C   UNL     1      30.676  13.170  22.670  1.00  0.00     0.150 C 
ATOM     12  C   UNL     1      30.031  13.821  21.425  1.00  0.00     0.174 C 
ATOM     13  O   UNL     1      29.729  12.879  23.701  1.00  0.00    -0.344 OA
ATOM     14  C   UNL     1      28.823  13.002  20.931  1.00  0.00     0.179 C 
ATOM     15  C   UNL     1      27.868  12.746  22.103  1.00  0.00     0.202 C 
BRANCH  12  16
ATOM     16  O   UNL     1      30.981  13.965  20.396  1.00  0.00    -0.388 OA
ATOM     17  H   UNL     1      31.806  13.499  20.683  1.00  0.00     0.211 HD
ENDBRANCH  12  16
BRANCH  14  18
ATOM     18  O   UNL     1      28.154  13.666  19.882  1.00  0.00    -0.387 OA
ATOM     19  H   UNL     1      27.234  13.293  19.822  1.00  0.00     0.211 HD
ENDBRANCH  14  18
BRANCH  15  20
ATOM     20  O   UNL     1      26.813  11.917  21.681  1.00  0.00    -0.385 OA
ATOM     21  H   UNL     1      27.146  11.403  20.898  1.00  0.00     0.211 HD
ENDBRANCH  15  20
ENDBRANCH   8   9
ENDBRANCH   7   8
ENDBRANCH   1   7
BRANCH   2  22
ATOM     22  O   UNL     1      31.052   8.017  23.286  1.00  0.00    -0.387 OA
ATOM     23  H   UNL     1      30.899   8.833  22.742  1.00  0.00     0.211 HD
ENDBRANCH   2  22
BRANCH   3  24
ATOM     24  O   UNL     1      29.417   6.240  24.538  1.00  0.00    -0.387 OA
ATOM     25  H   UNL     1      29.055   5.501  25.083  1.00  0.00     0.211 HD
ENDBRANCH   3  24
BRANCH   5  26
ATOM     26  O   UNL     1      29.102   9.245  28.306  1.00  0.00    -0.454 OA
BRANCH  26  27
ATOM     27  C   UNL     1      29.723   9.586  29.515  1.00  0.00     0.214 A 
ATOM     28  C   UNL     1      29.734  10.933  29.928  1.00  0.00     0.180 A 
ATOM     29  C   UNL     1      30.338   8.620  30.334  1.00  0.00     0.239 A 
ATOM     30  O   UNL     1      30.277  11.260  31.096  1.00  0.00    -0.452 OA
ATOM     31  C   UNL     1      30.897   9.009  31.568  1.00  0.00     0.111 A 
ATOM     32  O   UNL     1      30.416   7.428  29.941  1.00  0.00    -0.285 OA
ATOM     33  C   UNL     1      30.842  10.379  31.913  1.00  0.00     0.146 A 
ATOM     34  C   UNL     1      31.510   8.098  32.463  1.00  0.00     0.134 A 
ATOM     35  C   UNL     1      31.393  10.823  33.119  1.00  0.00     0.094 A 
ATOM     36  C   UNL     1      32.058   8.564  33.668  1.00  0.00     0.093 A 
ATOM     37  C   UNL     1      32.007   9.920  33.995  1.00  0.00     0.123 A 
BRANCH  28  38
ATOM     38  C   UNL     1      29.127  12.018  29.116  1.00  0.00     0.025 A 
ATOM     39  C   UNL     1      29.886  12.621  28.098  1.00  0.00     0.062 A 
ATOM     40  C   UNL     1      27.799  12.437  29.311  1.00  0.00     0.016 A 
ATOM     41  C   UNL     1      29.345  13.649  27.316  1.00  0.00     0.158 A 
ATOM     42  C   UNL     1      27.259  13.467  28.535  1.00  0.00     0.051 A 
ATOM     43  C   UNL     1      28.029  14.078  27.537  1.00  0.00     0.157 A 
BRANCH  41  44
ATOM     44  O   UNL     1      30.139  14.234  26.330  1.00  0.00    -0.504 OA
ATOM     45  H   UNL     1      31.123  14.018  26.233  1.00  0.00     0.293 HD
ENDBRANCH  41  44
BRANCH  43  46
ATOM     46  O   UNL     1      27.493  15.111  26.769  1.00  0.00    -0.504 OA
ATOM     47  H   UNL     1      27.549  15.099  25.759  1.00  0.00     0.293 HD
ENDBRANCH  43  46
ENDBRANCH  28  38
BRANCH  34  48
ATOM     48  O   UNL     1      31.572   6.736  32.167  1.00  0.00    -0.507 OA
ATOM     49  H   UNL     1      32.380   6.325  31.716  1.00  0.00     0.293 HD
ENDBRANCH  34  48
BRANCH  37  50
ATOM     50  O   UNL     1      32.571  10.360  35.194  1.00  0.00    -0.508 OA
ATOM     51  H   UNL     1      32.060  10.949  35.833  1.00  0.00     0.293 HD
ENDBRANCH  37  50
ENDBRANCH  26  27
ENDBRANCH   5  26
BRANCH   4  52
ATOM     52  O   UNL     1      27.892   7.599  26.255  1.00  0.00    -0.384 OA
ATOM     53  H   UNL     1      27.546   8.534  26.235  1.00  0.00     0.211 HD
ENDBRANCH   4  52
TORSDOF 16
ENDMDL
MODEL 5
REMARK VINA RESULT:    -6.420      2.257      3.661
REMARK INTER + INTRA:         -13.220
REMARK INTER:                 -10.351
REMARK INTRA:                  -2.869
REMARK UNBOUND:                -2.672
REMARK SMILES C[C@@H]1O[C@H](OC[C@H]2O[C@@H](Oc3c(-c4ccc(O)c(O)c4)oc4cc(O)cc(O)c4c3=O)[C@@H](O)[C@@H](O)[C@H]2O)[C@H](O)[C@@H](O)[C@@H]1O
REMARK SMILES IDX 7 1 36 2 34 3 32 4 9 5 8 6 6 7 5 8 4 9 1 10 2 11 42 12 3 13
REMARK SMILES IDX 40 14 38 15 43 16 41 18 39 20 37 22 35 24 10 26 11 27 12 28
REMARK SMILES IDX 30 29 21 30 29 31 31 32 22 33 27 34 23 35 26 36 24 37 13 38
REMARK SMILES IDX 20 39 14 40 18 41 15 42 16 43 19 44 17 46 28 48 25 50 33 52
REMARK H PARENT 43 17 41 19 39 21 37 23 35 25 19 45 17 47 28 49 25 51 33 53
REMARK Flexibility Score: inf
ROOT
ATOM      1  C   UNL     1      27.084  14.146  25.253  1.00  0.00     0.180 C 
ATOM      2  C   UNL     1      26.775  15.210  26.362  1.00  0.00     0.177 C 
ATOM      3  C   UNL     1      28.042  15.767  27.073  1.00  0.00     0.180 C 
ATOM      4  C   UNL     1      29.233  14.785  26.987  1.00  0.00     0.214 C 
ATOM      5  C   UNL     1      28.692  13.343  26.853  1.00  0.00     0.339 C 
ATOM      6  O   UNL     1      28.038  13.144  25.614  1.00  0.00    -0.332 OA
ENDROOT
BRANCH   1   7
ATOM      7  C   UNL     1      27.509  14.739  23.899  1.00  0.00     0.198 C 
BRANCH   7   8
ATOM      8  O   UNL     1      27.892  13.677  23.045  1.00  0.00    -0.347 OA
BRANCH   8   9
ATOM      9  C   UNL     1      28.143  14.116  21.721  1.00  0.00     0.281 C 
ATOM     10  C   UNL     1      30.640  12.930  23.141  1.00  0.00     0.041 C 
ATOM     11  C   UNL     1      30.424  13.378  21.684  1.00  0.00     0.150 C 
ATOM     12  C   UNL     1      30.088  12.213  20.723  1.00  0.00     0.174 C 
ATOM     13  O   UNL     1      29.514  14.475  21.569  1.00  0.00    -0.344 OA
ATOM     14  C   UNL     1      28.610  11.796  20.849  1.00  0.00     0.179 C 
ATOM     15  C   UNL     1      27.718  13.035  20.710  1.00  0.00     0.202 C 
BRANCH  12  16
ATOM     16  O   UNL     1      30.931  11.112  20.970  1.00  0.00    -0.388 OA
ATOM     17  H   UNL     1      31.401  11.281  21.825  1.00  0.00     0.211 HD
ENDBRANCH  12  16
BRANCH  14  18
ATOM     18  O   UNL     1      28.271  10.829  19.880  1.00  0.00    -0.387 OA
ATOM     19  H   UNL     1      28.550  11.177  18.991  1.00  0.00     0.211 HD
ENDBRANCH  14  18
BRANCH  15  20
ATOM     20  O   UNL     1      26.374  12.678  20.920  1.00  0.00    -0.385 OA
ATOM     21  H   UNL     1      26.357  11.694  21.061  1.00  0.00     0.211 HD
ENDBRANCH  15  20
ENDBRANCH   8   9
ENDBRANCH   7   8
ENDBRANCH   1   7
BRANCH   2  22
ATOM     22  O   UNL     1      25.906  16.232  25.932  1.00  0.00    -0.387 OA
ATOM     23  H   UNL     1      26.453  17.015  25.661  1.00  0.00     0.211 HD
ENDBRANCH   2  22
BRANCH   3  24
ATOM     24  O   UNL     1      28.397  17.062  26.641  1.00  0.00    -0.387 OA
ATOM     25  H   UNL     1      28.798  16.995  25.741  1.00  0.00     0.211 HD
ENDBRANCH   3  24
BRANCH   5  26
ATOM     26  O   UNL     1      29.801  12.452  26.955  1.00  0.00    -0.454 OA
BRANCH  26  27
ATOM     27  C   UNL     1      29.885  11.388  27.862  1.00  0.00     0.214 A 
ATOM     28  C   UNL     1      29.872  10.065  27.376  1.00  0.00     0.180 A 
ATOM     29  C   UNL     1      29.984  11.599  29.251  1.00  0.00     0.239 A 
ATOM     30  O   UNL     1      30.000   9.050  28.224  1.00  0.00    -0.452 OA
ATOM     31  C   UNL     1      30.125  10.494  30.114  1.00  0.00     0.111 A 
ATOM     32  O   UNL     1      29.909  12.768  29.710  1.00  0.00    -0.285 OA
ATOM     33  C   UNL     1      30.125   9.204  29.537  1.00  0.00     0.146 A 
ATOM     34  C   UNL     1      30.257  10.620  31.518  1.00  0.00     0.134 A 
ATOM     35  C   UNL     1      30.248   8.071  30.348  1.00  0.00     0.094 A 
ATOM     36  C   UNL     1      30.378   9.470  32.315  1.00  0.00     0.093 A 
ATOM     37  C   UNL     1      30.367   8.200  31.736  1.00  0.00     0.123 A 
BRANCH  28  38
ATOM     38  C   UNL     1      29.750   9.751  25.930  1.00  0.00     0.025 A 
ATOM     39  C   UNL     1      30.907   9.450  25.191  1.00  0.00     0.062 A 
ATOM     40  C   UNL     1      28.501   9.711  25.283  1.00  0.00     0.016 A 
ATOM     41  C   UNL     1      30.826   9.152  23.826  1.00  0.00     0.158 A 
ATOM     42  C   UNL     1      28.419   9.419  23.918  1.00  0.00     0.051 A 
ATOM     43  C   UNL     1      29.579   9.141  23.184  1.00  0.00     0.157 A 
BRANCH  41  44
ATOM     44  O   UNL     1      32.000   8.877  23.125  1.00  0.00    -0.504 OA
ATOM     45  H   UNL     1      32.257   9.383  22.287  1.00  0.00     0.293 HD
ENDBRANCH  41  44
BRANCH  43  46
ATOM     46  O   UNL     1      29.497   8.859  21.821  1.00  0.00    -0.504 OA
ATOM     47  H   UNL     1      30.061   9.360  21.146  1.00  0.00     0.293 HD
ENDBRANCH  43  46
ENDBRANCH  28  38
BRANCH  34  48
ATOM     48  O   UNL     1      30.277  11.875  32.126  1.00  0.00    -0.507 OA
ATOM     49  H   UNL     1      30.072  12.721  31.608  1.00  0.00     0.293 HD
ENDBRANCH  34  48
BRANCH  37  50
ATOM     50  O   UNL     1      30.476   7.072  32.551  1.00  0.00    -0.508 OA
ATOM     51  H   UNL     1      31.309   6.888  33.090  1.00  0.00     0.293 HD
ENDBRANCH  37  50
ENDBRANCH  26  27
ENDBRANCH   5  26
BRANCH   4  52
ATOM     52  O   UNL     1      30.125  15.148  25.953  1.00  0.00    -0.384 OA
ATOM     53  H   UNL     1      30.979  15.501  26.328  1.00  0.00     0.211 HD
ENDBRANCH   4  52
TORSDOF 16
ENDMDL
MODEL 6
REMARK VINA RESULT:    -6.413      3.786      6.060
REMARK INTER + INTRA:         -13.208
REMARK INTER:                 -10.717
REMARK INTRA:                  -2.491
REMARK UNBOUND:                -2.672
REMARK SMILES C[C@@H]1O[C@H](OC[C@H]2O[C@@H](Oc3c(-c4ccc(O)c(O)c4)oc4cc(O)cc(O)c4c3=O)[C@@H](O)[C@@H](O)[C@H]2O)[C@H](O)[C@@H](O)[C@@H]1O
REMARK SMILES IDX 7 1 36 2 34 3 32 4 9 5 8 6 6 7 5 8 4 9 1 10 2 11 42 12 3 13
REMARK SMILES IDX 40 14 38 15 43 16 41 18 39 20 37 22 35 24 10 26 11 27 12 28
REMARK SMILES IDX 30 29 21 30 29 31 31 32 22 33 27 34 23 35 26 36 24 37 13 38
REMARK SMILES IDX 20 39 14 40 18 41 15 42 16 43 19 44 17 46 28 48 25 50 33 52
REMARK H PARENT 43 17 41 19 39 21 37 23 35 25 19 45 17 47 28 49 25 51 33 53
REMARK Flexibility Score: inf
ROOT
ATOM      1  C   UNL     1      27.031  14.656  24.707  1.00  0.00     0.180 C 
ATOM      2  C   UNL     1      26.665  15.983  25.458  1.00  0.00     0.177 C 
ATOM      3  C   UNL     1      27.833  16.577  26.297  1.00  0.00     0.180 C 
ATOM      4  C   UNL     1      28.864  15.498  26.699  1.00  0.00     0.214 C 
ATOM      5  C   UNL     1      28.160  14.123  26.764  1.00  0.00     0.339 C 
ATOM      6  O   UNL     1      27.742  13.689  25.484  1.00  0.00    -0.332 OA
ENDROOT
BRANCH   1   7
ATOM      7  C   UNL     1      27.796  14.860  23.387  1.00  0.00     0.198 C 
BRANCH   7   8
ATOM      8  O   UNL     1      28.091  13.587  22.841  1.00  0.00    -0.347 OA
BRANCH   8   9
ATOM      9  C   UNL     1      27.987  13.574  21.428  1.00  0.00     0.281 C 
ATOM     10  C   UNL     1      30.914  13.456  22.470  1.00  0.00     0.041 C 
ATOM     11  C   UNL     1      30.341  13.314  21.047  1.00  0.00     0.150 C 
ATOM     12  C   UNL     1      30.161  11.846  20.597  1.00  0.00     0.174 C 
ATOM     13  O   UNL     1      29.170  14.108  20.838  1.00  0.00    -0.344 OA
ATOM     14  C   UNL     1      28.889  11.228  21.207  1.00  0.00     0.179 C 
ATOM     15  C   UNL     1      27.693  12.147  20.928  1.00  0.00     0.202 C 
BRANCH  12  16
ATOM     16  O   UNL     1      31.292  11.082  20.945  1.00  0.00    -0.388 OA
ATOM     17  H   UNL     1      31.020  10.131  20.956  1.00  0.00     0.211 HD
ENDBRANCH  12  16
BRANCH  14  18
ATOM     18  O   UNL     1      28.652   9.937  20.690  1.00  0.00    -0.387 OA
ATOM     19  H   UNL     1      28.125  10.035  19.852  1.00  0.00     0.211 HD
ENDBRANCH  14  18
BRANCH  15  20
ATOM     20  O   UNL     1      26.546  11.639  21.563  1.00  0.00    -0.385 OA
ATOM     21  H   UNL     1      25.823  11.621  20.882  1.00  0.00     0.211 HD
ENDBRANCH  15  20
ENDBRANCH   8   9
ENDBRANCH   7   8
ENDBRANCH   1   7
BRANCH   2  22
ATOM     22  O   UNL     1      26.053  16.945  24.630  1.00  0.00    -0.387 OA
ATOM     23  H   UNL     1      26.613  17.061  23.819  1.00  0.00     0.211 HD
ENDBRANCH   2  22
BRANCH   3  24
ATOM     24  O   UNL     1      28.447  17.689  25.684  1.00  0.00    -0.387 OA
ATOM     25  H   UNL     1      28.591  17.482  24.729  1.00  0.00     0.211 HD
ENDBRANCH   3  24
BRANCH   5  26
ATOM     26  O   UNL     1      29.089  13.186  27.306  1.00  0.00    -0.454 OA
BRANCH  26  27
ATOM     27  C   UNL     1      29.152  11.832  26.948  1.00  0.00     0.214 A 
ATOM     28  C   UNL     1      28.294  10.911  27.582  1.00  0.00     0.180 A 
ATOM     29  C   UNL     1      30.050  11.362  25.971  1.00  0.00     0.239 A 
ATOM     30  O   UNL     1      28.312   9.633  27.216  1.00  0.00    -0.452 OA
ATOM     31  C   UNL     1      30.031  10.000  25.608  1.00  0.00     0.111 A 
ATOM     32  O   UNL     1      30.883  12.151  25.457  1.00  0.00    -0.285 OA
ATOM     33  C   UNL     1      29.121   9.152  26.279  1.00  0.00     0.146 A 
ATOM     34  C   UNL     1      30.880   9.450  24.617  1.00  0.00     0.134 A 
ATOM     35  C   UNL     1      29.069   7.789  25.969  1.00  0.00     0.094 A 
ATOM     36  C   UNL     1      30.814   8.080  24.320  1.00  0.00     0.093 A 
ATOM     37  C   UNL     1      29.918   7.249  24.996  1.00  0.00     0.123 A 
BRANCH  28  38
ATOM     38  C   UNL     1      27.333  11.317  28.638  1.00  0.00     0.025 A 
ATOM     39  C   UNL     1      25.962  11.375  28.334  1.00  0.00     0.062 A 
ATOM     40  C   UNL     1      27.751  11.612  29.948  1.00  0.00     0.016 A 
ATOM     41  C   UNL     1      25.029  11.756  29.307  1.00  0.00     0.158 A 
ATOM     42  C   UNL     1      26.822  11.999  30.919  1.00  0.00     0.051 A 
ATOM     43  C   UNL     1      25.459  12.075  30.602  1.00  0.00     0.157 A 
BRANCH  41  44
ATOM     44  O   UNL     1      23.680  11.819  28.959  1.00  0.00    -0.504 OA
ATOM     45  H   UNL     1      23.230  12.690  28.704  1.00  0.00     0.293 HD
ENDBRANCH  41  44
BRANCH  43  46
ATOM     46  O   UNL     1      24.535  12.470  31.568  1.00  0.00    -0.504 OA
ATOM     47  H   UNL     1      24.523  13.415  31.930  1.00  0.00     0.293 HD
ENDBRANCH  43  46
ENDBRANCH  28  38
BRANCH  34  48
ATOM     48  O   UNL     1      31.782  10.255  23.920  1.00  0.00    -0.507 OA
ATOM     49  H   UNL     1      32.772  10.252  24.131  1.00  0.00     0.293 HD
ENDBRANCH  34  48
BRANCH  37  50
ATOM     50  O   UNL     1      29.881   5.887  24.692  1.00  0.00    -0.508 OA
ATOM     51  H   UNL     1      30.706   5.389  24.395  1.00  0.00     0.293 HD
ENDBRANCH  37  50
ENDBRANCH  26  27
ENDBRANCH   5  26
BRANCH   4  52
ATOM     52  O   UNL     1      29.986  15.514  25.839  1.00  0.00    -0.384 OA
ATOM     53  H   UNL     1      29.707  15.395  24.889  1.00  0.00     0.211 HD
ENDBRANCH   4  52
TORSDOF 16
ENDMDL
MODEL 7
REMARK VINA RESULT:    -6.399      2.965      8.551
REMARK INTER + INTRA:         -13.185
REMARK INTER:                 -10.254
REMARK INTRA:                  -2.932
REMARK UNBOUND:                -2.672
REMARK SMILES C[C@@H]1O[C@H](OC[C@H]2O[C@@H](Oc3c(-c4ccc(O)c(O)c4)oc4cc(O)cc(O)c4c3=O)[C@@H](O)[C@@H](O)[C@H]2O)[C@H](O)[C@@H](O)[C@@H]1O
REMARK SMILES IDX 7 1 36 2 34 3 32 4 9 5 8 6 6 7 5 8 4 9 1 10 2 11 42 12 3 13
REMARK SMILES IDX 40 14 38 15 43 16 41 18 39 20 37 22 35 24 10 26 11 27 12 28
REMARK SMILES IDX 30 29 21 30 29 31 31 32 22 33 27 34 23 35 26 36 24 37 13 38
REMARK SMILES IDX 20 39 14 40 18 41 15 42 16 43 19 44 17 46 28 48 25 50 33 52
REMARK H PARENT 43 17 41 19 39 21 37 23 35 25 19 45 17 47 28 49 25 51 33 53
REMARK Flexibility Score: inf
ROOT
ATOM      1  C   UNL     1      26.980  11.895  31.282  1.00  0.00     0.180 C 
ATOM      2  C   UNL     1      28.414  11.464  31.748  1.00  0.00     0.177 C 
ATOM      3  C   UNL     1      29.562  12.038  30.869  1.00  0.00     0.180 C 
ATOM      4  C   UNL     1      29.080  12.389  29.443  1.00  0.00     0.214 C 
ATOM      5  C   UNL     1      27.870  11.495  29.083  1.00  0.00     0.339 C 
ATOM      6  O   UNL     1      26.740  11.802  29.876  1.00  0.00    -0.332 OA
ENDROOT
BRANCH   1   7
ATOM      7  C   UNL     1      26.552  13.299  31.745  1.00  0.00     0.198 C 
BRANCH   7   8
ATOM      8  O   UNL     1      25.980  13.978  30.642  1.00  0.00    -0.347 OA
BRANCH   8   9
ATOM      9  C   UNL     1      24.601  14.246  30.835  1.00  0.00     0.281 C 
ATOM     10  C   UNL     1      26.258  16.740  29.998  1.00  0.00     0.041 C 
ATOM     11  C   UNL     1      24.739  16.544  30.162  1.00  0.00     0.150 C 
ATOM     12  C   UNL     1      24.007  16.254  28.831  1.00  0.00     0.174 C 
ATOM     13  O   UNL     1      24.407  15.612  31.195  1.00  0.00    -0.344 OA
ATOM     14  C   UNL     1      24.184  14.784  28.406  1.00  0.00     0.179 C 
ATOM     15  C   UNL     1      23.802  13.867  29.574  1.00  0.00     0.202 C 
BRANCH  12  16
ATOM     16  O   UNL     1      24.467  17.117  27.818  1.00  0.00    -0.388 OA
ATOM     17  H   UNL     1      23.679  17.421  27.302  1.00  0.00     0.211 HD
ENDBRANCH  12  16
BRANCH  14  18
ATOM     18  O   UNL     1      23.406  14.486  27.268  1.00  0.00    -0.387 OA
ATOM     19  H   UNL     1      24.026  14.244  26.529  1.00  0.00     0.211 HD
ENDBRANCH  14  18
BRANCH  15  20
ATOM     20  O   UNL     1      24.053  12.528  29.227  1.00  0.00    -0.385 OA
ATOM     21  H   UNL     1      23.439  12.304  28.478  1.00  0.00     0.211 HD
ENDBRANCH  15  20
ENDBRANCH   8   9
ENDBRANCH   7   8
ENDBRANCH   1   7
BRANCH   2  22
ATOM     22  O   UNL     1      28.639  11.664  33.125  1.00  0.00    -0.387 OA
ATOM     23  H   UNL     1      28.368  10.840  33.609  1.00  0.00     0.211 HD
ENDBRANCH   2  22
BRANCH   3  24
ATOM     24  O   UNL     1      30.240  13.117  31.474  1.00  0.00    -0.387 OA
ATOM     25  H   UNL     1      31.101  12.788  31.829  1.00  0.00     0.211 HD
ENDBRANCH   3  24
BRANCH   5  26
ATOM     26  O   UNL     1      27.563  11.716  27.707  1.00  0.00    -0.454 OA
BRANCH  26  27
ATOM     27  C   UNL     1      28.424  11.418  26.642  1.00  0.00     0.214 A 
ATOM     28  C   UNL     1      28.851  12.456  25.791  1.00  0.00     0.180 A 
ATOM     29  C   UNL     1      28.877  10.108  26.396  1.00  0.00     0.239 A 
ATOM     30  O   UNL     1      29.706  12.193  24.808  1.00  0.00    -0.452 OA
ATOM     31  C   UNL     1      29.788   9.874  25.346  1.00  0.00     0.111 A 
ATOM     32  O   UNL     1      28.439   9.155  27.089  1.00  0.00    -0.285 OA
ATOM     33  C   UNL     1      30.182  10.979  24.557  1.00  0.00     0.146 A 
ATOM     34  C   UNL     1      30.314   8.594  25.047  1.00  0.00     0.134 A 
ATOM     35  C   UNL     1      31.073  10.803  23.494  1.00  0.00     0.094 A 
ATOM     36  C   UNL     1      31.206   8.437  23.975  1.00  0.00     0.093 A 
ATOM     37  C   UNL     1      31.581   9.533  23.196  1.00  0.00     0.123 A 
BRANCH  28  38
ATOM     38  C   UNL     1      28.405  13.862  25.966  1.00  0.00     0.025 A 
ATOM     39  C   UNL     1      29.337  14.834  26.370  1.00  0.00     0.062 A 
ATOM     40  C   UNL     1      27.081  14.258  25.703  1.00  0.00     0.016 A 
ATOM     41  C   UNL     1      28.948  16.167  26.546  1.00  0.00     0.158 A 
ATOM     42  C   UNL     1      26.690  15.588  25.884  1.00  0.00     0.051 A 
ATOM     43  C   UNL     1      27.619  16.547  26.308  1.00  0.00     0.157 A 
BRANCH  41  44
ATOM     44  O   UNL     1      29.899  17.097  26.966  1.00  0.00    -0.504 OA
ATOM     45  H   UNL     1      30.289  17.082  27.900  1.00  0.00     0.293 HD
ENDBRANCH  41  44
BRANCH  43  46
ATOM     46  O   UNL     1      27.226  17.871  26.497  1.00  0.00    -0.504 OA
ATOM     47  H   UNL     1      26.865  18.190  27.387  1.00  0.00     0.293 HD
ENDBRANCH  43  46
ENDBRANCH  28  38
BRANCH  34  48
ATOM     48  O   UNL     1      29.964   7.480  25.811  1.00  0.00    -0.507 OA
ATOM     49  H   UNL     1      30.572   6.674  25.888  1.00  0.00     0.293 HD
ENDBRANCH  34  48
BRANCH  37  50
ATOM     50  O   UNL     1      32.460   9.348  22.127  1.00  0.00    -0.508 OA
ATOM     51  H   UNL     1      33.317   9.875  22.051  1.00  0.00     0.293 HD
ENDBRANCH  37  50
ENDBRANCH  26  27
ENDBRANCH   5  26
BRANCH   4  52
ATOM     52  O   UNL     1      28.813  13.771  29.316  1.00  0.00    -0.384 OA
ATOM     53  H   UNL     1      28.114  13.936  28.625  1.00  0.00     0.211 HD
ENDBRANCH   4  52
TORSDOF 16
ENDMDL
MODEL 8
REMARK VINA RESULT:    -6.362      1.997      9.317
REMARK INTER + INTRA:         -13.125
REMARK INTER:                 -11.555
REMARK INTRA:                  -1.570
REMARK UNBOUND:                -2.672
REMARK SMILES C[C@@H]1O[C@H](OC[C@H]2O[C@@H](Oc3c(-c4ccc(O)c(O)c4)oc4cc(O)cc(O)c4c3=O)[C@@H](O)[C@@H](O)[C@H]2O)[C@H](O)[C@@H](O)[C@@H]1O
REMARK SMILES IDX 7 1 36 2 34 3 32 4 9 5 8 6 6 7 5 8 4 9 1 10 2 11 42 12 3 13
REMARK SMILES IDX 40 14 38 15 43 16 41 18 39 20 37 22 35 24 10 26 11 27 12 28
REMARK SMILES IDX 30 29 21 30 29 31 31 32 22 33 27 34 23 35 26 36 24 37 13 38
REMARK SMILES IDX 20 39 14 40 18 41 15 42 16 43 19 44 17 46 28 48 25 50 33 52
REMARK H PARENT 43 17 41 19 39 21 37 23 35 25 19 45 17 47 28 49 25 51 33 53
REMARK Flexibility Score: inf
ROOT
ATOM      1  C   UNL     1      30.384   9.529  32.516  1.00  0.00     0.180 C 
ATOM      2  C   UNL     1      31.843  10.098  32.417  1.00  0.00     0.177 C 
ATOM      3  C   UNL     1      31.933  11.485  31.720  1.00  0.00     0.180 C 
ATOM      4  C   UNL     1      30.736  11.738  30.775  1.00  0.00     0.214 C 
ATOM      5  C   UNL     1      30.190  10.380  30.274  1.00  0.00     0.339 C 
ATOM      6  O   UNL     1      29.603   9.635  31.324  1.00  0.00    -0.332 OA
ENDROOT
BRANCH   1   7
ATOM      7  C   UNL     1      29.554  10.100  33.679  1.00  0.00     0.198 C 
BRANCH   7   8
ATOM      8  O   UNL     1      29.726   9.261  34.806  1.00  0.00    -0.347 OA
BRANCH   8   9
ATOM      9  C   UNL     1      29.987   7.917  34.438  1.00  0.00     0.281 C 
ATOM     10  C   UNL     1      31.327   8.766  37.112  1.00  0.00     0.041 C 
ATOM     11  C   UNL     1      31.221   7.390  36.426  1.00  0.00     0.150 C 
ATOM     12  C   UNL     1      30.070   6.515  36.974  1.00  0.00     0.174 C 
ATOM     13  O   UNL     1      31.223   7.480  34.999  1.00  0.00    -0.344 OA
ATOM     14  C   UNL     1      28.713   6.949  36.388  1.00  0.00     0.179 C 
ATOM     15  C   UNL     1      28.815   7.011  34.859  1.00  0.00     0.202 C 
BRANCH  12  16
ATOM     16  O   UNL     1      30.037   6.569  38.381  1.00  0.00    -0.388 OA
ATOM     17  H   UNL     1      29.489   5.807  38.697  1.00  0.00     0.211 HD
ENDBRANCH  12  16
BRANCH  14  18
ATOM     18  O   UNL     1      27.684   6.067  36.780  1.00  0.00    -0.387 OA
ATOM     19  H   UNL     1      26.992   6.598  37.256  1.00  0.00     0.211 HD
ENDBRANCH  14  18
BRANCH  15  20
ATOM     20  O   UNL     1      27.610   7.499  34.323  1.00  0.00    -0.385 OA
ATOM     21  H   UNL     1      27.384   6.919  33.548  1.00  0.00     0.211 HD
ENDBRANCH  15  20
ENDBRANCH   8   9
ENDBRANCH   7   8
ENDBRANCH   1   7
BRANCH   2  22
ATOM     22  O   UNL     1      32.542  10.062  33.640  1.00  0.00    -0.387 OA
ATOM     23  H   UNL     1      32.596   9.118  33.943  1.00  0.00     0.211 HD
ENDBRANCH   2  22
BRANCH   3  24
ATOM     24  O   UNL     1      32.121  12.550  32.626  1.00  0.00    -0.387 OA
ATOM     25  H   UNL     1      32.402  12.178  33.496  1.00  0.00     0.211 HD
ENDBRANCH   3  24
BRANCH   5  26
ATOM     26  O   UNL     1      29.210  10.649  29.274  1.00  0.00    -0.454 OA
BRANCH  26  27
ATOM     27  C   UNL     1      29.270  10.179  27.955  1.00  0.00     0.214 A 
ATOM     28  C   UNL     1      29.073  11.082  26.892  1.00  0.00     0.180 A 
ATOM     29  C   UNL     1      29.523   8.826  27.658  1.00  0.00     0.239 A 
ATOM     30  O   UNL     1      29.176  10.657  25.637  1.00  0.00    -0.452 OA
ATOM     31  C   UNL     1      29.631   8.418  26.314  1.00  0.00     0.111 A 
ATOM     32  O   UNL     1      29.615   7.989  28.592  1.00  0.00    -0.285 OA
ATOM     33  C   UNL     1      29.441   9.397  25.311  1.00  0.00     0.146 A 
ATOM     34  C   UNL     1      29.910   7.084  25.928  1.00  0.00     0.134 A 
ATOM     35  C   UNL     1      29.523   9.045  23.960  1.00  0.00     0.094 A 
ATOM     36  C   UNL     1      29.987   6.751  24.567  1.00  0.00     0.093 A 
ATOM     37  C   UNL     1      29.788   7.723  23.585  1.00  0.00     0.123 A 
BRANCH  28  38
ATOM     38  C   UNL     1      28.780  12.521  27.115  1.00  0.00     0.025 A 
ATOM     39  C   UNL     1      29.808  13.466  26.951  1.00  0.00     0.062 A 
ATOM     40  C   UNL     1      27.490  12.972  27.451  1.00  0.00     0.016 A 
ATOM     41  C   UNL     1      29.565  14.829  27.156  1.00  0.00     0.158 A 
ATOM     42  C   UNL     1      27.248  14.333  27.662  1.00  0.00     0.051 A 
ATOM     43  C   UNL     1      28.283  15.266  27.518  1.00  0.00     0.157 A 
BRANCH  41  44
ATOM     44  O   UNL     1      30.617  15.731  27.002  1.00  0.00    -0.504 OA
ATOM     45  H   UNL     1      31.532  15.441  26.678  1.00  0.00     0.293 HD
ENDBRANCH  41  44
BRANCH  43  46
ATOM     46  O   UNL     1      28.042  16.621  27.737  1.00  0.00    -0.504 OA
ATOM     47  H   UNL     1      28.718  17.325  27.470  1.00  0.00     0.293 HD
ENDBRANCH  43  46
ENDBRANCH  28  38
BRANCH  34  48
ATOM     48  O   UNL     1      30.118   6.091  26.886  1.00  0.00    -0.507 OA
ATOM     49  H   UNL     1      29.763   6.179  27.830  1.00  0.00     0.293 HD
ENDBRANCH  34  48
BRANCH  37  50
ATOM     50  O   UNL     1      29.857   7.363  22.238  1.00  0.00    -0.508 OA
ATOM     51  H   UNL     1      30.370   7.917  21.569  1.00  0.00     0.293 HD
ENDBRANCH  37  50
ENDBRANCH  26  27
ENDBRANCH   5  26
BRANCH   4  52
ATOM     52  O   UNL     1      29.754  12.544  31.394  1.00  0.00    -0.384 OA
ATOM     53  H   UNL     1      30.174  13.298  31.892  1.00  0.00     0.211 HD
ENDBRANCH   4  52
TORSDOF 16
ENDMDL
