MODEL 1
REMARK VINA RESULT:    -4.598      0.000      0.000
REMARK INTER + INTRA:          -5.861
REMARK INTER:                  -5.539
REMARK INTRA:                  -0.322
REMARK UNBOUND:                -0.322
REMARK SMILES O=c1c(O)c(-c2ccc(O)c(O)c2)oc2cc(O)cc(O)c12
REMARK SMILES IDX 5 1 3 2 2 3 1 4 22 5 20 6 19 7 17 8 16 9 15 10 14 11 6 12
REMARK SMILES IDX 7 13 8 14 9 15 13 16 11 17 10 18 12 20 4 22 21 24 18 26
REMARK H PARENT 10 19 12 21 4 23 21 25 18 27
REMARK Flexibility Score: inf
ROOT
ATOM      1  C   UNL     1      41.519  18.280   7.205  1.00  0.00     0.180 A 
ATOM      2  C   UNL     1      42.653  17.489   7.459  1.00  0.00     0.208 A 
ATOM      3  C   UNL     1      43.885  18.122   7.693  1.00  0.00     0.238 A 
ATOM      4  O   UNL     1      44.885  17.411   7.974  1.00  0.00    -0.285 OA
ATOM      5  C   UNL     1      43.971  19.534   7.654  1.00  0.00     0.111 A 
ATOM      6  C   UNL     1      45.175  20.278   7.837  1.00  0.00     0.134 A 
ATOM      7  C   UNL     1      45.120  21.676   7.908  1.00  0.00     0.093 A 
ATOM      8  C   UNL     1      43.912  22.358   7.737  1.00  0.00     0.123 A 
ATOM      9  C   UNL     1      42.742  21.643   7.499  1.00  0.00     0.094 A 
ATOM     10  C   UNL     1      42.759  20.246   7.459  1.00  0.00     0.146 A 
ATOM     11  O   UNL     1      41.618  19.604   7.241  1.00  0.00    -0.452 OA
ENDROOT
BRANCH   1  12
ATOM     12  C   UNL     1      40.192  17.686   6.925  1.00  0.00     0.025 A 
ATOM     13  C   UNL     1      39.300  17.364   7.963  1.00  0.00     0.016 A 
ATOM     14  C   UNL     1      38.063  16.781   7.675  1.00  0.00     0.051 A 
ATOM     15  C   UNL     1      37.703  16.498   6.354  1.00  0.00     0.157 A 
ATOM     16  C   UNL     1      39.837  17.382   5.600  1.00  0.00     0.062 A 
ATOM     17  C   UNL     1      38.595  16.797   5.310  1.00  0.00     0.158 A 
BRANCH  15  18
ATOM     18  O   UNL     1      36.461  15.919   6.098  1.00  0.00    -0.504 OA
ATOM     19  H   UNL     1      36.371  15.028   5.624  1.00  0.00     0.293 HD
ENDBRANCH  15  18
BRANCH  17  20
ATOM     20  O   UNL     1      38.246  16.513   3.990  1.00  0.00    -0.504 OA
ATOM     21  H   UNL     1      38.936  16.508   3.248  1.00  0.00     0.293 HD
ENDBRANCH  17  20
ENDBRANCH   1  12
BRANCH   2  22
ATOM     22  O   UNL     1      42.541  16.098   7.515  1.00  0.00    -0.502 OA
ATOM     23  H   UNL     1      42.203  15.547   6.733  1.00  0.00     0.293 HD
ENDBRANCH   2  22
BRANCH   6  24
ATOM     24  O   UNL     1      46.444  19.699   7.926  1.00  0.00    -0.507 OA
ATOM     25  H   UNL     1      46.636  18.715   7.817  1.00  0.00     0.293 HD
ENDBRANCH   6  24
BRANCH   8  26
ATOM     26  O   UNL     1      43.868  23.749   7.793  1.00  0.00    -0.508 OA
ATOM     27  H   UNL     1      44.450  24.272   8.437  1.00  0.00     0.293 HD
ENDBRANCH   8  26
TORSDOF 6
ENDMDL
MODEL 2
REMARK VINA RESULT:    -4.046      1.649      3.310
REMARK INTER + INTRA:          -5.195
REMARK INTER:                  -4.878
REMARK INTRA:                  -0.317
REMARK UNBOUND:                -0.322
REMARK SMILES O=c1c(O)c(-c2ccc(O)c(O)c2)oc2cc(O)cc(O)c12
REMARK SMILES IDX 5 1 3 2 2 3 1 4 22 5 20 6 19 7 17 8 16 9 15 10 14 11 6 12
REMARK SMILES IDX 7 13 8 14 9 15 13 16 11 17 10 18 12 20 4 22 21 24 18 26
REMARK H PARENT 10 19 12 21 4 23 21 25 18 27
REMARK Flexibility Score: inf
ROOT
ATOM      1  C   UNL     1      42.891  19.221   7.212  1.00  0.00     0.180 A 
ATOM      2  C   UNL     1      42.870  20.626   7.174  1.00  0.00     0.208 A 
ATOM      3  C   UNL     1      44.065  21.331   7.392  1.00  0.00     0.238 A 
ATOM      4  O   UNL     1      44.051  22.586   7.302  1.00  0.00    -0.285 OA
ATOM      5  C   UNL     1      45.261  20.624   7.662  1.00  0.00     0.111 A 
ATOM      6  C   UNL     1      46.520  21.237   7.937  1.00  0.00     0.134 A 
ATOM      7  C   UNL     1      47.665  20.439   8.061  1.00  0.00     0.093 A 
ATOM      8  C   UNL     1      47.583  19.046   7.985  1.00  0.00     0.123 A 
ATOM      9  C   UNL     1      46.349  18.436   7.775  1.00  0.00     0.094 A 
ATOM     10  C   UNL     1      45.195  19.207   7.612  1.00  0.00     0.146 A 
ATOM     11  O   UNL     1      44.041  18.585   7.403  1.00  0.00    -0.452 OA
ENDROOT
BRANCH   1  12
ATOM     12  C   UNL     1      41.668  18.410   7.017  1.00  0.00     0.025 A 
ATOM     13  C   UNL     1      40.760  18.189   8.068  1.00  0.00     0.016 A 
ATOM     14  C   UNL     1      39.624  17.400   7.867  1.00  0.00     0.051 A 
ATOM     15  C   UNL     1      39.385  16.808   6.622  1.00  0.00     0.157 A 
ATOM     16  C   UNL     1      41.435  17.797   5.774  1.00  0.00     0.062 A 
ATOM     17  C   UNL     1      40.296  17.005   5.571  1.00  0.00     0.158 A 
BRANCH  15  18
ATOM     18  O   UNL     1      38.242  16.027   6.451  1.00  0.00    -0.504 OA
ATOM     19  H   UNL     1      37.739  15.633   7.236  1.00  0.00     0.293 HD
ENDBRANCH  15  18
BRANCH  17  20
ATOM     20  O   UNL     1      40.067  16.413   4.329  1.00  0.00    -0.504 OA
ATOM     21  H   UNL     1      39.989  16.966   3.484  1.00  0.00     0.293 HD
ENDBRANCH  17  20
ENDBRANCH   1  12
BRANCH   2  22
ATOM     22  O   UNL     1      41.682  21.303   6.884  1.00  0.00    -0.502 OA
ATOM     23  H   UNL     1      41.058  21.012   6.141  1.00  0.00     0.293 HD
ENDBRANCH   2  22
BRANCH   6  24
ATOM     24  O   UNL     1      46.695  22.611   8.124  1.00  0.00    -0.507 OA
ATOM     25  H   UNL     1      47.548  23.114   7.931  1.00  0.00     0.293 HD
ENDBRANCH   6  24
BRANCH   8  26
ATOM     26  O   UNL     1      48.723  18.259   8.125  1.00  0.00    -0.508 OA
ATOM     27  H   UNL     1      49.506  18.342   7.487  1.00  0.00     0.293 HD
ENDBRANCH   8  26
TORSDOF 6
ENDMDL
MODEL 3
REMARK VINA RESULT:    -3.648      1.511      7.043
REMARK INTER + INTRA:          -4.716
REMARK INTER:                  -4.406
REMARK INTRA:                  -0.310
REMARK UNBOUND:                -0.322
REMARK SMILES O=c1c(O)c(-c2ccc(O)c(O)c2)oc2cc(O)cc(O)c12
REMARK SMILES IDX 5 1 3 2 2 3 1 4 22 5 20 6 19 7 17 8 16 9 15 10 14 11 6 12
REMARK SMILES IDX 7 13 8 14 9 15 13 16 11 17 10 18 12 20 4 22 21 24 18 26
REMARK H PARENT 10 19 12 21 4 23 21 25 18 27
REMARK Flexibility Score: inf
ROOT
ATOM      1  C   UNL     1      41.947  18.727   6.083  1.00  0.00     0.180 A 
ATOM      2  C   UNL     1      41.834  18.437   4.712  1.00  0.00     0.208 A 
ATOM      3  C   UNL     1      40.734  17.689   4.264  1.00  0.00     0.238 A 
ATOM      4  O   UNL     1      40.609  17.478   3.029  1.00  0.00    -0.285 OA
ATOM      5  C   UNL     1      39.770  17.227   5.192  1.00  0.00     0.111 A 
ATOM      6  C   UNL     1      38.636  16.428   4.854  1.00  0.00     0.134 A 
ATOM      7  C   UNL     1      37.678  16.138   5.833  1.00  0.00     0.093 A 
ATOM      8  C   UNL     1      37.847  16.565   7.153  1.00  0.00     0.123 A 
ATOM      9  C   UNL     1      38.978  17.295   7.505  1.00  0.00     0.094 A 
ATOM     10  C   UNL     1      39.934  17.630   6.543  1.00  0.00     0.146 A 
ATOM     11  O   UNL     1      40.993  18.337   6.919  1.00  0.00    -0.452 OA
ENDROOT
BRANCH   1  12
ATOM     12  C   UNL     1      43.091  19.489   6.634  1.00  0.00     0.025 A 
ATOM     13  C   UNL     1      43.017  20.878   6.836  1.00  0.00     0.016 A 
ATOM     14  C   UNL     1      44.119  21.579   7.335  1.00  0.00     0.051 A 
ATOM     15  C   UNL     1      45.312  20.910   7.626  1.00  0.00     0.157 A 
ATOM     16  C   UNL     1      44.298  18.822   6.908  1.00  0.00     0.062 A 
ATOM     17  C   UNL     1      45.403  19.525   7.409  1.00  0.00     0.158 A 
BRANCH  15  18
ATOM     18  O   UNL     1      46.393  21.636   8.125  1.00  0.00    -0.504 OA
ATOM     19  H   UNL     1      46.576  21.713   9.118  1.00  0.00     0.293 HD
ENDBRANCH  15  18
BRANCH  17  20
ATOM     20  O   UNL     1      46.592  18.851   7.691  1.00  0.00    -0.504 OA
ATOM     21  H   UNL     1      46.593  17.940   8.135  1.00  0.00     0.293 HD
ENDBRANCH  17  20
ENDBRANCH   1  12
BRANCH   2  22
ATOM     22  O   UNL     1      42.786  18.921   3.811  1.00  0.00    -0.502 OA
ATOM     23  H   UNL     1      42.537  19.268   2.892  1.00  0.00     0.293 HD
ENDBRANCH   2  22
BRANCH   6  24
ATOM     24  O   UNL     1      38.421  15.875   3.588  1.00  0.00    -0.507 OA
ATOM     25  H   UNL     1      37.766  16.231   2.909  1.00  0.00     0.293 HD
ENDBRANCH   6  24
BRANCH   8  26
ATOM     26  O   UNL     1      36.897  16.259   8.125  1.00  0.00    -0.508 OA
ATOM     27  H   UNL     1      36.788  16.827   8.957  1.00  0.00     0.293 HD
ENDBRANCH   8  26
TORSDOF 6
ENDMDL
MODEL 4
REMARK VINA RESULT:    -3.539      1.446      2.294
REMARK INTER + INTRA:          -4.585
REMARK INTER:                  -4.275
REMARK INTRA:                  -0.310
REMARK UNBOUND:                -0.322
REMARK SMILES O=c1c(O)c(-c2ccc(O)c(O)c2)oc2cc(O)cc(O)c12
REMARK SMILES IDX 5 1 3 2 2 3 1 4 22 5 20 6 19 7 17 8 16 9 15 10 14 11 6 12
REMARK SMILES IDX 7 13 8 14 9 15 13 16 11 17 10 18 12 20 4 22 21 24 18 26
REMARK H PARENT 10 19 12 21 4 23 21 25 18 27
REMARK Flexibility Score: inf
ROOT
ATOM      1  C   UNL     1      42.525  19.303   6.316  1.00  0.00     0.180 A 
ATOM      2  C   UNL     1      43.811  18.863   6.671  1.00  0.00     0.208 A 
ATOM      3  C   UNL     1      44.721  19.787   7.212  1.00  0.00     0.238 A 
ATOM      4  O   UNL     1      45.852  19.376   7.580  1.00  0.00    -0.285 OA
ATOM      5  C   UNL     1      44.337  21.139   7.376  1.00  0.00     0.111 A 
ATOM      6  C   UNL     1      45.190  22.169   7.877  1.00  0.00     0.134 A 
ATOM      7  C   UNL     1      44.665  23.444   8.119  1.00  0.00     0.093 A 
ATOM      8  C   UNL     1      43.334  23.744   7.816  1.00  0.00     0.123 A 
ATOM      9  C   UNL     1      42.511  22.763   7.272  1.00  0.00     0.094 A 
ATOM     10  C   UNL     1      42.995  21.471   7.052  1.00  0.00     0.146 A 
ATOM     11  O   UNL     1      42.173  20.563   6.542  1.00  0.00    -0.452 OA
ENDROOT
BRANCH   1  12
ATOM     12  C   UNL     1      41.520  18.394   5.716  1.00  0.00     0.025 A 
ATOM     13  C   UNL     1      41.556  18.062   4.351  1.00  0.00     0.016 A 
ATOM     14  C   UNL     1      40.583  17.222   3.802  1.00  0.00     0.051 A 
ATOM     15  C   UNL     1      39.555  16.713   4.601  1.00  0.00     0.157 A 
ATOM     16  C   UNL     1      40.474  17.897   6.513  1.00  0.00     0.062 A 
ATOM     17  C   UNL     1      39.498  17.054   5.963  1.00  0.00     0.158 A 
BRANCH  15  18
ATOM     18  O   UNL     1      38.600  15.875   4.026  1.00  0.00    -0.504 OA
ATOM     19  H   UNL     1      38.802  15.312   3.210  1.00  0.00     0.293 HD
ENDBRANCH  15  18
BRANCH  17  20
ATOM     20  O   UNL     1      38.472  16.555   6.766  1.00  0.00    -0.504 OA
ATOM     21  H   UNL     1      37.501  16.787   6.593  1.00  0.00     0.293 HD
ENDBRANCH  17  20
ENDBRANCH   1  12
BRANCH   2  22
ATOM     22  O   UNL     1      44.161  17.519   6.521  1.00  0.00    -0.502 OA
ATOM     23  H   UNL     1      44.597  16.984   7.264  1.00  0.00     0.293 HD
ENDBRANCH   2  22
BRANCH   6  24
ATOM     24  O   UNL     1      46.555  21.999   8.125  1.00  0.00    -0.507 OA
ATOM     25  H   UNL     1      46.939  21.415   8.853  1.00  0.00     0.293 HD
ENDBRANCH   6  24
BRANCH   8  26
ATOM     26  O   UNL     1      42.824  25.020   8.045  1.00  0.00    -0.508 OA
ATOM     27  H   UNL     1      42.830  25.435   8.969  1.00  0.00     0.293 HD
ENDBRANCH   8  26
TORSDOF 6
ENDMDL
MODEL 5
REMARK VINA RESULT:    -3.181      3.389      4.954
REMARK INTER + INTRA:          -4.154
REMARK INTER:                  -3.960
REMARK INTRA:                  -0.194
REMARK UNBOUND:                -0.322
REMARK SMILES O=c1c(O)c(-c2ccc(O)c(O)c2)oc2cc(O)cc(O)c12
REMARK SMILES IDX 5 1 3 2 2 3 1 4 22 5 20 6 19 7 17 8 16 9 15 10 14 11 6 12
REMARK SMILES IDX 7 13 8 14 9 15 13 16 11 17 10 18 12 20 4 22 21 24 18 26
REMARK H PARENT 10 19 12 21 4 23 21 25 18 27
REMARK Flexibility Score: inf
ROOT
ATOM      1  C   UNL     1      38.662  16.895   5.869  1.00  0.00     0.180 A 
ATOM      2  C   UNL     1      39.535  17.319   6.885  1.00  0.00     0.208 A 
ATOM      3  C   UNL     1      40.917  17.335   6.632  1.00  0.00     0.238 A 
ATOM      4  O   UNL     1      41.690  17.768   7.526  1.00  0.00    -0.285 OA
ATOM      5  C   UNL     1      41.407  16.911   5.374  1.00  0.00     0.111 A 
ATOM      6  C   UNL     1      42.789  16.848   5.022  1.00  0.00     0.134 A 
ATOM      7  C   UNL     1      43.154  16.537   3.706  1.00  0.00     0.093 A 
ATOM      8  C   UNL     1      42.187  16.224   2.746  1.00  0.00     0.123 A 
ATOM      9  C   UNL     1      40.840  16.225   3.095  1.00  0.00     0.094 A 
ATOM     10  C   UNL     1      40.443  16.566   4.391  1.00  0.00     0.146 A 
ATOM     11  O   UNL     1      39.147  16.565   4.678  1.00  0.00    -0.452 OA
ENDROOT
BRANCH   1  12
ATOM     12  C   UNL     1      37.196  16.827   6.070  1.00  0.00     0.025 A 
ATOM     13  C   UNL     1      36.624  15.939   6.997  1.00  0.00     0.016 A 
ATOM     14  C   UNL     1      35.236  15.875   7.152  1.00  0.00     0.051 A 
ATOM     15  C   UNL     1      34.400  16.683   6.376  1.00  0.00     0.157 A 
ATOM     16  C   UNL     1      36.352  17.623   5.277  1.00  0.00     0.062 A 
ATOM     17  C   UNL     1      34.959  17.560   5.431  1.00  0.00     0.158 A 
BRANCH  15  18
ATOM     18  O   UNL     1      33.019  16.599   6.554  1.00  0.00    -0.504 OA
ATOM     19  H   UNL     1      32.417  16.147   5.877  1.00  0.00     0.293 HD
ENDBRANCH  15  18
BRANCH  17  20
ATOM     20  O   UNL     1      34.131  18.365   4.649  1.00  0.00    -0.504 OA
ATOM     21  H   UNL     1      34.495  19.157   4.133  1.00  0.00     0.293 HD
ENDBRANCH  17  20
ENDBRANCH   1  12
BRANCH   2  22
ATOM     22  O   UNL     1      39.028  17.755   8.112  1.00  0.00    -0.502 OA
ATOM     23  H   UNL     1      39.503  17.579   8.990  1.00  0.00     0.293 HD
ENDBRANCH   2  22
BRANCH   6  24
ATOM     24  O   UNL     1      43.835  17.052   5.927  1.00  0.00    -0.507 OA
ATOM     25  H   UNL     1      43.752  17.557   6.796  1.00  0.00     0.293 HD
ENDBRANCH   6  24
BRANCH   8  26
ATOM     26  O   UNL     1      42.559  15.900   1.443  1.00  0.00    -0.508 OA
ATOM     27  H   UNL     1      42.009  15.265   0.877  1.00  0.00     0.293 HD
ENDBRANCH   8  26
TORSDOF 6
ENDMDL
