MODEL 1
REMARK VINA RESULT:    -5.195      0.000      0.000
REMARK INTER + INTRA:         -14.435
REMARK INTER:                 -11.876
REMARK INTRA:                  -2.560
REMARK UNBOUND:                -2.560
REMARK SMILES CCCCCCCCCCCCCCCCCCCCCCCC(=O)[O-]
REMARK SMILES IDX 13 1 14 2 15 3 16 4 17 5 18 6 19 7 20 8 21 9 22 10 23 11
REMARK SMILES IDX 24 12 25 13 26 14 12 15 11 16 10 17 9 18 8 19 7 20 6 21 5 22
REMARK SMILES IDX 4 23 3 24 2 25 1 26
REMARK H PARENT
REMARK Flexibility Score: inf
ROOT
ATOM      1  C   UNL     1      23.845 -11.522  27.214  1.00  0.00     0.000 C 
ENDROOT
BRANCH   1   2
ATOM      2  C   UNL     1      22.959 -11.113  28.401  1.00  0.00     0.000 C 
BRANCH   2   3
ATOM      3  C   UNL     1      23.042  -9.599  28.648  1.00  0.00     0.000 C 
BRANCH   3   4
ATOM      4  C   UNL     1      22.352  -8.780  27.546  1.00  0.00     0.000 C 
BRANCH   4   5
ATOM      5  C   UNL     1      21.020  -9.403  27.091  1.00  0.00     0.000 C 
BRANCH   5   6
ATOM      6  C   UNL     1      19.842  -8.416  27.164  1.00  0.00     0.000 C 
BRANCH   6   7
ATOM      7  C   UNL     1      19.096  -8.389  28.513  1.00  0.00     0.000 C 
BRANCH   7   8
ATOM      8  C   UNL     1      19.288  -9.639  29.392  1.00  0.00     0.000 C 
BRANCH   8   9
ATOM      9  C   UNL     1      19.134  -9.396  30.904  1.00  0.00     0.000 C 
BRANCH   9  10
ATOM     10  C   UNL     1      20.478  -9.216  31.644  1.00  0.00     0.006 C 
BRANCH  10  11
ATOM     11  C   UNL     1      21.299 -10.511  31.688  1.00  0.00     0.053 C 
BRANCH  11  12
ATOM     12  C   UNL     1      20.622 -11.532  32.547  1.00  0.00     0.041 C 
ATOM     13  O   UNL     1      20.219 -12.614  32.046  1.00  0.00    -0.550 OA
ATOM     14  O   UNL     1      20.396 -11.270  33.893  1.00  0.00    -0.550 OA
ENDBRANCH  11  12
ENDBRANCH  10  11
ENDBRANCH   9  10
ENDBRANCH   8   9
ENDBRANCH   7   8
ENDBRANCH   6   7
ENDBRANCH   5   6
ENDBRANCH   4   5
ENDBRANCH   3   4
ENDBRANCH   2   3
ENDBRANCH   1   2
BRANCH   1  15
ATOM     15  C   UNL     1      25.093 -12.309  27.642  1.00  0.00     0.000 C 
BRANCH  15  16
ATOM     16  C   UNL     1      26.046 -11.477  28.519  1.00  0.00     0.000 C 
BRANCH  16  17
ATOM     17  C   UNL     1      27.482 -12.035  28.536  1.00  0.00     0.000 C 
BRANCH  17  18
ATOM     18  C   UNL     1      28.553 -11.104  27.936  1.00  0.00    -0.000 C 
BRANCH  18  19
ATOM     19  C   UNL     1      28.414 -10.829  26.426  1.00  0.00    -0.000 C 
BRANCH  19  20
ATOM     20  C   UNL     1      28.675 -12.064  25.539  1.00  0.00    -0.000 C 
BRANCH  20  21
ATOM     21  C   UNL     1      27.424 -12.508  24.761  1.00  0.00    -0.000 C 
BRANCH  21  22
ATOM     22  C   UNL     1      27.522 -13.974  24.284  1.00  0.00    -0.000 C 
BRANCH  22  23
ATOM     23  C   UNL     1      26.172 -14.578  23.856  1.00  0.00    -0.000 C 
BRANCH  23  24
ATOM     24  C   UNL     1      25.026 -14.374  24.862  1.00  0.00    -0.000 C 
BRANCH  24  25
ATOM     25  C   UNL     1      24.711 -15.644  25.667  1.00  0.00    -0.003 C 
ATOM     26  C   UNL     1      23.231 -15.710  26.031  1.00  0.00     0.004 C 
ENDBRANCH  24  25
ENDBRANCH  23  24
ENDBRANCH  22  23
ENDBRANCH  21  22
ENDBRANCH  20  21
ENDBRANCH  19  20
ENDBRANCH  18  19
ENDBRANCH  17  18
ENDBRANCH  16  17
ENDBRANCH  15  16
ENDBRANCH   1  15
TORSDOF 22
ENDMDL
MODEL 2
REMARK VINA RESULT:    -5.063      6.851     12.620
REMARK INTER + INTRA:         -14.134
REMARK INTER:                 -11.287
REMARK INTRA:                  -2.847
REMARK UNBOUND:                -2.560
REMARK SMILES CCCCCCCCCCCCCCCCCCCCCCCC(=O)[O-]
REMARK SMILES IDX 13 1 14 2 15 3 16 4 17 5 18 6 19 7 20 8 21 9 22 10 23 11
REMARK SMILES IDX 24 12 25 13 26 14 12 15 11 16 10 17 9 18 8 19 7 20 6 21 5 22
REMARK SMILES IDX 4 23 3 24 2 25 1 26
REMARK H PARENT
REMARK Flexibility Score: inf
ROOT
ATOM      1  C   UNL     1      27.602 -18.370  21.870  1.00  0.00     0.000 C 
ENDROOT
BRANCH   1   2
ATOM      2  C   UNL     1      28.197 -18.566  23.273  1.00  0.00     0.000 C 
BRANCH   2   3
ATOM      3  C   UNL     1      29.609 -19.165  23.190  1.00  0.00     0.000 C 
BRANCH   3   4
ATOM      4  C   UNL     1      29.744 -20.476  23.981  1.00  0.00     0.000 C 
BRANCH   4   5
ATOM      5  C   UNL     1      30.513 -21.560  23.205  1.00  0.00     0.000 C 
BRANCH   5   6
ATOM      6  C   UNL     1      30.948 -21.097  21.804  1.00  0.00     0.000 C 
BRANCH   6   7
ATOM      7  C   UNL     1      30.188 -21.755  20.635  1.00  0.00     0.000 C 
BRANCH   7   8
ATOM      8  C   UNL     1      29.387 -20.785  19.747  1.00  0.00     0.000 C 
BRANCH   8   9
ATOM      9  C   UNL     1      30.085 -19.442  19.463  1.00  0.00     0.000 C 
BRANCH   9  10
ATOM     10  C   UNL     1      29.755 -18.854  18.074  1.00  0.00     0.006 C 
BRANCH  10  11
ATOM     11  C   UNL     1      29.014 -17.514  18.168  1.00  0.00     0.053 C 
BRANCH  11  12
ATOM     12  C   UNL     1      27.573 -17.683  17.802  1.00  0.00     0.041 C 
ATOM     13  O   UNL     1      27.011 -18.801  17.942  1.00  0.00    -0.550 OA
ATOM     14  O   UNL     1      26.862 -16.617  17.263  1.00  0.00    -0.550 OA
ENDBRANCH  11  12
ENDBRANCH  10  11
ENDBRANCH   9  10
ENDBRANCH   8   9
ENDBRANCH   7   8
ENDBRANCH   6   7
ENDBRANCH   5   6
ENDBRANCH   4   5
ENDBRANCH   3   4
ENDBRANCH   2   3
ENDBRANCH   1   2
BRANCH   1  15
ATOM     15  C   UNL     1      27.296 -16.899  21.550  1.00  0.00     0.000 C 
BRANCH  15  16
ATOM     16  C   UNL     1      27.549 -15.967  22.748  1.00  0.00     0.000 C 
BRANCH  16  17
ATOM     17  C   UNL     1      26.247 -15.404  23.351  1.00  0.00     0.000 C 
BRANCH  17  18
ATOM     18  C   UNL     1      26.127 -15.534  24.881  1.00  0.00    -0.000 C 
BRANCH  18  19
ATOM     19  C   UNL     1      24.719 -15.280  25.455  1.00  0.00    -0.000 C 
BRANCH  19  20
ATOM     20  C   UNL     1      24.634 -14.050  26.383  1.00  0.00    -0.000 C 
BRANCH  20  21
ATOM     21  C   UNL     1      25.434 -12.849  25.847  1.00  0.00    -0.000 C 
BRANCH  21  22
ATOM     22  C   UNL     1      26.659 -12.523  26.729  1.00  0.00    -0.000 C 
BRANCH  22  23
ATOM     23  C   UNL     1      27.837 -11.909  25.950  1.00  0.00    -0.000 C 
BRANCH  23  24
ATOM     24  C   UNL     1      27.825 -12.189  24.438  1.00  0.00    -0.000 C 
BRANCH  24  25
ATOM     25  C   UNL     1      29.113 -12.871  23.951  1.00  0.00    -0.003 C 
ATOM     26  C   UNL     1      30.343 -12.261  24.618  1.00  0.00     0.004 C 
ENDBRANCH  24  25
ENDBRANCH  23  24
ENDBRANCH  22  23
ENDBRANCH  21  22
ENDBRANCH  20  21
ENDBRANCH  19  20
ENDBRANCH  18  19
ENDBRANCH  17  18
ENDBRANCH  16  17
ENDBRANCH  15  16
ENDBRANCH   1  15
TORSDOF 22
ENDMDL
MODEL 3
REMARK VINA RESULT:    -5.048      2.658      8.425
REMARK INTER + INTRA:         -14.100
REMARK INTER:                 -11.090
REMARK INTRA:                  -3.010
REMARK UNBOUND:                -2.560
REMARK SMILES CCCCCCCCCCCCCCCCCCCCCCCC(=O)[O-]
REMARK SMILES IDX 13 1 14 2 15 3 16 4 17 5 18 6 19 7 20 8 21 9 22 10 23 11
REMARK SMILES IDX 24 12 25 13 26 14 12 15 11 16 10 17 9 18 8 19 7 20 6 21 5 22
REMARK SMILES IDX 4 23 3 24 2 25 1 26
REMARK H PARENT
REMARK Flexibility Score: inf
ROOT
ATOM      1  C   UNL     1      25.935 -11.587  28.745  1.00  0.00     0.000 C 
ENDROOT
BRANCH   1   2
ATOM      2  C   UNL     1      27.187 -10.947  28.126  1.00  0.00     0.000 C 
BRANCH   2   3
ATOM      3  C   UNL     1      28.401 -11.114  29.053  1.00  0.00     0.000 C 
BRANCH   3   4
ATOM      4  C   UNL     1      29.576 -11.830  28.369  1.00  0.00     0.000 C 
BRANCH   4   5
ATOM      5  C   UNL     1      30.219 -10.982  27.256  1.00  0.00     0.000 C 
BRANCH   5   6
ATOM      6  C   UNL     1      30.544 -11.798  25.994  1.00  0.00     0.000 C 
BRANCH   6   7
ATOM      7  C   UNL     1      29.771 -11.377  24.727  1.00  0.00     0.000 C 
BRANCH   7   8
ATOM      8  C   UNL     1      28.796 -12.432  24.175  1.00  0.00     0.000 C 
BRANCH   8   9
ATOM      9  C   UNL     1      27.360 -12.335  24.723  1.00  0.00     0.000 C 
BRANCH   9  10
ATOM     10  C   UNL     1      26.800 -13.680  25.235  1.00  0.00     0.006 C 
BRANCH  10  11
ATOM     11  C   UNL     1      25.303 -13.840  24.940  1.00  0.00     0.053 C 
BRANCH  11  12
ATOM     12  C   UNL     1      24.842 -15.217  25.299  1.00  0.00     0.041 C 
ATOM     13  O   UNL     1      25.647 -16.183  25.267  1.00  0.00    -0.550 OA
ATOM     14  O   UNL     1      23.509 -15.441  25.627  1.00  0.00    -0.550 OA
ENDBRANCH  11  12
ENDBRANCH  10  11
ENDBRANCH   9  10
ENDBRANCH   8   9
ENDBRANCH   7   8
ENDBRANCH   6   7
ENDBRANCH   5   6
ENDBRANCH   4   5
ENDBRANCH   3   4
ENDBRANCH   2   3
ENDBRANCH   1   2
BRANCH   1  15
ATOM     15  C   UNL     1      24.780 -11.734  27.741  1.00  0.00     0.000 C 
BRANCH  15  16
ATOM     16  C   UNL     1      23.430 -11.273  28.319  1.00  0.00     0.000 C 
BRANCH  16  17
ATOM     17  C   UNL     1      23.515  -9.899  29.012  1.00  0.00     0.000 C 
BRANCH  17  18
ATOM     18  C   UNL     1      22.786  -8.754  28.284  1.00  0.00    -0.000 C 
BRANCH  18  19
ATOM     19  C   UNL     1      21.957  -9.177  27.055  1.00  0.00    -0.000 C 
BRANCH  19  20
ATOM     20  C   UNL     1      20.432  -9.057  27.257  1.00  0.00    -0.000 C 
BRANCH  20  21
ATOM     21  C   UNL     1      20.065  -8.321  28.558  1.00  0.00    -0.000 C 
BRANCH  21  22
ATOM     22  C   UNL     1      19.357  -9.246  29.572  1.00  0.00    -0.000 C 
BRANCH  22  23
ATOM     23  C   UNL     1      19.602 -10.745  29.319  1.00  0.00    -0.000 C 
BRANCH  23  24
ATOM     24  C   UNL     1      20.425 -11.456  30.406  1.00  0.00    -0.000 C 
BRANCH  24  25
ATOM     25  C   UNL     1      20.289 -10.789  31.784  1.00  0.00    -0.003 C 
ATOM     26  C   UNL     1      21.631 -10.248  32.266  1.00  0.00     0.004 C 
ENDBRANCH  24  25
ENDBRANCH  23  24
ENDBRANCH  22  23
ENDBRANCH  21  22
ENDBRANCH  20  21
ENDBRANCH  19  20
ENDBRANCH  18  19
ENDBRANCH  17  18
ENDBRANCH  16  17
ENDBRANCH  15  16
ENDBRANCH   1  15
TORSDOF 22
ENDMDL
MODEL 4
REMARK VINA RESULT:    -5.041      6.016      9.654
REMARK INTER + INTRA:         -14.084
REMARK INTER:                 -10.541
REMARK INTRA:                  -3.542
REMARK UNBOUND:                -2.560
REMARK SMILES CCCCCCCCCCCCCCCCCCCCCCCC(=O)[O-]
REMARK SMILES IDX 13 1 14 2 15 3 16 4 17 5 18 6 19 7 20 8 21 9 22 10 23 11
REMARK SMILES IDX 24 12 25 13 26 14 12 15 11 16 10 17 9 18 8 19 7 20 6 21 5 22
REMARK SMILES IDX 4 23 3 24 2 25 1 26
REMARK H PARENT
REMARK Flexibility Score: inf
ROOT
ATOM      1  C   UNL     1      27.001 -17.102  21.785  1.00  0.00     0.000 C 
ENDROOT
BRANCH   1   2
ATOM      2  C   UNL     1      27.381 -15.950  22.727  1.00  0.00     0.000 C 
BRANCH   2   3
ATOM      3  C   UNL     1      26.137 -15.389  23.434  1.00  0.00     0.000 C 
BRANCH   3   4
ATOM      4  C   UNL     1      26.106 -15.726  24.933  1.00  0.00     0.000 C 
BRANCH   4   5
ATOM      5  C   UNL     1      24.987 -14.982  25.684  1.00  0.00     0.000 C 
BRANCH   5   6
ATOM      6  C   UNL     1      25.219 -13.463  25.751  1.00  0.00     0.000 C 
BRANCH   6   7
ATOM      7  C   UNL     1      26.194 -12.999  26.852  1.00  0.00     0.000 C 
BRANCH   7   8
ATOM      8  C   UNL     1      27.286 -12.019  26.387  1.00  0.00     0.000 C 
BRANCH   8   9
ATOM      9  C   UNL     1      27.513 -11.976  24.865  1.00  0.00     0.000 C 
BRANCH   9  10
ATOM     10  C   UNL     1      28.598 -12.958  24.372  1.00  0.00     0.006 C 
BRANCH  10  11
ATOM     11  C   UNL     1      29.755 -12.242  23.663  1.00  0.00     0.053 C 
BRANCH  11  12
ATOM     12  C   UNL     1      30.423 -11.278  24.593  1.00  0.00     0.041 C 
ATOM     13  O   UNL     1      30.510 -10.061  24.287  1.00  0.00    -0.550 OA
ATOM     14  O   UNL     1      30.990 -11.734  25.778  1.00  0.00    -0.550 OA
ENDBRANCH  11  12
ENDBRANCH  10  11
ENDBRANCH   9  10
ENDBRANCH   8   9
ENDBRANCH   7   8
ENDBRANCH   6   7
ENDBRANCH   5   6
ENDBRANCH   4   5
ENDBRANCH   3   4
ENDBRANCH   2   3
ENDBRANCH   1   2
BRANCH   1  15
ATOM     15  C   UNL     1      27.782 -18.394  22.073  1.00  0.00     0.000 C 
BRANCH  15  16
ATOM     16  C   UNL     1      28.454 -18.382  23.458  1.00  0.00     0.000 C 
BRANCH  16  17
ATOM     17  C   UNL     1      29.217 -19.686  23.761  1.00  0.00     0.000 C 
BRANCH  17  18
ATOM     18  C   UNL     1      30.739 -19.621  23.532  1.00  0.00    -0.000 C 
BRANCH  18  19
ATOM     19  C   UNL     1      31.288 -20.599  22.473  1.00  0.00    -0.000 C 
BRANCH  19  20
ATOM     20  C   UNL     1      30.191 -21.332  21.672  1.00  0.00    -0.000 C 
BRANCH  20  21
ATOM     21  C   UNL     1      30.292 -21.074  20.158  1.00  0.00    -0.000 C 
BRANCH  21  22
ATOM     22  C   UNL     1      31.267 -19.923  19.826  1.00  0.00    -0.000 C 
BRANCH  22  23
ATOM     23  C   UNL     1      30.580 -18.553  19.673  1.00  0.00    -0.000 C 
BRANCH  23  24
ATOM     24  C   UNL     1      31.230 -17.413  20.476  1.00  0.00    -0.000 C 
BRANCH  24  25
ATOM     25  C   UNL     1      30.381 -16.132  20.480  1.00  0.00    -0.003 C 
ATOM     26  C   UNL     1      30.720 -15.254  21.681  1.00  0.00     0.004 C 
ENDBRANCH  24  25
ENDBRANCH  23  24
ENDBRANCH  22  23
ENDBRANCH  21  22
ENDBRANCH  20  21
ENDBRANCH  19  20
ENDBRANCH  18  19
ENDBRANCH  17  18
ENDBRANCH  16  17
ENDBRANCH  15  16
ENDBRANCH   1  15
TORSDOF 22
ENDMDL
MODEL 5
REMARK VINA RESULT:    -5.003      1.044      2.034
REMARK INTER + INTRA:         -13.997
REMARK INTER:                 -11.392
REMARK INTRA:                  -2.605
REMARK UNBOUND:                -2.560
REMARK SMILES CCCCCCCCCCCCCCCCCCCCCCCC(=O)[O-]
REMARK SMILES IDX 13 1 14 2 15 3 16 4 17 5 18 6 19 7 20 8 21 9 22 10 23 11
REMARK SMILES IDX 24 12 25 13 26 14 12 15 11 16 10 17 9 18 8 19 7 20 6 21 5 22
REMARK SMILES IDX 4 23 3 24 2 25 1 26
REMARK H PARENT
REMARK Flexibility Score: inf
ROOT
ATOM      1  C   UNL     1      26.356 -11.244  29.007  1.00  0.00     0.000 C 
ENDROOT
BRANCH   1   2
ATOM      2  C   UNL     1      25.939 -12.057  27.773  1.00  0.00     0.000 C 
BRANCH   2   3
ATOM      3  C   UNL     1      24.423 -11.961  27.541  1.00  0.00     0.000 C 
BRANCH   3   4
ATOM      4  C   UNL     1      23.775 -10.811  28.328  1.00  0.00     0.000 C 
BRANCH   4   5
ATOM      5  C   UNL     1      22.269 -10.673  28.043  1.00  0.00     0.000 C 
BRANCH   5   6
ATOM      6  C   UNL     1      21.940  -9.478  27.132  1.00  0.00     0.000 C 
BRANCH   6   7
ATOM      7  C   UNL     1      20.663  -8.700  27.511  1.00  0.00     0.000 C 
BRANCH   7   8
ATOM      8  C   UNL     1      20.703  -8.008  28.885  1.00  0.00     0.000 C 
BRANCH   8   9
ATOM      9  C   UNL     1      19.762  -8.613  29.942  1.00  0.00     0.000 C 
BRANCH   9  10
ATOM     10  C   UNL     1      20.414  -8.778  31.333  1.00  0.00     0.006 C 
BRANCH  10  11
ATOM     11  C   UNL     1      21.268 -10.049  31.430  1.00  0.00     0.053 C 
BRANCH  11  12
ATOM     12  C   UNL     1      20.405 -11.242  31.698  1.00  0.00     0.041 C 
ATOM     13  O   UNL     1      19.594 -11.233  32.660  1.00  0.00    -0.550 OA
ATOM     14  O   UNL     1      20.529 -12.381  30.911  1.00  0.00    -0.550 OA
ENDBRANCH  11  12
ENDBRANCH  10  11
ENDBRANCH   9  10
ENDBRANCH   8   9
ENDBRANCH   7   8
ENDBRANCH   6   7
ENDBRANCH   5   6
ENDBRANCH   4   5
ENDBRANCH   3   4
ENDBRANCH   2   3
ENDBRANCH   1   2
BRANCH   1  15
ATOM     15  C   UNL     1      27.870 -10.986  29.070  1.00  0.00     0.000 C 
BRANCH  15  16
ATOM     16  C   UNL     1      28.688 -12.091  28.378  1.00  0.00     0.000 C 
BRANCH  16  17
ATOM     17  C   UNL     1      29.748 -11.531  27.410  1.00  0.00     0.000 C 
BRANCH  17  18
ATOM     18  C   UNL     1      29.259 -10.396  26.491  1.00  0.00    -0.000 C 
BRANCH  18  19
ATOM     19  C   UNL     1      29.139 -10.764  24.998  1.00  0.00    -0.000 C 
BRANCH  19  20
ATOM     20  C   UNL     1      28.034 -11.798  24.696  1.00  0.00    -0.000 C 
BRANCH  20  21
ATOM     21  C   UNL     1      28.595 -13.114  24.130  1.00  0.00    -0.000 C 
BRANCH  21  22
ATOM     22  C   UNL     1      27.485 -14.151  23.854  1.00  0.00    -0.000 C 
BRANCH  22  23
ATOM     23  C   UNL     1      26.205 -13.924  24.680  1.00  0.00    -0.000 C 
BRANCH  23  24
ATOM     24  C   UNL     1      25.877 -15.044  25.681  1.00  0.00    -0.000 C 
BRANCH  24  25
ATOM     25  C   UNL     1      24.569 -15.778  25.343  1.00  0.00    -0.003 C 
ATOM     26  C   UNL     1      23.461 -15.401  26.322  1.00  0.00     0.004 C 
ENDBRANCH  24  25
ENDBRANCH  23  24
ENDBRANCH  22  23
ENDBRANCH  21  22
ENDBRANCH  20  21
ENDBRANCH  19  20
ENDBRANCH  18  19
ENDBRANCH  17  18
ENDBRANCH  16  17
ENDBRANCH  15  16
ENDBRANCH   1  15
TORSDOF 22
ENDMDL
MODEL 6
REMARK VINA RESULT:    -4.991      3.083      4.151
REMARK INTER + INTRA:         -13.970
REMARK INTER:                 -12.300
REMARK INTRA:                  -1.670
REMARK UNBOUND:                -2.560
REMARK SMILES CCCCCCCCCCCCCCCCCCCCCCCC(=O)[O-]
REMARK SMILES IDX 13 1 14 2 15 3 16 4 17 5 18 6 19 7 20 8 21 9 22 10 23 11
REMARK SMILES IDX 24 12 25 13 26 14 12 15 11 16 10 17 9 18 8 19 7 20 6 21 5 22
REMARK SMILES IDX 4 23 3 24 2 25 1 26
REMARK H PARENT
REMARK Flexibility Score: inf
ROOT
ATOM      1  C   UNL     1      24.713 -12.767  26.993  1.00  0.00     0.000 C 
ENDROOT
BRANCH   1   2
ATOM      2  C   UNL     1      24.502 -11.618  27.991  1.00  0.00     0.000 C 
BRANCH   2   3
ATOM      3  C   UNL     1      23.004 -11.374  28.234  1.00  0.00     0.000 C 
BRANCH   3   4
ATOM      4  C   UNL     1      22.643  -9.880  28.253  1.00  0.00     0.000 C 
BRANCH   4   5
ATOM      5  C   UNL     1      21.985  -9.414  26.942  1.00  0.00     0.000 C 
BRANCH   5   6
ATOM      6  C   UNL     1      20.526  -8.966  27.131  1.00  0.00     0.000 C 
BRANCH   6   7
ATOM      7  C   UNL     1      19.736  -9.750  28.199  1.00  0.00     0.000 C 
BRANCH   7   8
ATOM      8  C   UNL     1      19.288  -8.923  29.418  1.00  0.00     0.000 C 
BRANCH   8   9
ATOM      9  C   UNL     1      19.178  -9.717  30.733  1.00  0.00     0.000 C 
BRANCH   9  10
ATOM     10  C   UNL     1      19.515 -11.217  30.582  1.00  0.00     0.006 C 
BRANCH  10  11
ATOM     11  C   UNL     1      20.823 -11.596  31.288  1.00  0.00     0.053 C 
BRANCH  11  12
ATOM     12  C   UNL     1      20.539 -12.250  32.603  1.00  0.00     0.041 C 
ATOM     13  O   UNL     1      20.515 -13.505  32.694  1.00  0.00    -0.550 OA
ATOM     14  O   UNL     1      20.256 -11.473  33.721  1.00  0.00    -0.550 OA
ENDBRANCH  11  12
ENDBRANCH  10  11
ENDBRANCH   9  10
ENDBRANCH   8   9
ENDBRANCH   7   8
ENDBRANCH   6   7
ENDBRANCH   5   6
ENDBRANCH   4   5
ENDBRANCH   3   4
ENDBRANCH   2   3
ENDBRANCH   1   2
BRANCH   1  15
ATOM     15  C   UNL     1      25.499 -12.337  25.744  1.00  0.00     0.000 C 
BRANCH  15  16
ATOM     16  C   UNL     1      26.525 -13.393  25.297  1.00  0.00     0.000 C 
BRANCH  16  17
ATOM     17  C   UNL     1      26.072 -14.834  25.603  1.00  0.00     0.000 C 
BRANCH  17  18
ATOM     18  C   UNL     1      26.406 -15.870  24.513  1.00  0.00    -0.000 C 
BRANCH  18  19
ATOM     19  C   UNL     1      26.767 -15.282  23.135  1.00  0.00    -0.000 C 
BRANCH  19  20
ATOM     20  C   UNL     1      27.864 -16.068  22.387  1.00  0.00    -0.000 C 
BRANCH  20  21
ATOM     21  C   UNL     1      27.297 -17.236  21.562  1.00  0.00    -0.000 C 
BRANCH  21  22
ATOM     22  C   UNL     1      27.543 -18.602  22.237  1.00  0.00    -0.000 C 
BRANCH  22  23
ATOM     23  C   UNL     1      28.928 -19.204  21.931  1.00  0.00    -0.000 C 
BRANCH  23  24
ATOM     24  C   UNL     1      29.917 -19.175  23.108  1.00  0.00    -0.000 C 
BRANCH  24  25
ATOM     25  C   UNL     1      29.802 -20.414  24.010  1.00  0.00    -0.003 C 
ATOM     26  C   UNL     1      30.595 -21.585  23.437  1.00  0.00     0.004 C 
ENDBRANCH  24  25
ENDBRANCH  23  24
ENDBRANCH  22  23
ENDBRANCH  21  22
ENDBRANCH  20  21
ENDBRANCH  19  20
ENDBRANCH  18  19
ENDBRANCH  17  18
ENDBRANCH  16  17
ENDBRANCH  15  16
ENDBRANCH   1  15
TORSDOF 22
ENDMDL
MODEL 7
REMARK VINA RESULT:    -4.940      3.301      4.704
REMARK INTER + INTRA:         -13.853
REMARK INTER:                 -12.010
REMARK INTRA:                  -1.843
REMARK UNBOUND:                -2.560
REMARK SMILES CCCCCCCCCCCCCCCCCCCCCCCC(=O)[O-]
REMARK SMILES IDX 13 1 14 2 15 3 16 4 17 5 18 6 19 7 20 8 21 9 22 10 23 11
REMARK SMILES IDX 24 12 25 13 26 14 12 15 11 16 10 17 9 18 8 19 7 20 6 21 5 22
REMARK SMILES IDX 4 23 3 24 2 25 1 26
REMARK H PARENT
REMARK Flexibility Score: inf
ROOT
ATOM      1  C   UNL     1      24.638 -13.291  26.701  1.00  0.00     0.000 C 
ENDROOT
BRANCH   1   2
ATOM      2  C   UNL     1      24.764 -12.019  27.553  1.00  0.00     0.000 C 
BRANCH   2   3
ATOM      3  C   UNL     1      23.382 -11.531  28.016  1.00  0.00     0.000 C 
BRANCH   3   4
ATOM      4  C   UNL     1      23.462 -10.275  28.898  1.00  0.00     0.000 C 
BRANCH   4   5
ATOM      5  C   UNL     1      22.724  -9.072  28.284  1.00  0.00     0.000 C 
BRANCH   5   6
ATOM      6  C   UNL     1      21.995  -9.422  26.975  1.00  0.00     0.000 C 
BRANCH   6   7
ATOM      7  C   UNL     1      20.513  -9.001  26.922  1.00  0.00     0.000 C 
BRANCH   7   8
ATOM      8  C   UNL     1      20.056  -8.068  28.059  1.00  0.00     0.000 C 
BRANCH   8   9
ATOM      9  C   UNL     1      18.984  -8.661  28.990  1.00  0.00     0.000 C 
BRANCH   9  10
ATOM     10  C   UNL     1      19.562  -9.325  30.259  1.00  0.00     0.006 C 
BRANCH  10  11
ATOM     11  C   UNL     1      19.896 -10.807  30.043  1.00  0.00     0.053 C 
BRANCH  11  12
ATOM     12  C   UNL     1      19.341 -11.637  31.157  1.00  0.00     0.041 C 
ATOM     13  O   UNL     1      18.243 -11.329  31.691  1.00  0.00    -0.550 OA
ATOM     14  O   UNL     1      20.057 -12.728  31.636  1.00  0.00    -0.550 OA
ENDBRANCH  11  12
ENDBRANCH  10  11
ENDBRANCH   9  10
ENDBRANCH   8   9
ENDBRANCH   7   8
ENDBRANCH   6   7
ENDBRANCH   5   6
ENDBRANCH   4   5
ENDBRANCH   3   4
ENDBRANCH   2   3
ENDBRANCH   1   2
BRANCH   1  15
ATOM     15  C   UNL     1      25.953 -13.681  26.009  1.00  0.00     0.000 C 
BRANCH  15  16
ATOM     16  C   UNL     1      25.924 -15.111  25.442  1.00  0.00     0.000 C 
BRANCH  16  17
ATOM     17  C   UNL     1      25.792 -15.143  23.908  1.00  0.00     0.000 C 
BRANCH  17  18
ATOM     18  C   UNL     1      27.125 -15.153  23.137  1.00  0.00    -0.000 C 
BRANCH  18  19
ATOM     19  C   UNL     1      27.746 -16.546  22.914  1.00  0.00    -0.000 C 
BRANCH  19  20
ATOM     20  C   UNL     1      27.385 -17.181  21.554  1.00  0.00    -0.000 C 
BRANCH  20  21
ATOM     21  C   UNL     1      27.613 -18.703  21.534  1.00  0.00    -0.000 C 
BRANCH  21  22
ATOM     22  C   UNL     1      28.821 -19.101  20.660  1.00  0.00    -0.000 C 
BRANCH  22  23
ATOM     23  C   UNL     1      30.181 -18.905  21.356  1.00  0.00    -0.000 C 
BRANCH  23  24
ATOM     24  C   UNL     1      30.599 -20.054  22.288  1.00  0.00    -0.000 C 
BRANCH  24  25
ATOM     25  C   UNL     1      30.612 -19.642  23.768  1.00  0.00    -0.003 C 
ATOM     26  C   UNL     1      29.411 -20.222  24.509  1.00  0.00     0.004 C 
ENDBRANCH  24  25
ENDBRANCH  23  24
ENDBRANCH  22  23
ENDBRANCH  21  22
ENDBRANCH  20  21
ENDBRANCH  19  20
ENDBRANCH  18  19
ENDBRANCH  17  18
ENDBRANCH  16  17
ENDBRANCH  15  16
ENDBRANCH   1  15
TORSDOF 22
ENDMDL
MODEL 8
REMARK VINA RESULT:    -4.939      1.610      4.662
REMARK INTER + INTRA:         -13.850
REMARK INTER:                 -11.202
REMARK INTRA:                  -2.648
REMARK UNBOUND:                -2.560
REMARK SMILES CCCCCCCCCCCCCCCCCCCCCCCC(=O)[O-]
REMARK SMILES IDX 13 1 14 2 15 3 16 4 17 5 18 6 19 7 20 8 21 9 22 10 23 11
REMARK SMILES IDX 24 12 25 13 26 14 12 15 11 16 10 17 9 18 8 19 7 20 6 21 5 22
REMARK SMILES IDX 4 23 3 24 2 25 1 26
REMARK H PARENT
REMARK Flexibility Score: inf
ROOT
ATOM      1  C   UNL     1      25.889 -15.021  25.747  1.00  0.00     0.000 C 
ENDROOT
BRANCH   1   2
ATOM      2  C   UNL     1      24.368 -14.808  25.753  1.00  0.00     0.000 C 
BRANCH   2   3
ATOM      3  C   UNL     1      23.957 -13.834  26.869  1.00  0.00     0.000 C 
BRANCH   3   4
ATOM      4  C   UNL     1      24.731 -12.508  26.813  1.00  0.00     0.000 C 
BRANCH   4   5
ATOM      5  C   UNL     1      24.458 -11.612  28.034  1.00  0.00     0.000 C 
BRANCH   5   6
ATOM      6  C   UNL     1      22.973 -11.243  28.186  1.00  0.00     0.000 C 
BRANCH   6   7
ATOM      7  C   UNL     1      22.651  -9.745  28.013  1.00  0.00     0.000 C 
BRANCH   7   8
ATOM      8  C   UNL     1      21.603  -9.423  26.932  1.00  0.00     0.000 C 
BRANCH   8   9
ATOM      9  C   UNL     1      20.297  -8.802  27.462  1.00  0.00     0.000 C 
BRANCH   9  10
ATOM     10  C   UNL     1      20.374  -8.364  28.941  1.00  0.00     0.006 C 
BRANCH  10  11
ATOM     11  C   UNL     1      19.264  -8.990  29.795  1.00  0.00     0.053 C 
BRANCH  11  12
ATOM     12  C   UNL     1      19.789 -10.166  30.557  1.00  0.00     0.041 C 
ATOM     13  O   UNL     1      20.175 -10.030  31.747  1.00  0.00    -0.550 OA
ATOM     14  O   UNL     1      19.892 -11.407  29.937  1.00  0.00    -0.550 OA
ENDBRANCH  11  12
ENDBRANCH  10  11
ENDBRANCH   9  10
ENDBRANCH   8   9
ENDBRANCH   7   8
ENDBRANCH   6   7
ENDBRANCH   5   6
ENDBRANCH   4   5
ENDBRANCH   3   4
ENDBRANCH   2   3
ENDBRANCH   1   2
BRANCH   1  15
ATOM     15  C   UNL     1      26.446 -15.323  24.347  1.00  0.00     0.000 C 
BRANCH  15  16
ATOM     16  C   UNL     1      27.418 -14.239  23.849  1.00  0.00     0.000 C 
BRANCH  16  17
ATOM     17  C   UNL     1      27.665 -13.133  24.893  1.00  0.00     0.000 C 
BRANCH  17  18
ATOM     18  C   UNL     1      28.421 -11.897  24.369  1.00  0.00    -0.000 C 
BRANCH  18  19
ATOM     19  C   UNL     1      29.941 -12.082  24.192  1.00  0.00    -0.000 C 
BRANCH  19  20
ATOM     20  C   UNL     1      30.749 -10.774  24.330  1.00  0.00    -0.000 C 
BRANCH  20  21
ATOM     21  C   UNL     1      29.883  -9.590  24.794  1.00  0.00    -0.000 C 
BRANCH  21  22
ATOM     22  C   UNL     1      30.565  -8.769  25.910  1.00  0.00    -0.000 C 
BRANCH  22  23
ATOM     23  C   UNL     1      30.160  -9.201  27.332  1.00  0.00    -0.000 C 
BRANCH  23  24
ATOM     24  C   UNL     1      28.839  -9.984  27.415  1.00  0.00    -0.000 C 
BRANCH  24  25
ATOM     25  C   UNL     1      28.943 -11.229  28.309  1.00  0.00    -0.003 C 
ATOM     26  C   UNL     1      30.200 -12.032  27.987  1.00  0.00     0.004 C 
ENDBRANCH  24  25
ENDBRANCH  23  24
ENDBRANCH  22  23
ENDBRANCH  21  22
ENDBRANCH  20  21
ENDBRANCH  19  20
ENDBRANCH  18  19
ENDBRANCH  17  18
ENDBRANCH  16  17
ENDBRANCH  15  16
ENDBRANCH   1  15
TORSDOF 22
ENDMDL
MODEL 9
REMARK VINA RESULT:    -4.898      4.824      8.069
REMARK INTER + INTRA:         -13.756
REMARK INTER:                 -11.140
REMARK INTRA:                  -2.616
REMARK UNBOUND:                -2.560
REMARK SMILES CCCCCCCCCCCCCCCCCCCCCCCC(=O)[O-]
REMARK SMILES IDX 13 1 14 2 15 3 16 4 17 5 18 6 19 7 20 8 21 9 22 10 23 11
REMARK SMILES IDX 24 12 25 13 26 14 12 15 11 16 10 17 9 18 8 19 7 20 6 21 5 22
REMARK SMILES IDX 4 23 3 24 2 25 1 26
REMARK H PARENT
REMARK Flexibility Score: inf
ROOT
ATOM      1  C   UNL     1      24.782 -15.329  25.696  1.00  0.00     0.000 C 
ENDROOT
BRANCH   1   2
ATOM      2  C   UNL     1      24.818 -13.845  26.092  1.00  0.00     0.000 C 
BRANCH   2   3
ATOM      3  C   UNL     1      26.245 -13.412  26.464  1.00  0.00     0.000 C 
BRANCH   3   4
ATOM      4  C   UNL     1      26.741 -12.225  25.624  1.00  0.00     0.000 C 
BRANCH   4   5
ATOM      5  C   UNL     1      28.045 -12.539  24.868  1.00  0.00     0.000 C 
BRANCH   5   6
ATOM      6  C   UNL     1      28.907 -11.290  24.617  1.00  0.00     0.000 C 
BRANCH   6   7
ATOM      7  C   UNL     1      29.664 -10.761  25.852  1.00  0.00     0.000 C 
BRANCH   7   8
ATOM      8  C   UNL     1      30.589 -11.781  26.539  1.00  0.00     0.000 C 
BRANCH   8   9
ATOM      9  C   UNL     1      30.256 -12.064  28.016  1.00  0.00     0.000 C 
BRANCH   9  10
ATOM     10  C   UNL     1      29.336 -11.004  28.659  1.00  0.00     0.006 C 
BRANCH  10  11
ATOM     11  C   UNL     1      28.005 -11.598  29.136  1.00  0.00     0.053 C 
BRANCH  11  12
ATOM     12  C   UNL     1      26.917 -10.573  29.065  1.00  0.00     0.041 C 
ATOM     13  O   UNL     1      25.729 -10.924  28.844  1.00  0.00    -0.550 OA
ATOM     14  O   UNL     1      27.223  -9.223  29.198  1.00  0.00    -0.550 OA
ENDBRANCH  11  12
ENDBRANCH  10  11
ENDBRANCH   9  10
ENDBRANCH   8   9
ENDBRANCH   7   8
ENDBRANCH   6   7
ENDBRANCH   5   6
ENDBRANCH   4   5
ENDBRANCH   3   4
ENDBRANCH   2   3
ENDBRANCH   1   2
BRANCH   1  15
ATOM     15  C   UNL     1      26.059 -15.785  24.972  1.00  0.00     0.000 C 
BRANCH  15  16
ATOM     16  C   UNL     1      26.111 -15.315  23.508  1.00  0.00     0.000 C 
BRANCH  16  17
ATOM     17  C   UNL     1      27.439 -15.671  22.813  1.00  0.00     0.000 C 
BRANCH  17  18
ATOM     18  C   UNL     1      27.629 -17.166  22.494  1.00  0.00    -0.000 C 
BRANCH  18  19
ATOM     19  C   UNL     1      27.789 -17.505  20.999  1.00  0.00    -0.000 C 
BRANCH  19  20
ATOM     20  C   UNL     1      27.892 -19.017  20.708  1.00  0.00    -0.000 C 
BRANCH  20  21
ATOM     21  C   UNL     1      29.056 -19.359  19.761  1.00  0.00    -0.000 C 
BRANCH  21  22
ATOM     22  C   UNL     1      30.384 -19.569  20.521  1.00  0.00    -0.000 C 
BRANCH  22  23
ATOM     23  C   UNL     1      30.622 -21.025  20.963  1.00  0.00    -0.000 C 
BRANCH  23  24
ATOM     24  C   UNL     1      30.340 -21.301  22.450  1.00  0.00    -0.000 C 
BRANCH  24  25
ATOM     25  C   UNL     1      30.486 -20.046  23.324  1.00  0.00    -0.003 C 
ATOM     26  C   UNL     1      29.395 -19.990  24.390  1.00  0.00     0.004 C 
ENDBRANCH  24  25
ENDBRANCH  23  24
ENDBRANCH  22  23
ENDBRANCH  21  22
ENDBRANCH  20  21
ENDBRANCH  19  20
ENDBRANCH  18  19
ENDBRANCH  17  18
ENDBRANCH  16  17
ENDBRANCH  15  16
ENDBRANCH   1  15
TORSDOF 22
ENDMDL
