MODEL 1
REMARK VINA RESULT:    -6.449      0.000      0.000
REMARK INTER + INTRA:          -7.873
REMARK INTER:                  -7.580
REMARK INTRA:                  -0.294
REMARK UNBOUND:                -0.294
REMARK SMILES O=c1cc(-c2ccc(O)c(O)c2)oc2cc(O)cc(O)c12
REMARK SMILES IDX 4 1 3 2 2 3 1 4 21 5 19 6 18 7 16 8 15 9 14 10 13 11 5 12
REMARK SMILES IDX 6 13 7 14 8 15 12 16 10 17 9 18 11 20 20 22 17 24
REMARK H PARENT 9 19 11 21 20 23 17 25
REMARK Flexibility Score: inf
ROOT
ATOM      1  C   UNL     1      40.695  -1.254 -15.118  1.00  0.00     0.138 A 
ATOM      2  C   UNL     1      41.924  -1.328 -14.447  1.00  0.00     0.100 A 
ATOM      3  C   UNL     1      42.932  -2.156 -14.942  1.00  0.00     0.197 A 
ATOM      4  O   UNL     1      43.999  -2.251 -14.285  1.00  0.00    -0.289 OA
ATOM      5  C   UNL     1      42.717  -2.889 -16.134  1.00  0.00     0.107 A 
ATOM      6  C   UNL     1      43.686  -3.733 -16.754  1.00  0.00     0.134 A 
ATOM      7  C   UNL     1      43.323  -4.500 -17.868  1.00  0.00     0.093 A 
ATOM      8  C   UNL     1      42.045  -4.407 -18.420  1.00  0.00     0.123 A 
ATOM      9  C   UNL     1      41.106  -3.545 -17.854  1.00  0.00     0.094 A 
ATOM     10  C   UNL     1      41.429  -2.793 -16.722  1.00  0.00     0.146 A 
ATOM     11  O   UNL     1      40.500  -1.994 -16.204  1.00  0.00    -0.456 OA
ENDROOT
BRANCH   1  12
ATOM     12  C   UNL     1      39.589  -0.387 -14.636  1.00  0.00     0.021 A 
ATOM     13  C   UNL     1      39.815   0.939 -14.224  1.00  0.00     0.016 A 
ATOM     14  C   UNL     1      38.753   1.735 -13.784  1.00  0.00     0.051 A 
ATOM     15  C   UNL     1      37.451   1.224 -13.754  1.00  0.00     0.157 A 
ATOM     16  C   UNL     1      38.275  -0.890 -14.616  1.00  0.00     0.062 A 
ATOM     17  C   UNL     1      37.211  -0.095 -14.174  1.00  0.00     0.158 A 
BRANCH  15  18
ATOM     18  O   UNL     1      36.395   2.020 -13.313  1.00  0.00    -0.504 OA
ATOM     19  H   UNL     1      36.478   2.603 -12.488  1.00  0.00     0.293 HD
ENDBRANCH  15  18
BRANCH  17  20
ATOM     20  O   UNL     1      35.924  -0.633 -14.160  1.00  0.00    -0.504 OA
ATOM     21  H   UNL     1      35.237  -0.365 -13.468  1.00  0.00     0.293 HD
ENDBRANCH  17  20
ENDBRANCH   1  12
BRANCH   6  22
ATOM     22  O   UNL     1      45.016  -3.835 -16.334  1.00  0.00    -0.507 OA
ATOM     23  H   UNL     1      45.669  -3.068 -16.296  1.00  0.00     0.293 HD
ENDBRANCH   6  22
BRANCH   8  24
ATOM     24  O   UNL     1      41.723  -5.174 -19.538  1.00  0.00    -0.508 OA
ATOM     25  H   UNL     1      41.687  -6.185 -19.496  1.00  0.00     0.293 HD
ENDBRANCH   8  24
TORSDOF 5
ENDMDL
MODEL 2
REMARK VINA RESULT:    -6.367      1.966      2.259
REMARK INTER + INTRA:          -7.777
REMARK INTER:                  -7.506
REMARK INTRA:                  -0.272
REMARK UNBOUND:                -0.294
REMARK SMILES O=c1cc(-c2ccc(O)c(O)c2)oc2cc(O)cc(O)c12
REMARK SMILES IDX 4 1 3 2 2 3 1 4 21 5 19 6 18 7 16 8 15 9 14 10 13 11 5 12
REMARK SMILES IDX 6 13 7 14 8 15 12 16 10 17 9 18 11 20 20 22 17 24
REMARK H PARENT 9 19 11 21 20 23 17 25
REMARK Flexibility Score: inf
ROOT
ATOM      1  C   UNL     1      41.254  -1.776 -15.466  1.00  0.00     0.138 A 
ATOM      2  C   UNL     1      42.502  -1.139 -15.408  1.00  0.00     0.100 A 
ATOM      3  C   UNL     1      43.485  -1.459 -16.346  1.00  0.00     0.197 A 
ATOM      4  O   UNL     1      44.614  -0.919 -16.230  1.00  0.00    -0.289 OA
ATOM      5  C   UNL     1      43.203  -2.399 -17.366  1.00  0.00     0.107 A 
ATOM      6  C   UNL     1      44.114  -2.773 -18.399  1.00  0.00     0.134 A 
ATOM      7  C   UNL     1      43.768  -3.799 -19.287  1.00  0.00     0.093 A 
ATOM      8  C   UNL     1      42.522  -4.422 -19.216  1.00  0.00     0.123 A 
ATOM      9  C   UNL     1      41.603  -4.028 -18.243  1.00  0.00     0.094 A 
ATOM     10  C   UNL     1      41.933  -3.031 -17.322  1.00  0.00     0.146 A 
ATOM     11  O   UNL     1      41.034  -2.694 -16.401  1.00  0.00    -0.456 OA
ENDROOT
BRANCH   1  12
ATOM     12  C   UNL     1      40.172  -1.472 -14.495  1.00  0.00     0.021 A 
ATOM     13  C   UNL     1      38.859  -1.192 -14.915  1.00  0.00     0.016 A 
ATOM     14  C   UNL     1      37.858  -0.920 -13.978  1.00  0.00     0.051 A 
ATOM     15  C   UNL     1      38.150  -0.928 -12.609  1.00  0.00     0.157 A 
ATOM     16  C   UNL     1      40.454  -1.492 -13.117  1.00  0.00     0.062 A 
ATOM     17  C   UNL     1      39.454  -1.218 -12.177  1.00  0.00     0.158 A 
BRANCH  15  18
ATOM     18  O   UNL     1      37.150  -0.654 -11.677  1.00  0.00    -0.504 OA
ATOM     19  H   UNL     1      36.966   0.290 -11.357  1.00  0.00     0.293 HD
ENDBRANCH  15  18
BRANCH  17  20
ATOM     20  O   UNL     1      39.777  -1.238 -10.820  1.00  0.00    -0.504 OA
ATOM     21  H   UNL     1      40.734  -1.209 -10.494  1.00  0.00     0.293 HD
ENDBRANCH  17  20
ENDBRANCH   1  12
BRANCH   6  22
ATOM     22  O   UNL     1      45.350  -2.155 -18.612  1.00  0.00    -0.507 OA
ATOM     23  H   UNL     1      45.488  -1.307 -19.141  1.00  0.00     0.293 HD
ENDBRANCH   6  22
BRANCH   8  24
ATOM     24  O   UNL     1      42.205  -5.430 -20.125  1.00  0.00    -0.508 OA
ATOM     25  H   UNL     1      41.302  -5.888 -20.116  1.00  0.00     0.293 HD
ENDBRANCH   8  24
TORSDOF 5
ENDMDL
MODEL 3
REMARK VINA RESULT:    -6.274     14.841     16.207
REMARK INTER + INTRA:          -7.668
REMARK INTER:                  -7.373
REMARK INTRA:                  -0.294
REMARK UNBOUND:                -0.294
REMARK SMILES O=c1cc(-c2ccc(O)c(O)c2)oc2cc(O)cc(O)c12
REMARK SMILES IDX 4 1 3 2 2 3 1 4 21 5 19 6 18 7 16 8 15 9 14 10 13 11 5 12
REMARK SMILES IDX 6 13 7 14 8 15 12 16 10 17 9 18 11 20 20 22 17 24
REMARK H PARENT 9 19 11 21 20 23 17 25
REMARK Flexibility Score: inf
ROOT
ATOM      1  C   UNL     1      30.615 -12.336  -8.561  1.00  0.00     0.138 A 
ATOM      2  C   UNL     1      30.582 -13.724  -8.759  1.00  0.00     0.100 A 
ATOM      3  C   UNL     1      30.991 -14.257  -9.981  1.00  0.00     0.197 A 
ATOM      4  O   UNL     1      30.891 -15.499 -10.151  1.00  0.00    -0.289 OA
ATOM      5  C   UNL     1      31.467 -13.397 -11.000  1.00  0.00     0.107 A 
ATOM      6  C   UNL     1      31.948 -13.831 -12.271  1.00  0.00     0.134 A 
ATOM      7  C   UNL     1      32.284 -12.881 -13.243  1.00  0.00     0.093 A 
ATOM      8  C   UNL     1      32.214 -11.515 -12.970  1.00  0.00     0.123 A 
ATOM      9  C   UNL     1      31.796 -11.080 -11.712  1.00  0.00     0.094 A 
ATOM     10  C   UNL     1      31.421 -12.003 -10.734  1.00  0.00     0.146 A 
ATOM     11  O   UNL     1      31.014 -11.546  -9.553  1.00  0.00    -0.456 OA
ENDROOT
BRANCH   1  12
ATOM     12  C   UNL     1      30.193 -11.716  -7.280  1.00  0.00     0.021 A 
ATOM     13  C   UNL     1      30.083 -10.321  -7.134  1.00  0.00     0.016 A 
ATOM     14  C   UNL     1      29.673  -9.765  -5.918  1.00  0.00     0.051 A 
ATOM     15  C   UNL     1      29.360 -10.591  -4.833  1.00  0.00     0.157 A 
ATOM     16  C   UNL     1      29.863 -12.540  -6.188  1.00  0.00     0.062 A 
ATOM     17  C   UNL     1      29.453 -11.986  -4.970  1.00  0.00     0.158 A 
BRANCH  15  18
ATOM     18  O   UNL     1      28.953 -10.033  -3.622  1.00  0.00    -0.504 OA
ATOM     19  H   UNL     1      29.450 -10.217  -2.758  1.00  0.00     0.293 HD
ENDBRANCH  15  18
BRANCH  17  20
ATOM     20  O   UNL     1      29.145 -12.836  -3.908  1.00  0.00    -0.504 OA
ATOM     21  H   UNL     1      28.440 -12.604  -3.220  1.00  0.00     0.293 HD
ENDBRANCH  17  20
ENDBRANCH   1  12
BRANCH   6  22
ATOM     22  O   UNL     1      32.138 -15.172 -12.618  1.00  0.00    -0.507 OA
ATOM     23  H   UNL     1      31.601 -15.944 -12.252  1.00  0.00     0.293 HD
ENDBRANCH   6  22
BRANCH   8  24
ATOM     24  O   UNL     1      32.571 -10.598 -13.957  1.00  0.00    -0.508 OA
ATOM     25  H   UNL     1      31.875 -10.154 -14.545  1.00  0.00     0.293 HD
ENDBRANCH   8  24
TORSDOF 5
ENDMDL
MODEL 4
REMARK VINA RESULT:    -6.178      1.870      3.132
REMARK INTER + INTRA:          -7.555
REMARK INTER:                  -7.263
REMARK INTRA:                  -0.293
REMARK UNBOUND:                -0.294
REMARK SMILES O=c1cc(-c2ccc(O)c(O)c2)oc2cc(O)cc(O)c12
REMARK SMILES IDX 4 1 3 2 2 3 1 4 21 5 19 6 18 7 16 8 15 9 14 10 13 11 5 12
REMARK SMILES IDX 6 13 7 14 8 15 12 16 10 17 9 18 11 20 20 22 17 24
REMARK H PARENT 9 19 11 21 20 23 17 25
REMARK Flexibility Score: inf
ROOT
ATOM      1  C   UNL     1      40.079  -1.616 -14.832  1.00  0.00     0.138 A 
ATOM      2  C   UNL     1      39.738  -1.594 -16.193  1.00  0.00     0.100 A 
ATOM      3  C   UNL     1      40.721  -1.832 -17.155  1.00  0.00     0.197 A 
ATOM      4  O   UNL     1      40.399  -1.743 -18.367  1.00  0.00    -0.289 OA
ATOM      5  C   UNL     1      42.045  -2.125 -16.750  1.00  0.00     0.107 A 
ATOM      6  C   UNL     1      43.119  -2.424 -17.640  1.00  0.00     0.134 A 
ATOM      7  C   UNL     1      44.414  -2.584 -17.131  1.00  0.00     0.093 A 
ATOM      8  C   UNL     1      44.662  -2.516 -15.760  1.00  0.00     0.123 A 
ATOM      9  C   UNL     1      43.610  -2.277 -14.876  1.00  0.00     0.094 A 
ATOM     10  C   UNL     1      42.313  -2.079 -15.356  1.00  0.00     0.146 A 
ATOM     11  O   UNL     1      41.341  -1.840 -14.481  1.00  0.00    -0.456 OA
ENDROOT
BRANCH   1  12
ATOM     12  C   UNL     1      39.073  -1.372 -13.768  1.00  0.00     0.021 A 
ATOM     13  C   UNL     1      39.353  -1.631 -12.413  1.00  0.00     0.016 A 
ATOM     14  C   UNL     1      38.390  -1.381 -11.430  1.00  0.00     0.051 A 
ATOM     15  C   UNL     1      37.138  -0.865 -11.782  1.00  0.00     0.157 A 
ATOM     16  C   UNL     1      37.818  -0.839 -14.112  1.00  0.00     0.062 A 
ATOM     17  C   UNL     1      36.852  -0.590 -13.130  1.00  0.00     0.158 A 
BRANCH  15  18
ATOM     18  O   UNL     1      36.180  -0.619 -10.800  1.00  0.00    -0.504 OA
ATOM     19  H   UNL     1      36.422  -0.593  -9.816  1.00  0.00     0.293 HD
ENDBRANCH  15  18
BRANCH  17  20
ATOM     20  O   UNL     1      35.615  -0.071 -13.513  1.00  0.00    -0.504 OA
ATOM     21  H   UNL     1      35.279   0.823 -13.177  1.00  0.00     0.293 HD
ENDBRANCH  17  20
ENDBRANCH   1  12
BRANCH   6  22
ATOM     22  O   UNL     1      42.965  -2.598 -19.019  1.00  0.00    -0.507 OA
ATOM     23  H   UNL     1      42.192  -2.247 -19.562  1.00  0.00     0.293 HD
ENDBRANCH   6  22
BRANCH   8  24
ATOM     24  O   UNL     1      45.961  -2.695 -15.287  1.00  0.00    -0.508 OA
ATOM     25  H   UNL     1      46.142  -3.060 -14.360  1.00  0.00     0.293 HD
ENDBRANCH   8  24
TORSDOF 5
ENDMDL
MODEL 5
REMARK VINA RESULT:    -6.122      2.062      3.075
REMARK INTER + INTRA:          -7.490
REMARK INTER:                  -7.172
REMARK INTRA:                  -0.317
REMARK UNBOUND:                -0.294
REMARK SMILES O=c1cc(-c2ccc(O)c(O)c2)oc2cc(O)cc(O)c12
REMARK SMILES IDX 4 1 3 2 2 3 1 4 21 5 19 6 18 7 16 8 15 9 14 10 13 11 5 12
REMARK SMILES IDX 6 13 7 14 8 15 12 16 10 17 9 18 11 20 20 22 17 24
REMARK H PARENT 9 19 11 21 20 23 17 25
REMARK Flexibility Score: inf
ROOT
ATOM      1  C   UNL     1      40.403  -1.393 -15.164  1.00  0.00     0.138 A 
ATOM      2  C   UNL     1      39.961  -1.156 -16.474  1.00  0.00     0.100 A 
ATOM      3  C   UNL     1      40.673  -1.688 -17.549  1.00  0.00     0.197 A 
ATOM      4  O   UNL     1      40.289  -1.406 -18.713  1.00  0.00    -0.289 OA
ATOM      5  C   UNL     1      41.815  -2.489 -17.309  1.00  0.00     0.107 A 
ATOM      6  C   UNL     1      42.595  -3.116 -18.326  1.00  0.00     0.134 A 
ATOM      7  C   UNL     1      43.772  -3.790 -17.977  1.00  0.00     0.093 A 
ATOM      8  C   UNL     1      44.165  -3.910 -16.643  1.00  0.00     0.123 A 
ATOM      9  C   UNL     1      43.381  -3.345 -15.637  1.00  0.00     0.094 A 
ATOM     10  C   UNL     1      42.220  -2.638 -15.957  1.00  0.00     0.146 A 
ATOM     11  O   UNL     1      41.509  -2.103 -14.969  1.00  0.00    -0.456 OA
ENDROOT
BRANCH   1  12
ATOM     12  C   UNL     1      39.682  -0.853 -13.983  1.00  0.00     0.021 A 
ATOM     13  C   UNL     1      38.606   0.043 -14.120  1.00  0.00     0.016 A 
ATOM     14  C   UNL     1      37.939   0.528 -12.991  1.00  0.00     0.051 A 
ATOM     15  C   UNL     1      38.331   0.123 -11.710  1.00  0.00     0.157 A 
ATOM     16  C   UNL     1      40.061  -1.266 -12.693  1.00  0.00     0.062 A 
ATOM     17  C   UNL     1      39.396  -0.781 -11.561  1.00  0.00     0.158 A 
BRANCH  15  18
ATOM     18  O   UNL     1      37.665   0.610 -10.587  1.00  0.00    -0.504 OA
ATOM     19  H   UNL     1      38.150   0.779  -9.713  1.00  0.00     0.293 HD
ENDBRANCH  15  18
BRANCH  17  20
ATOM     20  O   UNL     1      39.808  -1.207 -10.298  1.00  0.00    -0.504 OA
ATOM     21  H   UNL     1      40.764  -1.107  -9.983  1.00  0.00     0.293 HD
ENDBRANCH  17  20
ENDBRANCH   1  12
BRANCH   6  22
ATOM     22  O   UNL     1      42.248  -3.130 -19.681  1.00  0.00    -0.507 OA
ATOM     23  H   UNL     1      42.882  -2.938 -20.441  1.00  0.00     0.293 HD
ENDBRANCH   6  22
BRANCH   8  24
ATOM     24  O   UNL     1      45.334  -4.599 -16.331  1.00  0.00    -0.508 OA
ATOM     25  H   UNL     1      45.531  -5.514 -16.720  1.00  0.00     0.293 HD
ENDBRANCH   8  24
TORSDOF 5
ENDMDL
MODEL 6
REMARK VINA RESULT:    -6.099     15.388     16.635
REMARK INTER + INTRA:          -7.463
REMARK INTER:                  -7.147
REMARK INTRA:                  -0.316
REMARK UNBOUND:                -0.294
REMARK SMILES O=c1cc(-c2ccc(O)c(O)c2)oc2cc(O)cc(O)c12
REMARK SMILES IDX 4 1 3 2 2 3 1 4 21 5 19 6 18 7 16 8 15 9 14 10 13 11 5 12
REMARK SMILES IDX 6 13 7 14 8 15 12 16 10 17 9 18 11 20 20 22 17 24
REMARK H PARENT 9 19 11 21 20 23 17 25
REMARK Flexibility Score: inf
ROOT
ATOM      1  C   UNL     1      30.644 -12.178  -8.614  1.00  0.00     0.138 A 
ATOM      2  C   UNL     1      31.131 -11.360  -9.644  1.00  0.00     0.100 A 
ATOM      3  C   UNL     1      31.602 -11.940 -10.822  1.00  0.00     0.197 A 
ATOM      4  O   UNL     1      32.091 -11.185 -11.701  1.00  0.00    -0.289 OA
ATOM      5  C   UNL     1      31.555 -13.345 -10.982  1.00  0.00     0.107 A 
ATOM      6  C   UNL     1      31.969 -14.044 -12.155  1.00  0.00     0.134 A 
ATOM      7  C   UNL     1      31.986 -15.444 -12.156  1.00  0.00     0.093 A 
ATOM      8  C   UNL     1      31.545 -16.170 -11.049  1.00  0.00     0.123 A 
ATOM      9  C   UNL     1      31.088 -15.497  -9.916  1.00  0.00     0.094 A 
ATOM     10  C   UNL     1      31.092 -14.101  -9.873  1.00  0.00     0.146 A 
ATOM     11  O   UNL     1      30.661 -13.498  -8.768  1.00  0.00    -0.456 OA
ENDROOT
BRANCH   1  12
ATOM     12  C   UNL     1      30.130 -11.614  -7.341  1.00  0.00     0.021 A 
ATOM     13  C   UNL     1      29.850 -10.242  -7.199  1.00  0.00     0.016 A 
ATOM     14  C   UNL     1      29.357  -9.740  -5.991  1.00  0.00     0.051 A 
ATOM     15  C   UNL     1      29.129 -10.598  -4.909  1.00  0.00     0.157 A 
ATOM     16  C   UNL     1      29.885 -12.472  -6.253  1.00  0.00     0.062 A 
ATOM     17  C   UNL     1      29.393 -11.971  -5.042  1.00  0.00     0.158 A 
BRANCH  15  18
ATOM     18  O   UNL     1      28.639 -10.093  -3.706  1.00  0.00    -0.504 OA
ATOM     19  H   UNL     1      28.230 -10.698  -3.003  1.00  0.00     0.293 HD
ENDBRANCH  15  18
BRANCH  17  20
ATOM     20  O   UNL     1      29.173 -12.853  -3.984  1.00  0.00    -0.504 OA
ATOM     21  H   UNL     1      29.607 -13.766  -3.945  1.00  0.00     0.293 HD
ENDBRANCH  17  20
ENDBRANCH   1  12
BRANCH   6  22
ATOM     22  O   UNL     1      32.347 -13.416 -13.346  1.00  0.00    -0.507 OA
ATOM     23  H   UNL     1      33.189 -12.875 -13.471  1.00  0.00     0.293 HD
ENDBRANCH   6  22
BRANCH   8  24
ATOM     24  O   UNL     1      31.561 -17.563 -11.090  1.00  0.00    -0.508 OA
ATOM     25  H   UNL     1      31.697 -18.117 -10.252  1.00  0.00     0.293 HD
ENDBRANCH   8  24
TORSDOF 5
ENDMDL
MODEL 7
REMARK VINA RESULT:    -5.862     14.882     17.634
REMARK INTER + INTRA:          -7.184
REMARK INTER:                  -6.918
REMARK INTRA:                  -0.266
REMARK UNBOUND:                -0.294
REMARK SMILES O=c1cc(-c2ccc(O)c(O)c2)oc2cc(O)cc(O)c12
REMARK SMILES IDX 4 1 3 2 2 3 1 4 21 5 19 6 18 7 16 8 15 9 14 10 13 11 5 12
REMARK SMILES IDX 6 13 7 14 8 15 12 16 10 17 9 18 11 20 20 22 17 24
REMARK H PARENT 9 19 11 21 20 23 17 25
REMARK Flexibility Score: inf
ROOT
ATOM      1  C   UNL     1      29.840 -11.562  -9.178  1.00  0.00     0.138 A 
ATOM      2  C   UNL     1      29.017 -10.429  -9.243  1.00  0.00     0.100 A 
ATOM      3  C   UNL     1      28.383  -9.969  -8.088  1.00  0.00     0.197 A 
ATOM      4  O   UNL     1      27.602  -8.989  -8.189  1.00  0.00    -0.289 OA
ATOM      5  C   UNL     1      28.601 -10.631  -6.856  1.00  0.00     0.107 A 
ATOM      6  C   UNL     1      28.040 -10.228  -5.607  1.00  0.00     0.134 A 
ATOM      7  C   UNL     1      28.231 -11.027  -4.474  1.00  0.00     0.093 A 
ATOM      8  C   UNL     1      29.013 -12.181  -4.530  1.00  0.00     0.123 A 
ATOM      9  C   UNL     1      29.610 -12.556  -5.734  1.00  0.00     0.094 A 
ATOM     10  C   UNL     1      29.409 -11.797  -6.889  1.00  0.00     0.146 A 
ATOM     11  O   UNL     1      29.984 -12.197  -8.020  1.00  0.00    -0.456 OA
ENDROOT
BRANCH   1  12
ATOM     12  C   UNL     1      30.540 -12.093 -10.376  1.00  0.00     0.021 A 
ATOM     13  C   UNL     1      30.300 -13.393 -10.857  1.00  0.00     0.016 A 
ATOM     14  C   UNL     1      30.966 -13.863 -11.993  1.00  0.00     0.051 A 
ATOM     15  C   UNL     1      31.875 -13.042 -12.670  1.00  0.00     0.157 A 
ATOM     16  C   UNL     1      31.444 -11.269 -11.070  1.00  0.00     0.062 A 
ATOM     17  C   UNL     1      32.113 -11.737 -12.207  1.00  0.00     0.158 A 
BRANCH  15  18
ATOM     18  O   UNL     1      32.538 -13.514 -13.801  1.00  0.00    -0.504 OA
ATOM     19  H   UNL     1      32.185 -13.339 -14.735  1.00  0.00     0.293 HD
ENDBRANCH  15  18
BRANCH  17  20
ATOM     20  O   UNL     1      33.010 -10.893 -12.861  1.00  0.00    -0.504 OA
ATOM     21  H   UNL     1      33.332 -10.026 -12.449  1.00  0.00     0.293 HD
ENDBRANCH  17  20
ENDBRANCH   1  12
BRANCH   6  22
ATOM     22  O   UNL     1      27.314  -9.047  -5.422  1.00  0.00    -0.507 OA
ATOM     23  H   UNL     1      26.862  -8.526  -6.158  1.00  0.00     0.293 HD
ENDBRANCH   6  22
BRANCH   8  24
ATOM     24  O   UNL     1      29.194 -12.945  -3.379  1.00  0.00    -0.508 OA
ATOM     25  H   UNL     1      28.582 -12.850  -2.577  1.00  0.00     0.293 HD
ENDBRANCH   8  24
TORSDOF 5
ENDMDL
MODEL 8
REMARK VINA RESULT:    -5.830     14.468     17.217
REMARK INTER + INTRA:          -7.146
REMARK INTER:                  -6.829
REMARK INTRA:                  -0.317
REMARK UNBOUND:                -0.294
REMARK SMILES O=c1cc(-c2ccc(O)c(O)c2)oc2cc(O)cc(O)c12
REMARK SMILES IDX 4 1 3 2 2 3 1 4 21 5 19 6 18 7 16 8 15 9 14 10 13 11 5 12
REMARK SMILES IDX 6 13 7 14 8 15 12 16 10 17 9 18 11 20 20 22 17 24
REMARK H PARENT 9 19 11 21 20 23 17 25
REMARK Flexibility Score: inf
ROOT
ATOM      1  C   UNL     1      30.507 -11.754  -8.302  1.00  0.00     0.138 A 
ATOM      2  C   UNL     1      30.045 -12.635  -7.314  1.00  0.00     0.100 A 
ATOM      3  C   UNL     1      29.605 -12.131  -6.089  1.00  0.00     0.197 A 
ATOM      4  O   UNL     1      29.257 -12.949  -5.200  1.00  0.00    -0.289 OA
ATOM      5  C   UNL     1      29.598 -10.733  -5.867  1.00  0.00     0.107 A 
ATOM      6  C   UNL     1      29.133 -10.103  -4.674  1.00  0.00     0.134 A 
ATOM      7  C   UNL     1      29.282  -8.719  -4.520  1.00  0.00     0.093 A 
ATOM      8  C   UNL     1      29.822  -7.936  -5.540  1.00  0.00     0.123 A 
ATOM      9  C   UNL     1      30.231  -8.535  -6.732  1.00  0.00     0.094 A 
ATOM     10  C   UNL     1      30.127  -9.917  -6.901  1.00  0.00     0.146 A 
ATOM     11  O   UNL     1      30.541 -10.450  -8.047  1.00  0.00    -0.456 OA
ENDROOT
BRANCH   1  12
ATOM     12  C   UNL     1      30.985 -12.236  -9.622  1.00  0.00     0.021 A 
ATOM     13  C   UNL     1      31.119 -13.609  -9.904  1.00  0.00     0.016 A 
ATOM     14  C   UNL     1      31.561 -14.035 -11.159  1.00  0.00     0.051 A 
ATOM     15  C   UNL     1      31.871 -13.101 -12.155  1.00  0.00     0.157 A 
ATOM     16  C   UNL     1      31.284 -11.304 -10.632  1.00  0.00     0.062 A 
ATOM     17  C   UNL     1      31.729 -11.729 -11.890  1.00  0.00     0.158 A 
BRANCH  15  18
ATOM     18  O   UNL     1      32.313 -13.530 -13.405  1.00  0.00    -0.504 OA
ATOM     19  H   UNL     1      32.286 -12.922 -14.216  1.00  0.00     0.293 HD
ENDBRANCH  15  18
BRANCH  17  20
ATOM     20  O   UNL     1      32.025 -10.773 -12.862  1.00  0.00    -0.504 OA
ATOM     21  H   UNL     1      32.849 -10.188 -12.807  1.00  0.00     0.293 HD
ENDBRANCH  17  20
ENDBRANCH   1  12
BRANCH   6  22
ATOM     22  O   UNL     1      28.500 -10.782  -3.628  1.00  0.00    -0.507 OA
ATOM     23  H   UNL     1      27.999 -10.339  -2.873  1.00  0.00     0.293 HD
ENDBRANCH   6  22
BRANCH   8  24
ATOM     24  O   UNL     1      29.942  -6.559  -5.359  1.00  0.00    -0.508 OA
ATOM     25  H   UNL     1      30.667  -6.162  -4.774  1.00  0.00     0.293 HD
ENDBRANCH   8  24
TORSDOF 5
ENDMDL
MODEL 9
REMARK VINA RESULT:    -5.818      3.345      4.098
REMARK INTER + INTRA:          -7.133
REMARK INTER:                  -6.836
REMARK INTRA:                  -0.296
REMARK UNBOUND:                -0.294
REMARK SMILES O=c1cc(-c2ccc(O)c(O)c2)oc2cc(O)cc(O)c12
REMARK SMILES IDX 4 1 3 2 2 3 1 4 21 5 19 6 18 7 16 8 15 9 14 10 13 11 5 12
REMARK SMILES IDX 6 13 7 14 8 15 12 16 10 17 9 18 11 20 20 22 17 24
REMARK H PARENT 9 19 11 21 20 23 17 25
REMARK Flexibility Score: inf
ROOT
ATOM      1  C   UNL     1      39.502  -1.330 -12.623  1.00  0.00     0.138 A 
ATOM      2  C   UNL     1      40.650  -0.602 -12.281  1.00  0.00     0.100 A 
ATOM      3  C   UNL     1      41.552  -0.227 -13.277  1.00  0.00     0.197 A 
ATOM      4  O   UNL     1      42.604   0.370 -12.932  1.00  0.00    -0.289 OA
ATOM      5  C   UNL     1      41.284  -0.555 -14.627  1.00  0.00     0.107 A 
ATOM      6  C   UNL     1      42.111  -0.190 -15.732  1.00  0.00     0.134 A 
ATOM      7  C   UNL     1      41.806  -0.670 -17.011  1.00  0.00     0.093 A 
ATOM      8  C   UNL     1      40.673  -1.451 -17.236  1.00  0.00     0.123 A 
ATOM      9  C   UNL     1      39.828  -1.771 -16.173  1.00  0.00     0.094 A 
ATOM     10  C   UNL     1      40.125  -1.335 -14.879  1.00  0.00     0.146 A 
ATOM     11  O   UNL     1      39.302  -1.673 -13.891  1.00  0.00    -0.456 OA
ENDROOT
BRANCH   1  12
ATOM     12  C   UNL     1      38.509  -1.754 -11.603  1.00  0.00     0.021 A 
ATOM     13  C   UNL     1      38.079  -0.884 -10.583  1.00  0.00     0.016 A 
ATOM     14  C   UNL     1      37.136  -1.306  -9.642  1.00  0.00     0.051 A 
ATOM     15  C   UNL     1      36.602  -2.599  -9.707  1.00  0.00     0.157 A 
ATOM     16  C   UNL     1      37.957  -3.046 -11.669  1.00  0.00     0.062 A 
ATOM     17  C   UNL     1      37.013  -3.471 -10.727  1.00  0.00     0.158 A 
BRANCH  15  18
ATOM     18  O   UNL     1      35.662  -3.017  -8.766  1.00  0.00    -0.504 OA
ATOM     19  H   UNL     1      35.411  -2.438  -7.973  1.00  0.00     0.293 HD
ENDBRANCH  15  18
BRANCH  17  20
ATOM     20  O   UNL     1      36.497  -4.764 -10.822  1.00  0.00    -0.504 OA
ATOM     21  H   UNL     1      36.931  -5.476 -11.395  1.00  0.00     0.293 HD
ENDBRANCH  17  20
ENDBRANCH   1  12
BRANCH   6  22
ATOM     22  O   UNL     1      43.219   0.657 -15.631  1.00  0.00    -0.507 OA
ATOM     23  H   UNL     1      44.012   0.646 -16.254  1.00  0.00     0.293 HD
ENDBRANCH   6  22
BRANCH   8  24
ATOM     24  O   UNL     1      40.392  -1.900 -18.525  1.00  0.00    -0.508 OA
ATOM     25  H   UNL     1      40.526  -2.868 -18.791  1.00  0.00     0.293 HD
ENDBRANCH   8  24
TORSDOF 5
ENDMDL
