MODEL 1
REMARK VINA RESULT:    -5.296      0.000      0.000
REMARK INTER + INTRA:         -13.696
REMARK INTER:                 -11.487
REMARK INTRA:                  -2.209
REMARK UNBOUND:                -2.209
REMARK SMILES CCCCCCCCCCCCCCCCCCCCCC(=O)[O-]
REMARK SMILES IDX 12 1 11 2 10 3 9 4 8 5 7 6 6 7 5 8 4 9 3 10 2 11 1 12 13 13
REMARK SMILES IDX 14 14 15 15 16 16 17 17 18 18 19 19 20 20 21 21 22 22 23 23
REMARK SMILES IDX 24 24
REMARK H PARENT
REMARK Flexibility Score: inf
ROOT
ATOM      1  C   UNL     1       9.563  22.739  -9.656  1.00  0.00     0.000 C 
ENDROOT
BRANCH   1   2
ATOM      2  C   UNL     1       9.214  21.915  -8.406  1.00  0.00     0.000 C 
BRANCH   2   3
ATOM      3  C   UNL     1       8.488  22.746  -7.333  1.00  0.00     0.000 C 
BRANCH   3   4
ATOM      4  C   UNL     1       8.097  24.146  -7.836  1.00  0.00    -0.000 C 
BRANCH   4   5
ATOM      5  C   UNL     1       6.589  24.419  -7.703  1.00  0.00    -0.000 C 
BRANCH   5   6
ATOM      6  C   UNL     1       5.754  23.132  -7.575  1.00  0.00    -0.000 C 
BRANCH   6   7
ATOM      7  C   UNL     1       4.811  22.842  -8.758  1.00  0.00    -0.000 C 
BRANCH   7   8
ATOM      8  C   UNL     1       5.547  22.310  -9.997  1.00  0.00    -0.000 C 
BRANCH   8   9
ATOM      9  C   UNL     1       5.662  23.397 -11.076  1.00  0.00    -0.000 C 
BRANCH   9  10
ATOM     10  C   UNL     1       4.643  24.536 -10.891  1.00  0.00    -0.000 C 
BRANCH  10  11
ATOM     11  C   UNL     1       4.217  25.241 -12.191  1.00  0.00    -0.003 C 
ATOM     12  C   UNL     1       4.233  26.764 -12.080  1.00  0.00     0.004 C 
ENDBRANCH  10  11
ENDBRANCH   9  10
ENDBRANCH   8   9
ENDBRANCH   7   8
ENDBRANCH   6   7
ENDBRANCH   5   6
ENDBRANCH   4   5
ENDBRANCH   3   4
ENDBRANCH   2   3
ENDBRANCH   1   2
BRANCH   1  13
ATOM     13  C   UNL     1      11.080  22.920  -9.844  1.00  0.00     0.000 C 
BRANCH  13  14
ATOM     14  C   UNL     1      11.566  24.310  -9.402  1.00  0.00     0.000 C 
BRANCH  14  15
ATOM     15  C   UNL     1      12.664  24.241  -8.325  1.00  0.00     0.000 C 
BRANCH  15  16
ATOM     16  C   UNL     1      12.683  22.889  -7.594  1.00  0.00     0.000 C 
BRANCH  16  17
ATOM     17  C   UNL     1      14.105  22.447  -7.210  1.00  0.00     0.000 C 
BRANCH  17  18
ATOM     18  C   UNL     1      14.979  23.611  -6.708  1.00  0.00     0.000 C 
BRANCH  18  19
ATOM     19  C   UNL     1      15.576  23.414  -5.302  1.00  0.00     0.000 C 
BRANCH  19  20
ATOM     20  C   UNL     1      14.508  23.131  -4.232  1.00  0.00     0.006 C 
BRANCH  20  21
ATOM     21  C   UNL     1      14.966  23.561  -2.831  1.00  0.00     0.053 C 
BRANCH  21  22
ATOM     22  C   UNL     1      13.806  23.820  -1.920  1.00  0.00     0.041 C 
ATOM     23  O   UNL     1      13.458  25.002  -1.659  1.00  0.00    -0.550 OA
ATOM     24  O   UNL     1      13.097  22.757  -1.373  1.00  0.00    -0.550 OA
ENDBRANCH  21  22
ENDBRANCH  20  21
ENDBRANCH  19  20
ENDBRANCH  18  19
ENDBRANCH  17  18
ENDBRANCH  16  17
ENDBRANCH  15  16
ENDBRANCH  14  15
ENDBRANCH  13  14
ENDBRANCH   1  13
TORSDOF 20
ENDMDL
MODEL 2
REMARK VINA RESULT:    -5.289      1.366      2.623
REMARK INTER + INTRA:         -13.681
REMARK INTER:                 -11.480
REMARK INTRA:                  -2.201
REMARK UNBOUND:                -2.209
REMARK SMILES CCCCCCCCCCCCCCCCCCCCCC(=O)[O-]
REMARK SMILES IDX 12 1 11 2 10 3 9 4 8 5 7 6 6 7 5 8 4 9 3 10 2 11 1 12 13 13
REMARK SMILES IDX 14 14 15 15 16 16 17 17 18 18 19 19 20 20 21 21 22 22 23 23
REMARK SMILES IDX 24 24
REMARK H PARENT
REMARK Flexibility Score: inf
ROOT
ATOM      1  C   UNL     1      10.636  23.932  -9.063  1.00  0.00     0.000 C 
ENDROOT
BRANCH   1   2
ATOM      2  C   UNL     1      10.271  22.509  -9.517  1.00  0.00     0.000 C 
BRANCH   2   3
ATOM      3  C   UNL     1       9.542  21.707  -8.423  1.00  0.00     0.000 C 
BRANCH   3   4
ATOM      4  C   UNL     1       9.574  22.412  -7.057  1.00  0.00    -0.000 C 
BRANCH   4   5
ATOM      5  C   UNL     1       9.093  21.501  -5.914  1.00  0.00    -0.000 C 
BRANCH   5   6
ATOM      6  C   UNL     1       7.987  22.145  -5.058  1.00  0.00    -0.000 C 
BRANCH   6   7
ATOM      7  C   UNL     1       7.171  23.245  -5.761  1.00  0.00    -0.000 C 
BRANCH   7   8
ATOM      8  C   UNL     1       5.692  22.872  -5.944  1.00  0.00    -0.000 C 
BRANCH   8   9
ATOM      9  C   UNL     1       5.206  23.230  -7.356  1.00  0.00    -0.000 C 
BRANCH   9  10
ATOM     10  C   UNL     1       6.352  23.633  -8.301  1.00  0.00    -0.000 C 
BRANCH  10  11
ATOM     11  C   UNL     1       6.378  22.884  -9.645  1.00  0.00    -0.003 C 
ATOM     12  C   UNL     1       5.394  23.451 -10.666  1.00  0.00     0.004 C 
ENDBRANCH  10  11
ENDBRANCH   9  10
ENDBRANCH   8   9
ENDBRANCH   7   8
ENDBRANCH   6   7
ENDBRANCH   5   6
ENDBRANCH   4   5
ENDBRANCH   3   4
ENDBRANCH   2   3
ENDBRANCH   1   2
BRANCH   1  13
ATOM     13  C   UNL     1      12.101  24.293  -9.364  1.00  0.00     0.000 C 
BRANCH  13  14
ATOM     14  C   UNL     1      12.950  24.420  -8.088  1.00  0.00     0.000 C 
BRANCH  14  15
ATOM     15  C   UNL     1      13.071  23.091  -7.321  1.00  0.00     0.000 C 
BRANCH  15  16
ATOM     16  C   UNL     1      14.515  22.566  -7.285  1.00  0.00     0.000 C 
BRANCH  16  17
ATOM     17  C   UNL     1      15.497  23.584  -6.682  1.00  0.00     0.000 C 
BRANCH  17  18
ATOM     18  C   UNL     1      16.415  22.970  -5.610  1.00  0.00     0.000 C 
BRANCH  18  19
ATOM     19  C   UNL     1      16.462  23.740  -4.277  1.00  0.00     0.000 C 
BRANCH  19  20
ATOM     20  C   UNL     1      15.065  24.105  -3.745  1.00  0.00     0.006 C 
BRANCH  20  21
ATOM     21  C   UNL     1      14.874  23.676  -2.284  1.00  0.00     0.053 C 
BRANCH  21  22
ATOM     22  C   UNL     1      13.530  23.053  -2.057  1.00  0.00     0.041 C 
ATOM     23  O   UNL     1      13.101  22.884  -0.885  1.00  0.00    -0.550 OA
ATOM     24  O   UNL     1      12.746  22.674  -3.139  1.00  0.00    -0.550 OA
ENDBRANCH  21  22
ENDBRANCH  20  21
ENDBRANCH  19  20
ENDBRANCH  18  19
ENDBRANCH  17  18
ENDBRANCH  16  17
ENDBRANCH  15  16
ENDBRANCH  14  15
ENDBRANCH  13  14
ENDBRANCH   1  13
TORSDOF 20
ENDMDL
MODEL 3
REMARK VINA RESULT:    -5.197      1.906      4.131
REMARK INTER + INTRA:         -13.483
REMARK INTER:                 -10.836
REMARK INTRA:                  -2.647
REMARK UNBOUND:                -2.209
REMARK SMILES CCCCCCCCCCCCCCCCCCCCCC(=O)[O-]
REMARK SMILES IDX 12 1 11 2 10 3 9 4 8 5 7 6 6 7 5 8 4 9 3 10 2 11 1 12 13 13
REMARK SMILES IDX 14 14 15 15 16 16 17 17 18 18 19 19 20 20 21 21 22 22 23 23
REMARK SMILES IDX 24 24
REMARK H PARENT
REMARK Flexibility Score: inf
ROOT
ATOM      1  C   UNL     1      13.865  24.109  -7.265  1.00  0.00     0.000 C 
ENDROOT
BRANCH   1   2
ATOM      2  C   UNL     1      12.648  23.807  -8.155  1.00  0.00     0.000 C 
BRANCH   2   3
ATOM      3  C   UNL     1      12.025  22.430  -7.859  1.00  0.00     0.000 C 
BRANCH   3   4
ATOM      4  C   UNL     1      10.527  22.520  -7.523  1.00  0.00    -0.000 C 
BRANCH   4   5
ATOM      5  C   UNL     1       9.654  21.728  -8.512  1.00  0.00    -0.000 C 
BRANCH   5   6
ATOM      6  C   UNL     1       9.030  22.615  -9.606  1.00  0.00    -0.000 C 
BRANCH   6   7
ATOM      7  C   UNL     1       7.536  22.361  -9.882  1.00  0.00    -0.000 C 
BRANCH   7   8
ATOM      8  C   UNL     1       6.626  23.466  -9.325  1.00  0.00    -0.000 C 
BRANCH   8   9
ATOM      9  C   UNL     1       7.434  24.480  -8.502  1.00  0.00    -0.000 C 
BRANCH   9  10
ATOM     10  C   UNL     1       6.917  24.630  -7.059  1.00  0.00    -0.000 C 
BRANCH  10  11
ATOM     11  C   UNL     1       6.442  23.321  -6.403  1.00  0.00    -0.003 C 
ATOM     12  C   UNL     1       7.344  22.862  -5.258  1.00  0.00     0.004 C 
ENDBRANCH  10  11
ENDBRANCH   9  10
ENDBRANCH   8   9
ENDBRANCH   7   8
ENDBRANCH   6   7
ENDBRANCH   5   6
ENDBRANCH   4   5
ENDBRANCH   3   4
ENDBRANCH   2   3
ENDBRANCH   1   2
BRANCH   1  13
ATOM     13  C   UNL     1      14.662  22.844  -6.902  1.00  0.00     0.000 C 
BRANCH  13  14
ATOM     14  C   UNL     1      16.075  22.844  -7.508  1.00  0.00     0.000 C 
BRANCH  14  15
ATOM     15  C   UNL     1      17.160  22.460  -6.485  1.00  0.00     0.000 C 
BRANCH  15  16
ATOM     16  C   UNL     1      17.926  23.683  -5.958  1.00  0.00     0.000 C 
BRANCH  16  17
ATOM     17  C   UNL     1      17.567  24.973  -6.714  1.00  0.00     0.000 C 
BRANCH  17  18
ATOM     18  C   UNL     1      16.813  25.991  -5.839  1.00  0.00     0.000 C 
BRANCH  18  19
ATOM     19  C   UNL     1      16.680  25.598  -4.356  1.00  0.00     0.000 C 
BRANCH  19  20
ATOM     20  C   UNL     1      15.262  25.131  -3.984  1.00  0.00     0.006 C 
BRANCH  20  21
ATOM     21  C   UNL     1      15.262  23.738  -3.341  1.00  0.00     0.053 C 
BRANCH  21  22
ATOM     22  C   UNL     1      13.882  23.303  -2.951  1.00  0.00     0.041 C 
ATOM     23  O   UNL     1      13.179  22.635  -3.753  1.00  0.00    -0.550 OA
ATOM     24  O   UNL     1      13.380  23.621  -1.695  1.00  0.00    -0.550 OA
ENDBRANCH  21  22
ENDBRANCH  20  21
ENDBRANCH  19  20
ENDBRANCH  18  19
ENDBRANCH  17  18
ENDBRANCH  16  17
ENDBRANCH  15  16
ENDBRANCH  14  15
ENDBRANCH  13  14
ENDBRANCH   1  13
TORSDOF 20
ENDMDL
MODEL 4
REMARK VINA RESULT:    -5.140      2.190      3.918
REMARK INTER + INTRA:         -13.358
REMARK INTER:                 -11.164
REMARK INTRA:                  -2.194
REMARK UNBOUND:                -2.209
REMARK SMILES CCCCCCCCCCCCCCCCCCCCCC(=O)[O-]
REMARK SMILES IDX 12 1 11 2 10 3 9 4 8 5 7 6 6 7 5 8 4 9 3 10 2 11 1 12 13 13
REMARK SMILES IDX 14 14 15 15 16 16 17 17 18 18 19 19 20 20 21 21 22 22 23 23
REMARK SMILES IDX 24 24
REMARK H PARENT
REMARK Flexibility Score: inf
ROOT
ATOM      1  C   UNL     1      13.124  24.123  -8.117  1.00  0.00     0.000 C 
ENDROOT
BRANCH   1   2
ATOM      2  C   UNL     1      11.778  23.694  -8.723  1.00  0.00     0.000 C 
BRANCH   2   3
ATOM      3  C   UNL     1      10.993  22.738  -7.805  1.00  0.00     0.000 C 
BRANCH   3   4
ATOM      4  C   UNL     1       9.962  21.896  -8.575  1.00  0.00    -0.000 C 
BRANCH   4   5
ATOM      5  C   UNL     1       9.279  22.688  -9.703  1.00  0.00    -0.000 C 
BRANCH   5   6
ATOM      6  C   UNL     1       7.792  22.328  -9.874  1.00  0.00    -0.000 C 
BRANCH   6   7
ATOM      7  C   UNL     1       6.798  23.359  -9.307  1.00  0.00    -0.000 C 
BRANCH   7   8
ATOM      8  C   UNL     1       7.486  24.494  -8.535  1.00  0.00    -0.000 C 
BRANCH   8   9
ATOM      9  C   UNL     1       6.869  24.662  -7.139  1.00  0.00    -0.000 C 
BRANCH   9  10
ATOM     10  C   UNL     1       7.247  23.523  -6.175  1.00  0.00    -0.000 C 
BRANCH  10  11
ATOM     11  C   UNL     1       6.053  22.755  -5.580  1.00  0.00    -0.003 C 
ATOM     12  C   UNL     1       4.737  23.039  -6.302  1.00  0.00     0.004 C 
ENDBRANCH  10  11
ENDBRANCH   9  10
ENDBRANCH   8   9
ENDBRANCH   7   8
ENDBRANCH   6   7
ENDBRANCH   5   6
ENDBRANCH   4   5
ENDBRANCH   3   4
ENDBRANCH   2   3
ENDBRANCH   1   2
BRANCH   1  13
ATOM     13  C   UNL     1      13.488  23.323  -6.854  1.00  0.00     0.000 C 
BRANCH  13  14
ATOM     14  C   UNL     1      14.422  22.140  -7.155  1.00  0.00     0.000 C 
BRANCH  14  15
ATOM     15  C   UNL     1      15.866  22.584  -7.452  1.00  0.00     0.000 C 
BRANCH  15  16
ATOM     16  C   UNL     1      16.444  23.477  -6.343  1.00  0.00     0.000 C 
BRANCH  16  17
ATOM     17  C   UNL     1      17.060  24.775  -6.893  1.00  0.00     0.000 C 
BRANCH  17  18
ATOM     18  C   UNL     1      16.192  26.015  -6.614  1.00  0.00     0.000 C 
BRANCH  18  19
ATOM     19  C   UNL     1      15.408  25.974  -5.289  1.00  0.00     0.000 C 
BRANCH  19  20
ATOM     20  C   UNL     1      16.294  26.245  -4.061  1.00  0.00     0.006 C 
BRANCH  20  21
ATOM     21  C   UNL     1      15.783  25.519  -2.808  1.00  0.00     0.053 C 
BRANCH  21  22
ATOM     22  C   UNL     1      14.971  26.423  -1.931  1.00  0.00     0.041 C 
ATOM     23  O   UNL     1      15.068  27.673  -2.049  1.00  0.00    -0.550 OA
ATOM     24  O   UNL     1      14.096  25.885  -0.996  1.00  0.00    -0.550 OA
ENDBRANCH  21  22
ENDBRANCH  20  21
ENDBRANCH  19  20
ENDBRANCH  18  19
ENDBRANCH  17  18
ENDBRANCH  16  17
ENDBRANCH  15  16
ENDBRANCH  14  15
ENDBRANCH  13  14
ENDBRANCH   1  13
TORSDOF 20
ENDMDL
MODEL 5
REMARK VINA RESULT:    -5.126      2.573      8.984
REMARK INTER + INTRA:         -13.327
REMARK INTER:                 -11.301
REMARK INTRA:                  -2.026
REMARK UNBOUND:                -2.209
REMARK SMILES CCCCCCCCCCCCCCCCCCCCCC(=O)[O-]
REMARK SMILES IDX 12 1 11 2 10 3 9 4 8 5 7 6 6 7 5 8 4 9 3 10 2 11 1 12 13 13
REMARK SMILES IDX 14 14 15 15 16 16 17 17 18 18 19 19 20 20 21 21 22 22 23 23
REMARK SMILES IDX 24 24
REMARK H PARENT
REMARK Flexibility Score: inf
ROOT
ATOM      1  C   UNL     1      12.886  24.378  -8.253  1.00  0.00     0.000 C 
ENDROOT
BRANCH   1   2
ATOM      2  C   UNL     1      12.922  23.025  -7.524  1.00  0.00     0.000 C 
BRANCH   2   3
ATOM      3  C   UNL     1      14.244  22.793  -6.770  1.00  0.00     0.000 C 
BRANCH   3   4
ATOM      4  C   UNL     1      15.300  23.865  -7.090  1.00  0.00    -0.000 C 
BRANCH   4   5
ATOM      5  C   UNL     1      16.166  24.220  -5.869  1.00  0.00    -0.000 C 
BRANCH   5   6
ATOM      6  C   UNL     1      16.584  22.985  -5.049  1.00  0.00    -0.000 C 
BRANCH   6   7
ATOM      7  C   UNL     1      16.863  23.252  -3.558  1.00  0.00    -0.000 C 
BRANCH   7   8
ATOM      8  C   UNL     1      16.459  24.666  -3.115  1.00  0.00    -0.000 C 
BRANCH   8   9
ATOM      9  C   UNL     1      15.579  24.616  -1.858  1.00  0.00    -0.000 C 
BRANCH   9  10
ATOM     10  C   UNL     1      14.084  24.824  -2.164  1.00  0.00    -0.000 C 
BRANCH  10  11
ATOM     11  C   UNL     1      13.217  23.557  -2.046  1.00  0.00    -0.003 C 
ATOM     12  C   UNL     1      13.196  22.724  -3.326  1.00  0.00     0.004 C 
ENDBRANCH  10  11
ENDBRANCH   9  10
ENDBRANCH   8   9
ENDBRANCH   7   8
ENDBRANCH   6   7
ENDBRANCH   5   6
ENDBRANCH   4   5
ENDBRANCH   3   4
ENDBRANCH   2   3
ENDBRANCH   1   2
BRANCH   1  13
ATOM     13  C   UNL     1      11.906  24.387  -9.439  1.00  0.00     0.000 C 
BRANCH  13  14
ATOM     14  C   UNL     1      10.498  23.915  -9.043  1.00  0.00     0.000 C 
BRANCH  14  15
ATOM     15  C   UNL     1      10.051  22.662  -9.819  1.00  0.00     0.000 C 
BRANCH  15  16
ATOM     16  C   UNL     1       8.715  22.102  -9.307  1.00  0.00     0.000 C 
BRANCH  16  17
ATOM     17  C   UNL     1       7.537  22.453 -10.232  1.00  0.00     0.000 C 
BRANCH  17  18
ATOM     18  C   UNL     1       6.436  23.260  -9.520  1.00  0.00     0.000 C 
BRANCH  18  19
ATOM     19  C   UNL     1       6.893  23.999  -8.249  1.00  0.00     0.000 C 
BRANCH  19  20
ATOM     20  C   UNL     1       6.190  23.495  -6.977  1.00  0.00     0.006 C 
BRANCH  20  21
ATOM     21  C   UNL     1       7.059  23.679  -5.725  1.00  0.00     0.053 C 
BRANCH  21  22
ATOM     22  C   UNL     1       7.800  22.426  -5.371  1.00  0.00     0.041 C 
ATOM     23  O   UNL     1       7.348  21.650  -4.488  1.00  0.00    -0.550 OA
ATOM     24  O   UNL     1       8.981  22.106  -6.029  1.00  0.00    -0.550 OA
ENDBRANCH  21  22
ENDBRANCH  20  21
ENDBRANCH  19  20
ENDBRANCH  18  19
ENDBRANCH  17  18
ENDBRANCH  16  17
ENDBRANCH  15  16
ENDBRANCH  14  15
ENDBRANCH  13  14
ENDBRANCH   1  13
TORSDOF 20
ENDMDL
MODEL 6
REMARK VINA RESULT:    -5.105      2.217      3.526
REMARK INTER + INTRA:         -13.282
REMARK INTER:                 -10.993
REMARK INTRA:                  -2.289
REMARK UNBOUND:                -2.209
REMARK SMILES CCCCCCCCCCCCCCCCCCCCCC(=O)[O-]
REMARK SMILES IDX 12 1 11 2 10 3 9 4 8 5 7 6 6 7 5 8 4 9 3 10 2 11 1 12 13 13
REMARK SMILES IDX 14 14 15 15 16 16 17 17 18 18 19 19 20 20 21 21 22 22 23 23
REMARK SMILES IDX 24 24
REMARK H PARENT
REMARK Flexibility Score: inf
ROOT
ATOM      1  C   UNL     1      11.775  23.335  -8.470  1.00  0.00     0.000 C 
ENDROOT
BRANCH   1   2
ATOM      2  C   UNL     1      11.811  22.192  -7.443  1.00  0.00     0.000 C 
BRANCH   2   3
ATOM      3  C   UNL     1      11.044  20.944  -7.919  1.00  0.00     0.000 C 
BRANCH   3   4
ATOM      4  C   UNL     1       9.859  20.595  -7.002  1.00  0.00    -0.000 C 
BRANCH   4   5
ATOM      5  C   UNL     1       9.463  21.763  -6.082  1.00  0.00    -0.000 C 
BRANCH   5   6
ATOM      6  C   UNL     1       8.297  21.415  -5.138  1.00  0.00    -0.000 C 
BRANCH   6   7
ATOM      7  C   UNL     1       7.236  22.519  -4.973  1.00  0.00    -0.000 C 
BRANCH   7   8
ATOM      8  C   UNL     1       7.346  23.622  -6.035  1.00  0.00    -0.000 C 
BRANCH   8   9
ATOM      9  C   UNL     1       6.268  23.453  -7.116  1.00  0.00    -0.000 C 
BRANCH   9  10
ATOM     10  C   UNL     1       6.699  24.012  -8.485  1.00  0.00    -0.000 C 
BRANCH  10  11
ATOM     11  C   UNL     1       8.114  23.606  -8.933  1.00  0.00    -0.003 C 
ATOM     12  C   UNL     1       8.133  22.343  -9.791  1.00  0.00     0.004 C 
ENDBRANCH  10  11
ENDBRANCH   9  10
ENDBRANCH   8   9
ENDBRANCH   7   8
ENDBRANCH   6   7
ENDBRANCH   5   6
ENDBRANCH   4   5
ENDBRANCH   3   4
ENDBRANCH   2   3
ENDBRANCH   1   2
BRANCH   1  13
ATOM     13  C   UNL     1      12.906  24.356  -8.260  1.00  0.00     0.000 C 
BRANCH  13  14
ATOM     14  C   UNL     1      13.947  23.879  -7.234  1.00  0.00     0.000 C 
BRANCH  14  15
ATOM     15  C   UNL     1      14.994  24.959  -6.903  1.00  0.00     0.000 C 
BRANCH  15  16
ATOM     16  C   UNL     1      16.393  24.367  -6.677  1.00  0.00     0.000 C 
BRANCH  16  17
ATOM     17  C   UNL     1      16.355  23.055  -5.874  1.00  0.00     0.000 C 
BRANCH  17  18
ATOM     18  C   UNL     1      16.367  23.284  -4.352  1.00  0.00     0.000 C 
BRANCH  18  19
ATOM     19  C   UNL     1      14.980  23.276  -3.684  1.00  0.00     0.000 C 
BRANCH  19  20
ATOM     20  C   UNL     1      14.577  24.649  -3.121  1.00  0.00     0.006 C 
BRANCH  20  21
ATOM     21  C   UNL     1      13.739  24.527  -1.841  1.00  0.00     0.053 C 
BRANCH  21  22
ATOM     22  C   UNL     1      14.056  25.614  -0.860  1.00  0.00     0.041 C 
ATOM     23  O   UNL     1      14.891  26.509  -1.155  1.00  0.00    -0.550 OA
ATOM     24  O   UNL     1      13.416  25.649   0.373  1.00  0.00    -0.550 OA
ENDBRANCH  21  22
ENDBRANCH  20  21
ENDBRANCH  19  20
ENDBRANCH  18  19
ENDBRANCH  17  18
ENDBRANCH  16  17
ENDBRANCH  15  16
ENDBRANCH  14  15
ENDBRANCH  13  14
ENDBRANCH   1  13
TORSDOF 20
ENDMDL
MODEL 7
REMARK VINA RESULT:    -5.099      1.730      3.812
REMARK INTER + INTRA:         -13.269
REMARK INTER:                 -11.340
REMARK INTRA:                  -1.929
REMARK UNBOUND:                -2.209
REMARK SMILES CCCCCCCCCCCCCCCCCCCCCC(=O)[O-]
REMARK SMILES IDX 12 1 11 2 10 3 9 4 8 5 7 6 6 7 5 8 4 9 3 10 2 11 1 12 13 13
REMARK SMILES IDX 14 14 15 15 16 16 17 17 18 18 19 19 20 20 21 21 22 22 23 23
REMARK SMILES IDX 24 24
REMARK H PARENT
REMARK Flexibility Score: inf
ROOT
ATOM      1  C   UNL     1      13.609  24.379  -7.856  1.00  0.00     0.000 C 
ENDROOT
BRANCH   1   2
ATOM      2  C   UNL     1      12.384  23.509  -8.181  1.00  0.00     0.000 C 
BRANCH   2   3
ATOM      3  C   UNL     1      12.140  22.414  -7.126  1.00  0.00     0.000 C 
BRANCH   3   4
ATOM      4  C   UNL     1      11.696  21.081  -7.753  1.00  0.00    -0.000 C 
BRANCH   4   5
ATOM      5  C   UNL     1      10.189  20.822  -7.579  1.00  0.00    -0.000 C 
BRANCH   5   6
ATOM      6  C   UNL     1       9.437  22.028  -6.987  1.00  0.00    -0.000 C 
BRANCH   6   7
ATOM      7  C   UNL     1       8.635  22.862  -8.003  1.00  0.00    -0.000 C 
BRANCH   7   8
ATOM      8  C   UNL     1       8.765  22.344  -9.443  1.00  0.00    -0.000 C 
BRANCH   8   9
ATOM      9  C   UNL     1       7.416  22.411 -10.174  1.00  0.00    -0.000 C 
BRANCH   9  10
ATOM     10  C   UNL     1       6.451  23.441  -9.560  1.00  0.00    -0.000 C 
BRANCH  10  11
ATOM     11  C   UNL     1       4.963  23.204  -9.875  1.00  0.00    -0.003 C 
ATOM     12  C   UNL     1       4.208  22.530  -8.732  1.00  0.00     0.004 C 
ENDBRANCH  10  11
ENDBRANCH   9  10
ENDBRANCH   8   9
ENDBRANCH   7   8
ENDBRANCH   6   7
ENDBRANCH   5   6
ENDBRANCH   4   5
ENDBRANCH   3   4
ENDBRANCH   2   3
ENDBRANCH   1   2
BRANCH   1  13
ATOM     13  C   UNL     1      14.439  23.822  -6.686  1.00  0.00     0.000 C 
BRANCH  13  14
ATOM     14  C   UNL     1      15.819  23.312  -7.133  1.00  0.00     0.000 C 
BRANCH  14  15
ATOM     15  C   UNL     1      16.979  24.095  -6.491  1.00  0.00     0.000 C 
BRANCH  15  16
ATOM     16  C   UNL     1      16.982  25.576  -6.898  1.00  0.00     0.000 C 
BRANCH  16  17
ATOM     17  C   UNL     1      17.433  26.500  -5.754  1.00  0.00     0.000 C 
BRANCH  17  18
ATOM     18  C   UNL     1      16.984  26.003  -4.369  1.00  0.00     0.000 C 
BRANCH  18  19
ATOM     19  C   UNL     1      15.484  26.182  -4.070  1.00  0.00     0.000 C 
BRANCH  19  20
ATOM     20  C   UNL     1      15.038  25.465  -2.784  1.00  0.00     0.006 C 
BRANCH  20  21
ATOM     21  C   UNL     1      14.721  23.983  -3.029  1.00  0.00     0.053 C 
BRANCH  21  22
ATOM     22  C   UNL     1      13.642  23.485  -2.116  1.00  0.00     0.041 C 
ATOM     23  O   UNL     1      13.682  23.751  -0.886  1.00  0.00    -0.550 OA
ATOM     24  O   UNL     1      12.585  22.743  -2.626  1.00  0.00    -0.550 OA
ENDBRANCH  21  22
ENDBRANCH  20  21
ENDBRANCH  19  20
ENDBRANCH  18  19
ENDBRANCH  17  18
ENDBRANCH  16  17
ENDBRANCH  15  16
ENDBRANCH  14  15
ENDBRANCH  13  14
ENDBRANCH   1  13
TORSDOF 20
ENDMDL
MODEL 8
REMARK VINA RESULT:    -5.087      2.009      4.017
REMARK INTER + INTRA:         -13.243
REMARK INTER:                 -11.241
REMARK INTRA:                  -2.002
REMARK UNBOUND:                -2.209
REMARK SMILES CCCCCCCCCCCCCCCCCCCCCC(=O)[O-]
REMARK SMILES IDX 12 1 11 2 10 3 9 4 8 5 7 6 6 7 5 8 4 9 3 10 2 11 1 12 13 13
REMARK SMILES IDX 14 14 15 15 16 16 17 17 18 18 19 19 20 20 21 21 22 22 23 23
REMARK SMILES IDX 24 24
REMARK H PARENT
REMARK Flexibility Score: inf
ROOT
ATOM      1  C   UNL     1      11.654  24.195  -9.513  1.00  0.00     0.000 C 
ENDROOT
BRANCH   1   2
ATOM      2  C   UNL     1      10.754  22.957  -9.667  1.00  0.00     0.000 C 
BRANCH   2   3
ATOM      3  C   UNL     1       9.276  23.258  -9.359  1.00  0.00     0.000 C 
BRANCH   3   4
ATOM      4  C   UNL     1       8.355  22.066  -9.669  1.00  0.00    -0.000 C 
BRANCH   4   5
ATOM      5  C   UNL     1       6.914  22.502  -9.987  1.00  0.00    -0.000 C 
BRANCH   5   6
ATOM      6  C   UNL     1       6.501  23.791  -9.251  1.00  0.00    -0.000 C 
BRANCH   6   7
ATOM      7  C   UNL     1       6.105  23.603  -7.775  1.00  0.00    -0.000 C 
BRANCH   7   8
ATOM      8  C   UNL     1       6.798  24.602  -6.836  1.00  0.00    -0.000 C 
BRANCH   8   9
ATOM      9  C   UNL     1       6.944  24.018  -5.423  1.00  0.00    -0.000 C 
BRANCH   9  10
ATOM     10  C   UNL     1       6.861  22.480  -5.399  1.00  0.00    -0.000 C 
BRANCH  10  11
ATOM     11  C   UNL     1       8.129  21.771  -4.892  1.00  0.00    -0.003 C 
ATOM     12  C   UNL     1       9.243  21.715  -5.935  1.00  0.00     0.004 C 
ENDBRANCH  10  11
ENDBRANCH   9  10
ENDBRANCH   8   9
ENDBRANCH   7   8
ENDBRANCH   6   7
ENDBRANCH   5   6
ENDBRANCH   4   5
ENDBRANCH   3   4
ENDBRANCH   2   3
ENDBRANCH   1   2
BRANCH   1  13
ATOM     13  C   UNL     1      12.538  24.132  -8.255  1.00  0.00     0.000 C 
BRANCH  13  14
ATOM     14  C   UNL     1      12.441  22.777  -7.535  1.00  0.00     0.000 C 
BRANCH  14  15
ATOM     15  C   UNL     1      13.652  22.501  -6.625  1.00  0.00     0.000 C 
BRANCH  15  16
ATOM     16  C   UNL     1      14.929  23.193  -7.124  1.00  0.00     0.000 C 
BRANCH  16  17
ATOM     17  C   UNL     1      16.151  22.881  -6.242  1.00  0.00     0.000 C 
BRANCH  17  18
ATOM     18  C   UNL     1      16.286  23.838  -5.045  1.00  0.00     0.000 C 
BRANCH  18  19
ATOM     19  C   UNL     1      15.722  25.252  -5.278  1.00  0.00     0.000 C 
BRANCH  19  20
ATOM     20  C   UNL     1      15.905  26.179  -4.064  1.00  0.00     0.006 C 
BRANCH  20  21
ATOM     21  C   UNL     1      14.831  25.946  -2.992  1.00  0.00     0.053 C 
BRANCH  21  22
ATOM     22  C   UNL     1      15.432  25.568  -1.673  1.00  0.00     0.041 C 
ATOM     23  O   UNL     1      15.759  24.373  -1.445  1.00  0.00    -0.550 OA
ATOM     24  O   UNL     1      15.647  26.537  -0.701  1.00  0.00    -0.550 OA
ENDBRANCH  21  22
ENDBRANCH  20  21
ENDBRANCH  19  20
ENDBRANCH  18  19
ENDBRANCH  17  18
ENDBRANCH  16  17
ENDBRANCH  15  16
ENDBRANCH  14  15
ENDBRANCH  13  14
ENDBRANCH   1  13
TORSDOF 20
ENDMDL
MODEL 9
REMARK VINA RESULT:    -5.050      2.802      9.175
REMARK INTER + INTRA:         -13.162
REMARK INTER:                 -11.072
REMARK INTRA:                  -2.090
REMARK UNBOUND:                -2.209
REMARK SMILES CCCCCCCCCCCCCCCCCCCCCC(=O)[O-]
REMARK SMILES IDX 12 1 11 2 10 3 9 4 8 5 7 6 6 7 5 8 4 9 3 10 2 11 1 12 13 13
REMARK SMILES IDX 14 14 15 15 16 16 17 17 18 18 19 19 20 20 21 21 22 22 23 23
REMARK SMILES IDX 24 24
REMARK H PARENT
REMARK Flexibility Score: inf
ROOT
ATOM      1  C   UNL     1      13.809  23.233  -6.761  1.00  0.00     0.000 C 
ENDROOT
BRANCH   1   2
ATOM      2  C   UNL     1      15.086  22.462  -7.135  1.00  0.00     0.000 C 
BRANCH   2   3
ATOM      3  C   UNL     1      16.355  23.089  -6.526  1.00  0.00     0.000 C 
BRANCH   3   4
ATOM      4  C   UNL     1      17.004  24.126  -7.457  1.00  0.00    -0.000 C 
BRANCH   4   5
ATOM      5  C   UNL     1      17.407  25.413  -6.716  1.00  0.00    -0.000 C 
BRANCH   5   6
ATOM      6  C   UNL     1      16.935  25.434  -5.250  1.00  0.00    -0.000 C 
BRANCH   6   7
ATOM      7  C   UNL     1      15.636  26.220  -4.992  1.00  0.00    -0.000 C 
BRANCH   7   8
ATOM      8  C   UNL     1      15.008  25.910  -3.625  1.00  0.00    -0.000 C 
BRANCH   8   9
ATOM      9  C   UNL     1      15.062  24.405  -3.324  1.00  0.00    -0.000 C 
BRANCH   9  10
ATOM     10  C   UNL     1      14.820  24.082  -1.838  1.00  0.00    -0.000 C 
BRANCH  10  11
ATOM     11  C   UNL     1      13.585  23.206  -1.559  1.00  0.00    -0.003 C 
ATOM     12  C   UNL     1      12.864  22.764  -2.831  1.00  0.00     0.004 C 
ENDBRANCH  10  11
ENDBRANCH   9  10
ENDBRANCH   8   9
ENDBRANCH   7   8
ENDBRANCH   6   7
ENDBRANCH   5   6
ENDBRANCH   4   5
ENDBRANCH   3   4
ENDBRANCH   2   3
ENDBRANCH   1   2
BRANCH   1  13
ATOM     13  C   UNL     1      13.287  24.109  -7.913  1.00  0.00     0.000 C 
BRANCH  13  14
ATOM     14  C   UNL     1      11.885  23.688  -8.383  1.00  0.00     0.000 C 
BRANCH  14  15
ATOM     15  C   UNL     1      11.382  22.411  -7.685  1.00  0.00     0.000 C 
BRANCH  15  16
ATOM     16  C   UNL     1      10.035  21.929  -8.245  1.00  0.00     0.000 C 
BRANCH  16  17
ATOM     17  C   UNL     1       9.411  22.937  -9.225  1.00  0.00     0.000 C 
BRANCH  17  18
ATOM     18  C   UNL     1       8.180  22.377  -9.959  1.00  0.00     0.000 C 
BRANCH  18  19
ATOM     19  C   UNL     1       6.846  23.061  -9.606  1.00  0.00     0.000 C 
BRANCH  19  20
ATOM     20  C   UNL     1       6.966  24.031  -8.418  1.00  0.00     0.006 C 
BRANCH  20  21
ATOM     21  C   UNL     1       6.127  23.577  -7.215  1.00  0.00     0.053 C 
BRANCH  21  22
ATOM     22  C   UNL     1       6.796  23.901  -5.914  1.00  0.00     0.041 C 
ATOM     23  O   UNL     1       7.486  23.030  -5.323  1.00  0.00    -0.550 OA
ATOM     24  O   UNL     1       6.671  25.171  -5.364  1.00  0.00    -0.550 OA
ENDBRANCH  21  22
ENDBRANCH  20  21
ENDBRANCH  19  20
ENDBRANCH  18  19
ENDBRANCH  17  18
ENDBRANCH  16  17
ENDBRANCH  15  16
ENDBRANCH  14  15
ENDBRANCH  13  14
ENDBRANCH   1  13
TORSDOF 20
ENDMDL
