MODEL 1
REMARK VINA RESULT:    -0.204      0.000      0.000
REMARK INTER + INTRA:          -0.578
REMARK INTER:                  -0.245
REMARK INTRA:                  -0.332
REMARK UNBOUND:                -0.332
REMARK SMILES O=c1c(O)c(-c2ccc(O)c(O)c2)oc2cc(O)cc(O)c12
REMARK SMILES IDX 5 1 3 2 2 3 1 4 22 5 20 6 19 7 17 8 16 9 15 10 14 11 6 12
REMARK SMILES IDX 7 13 8 14 9 15 13 16 11 17 10 18 12 20 4 22 21 24 18 26
REMARK H PARENT 10 19 12 21 4 23 21 25 18 27
REMARK Flexibility Score: inf
ROOT
ATOM      1  C   UNL     1      67.559  32.315  41.204  1.00  0.00     0.180 A 
ATOM      2  C   UNL     1      68.813  32.052  40.620  1.00  0.00     0.208 A 
ATOM      3  C   UNL     1      68.860  31.358  39.401  1.00  0.00     0.238 A 
ATOM      4  O   UNL     1      69.978  31.106  38.873  1.00  0.00    -0.285 OA
ATOM      5  C   UNL     1      67.659  30.959  38.778  1.00  0.00     0.111 A 
ATOM      6  C   UNL     1      67.620  30.261  37.547  1.00  0.00     0.134 A 
ATOM      7  C   UNL     1      66.383  29.907  36.987  1.00  0.00     0.093 A 
ATOM      8  C   UNL     1      65.189  30.237  37.632  1.00  0.00     0.123 A 
ATOM      9  C   UNL     1      65.221  30.927  38.848  1.00  0.00     0.094 A 
ATOM     10  C   UNL     1      66.444  31.287  39.423  1.00  0.00     0.146 A 
ATOM     11  O   UNL     1      66.447  31.938  40.582  1.00  0.00    -0.452 OA
ENDROOT
BRANCH   1  12
ATOM     12  C   UNL     1      67.427  33.024  42.498  1.00  0.00     0.025 A 
ATOM     13  C   UNL     1      67.248  34.415  42.508  1.00  0.00     0.016 A 
ATOM     14  C   UNL     1      67.101  35.102  43.715  1.00  0.00     0.051 A 
ATOM     15  C   UNL     1      67.115  34.409  44.930  1.00  0.00     0.157 A 
ATOM     16  C   UNL     1      67.421  32.325  43.719  1.00  0.00     0.062 A 
ATOM     17  C   UNL     1      67.273  33.013  44.932  1.00  0.00     0.158 A 
BRANCH  15  18
ATOM     18  O   UNL     1      66.969  35.121  46.119  1.00  0.00    -0.504 OA
ATOM     19  H   UNL     1      66.135  35.656  46.327  1.00  0.00     0.293 HD
ENDBRANCH  15  18
BRANCH  17  20
ATOM     20  O   UNL     1      67.274  32.313  46.139  1.00  0.00    -0.504 OA
ATOM     21  H   UNL     1      67.894  32.568  46.899  1.00  0.00     0.293 HD
ENDBRANCH  17  20
ENDBRANCH   1  12
BRANCH   2  22
ATOM     22  O   UNL     1      69.986  32.500  41.232  1.00  0.00    -0.502 OA
ATOM     23  H   UNL     1      69.989  33.239  41.926  1.00  0.00     0.293 HD
ENDBRANCH   2  22
BRANCH   6  24
ATOM     24  O   UNL     1      68.796  29.917  36.879  1.00  0.00    -0.507 OA
ATOM     25  H   UNL     1      69.292  29.057  37.082  1.00  0.00     0.293 HD
ENDBRANCH   6  24
BRANCH   8  26
ATOM     26  O   UNL     1      63.975  29.876  37.054  1.00  0.00    -0.508 OA
ATOM     27  H   UNL     1      63.406  30.547  36.551  1.00  0.00     0.293 HD
ENDBRANCH   8  26
TORSDOF 6
ENDMDL
MODEL 2
REMARK VINA RESULT:    -0.181      1.604      2.291
REMARK INTER + INTRA:          -0.550
REMARK INTER:                  -0.228
REMARK INTRA:                  -0.322
REMARK UNBOUND:                -0.332
REMARK SMILES O=c1c(O)c(-c2ccc(O)c(O)c2)oc2cc(O)cc(O)c12
REMARK SMILES IDX 5 1 3 2 2 3 1 4 22 5 20 6 19 7 17 8 16 9 15 10 14 11 6 12
REMARK SMILES IDX 7 13 8 14 9 15 13 16 11 17 10 18 12 20 4 22 21 24 18 26
REMARK H PARENT 10 19 12 21 4 23 21 25 18 27
REMARK Flexibility Score: inf
ROOT
ATOM      1  C   UNL     1      67.616  33.405  40.493  1.00  0.00     0.180 A 
ATOM      2  C   UNL     1      68.783  32.771  40.028  1.00  0.00     0.208 A 
ATOM      3  C   UNL     1      68.675  31.819  39.002  1.00  0.00     0.238 A 
ATOM      4  O   UNL     1      69.713  31.236  38.585  1.00  0.00    -0.285 OA
ATOM      5  C   UNL     1      67.410  31.533  38.446  1.00  0.00     0.111 A 
ATOM      6  C   UNL     1      67.216  30.592  37.407  1.00  0.00     0.134 A 
ATOM      7  C   UNL     1      65.926  30.370  36.901  1.00  0.00     0.093 A 
ATOM      8  C   UNL     1      64.831  31.071  37.412  1.00  0.00     0.123 A 
ATOM      9  C   UNL     1      65.016  32.002  38.438  1.00  0.00     0.094 A 
ATOM     10  C   UNL     1      66.294  32.236  38.957  1.00  0.00     0.146 A 
ATOM     11  O   UNL     1      66.442  33.122  39.935  1.00  0.00    -0.452 OA
ENDROOT
BRANCH   1  12
ATOM     12  C   UNL     1      67.645  34.405  41.585  1.00  0.00     0.025 A 
ATOM     13  C   UNL     1      67.492  33.981  42.914  1.00  0.00     0.016 A 
ATOM     14  C   UNL     1      67.537  34.904  43.961  1.00  0.00     0.051 A 
ATOM     15  C   UNL     1      67.751  36.261  43.700  1.00  0.00     0.157 A 
ATOM     16  C   UNL     1      67.881  35.767  41.325  1.00  0.00     0.062 A 
ATOM     17  C   UNL     1      67.928  36.695  42.376  1.00  0.00     0.158 A 
BRANCH  15  18
ATOM     18  O   UNL     1      67.788  37.159  44.765  1.00  0.00    -0.504 OA
ATOM     19  H   UNL     1      67.944  36.857  45.719  1.00  0.00     0.293 HD
ENDBRANCH  15  18
BRANCH  17  20
ATOM     20  O   UNL     1      68.155  38.045  42.109  1.00  0.00    -0.504 OA
ATOM     21  H   UNL     1      68.733  38.341  41.331  1.00  0.00     0.293 HD
ENDBRANCH  17  20
ENDBRANCH   1  12
BRANCH   2  22
ATOM     22  O   UNL     1      70.030  33.107  40.561  1.00  0.00    -0.502 OA
ATOM     23  H   UNL     1      70.211  33.115  41.557  1.00  0.00     0.293 HD
ENDBRANCH   2  22
BRANCH   6  24
ATOM     24  O   UNL     1      68.290  29.876  36.876  1.00  0.00    -0.507 OA
ATOM     25  H   UNL     1      68.149  29.060  36.291  1.00  0.00     0.293 HD
ENDBRANCH   6  24
BRANCH   8  26
ATOM     26  O   UNL     1      63.561  30.834  36.891  1.00  0.00    -0.508 OA
ATOM     27  H   UNL     1      62.787  30.558  37.484  1.00  0.00     0.293 HD
ENDBRANCH   8  26
TORSDOF 6
ENDMDL
MODEL 3
REMARK VINA RESULT:    -0.176      3.184      4.630
REMARK INTER + INTRA:          -0.544
REMARK INTER:                  -0.219
REMARK INTRA:                  -0.325
REMARK UNBOUND:                -0.332
REMARK SMILES O=c1c(O)c(-c2ccc(O)c(O)c2)oc2cc(O)cc(O)c12
REMARK SMILES IDX 5 1 3 2 2 3 1 4 22 5 20 6 19 7 17 8 16 9 15 10 14 11 6 12
REMARK SMILES IDX 7 13 8 14 9 15 13 16 11 17 10 18 12 20 4 22 21 24 18 26
REMARK H PARENT 10 19 12 21 4 23 21 25 18 27
REMARK Flexibility Score: inf
ROOT
ATOM      1  C   UNL     1      66.148  34.707  39.180  1.00  0.00     0.180 A 
ATOM      2  C   UNL     1      64.805  34.315  39.032  1.00  0.00     0.208 A 
ATOM      3  C   UNL     1      64.522  33.075  38.437  1.00  0.00     0.238 A 
ATOM      4  O   UNL     1      63.321  32.717  38.289  1.00  0.00    -0.285 OA
ATOM      5  C   UNL     1      65.582  32.242  38.023  1.00  0.00     0.111 A 
ATOM      6  C   UNL     1      65.383  30.977  37.421  1.00  0.00     0.134 A 
ATOM      7  C   UNL     1      66.491  30.203  37.043  1.00  0.00     0.093 A 
ATOM      8  C   UNL     1      67.790  30.669  37.257  1.00  0.00     0.123 A 
ATOM      9  C   UNL     1      67.994  31.918  37.852  1.00  0.00     0.094 A 
ATOM     10  C   UNL     1      66.902  32.705  38.233  1.00  0.00     0.146 A 
ATOM     11  O   UNL     1      67.122  33.890  38.792  1.00  0.00    -0.452 OA
ENDROOT
BRANCH   1  12
ATOM     12  C   UNL     1      66.527  36.008  39.779  1.00  0.00     0.025 A 
ATOM     13  C   UNL     1      66.619  37.144  38.960  1.00  0.00     0.016 A 
ATOM     14  C   UNL     1      66.954  38.385  39.506  1.00  0.00     0.051 A 
ATOM     15  C   UNL     1      67.187  38.514  40.879  1.00  0.00     0.157 A 
ATOM     16  C   UNL     1      66.741  36.143  41.162  1.00  0.00     0.062 A 
ATOM     17  C   UNL     1      67.077  37.388  41.713  1.00  0.00     0.158 A 
BRANCH  15  18
ATOM     18  O   UNL     1      67.523  39.764  41.396  1.00  0.00    -0.504 OA
ATOM     19  H   UNL     1      68.273  39.887  42.063  1.00  0.00     0.293 HD
ENDBRANCH  15  18
BRANCH  17  20
ATOM     20  O   UNL     1      67.294  37.512  43.085  1.00  0.00    -0.504 OA
ATOM     21  H   UNL     1      68.025  36.992  43.555  1.00  0.00     0.293 HD
ENDBRANCH  17  20
ENDBRANCH   1  12
BRANCH   2  22
ATOM     22  O   UNL     1      63.773  35.135  39.495  1.00  0.00    -0.502 OA
ATOM     23  H   UNL     1      62.897  35.241  38.998  1.00  0.00     0.293 HD
ENDBRANCH   2  22
BRANCH   6  24
ATOM     24  O   UNL     1      64.097  30.483  37.193  1.00  0.00    -0.507 OA
ATOM     25  H   UNL     1      63.328  31.095  36.943  1.00  0.00     0.293 HD
ENDBRANCH   6  24
BRANCH   8  26
ATOM     26  O   UNL     1      68.874  29.881  36.875  1.00  0.00    -0.508 OA
ATOM     27  H   UNL     1      69.546  29.541  37.552  1.00  0.00     0.293 HD
ENDBRANCH   8  26
TORSDOF 6
ENDMDL
MODEL 4
REMARK VINA RESULT:    -0.145      3.005      3.546
REMARK INTER + INTRA:          -0.507
REMARK INTER:                  -0.175
REMARK INTRA:                  -0.332
REMARK UNBOUND:                -0.332
REMARK SMILES O=c1c(O)c(-c2ccc(O)c(O)c2)oc2cc(O)cc(O)c12
REMARK SMILES IDX 5 1 3 2 2 3 1 4 22 5 20 6 19 7 17 8 16 9 15 10 14 11 6 12
REMARK SMILES IDX 7 13 8 14 9 15 13 16 11 17 10 18 12 20 4 22 21 24 18 26
REMARK H PARENT 10 19 12 21 4 23 21 25 18 27
REMARK Flexibility Score: inf
ROOT
ATOM      1  C   UNL     1      67.918  34.904  39.275  1.00  0.00     0.180 A 
ATOM      2  C   UNL     1      69.200  34.417  38.956  1.00  0.00     0.208 A 
ATOM      3  C   UNL     1      69.311  33.192  38.278  1.00  0.00     0.238 A 
ATOM      4  O   UNL     1      70.454  32.741  37.996  1.00  0.00    -0.285 OA
ATOM      5  C   UNL     1      68.144  32.488  37.914  1.00  0.00     0.111 A 
ATOM      6  C   UNL     1      68.169  31.251  37.227  1.00  0.00     0.134 A 
ATOM      7  C   UNL     1      66.962  30.617  36.893  1.00  0.00     0.093 A 
ATOM      8  C   UNL     1      65.737  31.195  37.231  1.00  0.00     0.123 A 
ATOM      9  C   UNL     1      65.706  32.416  37.910  1.00  0.00     0.094 A 
ATOM     10  C   UNL     1      66.896  33.063  38.254  1.00  0.00     0.146 A 
ATOM     11  O   UNL     1      66.840  34.221  38.903  1.00  0.00    -0.452 OA
ENDROOT
BRANCH   1  12
ATOM     12  C   UNL     1      67.719  36.177  40.006  1.00  0.00     0.025 A 
ATOM     13  C   UNL     1      67.547  37.367  39.283  1.00  0.00     0.016 A 
ATOM     14  C   UNL     1      67.337  38.576  39.950  1.00  0.00     0.051 A 
ATOM     15  C   UNL     1      67.282  38.613  41.347  1.00  0.00     0.157 A 
ATOM     16  C   UNL     1      67.644  36.212  41.409  1.00  0.00     0.062 A 
ATOM     17  C   UNL     1      67.432  37.425  42.081  1.00  0.00     0.158 A 
BRANCH  15  18
ATOM     18  O   UNL     1      67.075  39.835  41.986  1.00  0.00    -0.504 OA
ATOM     19  H   UNL     1      66.359  39.959  42.690  1.00  0.00     0.293 HD
ENDBRANCH  15  18
BRANCH  17  20
ATOM     20  O   UNL     1      67.365  37.452  43.474  1.00  0.00    -0.504 OA
ATOM     21  H   UNL     1      67.483  38.314  43.994  1.00  0.00     0.293 HD
ENDBRANCH  17  20
ENDBRANCH   1  12
BRANCH   2  22
ATOM     22  O   UNL     1      70.339  35.157  39.283  1.00  0.00    -0.502 OA
ATOM     23  H   UNL     1      70.287  36.096  39.661  1.00  0.00     0.293 HD
ENDBRANCH   2  22
BRANCH   6  24
ATOM     24  O   UNL     1      69.377  30.649  36.875  1.00  0.00    -0.507 OA
ATOM     25  H   UNL     1      69.421  29.897  36.197  1.00  0.00     0.293 HD
ENDBRANCH   6  24
BRANCH   8  26
ATOM     26  O   UNL     1      64.554  30.545  36.885  1.00  0.00    -0.508 OA
ATOM     27  H   UNL     1      63.660  30.834  37.265  1.00  0.00     0.293 HD
ENDBRANCH   8  26
TORSDOF 6
ENDMDL
MODEL 5
REMARK VINA RESULT:    -0.122      2.795      3.296
REMARK INTER + INTRA:          -0.479
REMARK INTER:                  -0.147
REMARK INTRA:                  -0.332
REMARK UNBOUND:                -0.332
REMARK SMILES O=c1c(O)c(-c2ccc(O)c(O)c2)oc2cc(O)cc(O)c12
REMARK SMILES IDX 5 1 3 2 2 3 1 4 22 5 20 6 19 7 17 8 16 9 15 10 14 11 6 12
REMARK SMILES IDX 7 13 8 14 9 15 13 16 11 17 10 18 12 20 4 22 21 24 18 26
REMARK H PARENT 10 19 12 21 4 23 21 25 18 27
REMARK Flexibility Score: inf
ROOT
ATOM      1  C   UNL     1      68.875  33.137  39.897  1.00  0.00     0.180 A 
ATOM      2  C   UNL     1      69.349  32.187  38.973  1.00  0.00     0.208 A 
ATOM      3  C   UNL     1      68.420  31.408  38.265  1.00  0.00     0.238 A 
ATOM      4  O   UNL     1      68.833  30.546  37.442  1.00  0.00    -0.285 OA
ATOM      5  C   UNL     1      67.040  31.607  38.475  1.00  0.00     0.111 A 
ATOM      6  C   UNL     1      66.040  30.868  37.798  1.00  0.00     0.134 A 
ATOM      7  C   UNL     1      64.686  31.130  38.057  1.00  0.00     0.093 A 
ATOM      8  C   UNL     1      64.315  32.115  38.975  1.00  0.00     0.123 A 
ATOM      9  C   UNL     1      65.297  32.848  39.647  1.00  0.00     0.094 A 
ATOM     10  C   UNL     1      66.652  32.600  39.404  1.00  0.00     0.146 A 
ATOM     11  O   UNL     1      67.567  33.307  40.059  1.00  0.00    -0.452 OA
ENDROOT
BRANCH   1  12
ATOM     12  C   UNL     1      69.792  33.982  40.697  1.00  0.00     0.025 A 
ATOM     13  C   UNL     1      70.151  35.253  40.221  1.00  0.00     0.016 A 
ATOM     14  C   UNL     1      70.998  36.075  40.968  1.00  0.00     0.051 A 
ATOM     15  C   UNL     1      71.486  35.649  42.207  1.00  0.00     0.157 A 
ATOM     16  C   UNL     1      70.267  33.563  41.952  1.00  0.00     0.062 A 
ATOM     17  C   UNL     1      71.117  34.388  42.704  1.00  0.00     0.158 A 
BRANCH  15  18
ATOM     18  O   UNL     1      72.332  36.489  42.929  1.00  0.00    -0.504 OA
ATOM     19  H   UNL     1      72.030  37.394  43.268  1.00  0.00     0.293 HD
ENDBRANCH  15  18
BRANCH  17  20
ATOM     20  O   UNL     1      71.589  33.961  43.945  1.00  0.00    -0.504 OA
ATOM     21  H   UNL     1      71.193  33.156  44.415  1.00  0.00     0.293 HD
ENDBRANCH  17  20
ENDBRANCH   1  12
BRANCH   2  22
ATOM     22  O   UNL     1      70.720  32.045  38.746  1.00  0.00    -0.502 OA
ATOM     23  H   UNL     1      71.374  32.808  38.871  1.00  0.00     0.293 HD
ENDBRANCH   2  22
BRANCH   6  24
ATOM     24  O   UNL     1      66.379  29.877  36.875  1.00  0.00    -0.507 OA
ATOM     25  H   UNL     1      67.249  29.362  36.942  1.00  0.00     0.293 HD
ENDBRANCH   6  24
BRANCH   8  26
ATOM     26  O   UNL     1      62.963  32.357  39.212  1.00  0.00    -0.508 OA
ATOM     27  H   UNL     1      62.654  32.906  40.006  1.00  0.00     0.293 HD
ENDBRANCH   8  26
TORSDOF 6
ENDMDL
MODEL 6
REMARK VINA RESULT:    -0.122      2.861      4.230
REMARK INTER + INTRA:          -0.479
REMARK INTER:                  -0.147
REMARK INTRA:                  -0.332
REMARK UNBOUND:                -0.332
REMARK SMILES O=c1c(O)c(-c2ccc(O)c(O)c2)oc2cc(O)cc(O)c12
REMARK SMILES IDX 5 1 3 2 2 3 1 4 22 5 20 6 19 7 17 8 16 9 15 10 14 11 6 12
REMARK SMILES IDX 7 13 8 14 9 15 13 16 11 17 10 18 12 20 4 22 21 24 18 26
REMARK H PARENT 10 19 12 21 4 23 21 25 18 27
REMARK Flexibility Score: inf
ROOT
ATOM      1  C   UNL     1      67.692  34.591  40.186  1.00  0.00     0.180 A 
ATOM      2  C   UNL     1      66.340  34.630  39.798  1.00  0.00     0.208 A 
ATOM      3  C   UNL     1      65.879  33.705  38.848  1.00  0.00     0.238 A 
ATOM      4  O   UNL     1      64.671  33.738  38.484  1.00  0.00    -0.285 OA
ATOM      5  C   UNL     1      66.769  32.746  38.320  1.00  0.00     0.111 A 
ATOM      6  C   UNL     1      66.383  31.776  37.364  1.00  0.00     0.134 A 
ATOM      7  C   UNL     1      67.327  30.850  36.893  1.00  0.00     0.093 A 
ATOM      8  C   UNL     1      68.643  30.875  37.360  1.00  0.00     0.123 A 
ATOM      9  C   UNL     1      69.029  31.830  38.305  1.00  0.00     0.094 A 
ATOM     10  C   UNL     1      68.105  32.763  38.784  1.00  0.00     0.146 A 
ATOM     11  O   UNL     1      68.499  33.664  39.678  1.00  0.00    -0.452 OA
ENDROOT
BRANCH   1  12
ATOM     12  C   UNL     1      68.258  35.546  41.167  1.00  0.00     0.025 A 
ATOM     13  C   UNL     1      68.297  35.196  42.525  1.00  0.00     0.016 A 
ATOM     14  C   UNL     1      68.844  36.073  43.466  1.00  0.00     0.051 A 
ATOM     15  C   UNL     1      69.374  37.303  43.063  1.00  0.00     0.157 A 
ATOM     16  C   UNL     1      68.809  36.773  40.760  1.00  0.00     0.062 A 
ATOM     17  C   UNL     1      69.360  37.654  41.703  1.00  0.00     0.158 A 
BRANCH  15  18
ATOM     18  O   UNL     1      69.911  38.158  44.024  1.00  0.00    -0.504 OA
ATOM     19  H   UNL     1      70.652  37.867  44.649  1.00  0.00     0.293 HD
ENDBRANCH  15  18
BRANCH  17  20
ATOM     20  O   UNL     1      69.899  38.873  41.292  1.00  0.00    -0.504 OA
ATOM     21  H   UNL     1      69.496  39.400  40.526  1.00  0.00     0.293 HD
ENDBRANCH  17  20
ENDBRANCH   1  12
BRANCH   2  22
ATOM     22  O   UNL     1      65.466  35.558  40.372  1.00  0.00    -0.502 OA
ATOM     23  H   UNL     1      65.697  36.541  40.458  1.00  0.00     0.293 HD
ENDBRANCH   2  22
BRANCH   6  24
ATOM     24  O   UNL     1      65.076  31.726  36.878  1.00  0.00    -0.507 OA
ATOM     25  H   UNL     1      64.320  32.226  37.330  1.00  0.00     0.293 HD
ENDBRANCH   6  24
BRANCH   8  26
ATOM     26  O   UNL     1      69.559  29.943  36.878  1.00  0.00    -0.508 OA
ATOM     27  H   UNL     1      70.527  30.190  36.710  1.00  0.00     0.293 HD
ENDBRANCH   8  26
TORSDOF 6
ENDMDL
MODEL 7
REMARK VINA RESULT:    -0.120      3.475      7.088
REMARK INTER + INTRA:          -0.477
REMARK INTER:                  -0.152
REMARK INTRA:                  -0.325
REMARK UNBOUND:                -0.332
REMARK SMILES O=c1c(O)c(-c2ccc(O)c(O)c2)oc2cc(O)cc(O)c12
REMARK SMILES IDX 5 1 3 2 2 3 1 4 22 5 20 6 19 7 17 8 16 9 15 10 14 11 6 12
REMARK SMILES IDX 7 13 8 14 9 15 13 16 11 17 10 18 12 20 4 22 21 24 18 26
REMARK H PARENT 10 19 12 21 4 23 21 25 18 27
REMARK Flexibility Score: inf
ROOT
ATOM      1  C   UNL     1      69.401  33.025  39.159  1.00  0.00     0.180 A 
ATOM      2  C   UNL     1      69.716  32.924  40.527  1.00  0.00     0.208 A 
ATOM      3  C   UNL     1      70.802  33.659  41.029  1.00  0.00     0.238 A 
ATOM      4  O   UNL     1      71.101  33.569  42.251  1.00  0.00    -0.285 OA
ATOM      5  C   UNL     1      71.538  34.495  40.163  1.00  0.00     0.111 A 
ATOM      6  C   UNL     1      72.642  35.271  40.589  1.00  0.00     0.134 A 
ATOM      7  C   UNL     1      73.318  36.084  39.667  1.00  0.00     0.093 A 
ATOM      8  C   UNL     1      72.912  36.137  38.332  1.00  0.00     0.123 A 
ATOM      9  C   UNL     1      71.822  35.372  37.905  1.00  0.00     0.094 A 
ATOM     10  C   UNL     1      71.137  34.554  38.808  1.00  0.00     0.146 A 
ATOM     11  O   UNL     1      70.107  33.834  38.375  1.00  0.00    -0.452 OA
ENDROOT
BRANCH   1  12
ATOM     12  C   UNL     1      68.283  32.266  38.552  1.00  0.00     0.025 A 
ATOM     13  C   UNL     1      68.510  30.965  38.076  1.00  0.00     0.016 A 
ATOM     14  C   UNL     1      67.466  30.224  37.518  1.00  0.00     0.051 A 
ATOM     15  C   UNL     1      66.178  30.763  37.440  1.00  0.00     0.157 A 
ATOM     16  C   UNL     1      66.984  32.799  38.491  1.00  0.00     0.062 A 
ATOM     17  C   UNL     1      65.934  32.056  37.932  1.00  0.00     0.158 A 
BRANCH  15  18
ATOM     18  O   UNL     1      65.157  30.000  36.875  1.00  0.00    -0.504 OA
ATOM     19  H   UNL     1      64.188  30.290  36.908  1.00  0.00     0.293 HD
ENDBRANCH  15  18
BRANCH  17  20
ATOM     20  O   UNL     1      64.649  32.594  37.870  1.00  0.00    -0.504 OA
ATOM     21  H   UNL     1      64.440  33.512  38.245  1.00  0.00     0.293 HD
ENDBRANCH  17  20
ENDBRANCH   1  12
BRANCH   2  22
ATOM     22  O   UNL     1      68.941  32.128  41.375  1.00  0.00    -0.502 OA
ATOM     23  H   UNL     1      69.141  31.148  41.532  1.00  0.00     0.293 HD
ENDBRANCH   2  22
BRANCH   6  24
ATOM     24  O   UNL     1      73.073  35.240  41.917  1.00  0.00    -0.507 OA
ATOM     25  H   UNL     1      73.661  34.494  42.269  1.00  0.00     0.293 HD
ENDBRANCH   6  24
BRANCH   8  26
ATOM     26  O   UNL     1      73.599  36.954  37.437  1.00  0.00    -0.508 OA
ATOM     27  H   UNL     1      74.252  37.659  37.758  1.00  0.00     0.293 HD
ENDBRANCH   8  26
TORSDOF 6
ENDMDL
MODEL 8
REMARK VINA RESULT:    -0.117      3.560      5.000
REMARK INTER + INTRA:          -0.473
REMARK INTER:                  -0.144
REMARK INTRA:                  -0.330
REMARK UNBOUND:                -0.332
REMARK SMILES O=c1c(O)c(-c2ccc(O)c(O)c2)oc2cc(O)cc(O)c12
REMARK SMILES IDX 5 1 3 2 2 3 1 4 22 5 20 6 19 7 17 8 16 9 15 10 14 11 6 12
REMARK SMILES IDX 7 13 8 14 9 15 13 16 11 17 10 18 12 20 4 22 21 24 18 26
REMARK H PARENT 10 19 12 21 4 23 21 25 18 27
REMARK Flexibility Score: inf
ROOT
ATOM      1  C   UNL     1      68.429  34.457  39.307  1.00  0.00     0.180 A 
ATOM      2  C   UNL     1      67.514  35.505  39.091  1.00  0.00     0.208 A 
ATOM      3  C   UNL     1      66.306  35.226  38.432  1.00  0.00     0.238 A 
ATOM      4  O   UNL     1      65.483  36.159  38.223  1.00  0.00    -0.285 OA
ATOM      5  C   UNL     1      66.024  33.906  38.022  1.00  0.00     0.111 A 
ATOM      6  C   UNL     1      64.829  33.541  37.358  1.00  0.00     0.134 A 
ATOM      7  C   UNL     1      64.620  32.203  36.989  1.00  0.00     0.093 A 
ATOM      8  C   UNL     1      65.578  31.228  37.272  1.00  0.00     0.123 A 
ATOM      9  C   UNL     1      66.761  31.583  37.928  1.00  0.00     0.094 A 
ATOM     10  C   UNL     1      66.990  32.910  38.302  1.00  0.00     0.146 A 
ATOM     11  O   UNL     1      68.124  33.223  38.920  1.00  0.00    -0.452 OA
ENDROOT
BRANCH   1  12
ATOM     12  C   UNL     1      69.732  34.676  39.976  1.00  0.00     0.025 A 
ATOM     13  C   UNL     1      69.850  34.434  41.353  1.00  0.00     0.016 A 
ATOM     14  C   UNL     1      71.074  34.613  42.001  1.00  0.00     0.051 A 
ATOM     15  C   UNL     1      72.202  35.022  41.282  1.00  0.00     0.157 A 
ATOM     16  C   UNL     1      70.871  35.067  39.251  1.00  0.00     0.062 A 
ATOM     17  C   UNL     1      72.102  35.247  39.899  1.00  0.00     0.158 A 
BRANCH  15  18
ATOM     18  O   UNL     1      73.409  35.197  41.956  1.00  0.00    -0.504 OA
ATOM     19  H   UNL     1      73.490  35.792  42.771  1.00  0.00     0.293 HD
ENDBRANCH  15  18
BRANCH  17  20
ATOM     20  O   UNL     1      73.226  35.642  39.174  1.00  0.00    -0.504 OA
ATOM     21  H   UNL     1      73.440  35.241  38.268  1.00  0.00     0.293 HD
ENDBRANCH  17  20
ENDBRANCH   1  12
BRANCH   2  22
ATOM     22  O   UNL     1      67.794  36.794  39.551  1.00  0.00    -0.502 OA
ATOM     23  H   UNL     1      68.680  37.254  39.374  1.00  0.00     0.293 HD
ENDBRANCH   2  22
BRANCH   6  24
ATOM     24  O   UNL     1      63.852  34.492  37.061  1.00  0.00    -0.507 OA
ATOM     25  H   UNL     1      63.974  35.165  36.314  1.00  0.00     0.293 HD
ENDBRANCH   6  24
BRANCH   8  26
ATOM     26  O   UNL     1      65.345  29.907  36.896  1.00  0.00    -0.508 OA
ATOM     27  H   UNL     1      64.419  29.497  36.947  1.00  0.00     0.293 HD
ENDBRANCH   8  26
TORSDOF 6
ENDMDL
MODEL 9
REMARK VINA RESULT:    -0.114      3.135      7.471
REMARK INTER + INTRA:          -0.470
REMARK INTER:                  -0.138
REMARK INTRA:                  -0.332
REMARK UNBOUND:                -0.332
REMARK SMILES O=c1c(O)c(-c2ccc(O)c(O)c2)oc2cc(O)cc(O)c12
REMARK SMILES IDX 5 1 3 2 2 3 1 4 22 5 20 6 19 7 17 8 16 9 15 10 14 11 6 12
REMARK SMILES IDX 7 13 8 14 9 15 13 16 11 17 10 18 12 20 4 22 21 24 18 26
REMARK H PARENT 10 19 12 21 4 23 21 25 18 27
REMARK Flexibility Score: inf
ROOT
ATOM      1  C   UNL     1      66.797  34.790  39.741  1.00  0.00     0.180 A 
ATOM      2  C   UNL     1      67.290  35.964  39.142  1.00  0.00     0.208 A 
ATOM      3  C   UNL     1      67.443  37.115  39.932  1.00  0.00     0.238 A 
ATOM      4  O   UNL     1      67.873  38.177  39.404  1.00  0.00    -0.285 OA
ATOM      5  C   UNL     1      67.123  37.067  41.304  1.00  0.00     0.111 A 
ATOM      6  C   UNL     1      67.253  38.180  42.169  1.00  0.00     0.134 A 
ATOM      7  C   UNL     1      66.921  38.048  43.527  1.00  0.00     0.093 A 
ATOM      8  C   UNL     1      66.465  36.830  44.033  1.00  0.00     0.123 A 
ATOM      9  C   UNL     1      66.334  35.727  43.184  1.00  0.00     0.094 A 
ATOM     10  C   UNL     1      66.657  35.838  41.828  1.00  0.00     0.146 A 
ATOM     11  O   UNL     1      66.519  34.776  41.041  1.00  0.00    -0.452 OA
ENDROOT
BRANCH   1  12
ATOM     12  C   UNL     1      66.588  33.542  38.971  1.00  0.00     0.025 A 
ATOM     13  C   UNL     1      67.583  32.552  38.979  1.00  0.00     0.016 A 
ATOM     14  C   UNL     1      67.400  31.358  38.276  1.00  0.00     0.051 A 
ATOM     15  C   UNL     1      66.216  31.128  37.569  1.00  0.00     0.157 A 
ATOM     16  C   UNL     1      65.390  33.301  38.276  1.00  0.00     0.062 A 
ATOM     17  C   UNL     1      65.203  32.102  37.572  1.00  0.00     0.158 A 
BRANCH  15  18
ATOM     18  O   UNL     1      66.062  29.929  36.875  1.00  0.00    -0.504 OA
ATOM     19  H   UNL     1      66.765  29.201  36.896  1.00  0.00     0.293 HD
ENDBRANCH  15  18
BRANCH  17  20
ATOM     20  O   UNL     1      64.014  31.874  36.880  1.00  0.00    -0.504 OA
ATOM     21  H   UNL     1      63.587  30.956  36.848  1.00  0.00     0.293 HD
ENDBRANCH  17  20
ENDBRANCH   1  12
BRANCH   2  22
ATOM     22  O   UNL     1      67.647  35.973  37.792  1.00  0.00    -0.502 OA
ATOM     23  H   UNL     1      68.013  36.798  37.331  1.00  0.00     0.293 HD
ENDBRANCH   2  22
BRANCH   6  24
ATOM     24  O   UNL     1      67.707  39.410  41.693  1.00  0.00    -0.507 OA
ATOM     25  H   UNL     1      68.352  39.476  40.914  1.00  0.00     0.293 HD
ENDBRANCH   6  24
BRANCH   8  26
ATOM     26  O   UNL     1      66.144  36.726  45.385  1.00  0.00    -0.508 OA
ATOM     27  H   UNL     1      66.428  37.433  46.053  1.00  0.00     0.293 HD
ENDBRANCH   8  26
TORSDOF 6
ENDMDL
