MODEL 1
REMARK VINA RESULT:    -3.570      0.000      0.000
REMARK INTER + INTRA:         -11.293
REMARK INTER:                  -7.744
REMARK INTRA:                  -3.549
REMARK UNBOUND:                -3.549
REMARK SMILES CCCCCCCCCCCCCCCCCCCCCC(=O)[O-]
REMARK SMILES IDX 12 1 11 2 10 3 9 4 8 5 7 6 6 7 5 8 4 9 3 10 2 11 1 12 13 13
REMARK SMILES IDX 14 14 15 15 16 16 17 17 18 18 19 19 20 20 21 21 22 22 23 23
REMARK SMILES IDX 24 24
REMARK H PARENT
REMARK Flexibility Score: inf
ROOT
ATOM      1  C   UNL     1      -3.197 -10.512  36.814  1.00  0.00     0.000 C 
ENDROOT
BRANCH   1   2
ATOM      2  C   UNL     1      -2.158 -11.376  37.559  1.00  0.00     0.000 C 
BRANCH   2   3
ATOM      3  C   UNL     1      -0.768 -10.715  37.599  1.00  0.00     0.000 C 
BRANCH   3   4
ATOM      4  C   UNL     1      -0.346 -10.317  39.023  1.00  0.00    -0.000 C 
BRANCH   4   5
ATOM      5  C   UNL     1      -0.444  -8.798  39.257  1.00  0.00    -0.000 C 
BRANCH   5   6
ATOM      6  C   UNL     1      -1.518  -8.423  40.291  1.00  0.00    -0.000 C 
BRANCH   6   7
ATOM      7  C   UNL     1      -2.918  -8.293  39.667  1.00  0.00    -0.000 C 
BRANCH   7   8
ATOM      8  C   UNL     1      -3.939  -9.245  40.313  1.00  0.00    -0.000 C 
BRANCH   8   9
ATOM      9  C   UNL     1      -3.416  -9.879  41.615  1.00  0.00    -0.000 C 
BRANCH   9  10
ATOM     10  C   UNL     1      -3.632 -11.400  41.659  1.00  0.00    -0.000 C 
BRANCH  10  11
ATOM     11  C   UNL     1      -2.327 -12.186  41.463  1.00  0.00    -0.003 C 
ATOM     12  C   UNL     1      -1.213 -11.628  42.343  1.00  0.00     0.004 C 
ENDBRANCH  10  11
ENDBRANCH   9  10
ENDBRANCH   8   9
ENDBRANCH   7   8
ENDBRANCH   6   7
ENDBRANCH   5   6
ENDBRANCH   4   5
ENDBRANCH   3   4
ENDBRANCH   2   3
ENDBRANCH   1   2
BRANCH   1  13
ATOM     13  C   UNL     1      -2.871 -10.271  35.326  1.00  0.00     0.000 C 
BRANCH  13  14
ATOM     14  C   UNL     1      -2.984  -8.798  34.887  1.00  0.00     0.000 C 
BRANCH  14  15
ATOM     15  C   UNL     1      -1.865  -7.924  35.477  1.00  0.00     0.000 C 
BRANCH  15  16
ATOM     16  C   UNL     1      -2.367  -6.946  36.554  1.00  0.00     0.000 C 
BRANCH  16  17
ATOM     17  C   UNL     1      -3.884  -6.678  36.484  1.00  0.00     0.000 C 
BRANCH  17  18
ATOM     18  C   UNL     1      -4.214  -5.178  36.509  1.00  0.00     0.000 C 
BRANCH  18  19
ATOM     19  C   UNL     1      -5.293  -4.837  35.471  1.00  0.00     0.000 C 
BRANCH  19  20
ATOM     20  C   UNL     1      -4.724  -4.124  34.230  1.00  0.00     0.006 C 
BRANCH  20  21
ATOM     21  C   UNL     1      -3.357  -4.654  33.764  1.00  0.00     0.053 C 
BRANCH  21  22
ATOM     22  C   UNL     1      -3.489  -5.695  32.696  1.00  0.00     0.041 C 
ATOM     23  O   UNL     1      -2.462  -6.157  32.131  1.00  0.00    -0.550 OA
ATOM     24  O   UNL     1      -4.743  -6.181  32.350  1.00  0.00    -0.550 OA
ENDBRANCH  21  22
ENDBRANCH  20  21
ENDBRANCH  19  20
ENDBRANCH  18  19
ENDBRANCH  17  18
ENDBRANCH  16  17
ENDBRANCH  15  16
ENDBRANCH  14  15
ENDBRANCH  13  14
ENDBRANCH   1  13
TORSDOF 20
ENDMDL
MODEL 2
REMARK VINA RESULT:    -3.541      2.008      5.025
REMARK INTER + INTRA:         -11.231
REMARK INTER:                  -7.262
REMARK INTRA:                  -3.969
REMARK UNBOUND:                -3.549
REMARK SMILES CCCCCCCCCCCCCCCCCCCCCC(=O)[O-]
REMARK SMILES IDX 12 1 11 2 10 3 9 4 8 5 7 6 6 7 5 8 4 9 3 10 2 11 1 12 13 13
REMARK SMILES IDX 14 14 15 15 16 16 17 17 18 18 19 19 20 20 21 21 22 22 23 23
REMARK SMILES IDX 24 24
REMARK H PARENT
REMARK Flexibility Score: inf
ROOT
ATOM      1  C   UNL     1      -2.237 -13.053  42.191  1.00  0.00     0.000 C 
ENDROOT
BRANCH   1   2
ATOM      2  C   UNL     1      -3.706 -12.810  41.791  1.00  0.00     0.000 C 
BRANCH   2   3
ATOM      3  C   UNL     1      -4.693 -13.275  42.878  1.00  0.00     0.000 C 
BRANCH   3   4
ATOM      4  C   UNL     1      -5.578 -12.130  43.398  1.00  0.00    -0.000 C 
BRANCH   4   5
ATOM      5  C   UNL     1      -4.974 -10.745  43.101  1.00  0.00    -0.000 C 
BRANCH   5   6
ATOM      6  C   UNL     1      -6.028  -9.718  42.658  1.00  0.00    -0.000 C 
BRANCH   6   7
ATOM      7  C   UNL     1      -5.621  -8.969  41.378  1.00  0.00    -0.000 C 
BRANCH   7   8
ATOM      8  C   UNL     1      -5.350  -9.922  40.201  1.00  0.00    -0.000 C 
BRANCH   8   9
ATOM      9  C   UNL     1      -4.924  -9.178  38.923  1.00  0.00    -0.000 C 
BRANCH   9  10
ATOM     10  C   UNL     1      -4.620 -10.133  37.758  1.00  0.00    -0.000 C 
BRANCH  10  11
ATOM     11  C   UNL     1      -4.123 -11.506  38.237  1.00  0.00    -0.003 C 
ATOM     12  C   UNL     1      -2.818 -11.888  37.546  1.00  0.00     0.004 C 
ENDBRANCH  10  11
ENDBRANCH   9  10
ENDBRANCH   8   9
ENDBRANCH   7   8
ENDBRANCH   6   7
ENDBRANCH   5   6
ENDBRANCH   4   5
ENDBRANCH   3   4
ENDBRANCH   2   3
ENDBRANCH   1   2
BRANCH   1  13
ATOM     13  C   UNL     1      -1.342 -11.800  42.110  1.00  0.00     0.000 C 
BRANCH  13  14
ATOM     14  C   UNL     1      -1.679 -10.858  40.937  1.00  0.00     0.000 C 
BRANCH  14  15
ATOM     15  C   UNL     1      -1.924  -9.412  41.399  1.00  0.00     0.000 C 
BRANCH  15  16
ATOM     16  C   UNL     1      -1.649  -8.372  40.298  1.00  0.00     0.000 C 
BRANCH  16  17
ATOM     17  C   UNL     1      -1.117  -8.988  38.987  1.00  0.00     0.000 C 
BRANCH  17  18
ATOM     18  C   UNL     1      -0.912  -7.935  37.889  1.00  0.00     0.000 C 
BRANCH  18  19
ATOM     19  C   UNL     1      -1.566  -8.380  36.573  1.00  0.00     0.000 C 
BRANCH  19  20
ATOM     20  C   UNL     1      -2.546  -7.335  36.008  1.00  0.00     0.006 C 
BRANCH  20  21
ATOM     21  C   UNL     1      -3.239  -6.472  37.077  1.00  0.00     0.053 C 
BRANCH  21  22
ATOM     22  C   UNL     1      -4.294  -5.586  36.491  1.00  0.00     0.041 C 
ATOM     23  O   UNL     1      -4.014  -4.812  35.539  1.00  0.00    -0.550 OA
ATOM     24  O   UNL     1      -5.596  -5.644  36.972  1.00  0.00    -0.550 OA
ENDBRANCH  21  22
ENDBRANCH  20  21
ENDBRANCH  19  20
ENDBRANCH  18  19
ENDBRANCH  17  18
ENDBRANCH  16  17
ENDBRANCH  15  16
ENDBRANCH  14  15
ENDBRANCH  13  14
ENDBRANCH   1  13
TORSDOF 20
ENDMDL
MODEL 3
REMARK VINA RESULT:    -3.526      3.930      7.225
REMARK INTER + INTRA:         -11.197
REMARK INTER:                  -7.647
REMARK INTRA:                  -3.550
REMARK UNBOUND:                -3.549
REMARK SMILES CCCCCCCCCCCCCCCCCCCCCC(=O)[O-]
REMARK SMILES IDX 12 1 11 2 10 3 9 4 8 5 7 6 6 7 5 8 4 9 3 10 2 11 1 12 13 13
REMARK SMILES IDX 14 14 15 15 16 16 17 17 18 18 19 19 20 20 21 21 22 22 23 23
REMARK SMILES IDX 24 24
REMARK H PARENT
REMARK Flexibility Score: inf
ROOT
ATOM      1  C   UNL     1      -3.244  -7.266  33.281  1.00  0.00     0.000 C 
ENDROOT
BRANCH   1   2
ATOM      2  C   UNL     1      -3.999  -5.954  32.986  1.00  0.00     0.000 C 
BRANCH   2   3
ATOM      3  C   UNL     1      -3.312  -4.729  33.617  1.00  0.00     0.000 C 
BRANCH   3   4
ATOM      4  C   UNL     1      -4.277  -3.883  34.463  1.00  0.00    -0.000 C 
BRANCH   4   5
ATOM      5  C   UNL     1      -5.098  -4.741  35.443  1.00  0.00    -0.000 C 
BRANCH   5   6
ATOM      6  C   UNL     1      -4.254  -5.292  36.603  1.00  0.00    -0.000 C 
BRANCH   6   7
ATOM      7  C   UNL     1      -4.899  -6.517  37.273  1.00  0.00    -0.000 C 
BRANCH   7   8
ATOM      8  C   UNL     1      -5.777  -7.323  36.300  1.00  0.00    -0.000 C 
BRANCH   8   9
ATOM      9  C   UNL     1      -5.182  -8.705  35.971  1.00  0.00    -0.000 C 
BRANCH   9  10
ATOM     10  C   UNL     1      -5.686  -9.805  36.919  1.00  0.00    -0.000 C 
BRANCH  10  11
ATOM     11  C   UNL     1      -4.714 -10.075  38.078  1.00  0.00    -0.003 C 
ATOM     12  C   UNL     1      -5.314  -9.638  39.410  1.00  0.00     0.004 C 
ENDBRANCH  10  11
ENDBRANCH   9  10
ENDBRANCH   8   9
ENDBRANCH   7   8
ENDBRANCH   6   7
ENDBRANCH   5   6
ENDBRANCH   4   5
ENDBRANCH   3   4
ENDBRANCH   2   3
ENDBRANCH   1   2
BRANCH   1  13
ATOM     13  C   UNL     1      -1.930  -7.079  34.065  1.00  0.00     0.000 C 
BRANCH  13  14
ATOM     14  C   UNL     1      -1.732  -8.087  35.214  1.00  0.00     0.000 C 
BRANCH  14  15
ATOM     15  C   UNL     1      -1.358  -7.400  36.538  1.00  0.00     0.000 C 
BRANCH  15  16
ATOM     16  C   UNL     1      -1.297  -8.375  37.727  1.00  0.00     0.000 C 
BRANCH  16  17
ATOM     17  C   UNL     1      -2.024  -7.859  38.986  1.00  0.00     0.000 C 
BRANCH  17  18
ATOM     18  C   UNL     1      -1.240  -8.149  40.274  1.00  0.00     0.000 C 
BRANCH  18  19
ATOM     19  C   UNL     1      -1.944  -9.223  41.115  1.00  0.00     0.000 C 
BRANCH  19  20
ATOM     20  C   UNL     1      -1.525 -10.654  40.729  1.00  0.00     0.006 C 
BRANCH  20  21
ATOM     21  C   UNL     1      -2.374 -11.761  41.380  1.00  0.00     0.053 C 
BRANCH  21  22
ATOM     22  C   UNL     1      -1.594 -12.556  42.381  1.00  0.00     0.041 C 
ATOM     23  O   UNL     1      -0.584 -12.054  42.940  1.00  0.00    -0.550 OA
ATOM     24  O   UNL     1      -2.006 -13.837  42.724  1.00  0.00    -0.550 OA
ENDBRANCH  21  22
ENDBRANCH  20  21
ENDBRANCH  19  20
ENDBRANCH  18  19
ENDBRANCH  17  18
ENDBRANCH  16  17
ENDBRANCH  15  16
ENDBRANCH  14  15
ENDBRANCH  13  14
ENDBRANCH   1  13
TORSDOF 20
ENDMDL
MODEL 4
REMARK VINA RESULT:    -3.501      1.391      2.439
REMARK INTER + INTRA:         -11.144
REMARK INTER:                  -7.338
REMARK INTRA:                  -3.806
REMARK UNBOUND:                -3.549
REMARK SMILES CCCCCCCCCCCCCCCCCCCCCC(=O)[O-]
REMARK SMILES IDX 12 1 11 2 10 3 9 4 8 5 7 6 6 7 5 8 4 9 3 10 2 11 1 12 13 13
REMARK SMILES IDX 14 14 15 15 16 16 17 17 18 18 19 19 20 20 21 21 22 22 23 23
REMARK SMILES IDX 24 24
REMARK H PARENT
REMARK Flexibility Score: inf
ROOT
ATOM      1  C   UNL     1      -2.489  -8.736  35.318  1.00  0.00     0.000 C 
ENDROOT
BRANCH   1   2
ATOM      2  C   UNL     1      -1.672  -7.542  35.853  1.00  0.00     0.000 C 
BRANCH   2   3
ATOM      3  C   UNL     1      -1.349  -7.679  37.352  1.00  0.00     0.000 C 
BRANCH   3   4
ATOM      4  C   UNL     1      -0.353  -8.815  37.639  1.00  0.00    -0.000 C 
BRANCH   4   5
ATOM      5  C   UNL     1      -0.245  -9.131  39.142  1.00  0.00    -0.000 C 
BRANCH   5   6
ATOM      6  C   UNL     1      -1.321  -8.420  39.978  1.00  0.00    -0.000 C 
BRANCH   6   7
ATOM      7  C   UNL     1      -1.837  -9.289  41.138  1.00  0.00    -0.000 C 
BRANCH   7   8
ATOM      8  C   UNL     1      -3.361  -9.489  41.088  1.00  0.00    -0.000 C 
BRANCH   8   9
ATOM      9  C   UNL     1      -3.968  -9.080  39.733  1.00  0.00    -0.000 C 
BRANCH   9  10
ATOM     10  C   UNL     1      -4.805 -10.203  39.099  1.00  0.00    -0.000 C 
BRANCH  10  11
ATOM     11  C   UNL     1      -4.069 -11.551  39.089  1.00  0.00    -0.003 C 
ATOM     12  C   UNL     1      -2.934 -11.549  38.069  1.00  0.00     0.004 C 
ENDBRANCH  10  11
ENDBRANCH   9  10
ENDBRANCH   8   9
ENDBRANCH   7   8
ENDBRANCH   6   7
ENDBRANCH   5   6
ENDBRANCH   4   5
ENDBRANCH   3   4
ENDBRANCH   2   3
ENDBRANCH   1   2
BRANCH   1  13
ATOM     13  C   UNL     1      -3.918  -8.833  35.890  1.00  0.00     0.000 C 
BRANCH  13  14
ATOM     14  C   UNL     1      -5.005  -8.230  34.979  1.00  0.00     0.000 C 
BRANCH  14  15
ATOM     15  C   UNL     1      -5.813  -7.127  35.682  1.00  0.00     0.000 C 
BRANCH  15  16
ATOM     16  C   UNL     1      -5.076  -6.511  36.884  1.00  0.00     0.000 C 
BRANCH  16  17
ATOM     17  C   UNL     1      -4.442  -5.137  36.581  1.00  0.00     0.000 C 
BRANCH  17  18
ATOM     18  C   UNL     1      -5.140  -4.416  35.417  1.00  0.00     0.000 C 
BRANCH  18  19
ATOM     19  C   UNL     1      -4.110  -3.809  34.453  1.00  0.00     0.000 C 
BRANCH  19  20
ATOM     20  C   UNL     1      -3.266  -4.876  33.731  1.00  0.00     0.006 C 
BRANCH  20  21
ATOM     21  C   UNL     1      -3.997  -5.595  32.584  1.00  0.00     0.053 C 
BRANCH  21  22
ATOM     22  C   UNL     1      -3.045  -6.220  31.612  1.00  0.00     0.041 C 
ATOM     23  O   UNL     1      -2.123  -6.973  32.023  1.00  0.00    -0.550 OA
ATOM     24  O   UNL     1      -3.200  -6.001  30.249  1.00  0.00    -0.550 OA
ENDBRANCH  21  22
ENDBRANCH  20  21
ENDBRANCH  19  20
ENDBRANCH  18  19
ENDBRANCH  17  18
ENDBRANCH  16  17
ENDBRANCH  15  16
ENDBRANCH  14  15
ENDBRANCH  13  14
ENDBRANCH   1  13
TORSDOF 20
ENDMDL
MODEL 5
REMARK VINA RESULT:    -3.491      2.333      4.794
REMARK INTER + INTRA:         -11.123
REMARK INTER:                  -7.052
REMARK INTRA:                  -4.071
REMARK UNBOUND:                -3.549
REMARK SMILES CCCCCCCCCCCCCCCCCCCCCC(=O)[O-]
REMARK SMILES IDX 12 1 11 2 10 3 9 4 8 5 7 6 6 7 5 8 4 9 3 10 2 11 1 12 13 13
REMARK SMILES IDX 14 14 15 15 16 16 17 17 18 18 19 19 20 20 21 21 22 22 23 23
REMARK SMILES IDX 24 24
REMARK H PARENT
REMARK Flexibility Score: inf
ROOT
ATOM      1  C   UNL     1      -3.918 -10.648  37.512  1.00  0.00     0.000 C 
ENDROOT
BRANCH   1   2
ATOM      2  C   UNL     1      -5.229 -10.405  38.287  1.00  0.00     0.000 C 
BRANCH   2   3
ATOM      3  C   UNL     1      -5.426  -8.923  38.655  1.00  0.00     0.000 C 
BRANCH   3   4
ATOM      4  C   UNL     1      -5.220  -8.657  40.155  1.00  0.00    -0.000 C 
BRANCH   4   5
ATOM      5  C   UNL     1      -5.874  -9.738  41.034  1.00  0.00    -0.000 C 
BRANCH   5   6
ATOM      6  C   UNL     1      -5.492  -9.610  42.517  1.00  0.00    -0.000 C 
BRANCH   6   7
ATOM      7  C   UNL     1      -4.762 -10.856  43.049  1.00  0.00    -0.000 C 
BRANCH   7   8
ATOM      8  C   UNL     1      -5.711 -12.050  43.248  1.00  0.00    -0.000 C 
BRANCH   8   9
ATOM      9  C   UNL     1      -4.958 -13.386  43.391  1.00  0.00    -0.000 C 
BRANCH   9  10
ATOM     10  C   UNL     1      -4.964 -14.208  42.093  1.00  0.00    -0.000 C 
BRANCH  10  11
ATOM     11  C   UNL     1      -3.774 -15.175  42.002  1.00  0.00    -0.003 C 
ATOM     12  C   UNL     1      -2.664 -14.770  42.967  1.00  0.00     0.004 C 
ENDBRANCH  10  11
ENDBRANCH   9  10
ENDBRANCH   8   9
ENDBRANCH   7   8
ENDBRANCH   6   7
ENDBRANCH   5   6
ENDBRANCH   4   5
ENDBRANCH   3   4
ENDBRANCH   2   3
ENDBRANCH   1   2
BRANCH   1  13
ATOM     13  C   UNL     1      -2.874 -11.483  38.279  1.00  0.00     0.000 C 
BRANCH  13  14
ATOM     14  C   UNL     1      -3.378 -12.043  39.623  1.00  0.00     0.000 C 
BRANCH  14  15
ATOM     15  C   UNL     1      -2.369 -11.826  40.764  1.00  0.00     0.000 C 
BRANCH  15  16
ATOM     16  C   UNL     1      -1.400 -10.661  40.500  1.00  0.00     0.000 C 
BRANCH  16  17
ATOM     17  C   UNL     1      -1.878  -9.317  41.087  1.00  0.00     0.000 C 
BRANCH  17  18
ATOM     18  C   UNL     1      -1.443  -8.118  40.231  1.00  0.00     0.000 C 
BRANCH  18  19
ATOM     19  C   UNL     1      -0.754  -8.587  38.941  1.00  0.00     0.000 C 
BRANCH  19  20
ATOM     20  C   UNL     1      -1.310  -7.898  37.681  1.00  0.00     0.006 C 
BRANCH  20  21
ATOM     21  C   UNL     1      -2.547  -7.019  37.933  1.00  0.00     0.053 C 
BRANCH  21  22
ATOM     22  C   UNL     1      -3.240  -6.641  36.660  1.00  0.00     0.041 C 
ATOM     23  O   UNL     1      -3.189  -7.406  35.660  1.00  0.00    -0.550 OA
ATOM     24  O   UNL     1      -3.973  -5.463  36.589  1.00  0.00    -0.550 OA
ENDBRANCH  21  22
ENDBRANCH  20  21
ENDBRANCH  19  20
ENDBRANCH  18  19
ENDBRANCH  17  18
ENDBRANCH  16  17
ENDBRANCH  15  16
ENDBRANCH  14  15
ENDBRANCH  13  14
ENDBRANCH   1  13
TORSDOF 20
ENDMDL
MODEL 6
REMARK VINA RESULT:    -3.453      4.682      8.607
REMARK INTER + INTRA:         -11.039
REMARK INTER:                  -7.671
REMARK INTRA:                  -3.368
REMARK UNBOUND:                -3.549
REMARK SMILES CCCCCCCCCCCCCCCCCCCCCC(=O)[O-]
REMARK SMILES IDX 12 1 11 2 10 3 9 4 8 5 7 6 6 7 5 8 4 9 3 10 2 11 1 12 13 13
REMARK SMILES IDX 14 14 15 15 16 16 17 17 18 18 19 19 20 20 21 21 22 22 23 23
REMARK SMILES IDX 24 24
REMARK H PARENT
REMARK Flexibility Score: inf
ROOT
ATOM      1  C   UNL     1      -5.213 -11.403  39.484  1.00  0.00     0.000 C 
ENDROOT
BRANCH   1   2
ATOM      2  C   UNL     1      -3.690 -11.306  39.264  1.00  0.00     0.000 C 
BRANCH   2   3
ATOM      3  C   UNL     1      -2.890 -11.799  40.484  1.00  0.00     0.000 C 
BRANCH   3   4
ATOM      4  C   UNL     1      -1.593 -11.002  40.699  1.00  0.00    -0.000 C 
BRANCH   4   5
ATOM      5  C   UNL     1      -1.836  -9.690  41.467  1.00  0.00    -0.000 C 
BRANCH   5   6
ATOM      6  C   UNL     1      -1.594  -8.441  40.604  1.00  0.00    -0.000 C 
BRANCH   6   7
ATOM      7  C   UNL     1      -0.641  -8.713  39.428  1.00  0.00    -0.000 C 
BRANCH   7   8
ATOM      8  C   UNL     1      -1.229  -8.262  38.080  1.00  0.00    -0.000 C 
BRANCH   8   9
ATOM      9  C   UNL     1      -2.675  -7.750  38.207  1.00  0.00    -0.000 C 
BRANCH   9  10
ATOM     10  C   UNL     1      -3.225  -7.199  36.882  1.00  0.00    -0.000 C 
BRANCH  10  11
ATOM     11  C   UNL     1      -4.593  -6.521  37.048  1.00  0.00    -0.003 C 
ATOM     12  C   UNL     1      -4.573  -5.102  36.487  1.00  0.00     0.004 C 
ENDBRANCH  10  11
ENDBRANCH   9  10
ENDBRANCH   8   9
ENDBRANCH   7   8
ENDBRANCH   6   7
ENDBRANCH   5   6
ENDBRANCH   4   5
ENDBRANCH   3   4
ENDBRANCH   2   3
ENDBRANCH   1   2
BRANCH   1  13
ATOM     13  C   UNL     1      -5.921 -10.041  39.626  1.00  0.00     0.000 C 
BRANCH  13  14
ATOM     14  C   UNL     1      -5.257  -9.087  40.638  1.00  0.00     0.000 C 
BRANCH  14  15
ATOM     15  C   UNL     1      -5.894  -9.179  42.035  1.00  0.00     0.000 C 
BRANCH  15  16
ATOM     16  C   UNL     1      -5.174 -10.172  42.963  1.00  0.00     0.000 C 
BRANCH  16  17
ATOM     17  C   UNL     1      -5.994 -11.445  43.259  1.00  0.00     0.000 C 
BRANCH  17  18
ATOM     18  C   UNL     1      -5.107 -12.693  43.392  1.00  0.00     0.000 C 
BRANCH  18  19
ATOM     19  C   UNL     1      -5.476 -13.743  42.335  1.00  0.00     0.000 C 
BRANCH  19  20
ATOM     20  C   UNL     1      -4.755 -15.086  42.548  1.00  0.00     0.006 C 
BRANCH  20  21
ATOM     21  C   UNL     1      -3.833 -15.123  43.780  1.00  0.00     0.053 C 
BRANCH  21  22
ATOM     22  C   UNL     1      -2.388 -15.223  43.401  1.00  0.00     0.041 C 
ATOM     23  O   UNL     1      -1.782 -16.323  43.499  1.00  0.00    -0.550 OA
ATOM     24  O   UNL     1      -1.720 -14.111  42.905  1.00  0.00    -0.550 OA
ENDBRANCH  21  22
ENDBRANCH  20  21
ENDBRANCH  19  20
ENDBRANCH  18  19
ENDBRANCH  17  18
ENDBRANCH  16  17
ENDBRANCH  15  16
ENDBRANCH  14  15
ENDBRANCH  13  14
ENDBRANCH   1  13
TORSDOF 20
ENDMDL
MODEL 7
REMARK VINA RESULT:    -3.449      1.227      3.784
REMARK INTER + INTRA:         -11.031
REMARK INTER:                  -7.329
REMARK INTRA:                  -3.703
REMARK UNBOUND:                -3.549
REMARK SMILES CCCCCCCCCCCCCCCCCCCCCC(=O)[O-]
REMARK SMILES IDX 12 1 11 2 10 3 9 4 8 5 7 6 6 7 5 8 4 9 3 10 2 11 1 12 13 13
REMARK SMILES IDX 14 14 15 15 16 16 17 17 18 18 19 19 20 20 21 21 22 22 23 23
REMARK SMILES IDX 24 24
REMARK H PARENT
REMARK Flexibility Score: inf
ROOT
ATOM      1  C   UNL     1      -1.766  -9.359  41.367  1.00  0.00     0.000 C 
ENDROOT
BRANCH   1   2
ATOM      2  C   UNL     1      -1.434 -10.830  41.047  1.00  0.00     0.000 C 
BRANCH   2   3
ATOM      3  C   UNL     1      -2.538 -11.795  41.517  1.00  0.00     0.000 C 
BRANCH   3   4
ATOM      4  C   UNL     1      -3.706 -11.065  42.199  1.00  0.00    -0.000 C 
BRANCH   4   5
ATOM      5  C   UNL     1      -5.076 -11.585  41.725  1.00  0.00    -0.000 C 
BRANCH   5   6
ATOM      6  C   UNL     1      -5.884 -10.524  40.962  1.00  0.00    -0.000 C 
BRANCH   6   7
ATOM      7  C   UNL     1      -5.210  -9.141  40.982  1.00  0.00    -0.000 C 
BRANCH   7   8
ATOM      8  C   UNL     1      -4.950  -8.595  39.568  1.00  0.00    -0.000 C 
BRANCH   8   9
ATOM      9  C   UNL     1      -5.111  -9.671  38.478  1.00  0.00    -0.000 C 
BRANCH   9  10
ATOM     10  C   UNL     1      -3.812 -10.453  38.225  1.00  0.00    -0.000 C 
BRANCH  10  11
ATOM     11  C   UNL     1      -3.532 -10.659  36.728  1.00  0.00    -0.003 C 
ATOM     12  C   UNL     1      -4.823 -10.615  35.917  1.00  0.00     0.004 C 
ENDBRANCH  10  11
ENDBRANCH   9  10
ENDBRANCH   8   9
ENDBRANCH   7   8
ENDBRANCH   6   7
ENDBRANCH   5   6
ENDBRANCH   4   5
ENDBRANCH   3   4
ENDBRANCH   2   3
ENDBRANCH   1   2
BRANCH   1  13
ATOM     13  C   UNL     1      -1.357  -8.362  40.263  1.00  0.00     0.000 C 
BRANCH  13  14
ATOM     14  C   UNL     1      -0.430  -8.960  39.187  1.00  0.00     0.000 C 
BRANCH  14  15
ATOM     15  C   UNL     1      -0.723  -8.400  37.784  1.00  0.00     0.000 C 
BRANCH  15  16
ATOM     16  C   UNL     1      -1.895  -7.404  37.765  1.00  0.00     0.000 C 
BRANCH  16  17
ATOM     17  C   UNL     1      -2.456  -7.139  36.353  1.00  0.00     0.000 C 
BRANCH  17  18
ATOM     18  C   UNL     1      -3.960  -6.826  36.372  1.00  0.00     0.000 C 
BRANCH  18  19
ATOM     19  C   UNL     1      -4.209  -5.353  36.727  1.00  0.00     0.000 C 
BRANCH  19  20
ATOM     20  C   UNL     1      -4.933  -4.581  35.608  1.00  0.00     0.006 C 
BRANCH  20  21
ATOM     21  C   UNL     1      -4.001  -4.022  34.518  1.00  0.00     0.053 C 
BRANCH  21  22
ATOM     22  C   UNL     1      -3.761  -5.010  33.419  1.00  0.00     0.041 C 
ATOM     23  O   UNL     1      -4.713  -5.385  32.684  1.00  0.00    -0.550 OA
ATOM     24  O   UNL     1      -2.479  -5.490  33.183  1.00  0.00    -0.550 OA
ENDBRANCH  21  22
ENDBRANCH  20  21
ENDBRANCH  19  20
ENDBRANCH  18  19
ENDBRANCH  17  18
ENDBRANCH  16  17
ENDBRANCH  15  16
ENDBRANCH  14  15
ENDBRANCH  13  14
ENDBRANCH   1  13
TORSDOF 20
ENDMDL
MODEL 8
REMARK VINA RESULT:    -3.415      3.869      7.764
REMARK INTER + INTRA:         -10.957
REMARK INTER:                  -7.384
REMARK INTRA:                  -3.573
REMARK UNBOUND:                -3.549
REMARK SMILES CCCCCCCCCCCCCCCCCCCCCC(=O)[O-]
REMARK SMILES IDX 12 1 11 2 10 3 9 4 8 5 7 6 6 7 5 8 4 9 3 10 2 11 1 12 13 13
REMARK SMILES IDX 14 14 15 15 16 16 17 17 18 18 19 19 20 20 21 21 22 22 23 23
REMARK SMILES IDX 24 24
REMARK H PARENT
REMARK Flexibility Score: inf
ROOT
ATOM      1  C   UNL     1      -3.899 -10.556  37.753  1.00  0.00     0.000 C 
ENDROOT
BRANCH   1   2
ATOM      2  C   UNL     1      -4.910 -10.531  38.917  1.00  0.00     0.000 C 
BRANCH   2   3
ATOM      3  C   UNL     1      -5.483  -9.124  39.165  1.00  0.00     0.000 C 
BRANCH   3   4
ATOM      4  C   UNL     1      -4.527  -8.010  38.711  1.00  0.00    -0.000 C 
BRANCH   4   5
ATOM      5  C   UNL     1      -5.144  -7.123  37.614  1.00  0.00    -0.000 C 
BRANCH   5   6
ATOM      6  C   UNL     1      -4.120  -6.178  36.966  1.00  0.00    -0.000 C 
BRANCH   6   7
ATOM      7  C   UNL     1      -2.745  -6.840  36.774  1.00  0.00    -0.000 C 
BRANCH   7   8
ATOM      8  C   UNL     1      -2.319  -6.892  35.297  1.00  0.00    -0.000 C 
BRANCH   8   9
ATOM      9  C   UNL     1      -3.401  -6.341  34.350  1.00  0.00    -0.000 C 
BRANCH   9  10
ATOM     10  C   UNL     1      -2.947  -5.072  33.611  1.00  0.00    -0.000 C 
BRANCH  10  11
ATOM     11  C   UNL     1      -3.744  -3.828  34.031  1.00  0.00    -0.003 C 
ATOM     12  C   UNL     1      -5.226  -4.154  34.187  1.00  0.00     0.004 C 
ENDBRANCH  10  11
ENDBRANCH   9  10
ENDBRANCH   8   9
ENDBRANCH   7   8
ENDBRANCH   6   7
ENDBRANCH   5   6
ENDBRANCH   4   5
ENDBRANCH   3   4
ENDBRANCH   2   3
ENDBRANCH   1   2
BRANCH   1  13
ATOM     13  C   UNL     1      -2.946 -11.768  37.765  1.00  0.00     0.000 C 
BRANCH  13  14
ATOM     14  C   UNL     1      -1.499 -11.437  37.353  1.00  0.00     0.000 C 
BRANCH  14  15
ATOM     15  C   UNL     1      -1.314  -9.952  37.000  1.00  0.00     0.000 C 
BRANCH  15  16
ATOM     16  C   UNL     1      -0.065  -9.329  37.646  1.00  0.00     0.000 C 
BRANCH  16  17
ATOM     17  C   UNL     1      -0.072  -9.388  39.187  1.00  0.00     0.000 C 
BRANCH  17  18
ATOM     18  C   UNL     1      -1.211  -8.557  39.798  1.00  0.00     0.000 C 
BRANCH  18  19
ATOM     19  C   UNL     1      -1.835  -9.283  40.999  1.00  0.00     0.000 C 
BRANCH  19  20
ATOM     20  C   UNL     1      -1.495 -10.784  41.034  1.00  0.00     0.006 C 
BRANCH  20  21
ATOM     21  C   UNL     1      -2.623 -11.678  41.579  1.00  0.00     0.053 C 
BRANCH  21  22
ATOM     22  C   UNL     1      -2.095 -12.922  42.225  1.00  0.00     0.041 C 
ATOM     23  O   UNL     1      -2.692 -14.019  42.067  1.00  0.00    -0.550 OA
ATOM     24  O   UNL     1      -0.924 -12.875  42.970  1.00  0.00    -0.550 OA
ENDBRANCH  21  22
ENDBRANCH  20  21
ENDBRANCH  19  20
ENDBRANCH  18  19
ENDBRANCH  17  18
ENDBRANCH  16  17
ENDBRANCH  15  16
ENDBRANCH  14  15
ENDBRANCH  13  14
ENDBRANCH   1  13
TORSDOF 20
ENDMDL
MODEL 9
REMARK VINA RESULT:    -3.409      3.494      7.620
REMARK INTER + INTRA:         -10.943
REMARK INTER:                  -6.914
REMARK INTRA:                  -4.029
REMARK UNBOUND:                -3.549
REMARK SMILES CCCCCCCCCCCCCCCCCCCCCC(=O)[O-]
REMARK SMILES IDX 12 1 11 2 10 3 9 4 8 5 7 6 6 7 5 8 4 9 3 10 2 11 1 12 13 13
REMARK SMILES IDX 14 14 15 15 16 16 17 17 18 18 19 19 20 20 21 21 22 22 23 23
REMARK SMILES IDX 24 24
REMARK H PARENT
REMARK Flexibility Score: inf
ROOT
ATOM      1  C   UNL     1      -3.259  -8.658  36.270  1.00  0.00     0.000 C 
ENDROOT
BRANCH   1   2
ATOM      2  C   UNL     1      -2.455  -7.353  36.444  1.00  0.00     0.000 C 
BRANCH   2   3
ATOM      3  C   UNL     1      -3.268  -6.255  37.154  1.00  0.00     0.000 C 
BRANCH   3   4
ATOM      4  C   UNL     1      -4.743  -6.242  36.722  1.00  0.00    -0.000 C 
BRANCH   4   5
ATOM      5  C   UNL     1      -5.256  -4.817  36.443  1.00  0.00    -0.000 C 
BRANCH   5   6
ATOM      6  C   UNL     1      -5.312  -4.487  34.943  1.00  0.00    -0.000 C 
BRANCH   6   7
ATOM      7  C   UNL     1      -4.018  -3.831  34.434  1.00  0.00    -0.000 C 
BRANCH   7   8
ATOM      8  C   UNL     1      -3.127  -4.815  33.657  1.00  0.00    -0.000 C 
BRANCH   8   9
ATOM      9  C   UNL     1      -3.918  -5.643  32.628  1.00  0.00    -0.000 C 
BRANCH   9  10
ATOM     10  C   UNL     1      -3.789  -7.156  32.863  1.00  0.00    -0.000 C 
BRANCH  10  11
ATOM     11  C   UNL     1      -5.109  -7.794  33.324  1.00  0.00    -0.003 C 
ATOM     12  C   UNL     1      -6.283  -7.289  32.491  1.00  0.00     0.004 C 
ENDBRANCH  10  11
ENDBRANCH   9  10
ENDBRANCH   8   9
ENDBRANCH   7   8
ENDBRANCH   6   7
ENDBRANCH   5   6
ENDBRANCH   4   5
ENDBRANCH   3   4
ENDBRANCH   2   3
ENDBRANCH   1   2
BRANCH   1  13
ATOM     13  C   UNL     1      -2.426  -9.943  36.447  1.00  0.00     0.000 C 
BRANCH  13  14
ATOM     14  C   UNL     1      -0.974  -9.697  36.899  1.00  0.00     0.000 C 
BRANCH  14  15
ATOM     15  C   UNL     1      -0.735 -10.120  38.358  1.00  0.00     0.000 C 
BRANCH  15  16
ATOM     16  C   UNL     1      -0.230  -8.969  39.245  1.00  0.00     0.000 C 
BRANCH  16  17
ATOM     17  C   UNL     1      -1.363  -8.125  39.865  1.00  0.00     0.000 C 
BRANCH  17  18
ATOM     18  C   UNL     1      -2.428  -8.993  40.552  1.00  0.00     0.000 C 
BRANCH  18  19
ATOM     19  C   UNL     1      -3.815  -8.743  39.942  1.00  0.00     0.000 C 
BRANCH  19  20
ATOM     20  C   UNL     1      -4.533 -10.043  39.534  1.00  0.00     0.006 C 
BRANCH  20  21
ATOM     21  C   UNL     1      -3.857 -11.328  40.044  1.00  0.00     0.053 C 
BRANCH  21  22
ATOM     22  C   UNL     1      -4.545 -11.887  41.252  1.00  0.00     0.041 C 
ATOM     23  O   UNL     1      -5.375 -12.825  41.130  1.00  0.00    -0.550 OA
ATOM     24  O   UNL     1      -4.240 -11.395  42.514  1.00  0.00    -0.550 OA
ENDBRANCH  21  22
ENDBRANCH  20  21
ENDBRANCH  19  20
ENDBRANCH  18  19
ENDBRANCH  17  18
ENDBRANCH  16  17
ENDBRANCH  15  16
ENDBRANCH  14  15
ENDBRANCH  13  14
ENDBRANCH   1  13
TORSDOF 20
ENDMDL
