MODEL 1
REMARK VINA RESULT:    -4.822      0.000      0.000
REMARK INTER + INTRA:         -10.459
REMARK INTER:                  -8.769
REMARK INTRA:                  -1.690
REMARK UNBOUND:                -1.690
REMARK SMILES CCCCCCCCCCCCCCCC(=O)[O-]
REMARK SMILES IDX 9 1 10 2 11 3 12 4 13 5 14 6 15 7 16 8 17 9 18 10 8 11 7 12
REMARK SMILES IDX 6 13 5 14 4 15 3 16 2 17 1 18
REMARK H PARENT
REMARK Flexibility Score: inf
ROOT
ATOM      1  C   UNL     1      40.867  64.245   5.101  1.00  0.00     0.000 C 
ENDROOT
BRANCH   1   2
ATOM      2  C   UNL     1      42.317  64.276   5.622  1.00  0.00     0.000 C 
BRANCH   2   3
ATOM      3  C   UNL     1      42.602  65.532   6.471  1.00  0.00     0.000 C 
BRANCH   3   4
ATOM      4  C   UNL     1      43.412  66.606   5.720  1.00  0.00     0.000 C 
BRANCH   4   5
ATOM      5  C   UNL     1      44.453  66.010   4.763  1.00  0.00     0.000 C 
BRANCH   5   6
ATOM      6  C   UNL     1      45.077  67.096   3.876  1.00  0.00     0.006 C 
BRANCH   6   7
ATOM      7  C   UNL     1      44.217  68.366   3.826  1.00  0.00     0.053 C 
BRANCH   7   8
ATOM      8  C   UNL     1      44.410  69.121   2.546  1.00  0.00     0.041 C 
ATOM      9  O   UNL     1      45.393  69.895   2.409  1.00  0.00    -0.550 OA
ATOM     10  O   UNL     1      43.484  68.997   1.518  1.00  0.00    -0.550 OA
ENDBRANCH   7   8
ENDBRANCH   6   7
ENDBRANCH   5   6
ENDBRANCH   4   5
ENDBRANCH   3   4
ENDBRANCH   2   3
ENDBRANCH   1   2
BRANCH   1  11
ATOM     11  C   UNL     1      39.970  65.285   5.792  1.00  0.00     0.000 C 
BRANCH  11  12
ATOM     12  C   UNL     1      38.986  64.631   6.779  1.00  0.00    -0.000 C 
BRANCH  12  13
ATOM     13  C   UNL     1      39.360  64.884   8.247  1.00  0.00    -0.000 C 
BRANCH  13  14
ATOM     14  C   UNL     1      39.548  63.578   9.039  1.00  0.00    -0.000 C 
BRANCH  14  15
ATOM     15  C   UNL     1      40.636  62.670   8.442  1.00  0.00    -0.000 C 
BRANCH  15  16
ATOM     16  C   UNL     1      40.273  61.174   8.367  1.00  0.00    -0.000 C 
BRANCH  16  17
ATOM     17  C   UNL     1      39.427  60.796   7.134  1.00  0.00    -0.003 C 
ATOM     18  C   UNL     1      40.253  60.750   5.848  1.00  0.00     0.004 C 
ENDBRANCH  16  17
ENDBRANCH  15  16
ENDBRANCH  14  15
ENDBRANCH  13  14
ENDBRANCH  12  13
ENDBRANCH  11  12
ENDBRANCH   1  11
TORSDOF 14
ENDMDL
MODEL 2
REMARK VINA RESULT:    -4.771      3.002      7.758
REMARK INTER + INTRA:         -10.366
REMARK INTER:                  -9.664
REMARK INTRA:                  -0.702
REMARK UNBOUND:                -1.690
REMARK SMILES CCCCCCCCCCCCCCCC(=O)[O-]
REMARK SMILES IDX 9 1 10 2 11 3 12 4 13 5 14 6 15 7 16 8 17 9 18 10 8 11 7 12
REMARK SMILES IDX 6 13 5 14 4 15 3 16 2 17 1 18
REMARK H PARENT
REMARK Flexibility Score: inf
ROOT
ATOM      1  C   UNL     1      42.822  66.178   6.131  1.00  0.00     0.000 C 
ENDROOT
BRANCH   1   2
ATOM      2  C   UNL     1      42.371  65.520   7.448  1.00  0.00     0.000 C 
BRANCH   2   3
ATOM      3  C   UNL     1      41.374  64.367   7.209  1.00  0.00     0.000 C 
BRANCH   3   4
ATOM      4  C   UNL     1      40.447  64.102   8.410  1.00  0.00     0.000 C 
BRANCH   4   5
ATOM      5  C   UNL     1      39.035  64.671   8.212  1.00  0.00     0.000 C 
BRANCH   5   6
ATOM      6  C   UNL     1      38.864  65.254   6.802  1.00  0.00     0.006 C 
BRANCH   6   7
ATOM      7  C   UNL     1      37.545  66.023   6.650  1.00  0.00     0.053 C 
BRANCH   7   8
ATOM      8  C   UNL     1      37.593  66.995   5.511  1.00  0.00     0.041 C 
ATOM      9  O   UNL     1      36.972  68.088   5.584  1.00  0.00    -0.550 OA
ATOM     10  O   UNL     1      38.293  66.678   4.354  1.00  0.00    -0.550 OA
ENDBRANCH   7   8
ENDBRANCH   6   7
ENDBRANCH   5   6
ENDBRANCH   4   5
ENDBRANCH   3   4
ENDBRANCH   2   3
ENDBRANCH   1   2
BRANCH   1  11
ATOM     11  C   UNL     1      43.253  65.148   5.073  1.00  0.00     0.000 C 
BRANCH  11  12
ATOM     12  C   UNL     1      44.734  65.305   4.686  1.00  0.00    -0.000 C 
BRANCH  12  13
ATOM     13  C   UNL     1      45.241  66.746   4.846  1.00  0.00    -0.000 C 
BRANCH  13  14
ATOM     14  C   UNL     1      44.875  67.635   3.645  1.00  0.00    -0.000 C 
BRANCH  14  15
ATOM     15  C   UNL     1      46.062  68.472   3.139  1.00  0.00    -0.000 C 
BRANCH  15  16
ATOM     16  C   UNL     1      45.952  69.987   3.399  1.00  0.00    -0.000 C 
BRANCH  16  17
ATOM     17  C   UNL     1      44.814  70.676   2.618  1.00  0.00    -0.003 C 
ATOM     18  C   UNL     1      44.887  72.202   2.698  1.00  0.00     0.004 C 
ENDBRANCH  16  17
ENDBRANCH  15  16
ENDBRANCH  14  15
ENDBRANCH  13  14
ENDBRANCH  12  13
ENDBRANCH  11  12
ENDBRANCH   1  11
TORSDOF 14
ENDMDL
MODEL 3
REMARK VINA RESULT:    -4.747      3.830      8.023
REMARK INTER + INTRA:         -10.323
REMARK INTER:                  -9.166
REMARK INTRA:                  -1.156
REMARK UNBOUND:                -1.690
REMARK SMILES CCCCCCCCCCCCCCCC(=O)[O-]
REMARK SMILES IDX 9 1 10 2 11 3 12 4 13 5 14 6 15 7 16 8 17 9 18 10 8 11 7 12
REMARK SMILES IDX 6 13 5 14 4 15 3 16 2 17 1 18
REMARK H PARENT
REMARK Flexibility Score: inf
ROOT
ATOM      1  C   UNL     1      40.949  64.117   5.370  1.00  0.00     0.000 C 
ENDROOT
BRANCH   1   2
ATOM      2  C   UNL     1      39.999  65.269   5.748  1.00  0.00     0.000 C 
BRANCH   2   3
ATOM      3  C   UNL     1      39.102  64.910   6.951  1.00  0.00     0.000 C 
BRANCH   3   4
ATOM      4  C   UNL     1      39.892  64.416   8.178  1.00  0.00     0.000 C 
BRANCH   4   5
ATOM      5  C   UNL     1      39.601  62.950   8.526  1.00  0.00     0.000 C 
BRANCH   5   6
ATOM      6  C   UNL     1      40.866  62.089   8.405  1.00  0.00     0.006 C 
BRANCH   6   7
ATOM      7  C   UNL     1      40.553  60.589   8.477  1.00  0.00     0.053 C 
BRANCH   7   8
ATOM      8  C   UNL     1      39.612  60.163   7.391  1.00  0.00     0.041 C 
ATOM      9  O   UNL     1      38.618  59.438   7.662  1.00  0.00    -0.550 OA
ATOM     10  O   UNL     1      39.851  60.536   6.075  1.00  0.00    -0.550 OA
ENDBRANCH   7   8
ENDBRANCH   6   7
ENDBRANCH   5   6
ENDBRANCH   4   5
ENDBRANCH   3   4
ENDBRANCH   2   3
ENDBRANCH   1   2
BRANCH   1  11
ATOM     11  C   UNL     1      42.429  64.525   5.442  1.00  0.00     0.000 C 
BRANCH  11  12
ATOM     12  C   UNL     1      42.626  65.848   6.203  1.00  0.00    -0.000 C 
BRANCH  12  13
ATOM     13  C   UNL     1      43.870  66.621   5.742  1.00  0.00    -0.000 C 
BRANCH  13  14
ATOM     14  C   UNL     1      44.577  65.941   4.555  1.00  0.00    -0.000 C 
BRANCH  14  15
ATOM     15  C   UNL     1      45.098  66.947   3.516  1.00  0.00    -0.000 C 
BRANCH  15  16
ATOM     16  C   UNL     1      44.386  68.314   3.513  1.00  0.00    -0.000 C 
BRANCH  16  17
ATOM     17  C   UNL     1      44.940  69.306   2.469  1.00  0.00    -0.003 C 
ATOM     18  C   UNL     1      43.855  69.834   1.528  1.00  0.00     0.004 C 
ENDBRANCH  16  17
ENDBRANCH  15  16
ENDBRANCH  14  15
ENDBRANCH  13  14
ENDBRANCH  12  13
ENDBRANCH  11  12
ENDBRANCH   1  11
TORSDOF 14
ENDMDL
MODEL 4
REMARK VINA RESULT:    -4.730      4.768      7.159
REMARK INTER + INTRA:         -10.292
REMARK INTER:                  -8.702
REMARK INTRA:                  -1.590
REMARK UNBOUND:                -1.690
REMARK SMILES CCCCCCCCCCCCCCCC(=O)[O-]
REMARK SMILES IDX 9 1 10 2 11 3 12 4 13 5 14 6 15 7 16 8 17 9 18 10 8 11 7 12
REMARK SMILES IDX 6 13 5 14 4 15 3 16 2 17 1 18
REMARK H PARENT
REMARK Flexibility Score: inf
ROOT
ATOM      1  C   UNL     1      41.979  63.399   5.501  1.00  0.00     0.000 C 
ENDROOT
BRANCH   1   2
ATOM      2  C   UNL     1      43.146  62.541   4.976  1.00  0.00     0.000 C 
BRANCH   2   3
ATOM      3  C   UNL     1      43.357  61.268   5.823  1.00  0.00     0.000 C 
BRANCH   3   4
ATOM      4  C   UNL     1      42.040  60.601   6.263  1.00  0.00     0.000 C 
BRANCH   4   5
ATOM      5  C   UNL     1      41.998  60.295   7.767  1.00  0.00     0.000 C 
BRANCH   5   6
ATOM      6  C   UNL     1      40.653  60.711   8.380  1.00  0.00     0.006 C 
BRANCH   6   7
ATOM      7  C   UNL     1      39.542  60.801   7.327  1.00  0.00     0.053 C 
BRANCH   7   8
ATOM      8  C   UNL     1      38.904  59.469   7.073  1.00  0.00     0.041 C 
ATOM      9  O   UNL     1      38.736  58.656   8.019  1.00  0.00    -0.550 OA
ATOM     10  O   UNL     1      38.530  59.111   5.784  1.00  0.00    -0.550 OA
ENDBRANCH   7   8
ENDBRANCH   6   7
ENDBRANCH   5   6
ENDBRANCH   4   5
ENDBRANCH   3   4
ENDBRANCH   2   3
ENDBRANCH   1   2
BRANCH   1  11
ATOM     11  C   UNL     1      42.408  64.837   5.835  1.00  0.00     0.000 C 
BRANCH  11  12
ATOM     12  C   UNL     1      41.920  65.275   7.228  1.00  0.00    -0.000 C 
BRANCH  12  13
ATOM     13  C   UNL     1      41.015  64.229   7.897  1.00  0.00    -0.000 C 
BRANCH  13  14
ATOM     14  C   UNL     1      39.564  64.718   8.048  1.00  0.00    -0.000 C 
BRANCH  14  15
ATOM     15  C   UNL     1      38.946  65.173   6.715  1.00  0.00    -0.000 C 
BRANCH  15  16
ATOM     16  C   UNL     1      37.617  65.944   6.839  1.00  0.00    -0.000 C 
BRANCH  16  17
ATOM     17  C   UNL     1      37.435  67.051   5.781  1.00  0.00    -0.003 C 
ATOM     18  C   UNL     1      38.314  66.836   4.548  1.00  0.00     0.004 C 
ENDBRANCH  16  17
ENDBRANCH  15  16
ENDBRANCH  14  15
ENDBRANCH  13  14
ENDBRANCH  12  13
ENDBRANCH  11  12
ENDBRANCH   1  11
TORSDOF 14
ENDMDL
MODEL 5
REMARK VINA RESULT:    -4.662      4.014      6.185
REMARK INTER + INTRA:         -10.167
REMARK INTER:                  -7.715
REMARK INTRA:                  -2.452
REMARK UNBOUND:                -1.690
REMARK SMILES CCCCCCCCCCCCCCCC(=O)[O-]
REMARK SMILES IDX 9 1 10 2 11 3 12 4 13 5 14 6 15 7 16 8 17 9 18 10 8 11 7 12
REMARK SMILES IDX 6 13 5 14 4 15 3 16 2 17 1 18
REMARK H PARENT
REMARK Flexibility Score: inf
ROOT
ATOM      1  C   UNL     1      42.555  59.371   7.940  1.00  0.00     0.000 C 
ENDROOT
BRANCH   1   2
ATOM      2  C   UNL     1      42.521  60.243   6.670  1.00  0.00     0.000 C 
BRANCH   2   3
ATOM      3  C   UNL     1      41.806  61.589   6.910  1.00  0.00     0.000 C 
BRANCH   3   4
ATOM      4  C   UNL     1      41.173  61.704   8.310  1.00  0.00     0.000 C 
BRANCH   4   5
ATOM      5  C   UNL     1      39.731  62.228   8.273  1.00  0.00     0.000 C 
BRANCH   5   6
ATOM      6  C   UNL     1      39.625  63.607   8.940  1.00  0.00     0.006 C 
BRANCH   6   7
ATOM      7  C   UNL     1      39.275  64.710   7.933  1.00  0.00     0.053 C 
BRANCH   7   8
ATOM      8  C   UNL     1      40.425  65.021   7.024  1.00  0.00     0.041 C 
ATOM      9  O   UNL     1      41.581  65.180   7.496  1.00  0.00    -0.550 OA
ATOM     10  O   UNL     1      40.214  65.171   5.659  1.00  0.00    -0.550 OA
ENDBRANCH   7   8
ENDBRANCH   6   7
ENDBRANCH   5   6
ENDBRANCH   4   5
ENDBRANCH   3   4
ENDBRANCH   2   3
ENDBRANCH   1   2
BRANCH   1  11
ATOM     11  C   UNL     1      42.137  57.917   7.668  1.00  0.00     0.000 C 
BRANCH  11  12
ATOM     12  C   UNL     1      40.952  57.484   8.550  1.00  0.00    -0.000 C 
BRANCH  12  13
ATOM     13  C   UNL     1      39.682  58.305   8.285  1.00  0.00    -0.000 C 
BRANCH  13  14
ATOM     14  C   UNL     1      39.132  58.095   6.863  1.00  0.00    -0.000 C 
BRANCH  14  15
ATOM     15  C   UNL     1      38.537  59.377   6.258  1.00  0.00    -0.000 C 
BRANCH  15  16
ATOM     16  C   UNL     1      39.111  59.781   4.885  1.00  0.00    -0.000 C 
BRANCH  16  17
ATOM     17  C   UNL     1      40.207  58.830   4.361  1.00  0.00    -0.003 C 
ATOM     18  C   UNL     1      41.062  59.469   3.265  1.00  0.00     0.004 C 
ENDBRANCH  16  17
ENDBRANCH  15  16
ENDBRANCH  14  15
ENDBRANCH  13  14
ENDBRANCH  12  13
ENDBRANCH  11  12
ENDBRANCH   1  11
TORSDOF 14
ENDMDL
MODEL 6
REMARK VINA RESULT:    -4.655      5.258      7.840
REMARK INTER + INTRA:         -10.154
REMARK INTER:                  -8.249
REMARK INTRA:                  -1.905
REMARK UNBOUND:                -1.690
REMARK SMILES CCCCCCCCCCCCCCCC(=O)[O-]
REMARK SMILES IDX 9 1 10 2 11 3 12 4 13 5 14 6 15 7 16 8 17 9 18 10 8 11 7 12
REMARK SMILES IDX 6 13 5 14 4 15 3 16 2 17 1 18
REMARK H PARENT
REMARK Flexibility Score: inf
ROOT
ATOM      1  C   UNL     1      39.739  62.341   8.076  1.00  0.00     0.000 C 
ENDROOT
BRANCH   1   2
ATOM      2  C   UNL     1      40.452  61.024   8.437  1.00  0.00     0.000 C 
BRANCH   2   3
ATOM      3  C   UNL     1      41.891  60.972   7.884  1.00  0.00     0.000 C 
BRANCH   3   4
ATOM      4  C   UNL     1      42.224  59.650   7.169  1.00  0.00     0.000 C 
BRANCH   4   5
ATOM      5  C   UNL     1      42.184  58.435   8.107  1.00  0.00     0.000 C 
BRANCH   5   6
ATOM      6  C   UNL     1      41.121  57.422   7.658  1.00  0.00     0.006 C 
BRANCH   6   7
ATOM      7  C   UNL     1      40.284  57.945   6.484  1.00  0.00     0.053 C 
BRANCH   7   8
ATOM      8  C   UNL     1      38.817  57.911   6.786  1.00  0.00     0.041 C 
ATOM      9  O   UNL     1      38.406  58.106   7.961  1.00  0.00    -0.550 OA
ATOM     10  O   UNL     1      37.904  57.628   5.779  1.00  0.00    -0.550 OA
ENDBRANCH   7   8
ENDBRANCH   6   7
ENDBRANCH   5   6
ENDBRANCH   4   5
ENDBRANCH   3   4
ENDBRANCH   2   3
ENDBRANCH   1   2
BRANCH   1  11
ATOM     11  C   UNL     1      40.350  63.557   8.791  1.00  0.00     0.000 C 
BRANCH  11  12
ATOM     12  C   UNL     1      40.479  64.771   7.853  1.00  0.00    -0.000 C 
BRANCH  12  13
ATOM     13  C   UNL     1      41.936  65.082   7.481  1.00  0.00    -0.000 C 
BRANCH  13  14
ATOM     14  C   UNL     1      42.166  65.088   5.959  1.00  0.00    -0.000 C 
BRANCH  14  15
ATOM     15  C   UNL     1      42.252  63.673   5.363  1.00  0.00    -0.000 C 
BRANCH  15  16
ATOM     16  C   UNL     1      40.978  63.186   4.645  1.00  0.00    -0.000 C 
BRANCH  16  17
ATOM     17  C   UNL     1      41.003  61.690   4.272  1.00  0.00    -0.003 C 
ATOM     18  C   UNL     1      40.996  61.462   2.759  1.00  0.00     0.004 C 
ENDBRANCH  16  17
ENDBRANCH  15  16
ENDBRANCH  14  15
ENDBRANCH  13  14
ENDBRANCH  12  13
ENDBRANCH  11  12
ENDBRANCH   1  11
TORSDOF 14
ENDMDL
MODEL 7
REMARK VINA RESULT:    -4.650     14.797     16.580
REMARK INTER + INTRA:         -10.146
REMARK INTER:                  -8.018
REMARK INTRA:                  -2.128
REMARK UNBOUND:                -1.690
REMARK SMILES CCCCCCCCCCCCCCCC(=O)[O-]
REMARK SMILES IDX 9 1 10 2 11 3 12 4 13 5 14 6 15 7 16 8 17 9 18 10 8 11 7 12
REMARK SMILES IDX 6 13 5 14 4 15 3 16 2 17 1 18
REMARK H PARENT
REMARK Flexibility Score: inf
ROOT
ATOM      1  C   UNL     1      26.819  56.131  -0.990  1.00  0.00     0.000 C 
ENDROOT
BRANCH   1   2
ATOM      2  C   UNL     1      28.028  56.794  -1.676  1.00  0.00     0.000 C 
BRANCH   2   3
ATOM      3  C   UNL     1      28.212  58.261  -1.237  1.00  0.00     0.000 C 
BRANCH   3   4
ATOM      4  C   UNL     1      29.686  58.653  -1.017  1.00  0.00     0.000 C 
BRANCH   4   5
ATOM      5  C   UNL     1      30.120  59.853  -1.870  1.00  0.00     0.000 C 
BRANCH   5   6
ATOM      6  C   UNL     1      31.312  59.492  -2.768  1.00  0.00     0.006 C 
BRANCH   6   7
ATOM      7  C   UNL     1      31.012  58.287  -3.669  1.00  0.00     0.053 C 
BRANCH   7   8
ATOM      8  C   UNL     1      30.841  58.691  -5.102  1.00  0.00     0.041 C 
ATOM      9  O   UNL     1      31.085  59.873  -5.462  1.00  0.00    -0.550 OA
ATOM     10  O   UNL     1      30.378  57.772  -6.035  1.00  0.00    -0.550 OA
ENDBRANCH   7   8
ENDBRANCH   6   7
ENDBRANCH   5   6
ENDBRANCH   4   5
ENDBRANCH   3   4
ENDBRANCH   2   3
ENDBRANCH   1   2
BRANCH   1  11
ATOM     11  C   UNL     1      26.111  57.074  -0.003  1.00  0.00     0.000 C 
BRANCH  11  12
ATOM     12  C   UNL     1      26.163  56.542   1.440  1.00  0.00    -0.000 C 
BRANCH  12  13
ATOM     13  C   UNL     1      26.990  55.254   1.569  1.00  0.00    -0.000 C 
BRANCH  13  14
ATOM     14  C   UNL     1      28.236  55.442   2.452  1.00  0.00    -0.000 C 
BRANCH  14  15
ATOM     15  C   UNL     1      29.374  56.181   1.728  1.00  0.00    -0.000 C 
BRANCH  15  16
ATOM     16  C   UNL     1      30.022  57.329   2.526  1.00  0.00    -0.000 C 
BRANCH  16  17
ATOM     17  C   UNL     1      29.013  58.193   3.311  1.00  0.00    -0.003 C 
ATOM     18  C   UNL     1      28.321  59.233   2.428  1.00  0.00     0.004 C 
ENDBRANCH  16  17
ENDBRANCH  15  16
ENDBRANCH  14  15
ENDBRANCH  13  14
ENDBRANCH  12  13
ENDBRANCH  11  12
ENDBRANCH   1  11
TORSDOF 14
ENDMDL
MODEL 8
REMARK VINA RESULT:    -4.622      0.985      2.587
REMARK INTER + INTRA:         -10.095
REMARK INTER:                  -8.637
REMARK INTRA:                  -1.457
REMARK UNBOUND:                -1.690
REMARK SMILES CCCCCCCCCCCCCCCC(=O)[O-]
REMARK SMILES IDX 9 1 10 2 11 3 12 4 13 5 14 6 15 7 16 8 17 9 18 10 8 11 7 12
REMARK SMILES IDX 6 13 5 14 4 15 3 16 2 17 1 18
REMARK H PARENT
REMARK Flexibility Score: inf
ROOT
ATOM      1  C   UNL     1      42.453  64.293   5.124  1.00  0.00     0.000 C 
ENDROOT
BRANCH   1   2
ATOM      2  C   UNL     1      42.462  65.358   6.236  1.00  0.00     0.000 C 
BRANCH   2   3
ATOM      3  C   UNL     1      43.495  66.471   5.965  1.00  0.00     0.000 C 
BRANCH   3   4
ATOM      4  C   UNL     1      44.145  66.376   4.571  1.00  0.00     0.000 C 
BRANCH   4   5
ATOM      5  C   UNL     1      45.454  67.172   4.466  1.00  0.00     0.000 C 
BRANCH   5   6
ATOM      6  C   UNL     1      45.180  68.654   4.172  1.00  0.00     0.006 C 
BRANCH   6   7
ATOM      7  C   UNL     1      45.632  69.056   2.763  1.00  0.00     0.053 C 
BRANCH   7   8
ATOM      8  C   UNL     1      44.502  69.618   1.954  1.00  0.00     0.041 C 
ATOM      9  O   UNL     1      43.649  68.849   1.436  1.00  0.00    -0.550 OA
ATOM     10  O   UNL     1      44.411  70.987   1.740  1.00  0.00    -0.550 OA
ENDBRANCH   7   8
ENDBRANCH   6   7
ENDBRANCH   5   6
ENDBRANCH   4   5
ENDBRANCH   3   4
ENDBRANCH   2   3
ENDBRANCH   1   2
BRANCH   1  11
ATOM     11  C   UNL     1      42.456  62.859   5.680  1.00  0.00     0.000 C 
BRANCH  11  12
ATOM     12  C   UNL     1      41.122  62.137   5.416  1.00  0.00    -0.000 C 
BRANCH  12  13
ATOM     13  C   UNL     1      40.344  61.837   6.706  1.00  0.00    -0.000 C 
BRANCH  13  14
ATOM     14  C   UNL     1      41.200  62.037   7.969  1.00  0.00    -0.000 C 
BRANCH  14  15
ATOM     15  C   UNL     1      40.795  63.283   8.773  1.00  0.00    -0.000 C 
BRANCH  15  16
ATOM     16  C   UNL     1      39.294  63.631   8.729  1.00  0.00    -0.000 C 
BRANCH  16  17
ATOM     17  C   UNL     1      38.998  65.071   8.260  1.00  0.00    -0.003 C 
ATOM     18  C   UNL     1      38.769  65.161   6.751  1.00  0.00     0.004 C 
ENDBRANCH  16  17
ENDBRANCH  15  16
ENDBRANCH  14  15
ENDBRANCH  13  14
ENDBRANCH  12  13
ENDBRANCH  11  12
ENDBRANCH   1  11
TORSDOF 14
ENDMDL
MODEL 9
REMARK VINA RESULT:    -4.552      4.702      7.746
REMARK INTER + INTRA:          -9.969
REMARK INTER:                  -8.045
REMARK INTRA:                  -1.924
REMARK UNBOUND:                -1.690
REMARK SMILES CCCCCCCCCCCCCCCC(=O)[O-]
REMARK SMILES IDX 9 1 10 2 11 3 12 4 13 5 14 6 15 7 16 8 17 9 18 10 8 11 7 12
REMARK SMILES IDX 6 13 5 14 4 15 3 16 2 17 1 18
REMARK H PARENT
REMARK Flexibility Score: inf
ROOT
ATOM      1  C   UNL     1      39.559  61.099   7.905  1.00  0.00     0.000 C 
ENDROOT
BRANCH   1   2
ATOM      2  C   UNL     1      40.251  59.724   7.963  1.00  0.00     0.000 C 
BRANCH   2   3
ATOM      3  C   UNL     1      41.789  59.848   7.974  1.00  0.00     0.000 C 
BRANCH   3   4
ATOM      4  C   UNL     1      42.511  58.488   7.990  1.00  0.00     0.000 C 
BRANCH   4   5
ATOM      5  C   UNL     1      41.544  57.296   7.954  1.00  0.00     0.000 C 
BRANCH   5   6
ATOM      6  C   UNL     1      41.962  56.274   6.887  1.00  0.00     0.006 C 
BRANCH   6   7
ATOM      7  C   UNL     1      40.966  56.218   5.721  1.00  0.00     0.053 C 
BRANCH   7   8
ATOM      8  C   UNL     1      40.927  57.506   4.957  1.00  0.00     0.041 C 
ATOM      9  O   UNL     1      41.982  57.976   4.452  1.00  0.00    -0.550 OA
ATOM     10  O   UNL     1      39.735  58.207   4.832  1.00  0.00    -0.550 OA
ENDBRANCH   7   8
ENDBRANCH   6   7
ENDBRANCH   5   6
ENDBRANCH   4   5
ENDBRANCH   3   4
ENDBRANCH   2   3
ENDBRANCH   1   2
BRANCH   1  11
ATOM     11  C   UNL     1      40.467  62.237   8.400  1.00  0.00     0.000 C 
BRANCH  11  12
ATOM     12  C   UNL     1      39.664  63.504   8.747  1.00  0.00    -0.000 C 
BRANCH  12  13
ATOM     13  C   UNL     1      40.119  64.733   7.946  1.00  0.00    -0.000 C 
BRANCH  13  14
ATOM     14  C   UNL     1      41.638  64.746   7.701  1.00  0.00    -0.000 C 
BRANCH  14  15
ATOM     15  C   UNL     1      42.002  64.970   6.224  1.00  0.00    -0.000 C 
BRANCH  15  16
ATOM     16  C   UNL     1      42.320  63.689   5.427  1.00  0.00    -0.000 C 
BRANCH  16  17
ATOM     17  C   UNL     1      41.101  63.086   4.700  1.00  0.00    -0.003 C 
ATOM     18  C   UNL     1      41.180  61.562   4.587  1.00  0.00     0.004 C 
ENDBRANCH  16  17
ENDBRANCH  15  16
ENDBRANCH  14  15
ENDBRANCH  13  14
ENDBRANCH  12  13
ENDBRANCH  11  12
ENDBRANCH   1  11
TORSDOF 14
ENDMDL
