MODEL 1
REMARK VINA RESULT:     3.190      0.000      0.000
REMARK INTER + INTRA:           3.600
REMARK INTER:                   3.749
REMARK INTRA:                  -0.149
REMARK UNBOUND:                -0.149
REMARK SMILES O=C([O-])C=Cc1ccc(O)c(O)c1
REMARK SMILES IDX 6 1 13 2 7 3 11 4 8 5 9 6 5 7 4 8 2 9 1 10 3 11 12 12 10 14
REMARK H PARENT 12 13 10 15
REMARK Flexibility Score: inf
ROOT
ATOM      1  C   UNL     1     -37.403  26.348  -5.251  1.00  0.00    -0.022 A 
ATOM      2  C   UNL     1     -38.369  27.355  -5.049  1.00  0.00     0.058 A 
ATOM      3  C   UNL     1     -36.186  26.689  -5.864  1.00  0.00     0.012 A 
ATOM      4  C   UNL     1     -38.108  28.678  -5.431  1.00  0.00     0.157 A 
ATOM      5  C   UNL     1     -35.926  28.008  -6.243  1.00  0.00     0.051 A 
ATOM      6  C   UNL     1     -36.883  29.007  -6.025  1.00  0.00     0.157 A 
ENDROOT
BRANCH   1   7
ATOM      7  C   UNL     1     -37.635  24.931  -4.875  1.00  0.00     0.010 C 
ATOM      8  C   UNL     1     -37.019  23.895  -5.462  1.00  0.00     0.025 C 
BRANCH   8   9
ATOM      9  C   UNL     1     -37.283  22.500  -5.070  1.00  0.00     0.064 C 
ATOM     10  O   UNL     1     -38.459  22.081  -4.901  1.00  0.00    -0.545 OA
ATOM     11  O   UNL     1     -36.216  21.632  -4.882  1.00  0.00    -0.545 OA
ENDBRANCH   8   9
ENDBRANCH   1   7
BRANCH   4  12
ATOM     12  O   UNL     1     -39.063  29.673  -5.228  1.00  0.00    -0.504 OA
ATOM     13  H   UNL     1     -38.822  30.656  -5.262  1.00  0.00     0.293 HD
ENDBRANCH   4  12
BRANCH   6  14
ATOM     14  O   UNL     1     -36.628  30.325  -6.400  1.00  0.00    -0.504 OA
ATOM     15  H   UNL     1     -36.854  30.665  -7.327  1.00  0.00     0.293 HD
ENDBRANCH   6  14
TORSDOF 4
ENDMDL
MODEL 2
REMARK VINA RESULT:     3.285      0.938      1.923
REMARK INTER + INTRA:           3.712
REMARK INTER:                   3.864
REMARK INTRA:                  -0.152
REMARK UNBOUND:                -0.149
REMARK SMILES O=C([O-])C=Cc1ccc(O)c(O)c1
REMARK SMILES IDX 6 1 13 2 7 3 11 4 8 5 9 6 5 7 4 8 2 9 1 10 3 11 12 12 10 14
REMARK H PARENT 12 13 10 15
REMARK Flexibility Score: inf
ROOT
ATOM      1  C   UNL     1     -36.913  26.715  -5.400  1.00  0.00    -0.022 A 
ATOM      2  C   UNL     1     -35.891  27.505  -5.966  1.00  0.00     0.058 A 
ATOM      3  C   UNL     1     -38.050  27.352  -4.875  1.00  0.00     0.012 A 
ATOM      4  C   UNL     1     -36.021  28.900  -6.025  1.00  0.00     0.157 A 
ATOM      5  C   UNL     1     -38.179  28.741  -4.936  1.00  0.00     0.051 A 
ATOM      6  C   UNL     1     -37.168  29.519  -5.513  1.00  0.00     0.157 A 
ENDROOT
BRANCH   1   7
ATOM      7  C   UNL     1     -36.820  25.237  -5.303  1.00  0.00     0.010 C 
ATOM      8  C   UNL     1     -37.864  24.442  -5.027  1.00  0.00     0.025 C 
BRANCH   8   9
ATOM      9  C   UNL     1     -37.731  22.979  -4.928  1.00  0.00     0.064 C 
ATOM     10  O   UNL     1     -38.745  22.232  -4.883  1.00  0.00    -0.545 OA
ATOM     11  O   UNL     1     -36.464  22.411  -4.881  1.00  0.00    -0.545 OA
ENDBRANCH   8   9
ENDBRANCH   1   7
BRANCH   4  12
ATOM     12  O   UNL     1     -35.011  29.679  -6.587  1.00  0.00    -0.504 OA
ATOM     13  H   UNL     1     -34.059  29.339  -6.665  1.00  0.00     0.293 HD
ENDBRANCH   4  12
BRANCH   6  14
ATOM     14  O   UNL     1     -37.292  30.906  -5.577  1.00  0.00    -0.504 OA
ATOM     15  H   UNL     1     -38.181  31.365  -5.418  1.00  0.00     0.293 HD
ENDBRANCH   6  14
TORSDOF 4
ENDMDL
MODEL 3
REMARK VINA RESULT:     4.652      1.192      6.080
REMARK INTER + INTRA:           5.319
REMARK INTER:                   5.444
REMARK INTRA:                  -0.124
REMARK UNBOUND:                -0.149
REMARK SMILES O=C([O-])C=Cc1ccc(O)c(O)c1
REMARK SMILES IDX 6 1 13 2 7 3 11 4 8 5 9 6 5 7 4 8 2 9 1 10 3 11 12 12 10 14
REMARK H PARENT 12 13 10 15
REMARK Flexibility Score: inf
ROOT
ATOM      1  C   UNL     1     -36.988  25.390  -4.876  1.00  0.00    -0.022 A 
ATOM      2  C   UNL     1     -35.655  24.929  -4.877  1.00  0.00     0.058 A 
ATOM      3  C   UNL     1     -38.031  24.449  -4.899  1.00  0.00     0.012 A 
ATOM      4  C   UNL     1     -35.378  23.555  -4.877  1.00  0.00     0.157 A 
ATOM      5  C   UNL     1     -37.753  23.080  -4.898  1.00  0.00     0.051 A 
ATOM      6  C   UNL     1     -36.428  22.628  -4.883  1.00  0.00     0.157 A 
ENDROOT
BRANCH   1   7
ATOM      7  C   UNL     1     -37.335  26.833  -4.888  1.00  0.00     0.010 C 
ATOM      8  C   UNL     1     -37.019  27.666  -5.890  1.00  0.00     0.025 C 
BRANCH   8   9
ATOM      9  C   UNL     1     -37.370  29.096  -5.862  1.00  0.00     0.064 C 
ATOM     10  O   UNL     1     -36.493  29.987  -6.019  1.00  0.00    -0.545 OA
ATOM     11  O   UNL     1     -38.692  29.469  -5.656  1.00  0.00    -0.545 OA
ENDBRANCH   8   9
ENDBRANCH   1   7
BRANCH   4  12
ATOM     12  O   UNL     1     -34.059  23.101  -4.875  1.00  0.00    -0.504 OA
ATOM     13  H   UNL     1     -33.443  23.266  -4.088  1.00  0.00     0.293 HD
ENDBRANCH   4  12
BRANCH   6  14
ATOM     14  O   UNL     1     -36.146  21.263  -4.880  1.00  0.00    -0.504 OA
ATOM     15  H   UNL     1     -36.501  20.648  -5.602  1.00  0.00     0.293 HD
ENDBRANCH   6  14
TORSDOF 4
ENDMDL
