MODEL 1
REMARK VINA RESULT:    -7.746      0.000      0.000
REMARK INTER + INTRA:          -7.973
REMARK INTER:                  -7.973
REMARK INTRA:                   0.000
REMARK UNBOUND:                 0.000
REMARK SMILES CC1(C)CC[C@]2(C)CC[C@@]3(C)C(=CC[C@@H]4[C@]5(C)CC[C@H](O)C(C)(C)[C@@H]5CC[C@@]43C)[C@H]2C1
REMARK SMILES IDX 1 1 2 2 4 3 5 4 6 5 8 6 9 7 10 8 12 9 13 10 14 11 15 12
REMARK SMILES IDX 28 13 27 14 26 15 25 16 16 17 18 18 19 19 20 20 22 21 23 22
REMARK SMILES IDX 24 23 17 24 29 25 30 26 31 27 11 28 7 29 3 30 21 31
REMARK H PARENT 21 32
REMARK Flexibility Score: inf
ROOT
ATOM      1  C   UNL     1     141.505 135.870 138.292  1.00  0.00     0.011 C 
ATOM      2  C   UNL     1     141.206 135.570 139.776  1.00  0.00    -0.035 C 
ATOM      3  C   UNL     1     142.360 134.702 140.343  1.00  0.00     0.007 C 
ATOM      4  C   UNL     1     142.295 134.531 141.870  1.00  0.00     0.008 C 
ATOM      5  C   UNL     1     142.281 135.889 142.634  1.00  0.00    -0.026 C 
ATOM      6  C   UNL     1     142.070 135.598 144.171  1.00  0.00     0.008 C 
ATOM      7  C   UNL     1     140.880 136.347 144.822  1.00  0.00     0.012 C 
ATOM      8  C   UNL     1     140.825 137.885 144.463  1.00  0.00    -0.006 C 
ATOM      9  C   UNL     1     140.943 138.023 142.929  1.00  0.00    -0.064 C 
ATOM     10  C   UNL     1     140.669 139.214 142.357  1.00  0.00    -0.027 C 
ATOM     11  C   UNL     1     140.388 140.417 143.192  1.00  0.00     0.032 C 
ATOM     12  C   UNL     1     139.367 140.127 144.344  1.00  0.00     0.006 C 
ATOM     13  C   UNL     1     139.458 138.612 144.920  1.00  0.00    -0.020 C 
ATOM     14  C   UNL     1     139.248 138.528 146.464  1.00  0.00     0.008 C 
ATOM     15  C   UNL     1     139.641 139.770 147.232  1.00  0.00     0.005 C 
ATOM     16  C   UNL     1     138.761 140.970 146.804  1.00  0.00     0.003 C 
ATOM     17  C   UNL     1     139.169 141.399 145.337  1.00  0.00    -0.025 C 
ATOM     18  C   UNL     1     140.452 142.294 145.417  1.00  0.00     0.010 C 
ATOM     19  C   UNL     1     140.373 143.477 146.396  1.00  0.00     0.033 C 
ATOM     20  C   UNL     1     139.986 143.066 147.826  1.00  0.00     0.120 C 
ATOM     21  C   UNL     1     138.717 142.148 147.891  1.00  0.00    -0.006 C 
ATOM     22  C   UNL     1     138.582 141.589 149.343  1.00  0.00     0.014 C 
ATOM     23  C   UNL     1     137.442 143.033 147.686  1.00  0.00     0.014 C 
ATOM     24  C   UNL     1     138.033 142.261 144.691  1.00  0.00     0.012 C 
ATOM     25  C   UNL     1     138.245 137.816 144.314  1.00  0.00     0.012 C 
ATOM     26  C   UNL     1     141.090 136.745 142.093  1.00  0.00     0.022 C 
ATOM     27  C   UNL     1     141.118 136.920 140.545  1.00  0.00     0.015 C 
ATOM     28  C   UNL     1     142.052 138.530 145.165  1.00  0.00     0.017 C 
ATOM     29  C   UNL     1     143.655 136.614 142.408  1.00  0.00     0.012 C 
ATOM     30  C   UNL     1     139.863 134.799 139.839  1.00  0.00     0.011 C 
ENDROOT
BRANCH  20  31
ATOM     31  O   UNL     1     141.095 142.536 148.515  1.00  0.00    -0.393 OA
ATOM     32  H   UNL     1     141.447 143.234 149.119  1.00  0.00     0.210 HD
ENDBRANCH  20  31
TORSDOF 1
ENDMDL
MODEL 2
REMARK VINA RESULT:    -6.657      7.129      9.509
REMARK INTER + INTRA:          -6.851
REMARK INTER:                  -6.851
REMARK INTRA:                   0.000
REMARK UNBOUND:                 0.000
REMARK SMILES CC1(C)CC[C@]2(C)CC[C@@]3(C)C(=CC[C@@H]4[C@]5(C)CC[C@H](O)C(C)(C)[C@@H]5CC[C@@]43C)[C@H]2C1
REMARK SMILES IDX 1 1 2 2 4 3 5 4 6 5 8 6 9 7 10 8 12 9 13 10 14 11 15 12
REMARK SMILES IDX 28 13 27 14 26 15 25 16 16 17 18 18 19 19 20 20 22 21 23 22
REMARK SMILES IDX 24 23 17 24 29 25 30 26 31 27 11 28 7 29 3 30 21 31
REMARK H PARENT 21 32
REMARK Flexibility Score: inf
ROOT
ATOM      1  C   UNL     1     150.173 139.342 142.520  1.00  0.00     0.011 C 
ATOM      2  C   UNL     1     150.471 138.609 143.845  1.00  0.00    -0.035 C 
ATOM      3  C   UNL     1     151.323 139.544 144.743  1.00  0.00     0.007 C 
ATOM      4  C   UNL     1     151.490 139.019 146.178  1.00  0.00     0.008 C 
ATOM      5  C   UNL     1     150.129 138.760 146.893  1.00  0.00    -0.026 C 
ATOM      6  C   UNL     1     150.417 138.095 148.295  1.00  0.00     0.008 C 
ATOM      7  C   UNL     1     149.680 136.755 148.547  1.00  0.00     0.012 C 
ATOM      8  C   UNL     1     148.144 136.797 148.178  1.00  0.00    -0.006 C 
ATOM      9  C   UNL     1     148.010 137.374 146.752  1.00  0.00    -0.064 C 
ATOM     10  C   UNL     1     146.825 137.276 146.115  1.00  0.00    -0.027 C 
ATOM     11  C   UNL     1     145.622 136.741 146.817  1.00  0.00     0.032 C 
ATOM     12  C   UNL     1     145.920 135.421 147.605  1.00  0.00     0.006 C 
ATOM     13  C   UNL     1     147.432 135.348 148.192  1.00  0.00    -0.020 C 
ATOM     14  C   UNL     1     147.512 134.680 149.600  1.00  0.00     0.008 C 
ATOM     15  C   UNL     1     146.263 134.808 150.442  1.00  0.00     0.005 C 
ATOM     16  C   UNL     1     145.075 134.088 149.759  1.00  0.00     0.003 C 
ATOM     17  C   UNL     1     144.646 134.918 148.483  1.00  0.00    -0.025 C 
ATOM     18  C   UNL     1     143.736 136.107 148.942  1.00  0.00     0.010 C 
ATOM     19  C   UNL     1     142.550 135.722 149.843  1.00  0.00     0.033 C 
ATOM     20  C   UNL     1     142.961 134.922 151.091  1.00  0.00     0.120 C 
ATOM     21  C   UNL     1     143.894 133.703 150.773  1.00  0.00    -0.006 C 
ATOM     22  C   UNL     1     144.449 133.138 152.118  1.00  0.00     0.014 C 
ATOM     23  C   UNL     1     143.024 132.543 150.183  1.00  0.00     0.014 C 
ATOM     24  C   UNL     1     143.800 134.024 147.516  1.00  0.00     0.012 C 
ATOM     25  C   UNL     1     148.243 134.385 147.252  1.00  0.00     0.012 C 
ATOM     26  C   UNL     1     149.289 137.781 146.009  1.00  0.00     0.022 C 
ATOM     27  C   UNL     1     149.120 138.277 144.542  1.00  0.00     0.015 C 
ATOM     28  C   UNL     1     147.482 137.746 149.216  1.00  0.00     0.017 C 
ATOM     29  C   UNL     1     149.389 140.130 147.090  1.00  0.00     0.012 C 
ATOM     30  C   UNL     1     151.257 137.318 143.502  1.00  0.00     0.011 C 
ENDROOT
BRANCH  20  31
ATOM     31  O   UNL     1     143.476 135.775 152.088  1.00  0.00    -0.393 OA
ATOM     32  H   UNL     1     142.873 135.736 152.870  1.00  0.00     0.210 HD
ENDBRANCH  20  31
TORSDOF 1
ENDMDL
MODEL 3
REMARK VINA RESULT:    -6.510      7.081      9.426
REMARK INTER + INTRA:          -6.700
REMARK INTER:                  -6.700
REMARK INTRA:                   0.000
REMARK UNBOUND:                 0.000
REMARK SMILES CC1(C)CC[C@]2(C)CC[C@@]3(C)C(=CC[C@@H]4[C@]5(C)CC[C@H](O)C(C)(C)[C@@H]5CC[C@@]43C)[C@H]2C1
REMARK SMILES IDX 1 1 2 2 4 3 5 4 6 5 8 6 9 7 10 8 12 9 13 10 14 11 15 12
REMARK SMILES IDX 28 13 27 14 26 15 25 16 16 17 18 18 19 19 20 20 22 21 23 22
REMARK SMILES IDX 24 23 17 24 29 25 30 26 31 27 11 28 7 29 3 30 21 31
REMARK H PARENT 21 32
REMARK Flexibility Score: inf
ROOT
ATOM      1  C   UNL     1     152.446 137.737 142.782  1.00  0.00     0.011 C 
ATOM      2  C   UNL     1     151.497 138.548 143.688  1.00  0.00    -0.035 C 
ATOM      3  C   UNL     1     150.708 139.548 142.803  1.00  0.00     0.007 C 
ATOM      4  C   UNL     1     149.567 140.252 143.555  1.00  0.00     0.008 C 
ATOM      5  C   UNL     1     148.553 139.256 144.193  1.00  0.00    -0.026 C 
ATOM      6  C   UNL     1     147.513 140.077 145.051  1.00  0.00     0.008 C 
ATOM      7  C   UNL     1     147.378 139.622 146.526  1.00  0.00     0.012 C 
ATOM      8  C   UNL     1     147.233 138.058 146.697  1.00  0.00    -0.006 C 
ATOM      9  C   UNL     1     148.364 137.382 145.891  1.00  0.00    -0.064 C 
ATOM     10  C   UNL     1     148.607 136.068 146.081  1.00  0.00    -0.027 C 
ATOM     11  C   UNL     1     147.720 135.245 146.952  1.00  0.00     0.032 C 
ATOM     12  C   UNL     1     147.407 135.937 148.322  1.00  0.00     0.006 C 
ATOM     13  C   UNL     1     147.351 137.557 148.227  1.00  0.00    -0.020 C 
ATOM     14  C   UNL     1     146.244 138.187 149.128  1.00  0.00     0.008 C 
ATOM     15  C   UNL     1     145.052 137.295 149.396  1.00  0.00     0.005 C 
ATOM     16  C   UNL     1     145.488 136.031 150.177  1.00  0.00     0.003 C 
ATOM     17  C   UNL     1     146.329 135.104 149.210  1.00  0.00    -0.025 C 
ATOM     18  C   UNL     1     145.337 134.281 148.320  1.00  0.00     0.010 C 
ATOM     19  C   UNL     1     144.236 133.525 149.082  1.00  0.00     0.033 C 
ATOM     20  C   UNL     1     143.409 134.423 150.017  1.00  0.00     0.120 C 
ATOM     21  C   UNL     1     144.285 135.318 150.960  1.00  0.00    -0.006 C 
ATOM     22  C   UNL     1     143.356 136.358 151.661  1.00  0.00     0.014 C 
ATOM     23  C   UNL     1     144.840 134.432 152.125  1.00  0.00     0.014 C 
ATOM     24  C   UNL     1     147.173 134.081 150.041  1.00  0.00     0.012 C 
ATOM     25  C   UNL     1     148.701 138.098 148.825  1.00  0.00     0.012 C 
ATOM     26  C   UNL     1     149.343 138.276 145.120  1.00  0.00     0.022 C 
ATOM     27  C   UNL     1     150.520 137.562 144.391  1.00  0.00     0.015 C 
ATOM     28  C   UNL     1     145.845 137.691 146.104  1.00  0.00     0.017 C 
ATOM     29  C   UNL     1     147.810 138.482 143.046  1.00  0.00     0.012 C 
ATOM     30  C   UNL     1     152.368 139.306 144.723  1.00  0.00     0.011 C 
ENDROOT
BRANCH  20  31
ATOM     31  O   UNL     1     142.444 135.151 149.293  1.00  0.00    -0.393 OA
ATOM     32  H   UNL     1     141.549 134.874 149.605  1.00  0.00     0.210 HD
ENDBRANCH  20  31
TORSDOF 1
ENDMDL
MODEL 4
REMARK VINA RESULT:    -6.449      7.295     10.125
REMARK INTER + INTRA:          -6.638
REMARK INTER:                  -6.638
REMARK INTRA:                   0.000
REMARK UNBOUND:                 0.000
REMARK SMILES CC1(C)CC[C@]2(C)CC[C@@]3(C)C(=CC[C@@H]4[C@]5(C)CC[C@H](O)C(C)(C)[C@@H]5CC[C@@]43C)[C@H]2C1
REMARK SMILES IDX 1 1 2 2 4 3 5 4 6 5 8 6 9 7 10 8 12 9 13 10 14 11 15 12
REMARK SMILES IDX 28 13 27 14 26 15 25 16 16 17 18 18 19 19 20 20 22 21 23 22
REMARK SMILES IDX 24 23 17 24 29 25 30 26 31 27 11 28 7 29 3 30 21 31
REMARK H PARENT 21 32
REMARK Flexibility Score: inf
ROOT
ATOM      1  C   UNL     1     141.912 135.494 150.300  1.00  0.00     0.011 C 
ATOM      2  C   UNL     1     143.449 135.549 150.432  1.00  0.00    -0.035 C 
ATOM      3  C   UNL     1     143.971 134.111 150.691  1.00  0.00     0.007 C 
ATOM      4  C   UNL     1     145.502 134.000 150.611  1.00  0.00     0.008 C 
ATOM      5  C   UNL     1     146.078 134.494 149.250  1.00  0.00    -0.026 C 
ATOM      6  C   UNL     1     147.654 134.468 149.332  1.00  0.00     0.008 C 
ATOM      7  C   UNL     1     148.349 135.810 148.987  1.00  0.00     0.012 C 
ATOM      8  C   UNL     1     147.803 136.488 147.670  1.00  0.00    -0.006 C 
ATOM      9  C   UNL     1     146.262 136.538 147.761  1.00  0.00    -0.064 C 
ATOM     10  C   UNL     1     145.579 137.295 146.877  1.00  0.00    -0.027 C 
ATOM     11  C   UNL     1     146.279 137.969 145.746  1.00  0.00     0.032 C 
ATOM     12  C   UNL     1     147.580 138.713 146.198  1.00  0.00     0.006 C 
ATOM     13  C   UNL     1     148.333 137.996 147.445  1.00  0.00    -0.020 C 
ATOM     14  C   UNL     1     149.889 138.050 147.337  1.00  0.00     0.008 C 
ATOM     15  C   UNL     1     150.430 138.125 145.927  1.00  0.00     0.005 C 
ATOM     16  C   UNL     1     149.967 139.432 145.239  1.00  0.00     0.003 C 
ATOM     17  C   UNL     1     148.416 139.326 144.945  1.00  0.00    -0.025 C 
ATOM     18  C   UNL     1     148.212 138.496 143.633  1.00  0.00     0.010 C 
ATOM     19  C   UNL     1     149.030 138.966 142.419  1.00  0.00     0.033 C 
ATOM     20  C   UNL     1     150.540 139.062 142.695  1.00  0.00     0.120 C 
ATOM     21  C   UNL     1     150.887 139.861 143.998  1.00  0.00    -0.006 C 
ATOM     22  C   UNL     1     152.404 139.667 144.310  1.00  0.00     0.014 C 
ATOM     23  C   UNL     1     150.734 141.391 143.707  1.00  0.00     0.014 C 
ATOM     24  C   UNL     1     147.815 140.750 144.698  1.00  0.00     0.012 C 
ATOM     25  C   UNL     1     147.998 138.838 148.730  1.00  0.00     0.012 C 
ATOM     26  C   UNL     1     145.588 135.959 149.011  1.00  0.00     0.022 C 
ATOM     27  C   UNL     1     144.040 136.107 149.105  1.00  0.00     0.015 C 
ATOM     28  C   UNL     1     148.250 135.567 146.500  1.00  0.00     0.017 C 
ATOM     29  C   UNL     1     145.584 133.534 148.110  1.00  0.00     0.012 C 
ATOM     30  C   UNL     1     143.785 136.474 151.630  1.00  0.00     0.011 C 
ENDROOT
BRANCH  20  31
ATOM     31  O   UNL     1     151.143 137.789 142.642  1.00  0.00    -0.393 OA
ATOM     32  H   UNL     1     151.545 137.601 143.525  1.00  0.00     0.210 HD
ENDBRANCH  20  31
TORSDOF 1
ENDMDL
MODEL 5
REMARK VINA RESULT:    -6.295      7.902     11.197
REMARK INTER + INTRA:          -6.479
REMARK INTER:                  -6.479
REMARK INTRA:                   0.000
REMARK UNBOUND:                 0.000
REMARK SMILES CC1(C)CC[C@]2(C)CC[C@@]3(C)C(=CC[C@@H]4[C@]5(C)CC[C@H](O)C(C)(C)[C@@H]5CC[C@@]43C)[C@H]2C1
REMARK SMILES IDX 1 1 2 2 4 3 5 4 6 5 8 6 9 7 10 8 12 9 13 10 14 11 15 12
REMARK SMILES IDX 28 13 27 14 26 15 25 16 16 17 18 18 19 19 20 20 22 21 23 22
REMARK SMILES IDX 24 23 17 24 29 25 30 26 31 27 11 28 7 29 3 30 21 31
REMARK H PARENT 21 32
REMARK Flexibility Score: inf
ROOT
ATOM      1  C   UNL     1     147.932 138.340 149.139  1.00  0.00     0.011 C 
ATOM      2  C   UNL     1     147.761 137.932 147.661  1.00  0.00    -0.035 C 
ATOM      3  C   UNL     1     146.255 137.677 147.392  1.00  0.00     0.007 C 
ATOM      4  C   UNL     1     145.928 137.490 145.902  1.00  0.00     0.008 C 
ATOM      5  C   UNL     1     146.387 138.692 145.023  1.00  0.00    -0.026 C 
ATOM      6  C   UNL     1     146.132 138.332 143.507  1.00  0.00     0.008 C 
ATOM      7  C   UNL     1     147.373 138.460 142.587  1.00  0.00     0.012 C 
ATOM      8  C   UNL     1     148.173 139.808 142.784  1.00  0.00    -0.006 C 
ATOM      9  C   UNL     1     148.440 139.990 144.294  1.00  0.00    -0.064 C 
ATOM     10  C   UNL     1     149.320 140.931 144.694  1.00  0.00    -0.027 C 
ATOM     11  C   UNL     1     149.930 141.874 143.712  1.00  0.00     0.032 C 
ATOM     12  C   UNL     1     150.462 141.150 142.430  1.00  0.00     0.006 C 
ATOM     13  C   UNL     1     149.596 139.837 142.024  1.00  0.00    -0.020 C 
ATOM     14  C   UNL     1     149.431 139.663 140.483  1.00  0.00     0.008 C 
ATOM     15  C   UNL     1     149.482 140.945 139.684  1.00  0.00     0.005 C 
ATOM     16  C   UNL     1     150.868 141.620 139.832  1.00  0.00     0.003 C 
ATOM     17  C   UNL     1     150.997 142.192 141.301  1.00  0.00    -0.025 C 
ATOM     18  C   UNL     1     150.255 143.570 141.368  1.00  0.00     0.010 C 
ATOM     19  C   UNL     1     150.650 144.586 140.283  1.00  0.00     0.033 C 
ATOM     20  C   UNL     1     150.518 144.039 138.852  1.00  0.00     0.120 C 
ATOM     21  C   UNL     1     151.208 142.646 138.649  1.00  0.00    -0.006 C 
ATOM     22  C   UNL     1     150.787 142.082 137.256  1.00  0.00     0.014 C 
ATOM     23  C   UNL     1     152.755 142.861 138.539  1.00  0.00     0.014 C 
ATOM     24  C   UNL     1     152.500 142.450 141.650  1.00  0.00     0.012 C 
ATOM     25  C   UNL     1     150.428 138.582 142.477  1.00  0.00     0.012 C 
ATOM     26  C   UNL     1     147.915 138.920 145.260  1.00  0.00     0.022 C 
ATOM     27  C   UNL     1     148.280 139.094 146.765  1.00  0.00     0.015 C 
ATOM     28  C   UNL     1     147.243 140.936 142.254  1.00  0.00     0.017 C 
ATOM     29  C   UNL     1     145.552 139.961 145.421  1.00  0.00     0.012 C 
ATOM     30  C   UNL     1     148.582 136.637 147.432  1.00  0.00     0.011 C 
ENDROOT
BRANCH  20  31
ATOM     31  O   UNL     1     149.175 144.065 138.425  1.00  0.00    -0.393 OA
ATOM     32  H   UNL     1     149.163 144.212 137.449  1.00  0.00     0.210 HD
ENDBRANCH  20  31
TORSDOF 1
ENDMDL
MODEL 6
REMARK VINA RESULT:    -6.165      3.904      6.525
REMARK INTER + INTRA:          -6.346
REMARK INTER:                  -6.346
REMARK INTRA:                   0.000
REMARK UNBOUND:                 0.000
REMARK SMILES CC1(C)CC[C@]2(C)CC[C@@]3(C)C(=CC[C@@H]4[C@]5(C)CC[C@H](O)C(C)(C)[C@@H]5CC[C@@]43C)[C@H]2C1
REMARK SMILES IDX 1 1 2 2 4 3 5 4 6 5 8 6 9 7 10 8 12 9 13 10 14 11 15 12
REMARK SMILES IDX 28 13 27 14 26 15 25 16 16 17 18 18 19 19 20 20 22 21 23 22
REMARK SMILES IDX 24 23 17 24 29 25 30 26 31 27 11 28 7 29 3 30 21 31
REMARK H PARENT 21 32
REMARK Flexibility Score: inf
ROOT
ATOM      1  C   UNL     1     147.471 140.345 145.387  1.00  0.00     0.011 C 
ATOM      2  C   UNL     1     146.996 138.881 145.502  1.00  0.00    -0.035 C 
ATOM      3  C   UNL     1     147.657 138.247 146.754  1.00  0.00     0.007 C 
ATOM      4  C   UNL     1     147.085 136.864 147.106  1.00  0.00     0.008 C 
ATOM      5  C   UNL     1     145.542 136.881 147.322  1.00  0.00    -0.026 C 
ATOM      6  C   UNL     1     145.048 135.397 147.536  1.00  0.00     0.008 C 
ATOM      7  C   UNL     1     143.917 134.941 146.580  1.00  0.00     0.012 C 
ATOM      8  C   UNL     1     142.735 135.981 146.452  1.00  0.00    -0.006 C 
ATOM      9  C   UNL     1     143.347 137.365 146.147  1.00  0.00    -0.064 C 
ATOM     10  C   UNL     1     142.535 138.366 145.746  1.00  0.00    -0.027 C 
ATOM     11  C   UNL     1     141.055 138.185 145.721  1.00  0.00     0.032 C 
ATOM     12  C   UNL     1     140.621 136.839 145.050  1.00  0.00     0.006 C 
ATOM     13  C   UNL     1     141.688 135.635 145.273  1.00  0.00    -0.020 C 
ATOM     14  C   UNL     1     141.010 134.247 145.492  1.00  0.00     0.008 C 
ATOM     15  C   UNL     1     139.626 134.299 146.099  1.00  0.00     0.005 C 
ATOM     16  C   UNL     1     138.649 135.041 145.153  1.00  0.00     0.003 C 
ATOM     17  C   UNL     1     139.019 136.579 145.150  1.00  0.00    -0.025 C 
ATOM     18  C   UNL     1     138.389 137.247 146.419  1.00  0.00     0.010 C 
ATOM     19  C   UNL     1     136.888 136.983 146.629  1.00  0.00     0.033 C 
ATOM     20  C   UNL     1     136.523 135.489 146.642  1.00  0.00     0.120 C 
ATOM     21  C   UNL     1     137.109 134.692 145.426  1.00  0.00    -0.006 C 
ATOM     22  C   UNL     1     136.899 133.167 145.684  1.00  0.00     0.014 C 
ATOM     23  C   UNL     1     136.246 135.002 144.157  1.00  0.00     0.014 C 
ATOM     24  C   UNL     1     138.403 137.280 143.895  1.00  0.00     0.012 C 
ATOM     25  C   UNL     1     142.487 135.475 143.928  1.00  0.00     0.012 C 
ATOM     26  C   UNL     1     144.873 137.479 146.041  1.00  0.00     0.022 C 
ATOM     27  C   UNL     1     145.447 138.873 145.648  1.00  0.00     0.015 C 
ATOM     28  C   UNL     1     142.024 135.990 147.834  1.00  0.00     0.017 C 
ATOM     29  C   UNL     1     145.215 137.744 148.592  1.00  0.00     0.012 C 
ATOM     30  C   UNL     1     147.443 138.140 144.216  1.00  0.00     0.011 C 
ENDROOT
BRANCH  20  31
ATOM     31  O   UNL     1     136.827 134.908 147.889  1.00  0.00    -0.393 OA
ATOM     32  H   UNL     1     137.625 134.336 147.778  1.00  0.00     0.210 HD
ENDBRANCH  20  31
TORSDOF 1
ENDMDL
MODEL 7
REMARK VINA RESULT:    -6.135      3.318      6.961
REMARK INTER + INTRA:          -6.315
REMARK INTER:                  -6.315
REMARK INTRA:                   0.000
REMARK UNBOUND:                 0.000
REMARK SMILES CC1(C)CC[C@]2(C)CC[C@@]3(C)C(=CC[C@@H]4[C@]5(C)CC[C@H](O)C(C)(C)[C@@H]5CC[C@@]43C)[C@H]2C1
REMARK SMILES IDX 1 1 2 2 4 3 5 4 6 5 8 6 9 7 10 8 12 9 13 10 14 11 15 12
REMARK SMILES IDX 28 13 27 14 26 15 25 16 16 17 18 18 19 19 20 20 22 21 23 22
REMARK SMILES IDX 24 23 17 24 29 25 30 26 31 27 11 28 7 29 3 30 21 31
REMARK H PARENT 21 32
REMARK Flexibility Score: inf
ROOT
ATOM      1  C   UNL     1     137.083 135.477 147.153  1.00  0.00     0.011 C 
ATOM      2  C   UNL     1     137.777 135.663 145.787  1.00  0.00    -0.035 C 
ATOM      3  C   UNL     1     136.863 136.535 144.887  1.00  0.00     0.007 C 
ATOM      4  C   UNL     1     137.545 136.983 143.584  1.00  0.00     0.008 C 
ATOM      5  C   UNL     1     138.876 137.757 143.829  1.00  0.00    -0.026 C 
ATOM      6  C   UNL     1     139.556 138.041 142.433  1.00  0.00     0.008 C 
ATOM      7  C   UNL     1     141.019 137.545 142.306  1.00  0.00     0.012 C 
ATOM      8  C   UNL     1     141.930 137.934 143.537  1.00  0.00    -0.006 C 
ATOM      9  C   UNL     1     141.194 137.516 144.828  1.00  0.00    -0.064 C 
ATOM     10  C   UNL     1     141.871 137.511 145.995  1.00  0.00    -0.027 C 
ATOM     11  C   UNL     1     143.269 138.027 146.070  1.00  0.00     0.032 C 
ATOM     12  C   UNL     1     144.177 137.477 144.919  1.00  0.00     0.006 C 
ATOM     13  C   UNL     1     143.372 137.208 143.535  1.00  0.00    -0.020 C 
ATOM     14  C   UNL     1     144.199 137.572 142.262  1.00  0.00     0.008 C 
ATOM     15  C   UNL     1     145.239 138.651 142.461  1.00  0.00     0.005 C 
ATOM     16  C   UNL     1     146.311 138.187 143.478  1.00  0.00     0.003 C 
ATOM     17  C   UNL     1     145.659 138.148 144.918  1.00  0.00    -0.025 C 
ATOM     18  C   UNL     1     145.652 139.601 145.503  1.00  0.00     0.010 C 
ATOM     19  C   UNL     1     147.003 140.335 145.467  1.00  0.00     0.033 C 
ATOM     20  C   UNL     1     147.638 140.384 144.067  1.00  0.00     0.120 C 
ATOM     21  C   UNL     1     147.694 138.988 143.357  1.00  0.00    -0.006 C 
ATOM     22  C   UNL     1     148.108 139.205 141.867  1.00  0.00     0.014 C 
ATOM     23  C   UNL     1     148.865 138.153 143.977  1.00  0.00     0.014 C 
ATOM     24  C   UNL     1     146.520 137.260 145.877  1.00  0.00     0.012 C 
ATOM     25  C   UNL     1     143.147 135.656 143.428  1.00  0.00     0.012 C 
ATOM     26  C   UNL     1     139.814 136.858 144.699  1.00  0.00     0.022 C 
ATOM     27  C   UNL     1     139.142 136.373 146.018  1.00  0.00     0.015 C 
ATOM     28  C   UNL     1     142.092 139.479 143.476  1.00  0.00     0.017 C 
ATOM     29  C   UNL     1     138.550 139.112 144.553  1.00  0.00     0.012 C 
ATOM     30  C   UNL     1     137.973 134.257 145.164  1.00  0.00     0.011 C 
ENDROOT
BRANCH  20  31
ATOM     31  O   UNL     1     147.041 141.389 143.279  1.00  0.00    -0.393 OA
ATOM     32  H   UNL     1     147.615 141.544 142.490  1.00  0.00     0.210 HD
ENDBRANCH  20  31
TORSDOF 1
ENDMDL
MODEL 8
REMARK VINA RESULT:    -6.099      8.096     10.639
REMARK INTER + INTRA:          -6.278
REMARK INTER:                  -6.278
REMARK INTRA:                   0.000
REMARK UNBOUND:                 0.000
REMARK SMILES CC1(C)CC[C@]2(C)CC[C@@]3(C)C(=CC[C@@H]4[C@]5(C)CC[C@H](O)C(C)(C)[C@@H]5CC[C@@]43C)[C@H]2C1
REMARK SMILES IDX 1 1 2 2 4 3 5 4 6 5 8 6 9 7 10 8 12 9 13 10 14 11 15 12
REMARK SMILES IDX 28 13 27 14 26 15 25 16 16 17 18 18 19 19 20 20 22 21 23 22
REMARK SMILES IDX 24 23 17 24 29 25 30 26 31 27 11 28 7 29 3 30 21 31
REMARK H PARENT 21 32
REMARK Flexibility Score: inf
ROOT
ATOM      1  C   UNL     1     146.504 143.310 134.912  1.00  0.00     0.011 C 
ATOM      2  C   UNL     1     147.801 142.959 135.670  1.00  0.00    -0.035 C 
ATOM      3  C   UNL     1     148.714 144.213 135.690  1.00  0.00     0.007 C 
ATOM      4  C   UNL     1     149.934 144.059 136.613  1.00  0.00     0.008 C 
ATOM      5  C   UNL     1     149.545 143.712 138.082  1.00  0.00    -0.026 C 
ATOM      6  C   UNL     1     150.867 143.440 138.901  1.00  0.00     0.008 C 
ATOM      7  C   UNL     1     150.913 142.075 139.634  1.00  0.00     0.012 C 
ATOM      8  C   UNL     1     149.597 141.744 140.442  1.00  0.00    -0.006 C 
ATOM      9  C   UNL     1     148.391 141.955 139.501  1.00  0.00    -0.064 C 
ATOM     10  C   UNL     1     147.179 141.497 139.878  1.00  0.00    -0.027 C 
ATOM     11  C   UNL     1     146.970 140.914 141.235  1.00  0.00     0.032 C 
ATOM     12  C   UNL     1     148.081 139.881 141.626  1.00  0.00     0.006 C 
ATOM     13  C   UNL     1     149.534 140.227 140.990  1.00  0.00    -0.020 C 
ATOM     14  C   UNL     1     150.718 139.913 141.958  1.00  0.00     0.008 C 
ATOM     15  C   UNL     1     150.378 139.987 143.429  1.00  0.00     0.005 C 
ATOM     16  C   UNL     1     149.314 138.922 143.792  1.00  0.00     0.003 C 
ATOM     17  C   UNL     1     147.931 139.354 143.157  1.00  0.00    -0.025 C 
ATOM     18  C   UNL     1     147.264 140.421 144.089  1.00  0.00     0.010 C 
ATOM     19  C   UNL     1     147.155 140.028 145.572  1.00  0.00     0.033 C 
ATOM     20  C   UNL     1     148.498 139.616 146.198  1.00  0.00     0.120 C 
ATOM     21  C   UNL     1     149.284 138.556 145.352  1.00  0.00    -0.006 C 
ATOM     22  C   UNL     1     150.723 138.417 145.941  1.00  0.00     0.014 C 
ATOM     23  C   UNL     1     148.628 137.151 145.571  1.00  0.00     0.014 C 
ATOM     24  C   UNL     1     146.964 138.125 143.082  1.00  0.00     0.012 C 
ATOM     25  C   UNL     1     149.748 139.250 139.777  1.00  0.00     0.012 C 
ATOM     26  C   UNL     1     148.662 142.422 138.065  1.00  0.00     0.022 C 
ATOM     27  C   UNL     1     147.427 142.540 137.122  1.00  0.00     0.015 C 
ATOM     28  C   UNL     1     149.555 142.756 141.620  1.00  0.00     0.017 C 
ATOM     29  C   UNL     1     148.769 144.927 138.704  1.00  0.00     0.012 C 
ATOM     30  C   UNL     1     148.490 141.796 134.911  1.00  0.00     0.011 C 
ENDROOT
BRANCH  20  31
ATOM     31  O   UNL     1     149.269 140.750 146.527  1.00  0.00    -0.393 OA
ATOM     32  H   UNL     1     148.665 141.531 146.574  1.00  0.00     0.210 HD
ENDBRANCH  20  31
TORSDOF 1
ENDMDL
MODEL 9
REMARK VINA RESULT:    -6.024      4.944      7.678
REMARK INTER + INTRA:          -6.200
REMARK INTER:                  -6.200
REMARK INTRA:                   0.000
REMARK UNBOUND:                 0.000
REMARK SMILES CC1(C)CC[C@]2(C)CC[C@@]3(C)C(=CC[C@@H]4[C@]5(C)CC[C@H](O)C(C)(C)[C@@H]5CC[C@@]43C)[C@H]2C1
REMARK SMILES IDX 1 1 2 2 4 3 5 4 6 5 8 6 9 7 10 8 12 9 13 10 14 11 15 12
REMARK SMILES IDX 28 13 27 14 26 15 25 16 16 17 18 18 19 19 20 20 22 21 23 22
REMARK SMILES IDX 24 23 17 24 29 25 30 26 31 27 11 28 7 29 3 30 21 31
REMARK H PARENT 21 32
REMARK Flexibility Score: inf
ROOT
ATOM      1  C   UNL     1     147.826 137.100 148.297  1.00  0.00     0.011 C 
ATOM      2  C   UNL     1     146.913 135.864 148.435  1.00  0.00    -0.035 C 
ATOM      3  C   UNL     1     146.986 135.361 149.901  1.00  0.00     0.007 C 
ATOM      4  C   UNL     1     145.945 134.276 150.221  1.00  0.00     0.008 C 
ATOM      5  C   UNL     1     144.483 134.731 149.930  1.00  0.00    -0.026 C 
ATOM      6  C   UNL     1     143.520 133.501 150.157  1.00  0.00     0.008 C 
ATOM      7  C   UNL     1     142.604 133.156 148.955  1.00  0.00     0.012 C 
ATOM      8  C   UNL     1     141.878 134.412 148.329  1.00  0.00    -0.006 C 
ATOM      9  C   UNL     1     142.944 135.499 148.067  1.00  0.00    -0.064 C 
ATOM     10  C   UNL     1     142.617 136.565 147.307  1.00  0.00    -0.027 C 
ATOM     11  C   UNL     1     141.216 136.766 146.835  1.00  0.00     0.032 C 
ATOM     12  C   UNL     1     140.589 135.464 146.232  1.00  0.00     0.006 C 
ATOM     13  C   UNL     1     141.134 134.103 146.931  1.00  0.00    -0.020 C 
ATOM     14  C   UNL     1     140.030 133.012 147.093  1.00  0.00     0.008 C 
ATOM     15  C   UNL     1     138.619 133.541 147.216  1.00  0.00     0.005 C 
ATOM     16  C   UNL     1     138.209 134.291 145.924  1.00  0.00     0.003 C 
ATOM     17  C   UNL     1     139.019 135.648 145.849  1.00  0.00    -0.025 C 
ATOM     18  C   UNL     1     138.307 136.706 146.757  1.00  0.00     0.010 C 
ATOM     19  C   UNL     1     136.799 136.883 146.509  1.00  0.00     0.033 C 
ATOM     20  C   UNL     1     136.005 135.569 146.590  1.00  0.00     0.120 C 
ATOM     21  C   UNL     1     136.622 134.411 145.732  1.00  0.00    -0.006 C 
ATOM     22  C   UNL     1     135.894 133.079 146.098  1.00  0.00     0.014 C 
ATOM     23  C   UNL     1     136.271 134.656 144.227  1.00  0.00     0.014 C 
ATOM     24  C   UNL     1     139.009 136.202 144.385  1.00  0.00     0.012 C 
ATOM     25  C   UNL     1     142.176 133.465 145.942  1.00  0.00     0.012 C 
ATOM     26  C   UNL     1     144.400 135.195 148.439  1.00  0.00     0.022 C 
ATOM     27  C   UNL     1     145.457 136.281 148.079  1.00  0.00     0.015 C 
ATOM     28  C   UNL     1     140.860 134.893 149.401  1.00  0.00     0.017 C 
ATOM     29  C   UNL     1     144.107 135.896 150.913  1.00  0.00     0.012 C 
ATOM     30  C   UNL     1     147.440 134.779 147.461  1.00  0.00     0.011 C 
ENDROOT
BRANCH  20  31
ATOM     31  O   UNL     1     135.768 135.206 147.931  1.00  0.00    -0.393 OA
ATOM     32  H   UNL     1     135.283 135.946 148.371  1.00  0.00     0.210 HD
ENDBRANCH  20  31
TORSDOF 1
ENDMDL
