MODEL 1
REMARK VINA RESULT:    -5.184      0.000      0.000
REMARK INTER + INTRA:         -11.220
REMARK INTER:                 -10.034
REMARK INTRA:                  -1.186
REMARK UNBOUND:                -1.186
REMARK SMILES CCCCCCCCCCCCCCCCCC(=O)[O-]
REMARK SMILES IDX 10 1 11 2 12 3 13 4 14 5 15 6 16 7 17 8 18 9 19 10 20 11
REMARK SMILES IDX 9 12 8 13 7 14 6 15 5 16 4 17 3 18 2 19 1 20
REMARK H PARENT
REMARK Flexibility Score: inf
ROOT
ATOM      1  C   UNL     1      -8.430  27.287 -27.059  1.00  0.00     0.000 C 
ENDROOT
BRANCH   1   2
ATOM      2  C   UNL     1      -8.169  25.822 -27.429  1.00  0.00     0.000 C 
BRANCH   2   3
ATOM      3  C   UNL     1      -9.442  24.977 -27.260  1.00  0.00     0.000 C 
BRANCH   3   4
ATOM      4  C   UNL     1      -9.249  23.801 -26.290  1.00  0.00     0.000 C 
BRANCH   4   5
ATOM      5  C   UNL     1     -10.582  23.252 -25.753  1.00  0.00     0.000 C 
BRANCH   5   6
ATOM      6  C   UNL     1     -10.387  22.235 -24.618  1.00  0.00     0.000 C 
BRANCH   6   7
ATOM      7  C   UNL     1      -9.434  22.744 -23.522  1.00  0.00     0.006 C 
BRANCH   7   8
ATOM      8  C   UNL     1     -10.192  23.298 -22.308  1.00  0.00     0.053 C 
BRANCH   8   9
ATOM      9  C   UNL     1      -9.572  22.856 -21.017  1.00  0.00     0.041 C 
ATOM     10  O   UNL     1      -8.336  23.001 -20.826  1.00  0.00    -0.550 OA
ATOM     11  O   UNL     1     -10.353  22.256 -20.037  1.00  0.00    -0.550 OA
ENDBRANCH   8   9
ENDBRANCH   7   8
ENDBRANCH   6   7
ENDBRANCH   5   6
ENDBRANCH   4   5
ENDBRANCH   3   4
ENDBRANCH   2   3
ENDBRANCH   1   2
BRANCH   1  12
ATOM     12  C   UNL     1      -7.497  27.745 -25.929  1.00  0.00     0.000 C 
BRANCH  12  13
ATOM     13  C   UNL     1      -8.164  27.701 -24.541  1.00  0.00    -0.000 C 
BRANCH  13  14
ATOM     14  C   UNL     1      -7.509  28.589 -23.467  1.00  0.00    -0.000 C 
BRANCH  14  15
ATOM     15  C   UNL     1      -6.009  28.822 -23.712  1.00  0.00    -0.000 C 
BRANCH  15  16
ATOM     16  C   UNL     1      -5.248  29.227 -22.436  1.00  0.00    -0.000 C 
BRANCH  16  17
ATOM     17  C   UNL     1      -6.128  29.523 -21.207  1.00  0.00    -0.000 C 
BRANCH  17  18
ATOM     18  C   UNL     1      -5.842  28.584 -20.023  1.00  0.00    -0.000 C 
BRANCH  18  19
ATOM     19  C   UNL     1      -5.850  27.102 -20.432  1.00  0.00    -0.003 C 
ATOM     20  C   UNL     1      -4.552  26.381 -20.071  1.00  0.00     0.004 C 
ENDBRANCH  18  19
ENDBRANCH  17  18
ENDBRANCH  16  17
ENDBRANCH  15  16
ENDBRANCH  14  15
ENDBRANCH  13  14
ENDBRANCH  12  13
ENDBRANCH   1  12
TORSDOF 16
ENDMDL
MODEL 2
REMARK VINA RESULT:    -5.056      5.059      8.346
REMARK INTER + INTRA:         -10.972
REMARK INTER:                  -8.778
REMARK INTRA:                  -2.195
REMARK UNBOUND:                -1.186
REMARK SMILES CCCCCCCCCCCCCCCCCC(=O)[O-]
REMARK SMILES IDX 10 1 11 2 12 3 13 4 14 5 15 6 16 7 17 8 18 9 19 10 20 11
REMARK SMILES IDX 9 12 8 13 7 14 6 15 5 16 4 17 3 18 2 19 1 20
REMARK H PARENT
REMARK Flexibility Score: inf
ROOT
ATOM      1  C   UNL     1      -3.401  27.559 -20.255  1.00  0.00     0.000 C 
ENDROOT
BRANCH   1   2
ATOM      2  C   UNL     1      -4.510  26.626 -19.753  1.00  0.00     0.000 C 
BRANCH   2   3
ATOM      3  C   UNL     1      -5.882  27.315 -19.824  1.00  0.00     0.000 C 
BRANCH   3   4
ATOM      4  C   UNL     1      -6.612  27.325 -18.471  1.00  0.00     0.000 C 
BRANCH   4   5
ATOM      5  C   UNL     1      -6.791  28.745 -17.907  1.00  0.00     0.000 C 
BRANCH   5   6
ATOM      6  C   UNL     1      -6.522  29.835 -18.956  1.00  0.00     0.000 C 
BRANCH   6   7
ATOM      7  C   UNL     1      -6.697  31.256 -18.394  1.00  0.00     0.006 C 
BRANCH   7   8
ATOM      8  C   UNL     1      -6.780  32.312 -19.506  1.00  0.00     0.053 C 
BRANCH   8   9
ATOM      9  C   UNL     1      -6.506  33.690 -18.984  1.00  0.00     0.041 C 
ATOM     10  O   UNL     1      -5.907  34.532 -19.704  1.00  0.00    -0.550 OA
ATOM     11  O   UNL     1      -6.883  34.034 -17.692  1.00  0.00    -0.550 OA
ENDBRANCH   8   9
ENDBRANCH   7   8
ENDBRANCH   6   7
ENDBRANCH   5   6
ENDBRANCH   4   5
ENDBRANCH   3   4
ENDBRANCH   2   3
ENDBRANCH   1   2
BRANCH   1  12
ATOM     12  C   UNL     1      -2.904  28.480 -19.131  1.00  0.00     0.000 C 
BRANCH  12  13
ATOM     13  C   UNL     1      -2.338  29.814 -19.652  1.00  0.00    -0.000 C 
BRANCH  13  14
ATOM     14  C   UNL     1      -3.389  30.874 -20.027  1.00  0.00    -0.000 C 
BRANCH  14  15
ATOM     15  C   UNL     1      -3.609  30.992 -21.544  1.00  0.00    -0.000 C 
BRANCH  15  16
ATOM     16  C   UNL     1      -5.008  30.525 -21.988  1.00  0.00    -0.000 C 
BRANCH  16  17
ATOM     17  C   UNL     1      -5.046  29.190 -22.756  1.00  0.00    -0.000 C 
BRANCH  17  18
ATOM     18  C   UNL     1      -6.473  28.658 -22.968  1.00  0.00    -0.000 C 
BRANCH  18  19
ATOM     19  C   UNL     1      -6.802  28.432 -24.452  1.00  0.00    -0.003 C 
ATOM     20  C   UNL     1      -8.196  27.842 -24.667  1.00  0.00     0.004 C 
ENDBRANCH  18  19
ENDBRANCH  17  18
ENDBRANCH  16  17
ENDBRANCH  15  16
ENDBRANCH  14  15
ENDBRANCH  13  14
ENDBRANCH  12  13
ENDBRANCH   1  12
TORSDOF 16
ENDMDL
MODEL 3
REMARK VINA RESULT:    -5.036      3.129      7.176
REMARK INTER + INTRA:         -10.933
REMARK INTER:                 -10.202
REMARK INTRA:                  -0.731
REMARK UNBOUND:                -1.186
REMARK SMILES CCCCCCCCCCCCCCCCCC(=O)[O-]
REMARK SMILES IDX 10 1 11 2 12 3 13 4 14 5 15 6 16 7 17 8 18 9 19 10 20 11
REMARK SMILES IDX 9 12 8 13 7 14 6 15 5 16 4 17 3 18 2 19 1 20
REMARK H PARENT
REMARK Flexibility Score: inf
ROOT
ATOM      1  C   UNL     1      -8.570  27.407 -26.146  1.00  0.00     0.000 C 
ENDROOT
BRANCH   1   2
ATOM      2  C   UNL     1      -7.304  27.946 -25.470  1.00  0.00     0.000 C 
BRANCH   2   3
ATOM      3  C   UNL     1      -7.521  28.121 -23.959  1.00  0.00     0.000 C 
BRANCH   3   4
ATOM      4  C   UNL     1      -6.353  28.848 -23.272  1.00  0.00     0.000 C 
BRANCH   4   5
ATOM      5  C   UNL     1      -6.248  28.514 -21.775  1.00  0.00     0.000 C 
BRANCH   5   6
ATOM      6  C   UNL     1      -4.818  28.138 -21.354  1.00  0.00     0.000 C 
BRANCH   6   7
ATOM      7  C   UNL     1      -3.929  29.369 -21.109  1.00  0.00     0.006 C 
BRANCH   7   8
ATOM      8  C   UNL     1      -4.162  29.985 -19.722  1.00  0.00     0.053 C 
BRANCH   8   9
ATOM      9  C   UNL     1      -5.094  31.157 -19.785  1.00  0.00     0.041 C 
ATOM     10  O   UNL     1      -4.784  32.177 -20.455  1.00  0.00    -0.550 OA
ATOM     11  O   UNL     1      -6.290  31.136 -19.078  1.00  0.00    -0.550 OA
ENDBRANCH   8   9
ENDBRANCH   7   8
ENDBRANCH   6   7
ENDBRANCH   5   6
ENDBRANCH   4   5
ENDBRANCH   3   4
ENDBRANCH   2   3
ENDBRANCH   1   2
BRANCH   1  12
ATOM     12  C   UNL     1      -8.218  26.490 -27.327  1.00  0.00     0.000 C 
BRANCH  12  13
ATOM     13  C   UNL     1      -9.109  25.236 -27.404  1.00  0.00    -0.000 C 
BRANCH  13  14
ATOM     14  C   UNL     1      -9.285  24.471 -26.079  1.00  0.00    -0.000 C 
BRANCH  14  15
ATOM     15  C   UNL     1      -9.764  23.024 -26.280  1.00  0.00    -0.000 C 
BRANCH  15  16
ATOM     16  C   UNL     1     -10.355  22.403 -25.001  1.00  0.00    -0.000 C 
BRANCH  16  17
ATOM     17  C   UNL     1     -10.349  23.316 -23.760  1.00  0.00    -0.000 C 
BRANCH  17  18
ATOM     18  C   UNL     1      -9.308  22.895 -22.709  1.00  0.00    -0.000 C 
BRANCH  18  19
ATOM     19  C   UNL     1      -9.926  22.692 -21.317  1.00  0.00    -0.003 C 
ATOM     20  C   UNL     1      -8.923  22.909 -20.185  1.00  0.00     0.004 C 
ENDBRANCH  18  19
ENDBRANCH  17  18
ENDBRANCH  16  17
ENDBRANCH  15  16
ENDBRANCH  14  15
ENDBRANCH  13  14
ENDBRANCH  12  13
ENDBRANCH   1  12
TORSDOF 16
ENDMDL
MODEL 4
REMARK VINA RESULT:    -5.035      3.356      7.861
REMARK INTER + INTRA:         -10.930
REMARK INTER:                  -9.982
REMARK INTRA:                  -0.949
REMARK UNBOUND:                -1.186
REMARK SMILES CCCCCCCCCCCCCCCCCC(=O)[O-]
REMARK SMILES IDX 10 1 11 2 12 3 13 4 14 5 15 6 16 7 17 8 18 9 19 10 20 11
REMARK SMILES IDX 9 12 8 13 7 14 6 15 5 16 4 17 3 18 2 19 1 20
REMARK H PARENT
REMARK Flexibility Score: inf
ROOT
ATOM      1  C   UNL     1      -7.363  28.154 -24.026  1.00  0.00     0.000 C 
ENDROOT
BRANCH   1   2
ATOM      2  C   UNL     1      -6.212  28.830 -23.270  1.00  0.00     0.000 C 
BRANCH   2   3
ATOM      3  C   UNL     1      -6.515  28.908 -21.766  1.00  0.00     0.000 C 
BRANCH   3   4
ATOM      4  C   UNL     1      -5.870  27.761 -20.970  1.00  0.00     0.000 C 
BRANCH   4   5
ATOM      5  C   UNL     1      -5.854  28.029 -19.456  1.00  0.00     0.000 C 
BRANCH   5   6
ATOM      6  C   UNL     1      -4.443  28.330 -18.925  1.00  0.00     0.000 C 
BRANCH   6   7
ATOM      7  C   UNL     1      -3.452  28.687 -20.046  1.00  0.00     0.006 C 
BRANCH   7   8
ATOM      8  C   UNL     1      -2.850  30.087 -19.863  1.00  0.00     0.053 C 
BRANCH   8   9
ATOM      9  C   UNL     1      -3.690  31.142 -20.518  1.00  0.00     0.041 C 
ATOM     10  O   UNL     1      -3.309  31.680 -21.591  1.00  0.00    -0.550 OA
ATOM     11  O   UNL     1      -4.879  31.553 -19.927  1.00  0.00    -0.550 OA
ENDBRANCH   8   9
ENDBRANCH   7   8
ENDBRANCH   6   7
ENDBRANCH   5   6
ENDBRANCH   4   5
ENDBRANCH   3   4
ENDBRANCH   2   3
ENDBRANCH   1   2
BRANCH   1  12
ATOM     12  C   UNL     1      -7.072  28.093 -25.533  1.00  0.00     0.000 C 
BRANCH  12  13
ATOM     13  C   UNL     1      -8.220  27.461 -26.343  1.00  0.00    -0.000 C 
BRANCH  13  14
ATOM     14  C   UNL     1      -7.841  26.975 -27.754  1.00  0.00    -0.000 C 
BRANCH  14  15
ATOM     15  C   UNL     1      -8.417  25.588 -28.086  1.00  0.00    -0.000 C 
BRANCH  15  16
ATOM     16  C   UNL     1      -9.624  25.211 -27.207  1.00  0.00    -0.000 C 
BRANCH  16  17
ATOM     17  C   UNL     1      -9.425  23.978 -26.305  1.00  0.00    -0.000 C 
BRANCH  17  18
ATOM     18  C   UNL     1     -10.750  23.319 -25.888  1.00  0.00    -0.000 C 
BRANCH  18  19
ATOM     19  C   UNL     1     -10.588  22.389 -24.675  1.00  0.00    -0.003 C 
ATOM     20  C   UNL     1      -9.407  22.774 -23.785  1.00  0.00     0.004 C 
ENDBRANCH  18  19
ENDBRANCH  17  18
ENDBRANCH  16  17
ENDBRANCH  15  16
ENDBRANCH  14  15
ENDBRANCH  13  14
ENDBRANCH  12  13
ENDBRANCH   1  12
TORSDOF 16
ENDMDL
MODEL 5
REMARK VINA RESULT:    -4.848      1.863      3.408
REMARK INTER + INTRA:         -10.568
REMARK INTER:                  -9.636
REMARK INTRA:                  -0.933
REMARK UNBOUND:                -1.186
REMARK SMILES CCCCCCCCCCCCCCCCCC(=O)[O-]
REMARK SMILES IDX 10 1 11 2 12 3 13 4 14 5 15 6 16 7 17 8 18 9 19 10 20 11
REMARK SMILES IDX 9 12 8 13 7 14 6 15 5 16 4 17 3 18 2 19 1 20
REMARK H PARENT
REMARK Flexibility Score: inf
ROOT
ATOM      1  C   UNL     1      -8.134  27.922 -24.257  1.00  0.00     0.000 C 
ENDROOT
BRANCH   1   2
ATOM      2  C   UNL     1      -8.409  27.768 -25.758  1.00  0.00     0.000 C 
BRANCH   2   3
ATOM      3  C   UNL     1      -7.100  27.808 -26.563  1.00  0.00     0.000 C 
BRANCH   3   4
ATOM      4  C   UNL     1      -7.254  27.220 -27.975  1.00  0.00     0.000 C 
BRANCH   4   5
ATOM      5  C   UNL     1      -7.272  25.681 -27.975  1.00  0.00     0.000 C 
BRANCH   5   6
ATOM      6  C   UNL     1      -8.697  25.109 -28.044  1.00  0.00     0.000 C 
BRANCH   6   7
ATOM      7  C   UNL     1      -9.301  24.852 -26.652  1.00  0.00     0.006 C 
BRANCH   7   8
ATOM      8  C   UNL     1      -9.567  23.360 -26.403  1.00  0.00     0.053 C 
BRANCH   8   9
ATOM      9  C   UNL     1     -10.159  23.121 -25.047  1.00  0.00     0.041 C 
ATOM     10  O   UNL     1     -11.107  22.304 -24.905  1.00  0.00    -0.550 OA
ATOM     11  O   UNL     1      -9.686  23.822 -23.946  1.00  0.00    -0.550 OA
ENDBRANCH   8   9
ENDBRANCH   7   8
ENDBRANCH   6   7
ENDBRANCH   5   6
ENDBRANCH   4   5
ENDBRANCH   3   4
ENDBRANCH   2   3
ENDBRANCH   1   2
BRANCH   1  12
ATOM     12  C   UNL     1      -6.749  28.539 -24.011  1.00  0.00     0.000 C 
BRANCH  12  13
ATOM     13  C   UNL     1      -6.359  28.566 -22.521  1.00  0.00    -0.000 C 
BRANCH  13  14
ATOM     14  C   UNL     1      -5.212  29.528 -22.158  1.00  0.00    -0.000 C 
BRANCH  14  15
ATOM     15  C   UNL     1      -5.581  30.503 -21.028  1.00  0.00    -0.000 C 
BRANCH  15  16
ATOM     16  C   UNL     1      -6.267  29.810 -19.836  1.00  0.00    -0.000 C 
BRANCH  16  17
ATOM     17  C   UNL     1      -5.408  28.770 -19.092  1.00  0.00    -0.000 C 
BRANCH  17  18
ATOM     18  C   UNL     1      -5.995  27.350 -19.154  1.00  0.00    -0.000 C 
BRANCH  18  19
ATOM     19  C   UNL     1      -5.159  26.406 -20.032  1.00  0.00    -0.003 C 
ATOM     20  C   UNL     1      -3.666  26.730 -19.997  1.00  0.00     0.004 C 
ENDBRANCH  18  19
ENDBRANCH  17  18
ENDBRANCH  16  17
ENDBRANCH  15  16
ENDBRANCH  14  15
ENDBRANCH  13  14
ENDBRANCH  12  13
ENDBRANCH   1  12
TORSDOF 16
ENDMDL
MODEL 6
REMARK VINA RESULT:    -4.790      7.249     10.369
REMARK INTER + INTRA:         -10.456
REMARK INTER:                  -8.265
REMARK INTRA:                  -2.191
REMARK UNBOUND:                -1.186
REMARK SMILES CCCCCCCCCCCCCCCCCC(=O)[O-]
REMARK SMILES IDX 10 1 11 2 12 3 13 4 14 5 15 6 16 7 17 8 18 9 19 10 20 11
REMARK SMILES IDX 9 12 8 13 7 14 6 15 5 16 4 17 3 18 2 19 1 20
REMARK H PARENT
REMARK Flexibility Score: inf
ROOT
ATOM      1  C   UNL     1      -2.841  28.388 -19.281  1.00  0.00     0.000 C 
ENDROOT
BRANCH   1   2
ATOM      2  C   UNL     1      -2.521  29.827 -19.703  1.00  0.00     0.000 C 
BRANCH   2   3
ATOM      3  C   UNL     1      -3.401  30.260 -20.886  1.00  0.00     0.000 C 
BRANCH   3   4
ATOM      4  C   UNL     1      -3.315  31.769 -21.168  1.00  0.00     0.000 C 
BRANCH   4   5
ATOM      5  C   UNL     1      -2.396  32.504 -20.177  1.00  0.00     0.000 C 
BRANCH   5   6
ATOM      6  C   UNL     1      -1.424  33.467 -20.877  1.00  0.00     0.000 C 
BRANCH   6   7
ATOM      7  C   UNL     1       0.008  32.910 -20.958  1.00  0.00     0.006 C 
BRANCH   7   8
ATOM      8  C   UNL     1       0.307  31.917 -19.826  1.00  0.00     0.053 C 
BRANCH   8   9
ATOM      9  C   UNL     1       1.214  32.511 -18.792  1.00  0.00     0.041 C 
ATOM     10  O   UNL     1       0.844  33.516 -18.128  1.00  0.00    -0.550 OA
ATOM     11  O   UNL     1       2.478  31.976 -18.581  1.00  0.00    -0.550 OA
ENDBRANCH   8   9
ENDBRANCH   7   8
ENDBRANCH   6   7
ENDBRANCH   5   6
ENDBRANCH   4   5
ENDBRANCH   3   4
ENDBRANCH   2   3
ENDBRANCH   1   2
BRANCH   1  12
ATOM     12  C   UNL     1      -3.298  27.549 -20.483  1.00  0.00     0.000 C 
BRANCH  12  13
ATOM     13  C   UNL     1      -4.481  26.618 -20.154  1.00  0.00    -0.000 C 
BRANCH  13  14
ATOM     14  C   UNL     1      -5.873  27.272 -20.223  1.00  0.00    -0.000 C 
BRANCH  14  15
ATOM     15  C   UNL     1      -6.485  27.531 -18.836  1.00  0.00    -0.000 C 
BRANCH  15  16
ATOM     16  C   UNL     1      -6.234  28.962 -18.325  1.00  0.00    -0.000 C 
BRANCH  16  17
ATOM     17  C   UNL     1      -6.591  30.088 -19.314  1.00  0.00    -0.000 C 
BRANCH  17  18
ATOM     18  C   UNL     1      -6.725  31.462 -18.637  1.00  0.00    -0.000 C 
BRANCH  18  19
ATOM     19  C   UNL     1      -6.656  32.623 -19.642  1.00  0.00    -0.003 C 
ATOM     20  C   UNL     1      -6.269  33.950 -18.990  1.00  0.00     0.004 C 
ENDBRANCH  18  19
ENDBRANCH  17  18
ENDBRANCH  16  17
ENDBRANCH  15  16
ENDBRANCH  14  15
ENDBRANCH  13  14
ENDBRANCH  12  13
ENDBRANCH   1  12
TORSDOF 16
ENDMDL
MODEL 7
REMARK VINA RESULT:    -4.780      6.861      9.575
REMARK INTER + INTRA:         -10.437
REMARK INTER:                  -8.290
REMARK INTRA:                  -2.147
REMARK UNBOUND:                -1.186
REMARK SMILES CCCCCCCCCCCCCCCCCC(=O)[O-]
REMARK SMILES IDX 10 1 11 2 12 3 13 4 14 5 15 6 16 7 17 8 18 9 19 10 20 11
REMARK SMILES IDX 9 12 8 13 7 14 6 15 5 16 4 17 3 18 2 19 1 20
REMARK H PARENT
REMARK Flexibility Score: inf
ROOT
ATOM      1  C   UNL     1      -5.847  27.409 -19.640  1.00  0.00     0.000 C 
ENDROOT
BRANCH   1   2
ATOM      2  C   UNL     1      -6.693  28.203 -18.637  1.00  0.00     0.000 C 
BRANCH   2   3
ATOM      3  C   UNL     1      -6.000  29.522 -18.258  1.00  0.00     0.000 C 
BRANCH   3   4
ATOM      4  C   UNL     1      -6.953  30.727 -18.302  1.00  0.00     0.000 C 
BRANCH   4   5
ATOM      5  C   UNL     1      -6.818  31.539 -19.601  1.00  0.00     0.000 C 
BRANCH   5   6
ATOM      6  C   UNL     1      -5.905  32.765 -19.437  1.00  0.00     0.000 C 
BRANCH   6   7
ATOM      7  C   UNL     1      -6.693  34.083 -19.342  1.00  0.00     0.006 C 
BRANCH   7   8
ATOM      8  C   UNL     1      -7.032  34.451 -17.891  1.00  0.00     0.053 C 
BRANCH   8   9
ATOM      9  C   UNL     1      -7.702  35.788 -17.799  1.00  0.00     0.041 C 
ATOM     10  O   UNL     1      -7.096  36.828 -18.169  1.00  0.00    -0.550 OA
ATOM     11  O   UNL     1      -8.985  35.890 -17.275  1.00  0.00    -0.550 OA
ENDBRANCH   8   9
ENDBRANCH   7   8
ENDBRANCH   6   7
ENDBRANCH   5   6
ENDBRANCH   4   5
ENDBRANCH   3   4
ENDBRANCH   2   3
ENDBRANCH   1   2
BRANCH   1  12
ATOM     12  C   UNL     1      -5.707  28.168 -20.967  1.00  0.00     0.000 C 
BRANCH  12  13
ATOM     13  C   UNL     1      -4.240  28.411 -21.371  1.00  0.00    -0.000 C 
BRANCH  13  14
ATOM     14  C   UNL     1      -3.193  28.023 -20.311  1.00  0.00    -0.000 C 
BRANCH  14  15
ATOM     15  C   UNL     1      -2.600  29.238 -19.579  1.00  0.00    -0.000 C 
BRANCH  15  16
ATOM     16  C   UNL     1      -3.040  30.582 -20.189  1.00  0.00    -0.000 C 
BRANCH  16  17
ATOM     17  C   UNL     1      -2.038  31.741 -20.025  1.00  0.00    -0.000 C 
BRANCH  17  18
ATOM     18  C   UNL     1      -1.775  32.498 -21.337  1.00  0.00    -0.000 C 
BRANCH  18  19
ATOM     19  C   UNL     1      -3.066  33.033 -21.977  1.00  0.00    -0.003 C 
ATOM     20  C   UNL     1      -3.410  34.451 -21.523  1.00  0.00     0.004 C 
ENDBRANCH  18  19
ENDBRANCH  17  18
ENDBRANCH  16  17
ENDBRANCH  15  16
ENDBRANCH  14  15
ENDBRANCH  13  14
ENDBRANCH  12  13
ENDBRANCH   1  12
TORSDOF 16
ENDMDL
MODEL 8
REMARK VINA RESULT:    -4.771      6.092      8.789
REMARK INTER + INTRA:         -10.420
REMARK INTER:                  -8.757
REMARK INTRA:                  -1.663
REMARK UNBOUND:                -1.186
REMARK SMILES CCCCCCCCCCCCCCCCCC(=O)[O-]
REMARK SMILES IDX 10 1 11 2 12 3 13 4 14 5 15 6 16 7 17 8 18 9 19 10 20 11
REMARK SMILES IDX 9 12 8 13 7 14 6 15 5 16 4 17 3 18 2 19 1 20
REMARK H PARENT
REMARK Flexibility Score: inf
ROOT
ATOM      1  C   UNL     1      -2.824  30.190 -19.879  1.00  0.00     0.000 C 
ENDROOT
BRANCH   1   2
ATOM      2  C   UNL     1      -2.456  28.772 -19.427  1.00  0.00     0.000 C 
BRANCH   2   3
ATOM      3  C   UNL     1      -3.302  27.723 -20.167  1.00  0.00     0.000 C 
BRANCH   3   4
ATOM      4  C   UNL     1      -4.184  28.339 -21.265  1.00  0.00     0.000 C 
BRANCH   4   5
ATOM      5  C   UNL     1      -5.685  28.223 -20.952  1.00  0.00     0.000 C 
BRANCH   5   6
ATOM      6  C   UNL     1      -5.953  27.595 -19.575  1.00  0.00     0.000 C 
BRANCH   6   7
ATOM      7  C   UNL     1      -6.481  28.615 -18.550  1.00  0.00     0.006 C 
BRANCH   7   8
ATOM      8  C   UNL     1      -6.561  30.032 -19.133  1.00  0.00     0.053 C 
BRANCH   8   9
ATOM      9  C   UNL     1      -6.917  31.044 -18.086  1.00  0.00     0.041 C 
ATOM     10  O   UNL     1      -6.906  32.272 -18.363  1.00  0.00    -0.550 OA
ATOM     11  O   UNL     1      -7.230  30.632 -16.797  1.00  0.00    -0.550 OA
ENDBRANCH   8   9
ENDBRANCH   7   8
ENDBRANCH   6   7
ENDBRANCH   5   6
ENDBRANCH   4   5
ENDBRANCH   3   4
ENDBRANCH   2   3
ENDBRANCH   1   2
BRANCH   1  12
ATOM     12  C   UNL     1      -1.590  31.104 -19.890  1.00  0.00     0.000 C 
BRANCH  12  13
ATOM     13  C   UNL     1      -1.944  32.594 -20.055  1.00  0.00    -0.000 C 
BRANCH  13  14
ATOM     14  C   UNL     1      -2.402  33.009 -21.465  1.00  0.00    -0.000 C 
BRANCH  14  15
ATOM     15  C   UNL     1      -1.237  33.149 -22.459  1.00  0.00    -0.000 C 
BRANCH  15  16
ATOM     16  C   UNL     1       0.044  33.704 -21.809  1.00  0.00    -0.000 C 
BRANCH  16  17
ATOM     17  C   UNL     1       1.354  33.013 -22.236  1.00  0.00    -0.000 C 
BRANCH  17  18
ATOM     18  C   UNL     1       1.849  31.978 -21.212  1.00  0.00    -0.000 C 
BRANCH  18  19
ATOM     19  C   UNL     1       2.666  32.617 -20.077  1.00  0.00    -0.003 C 
ATOM     20  C   UNL     1       2.220  32.154 -18.691  1.00  0.00     0.004 C 
ENDBRANCH  18  19
ENDBRANCH  17  18
ENDBRANCH  16  17
ENDBRANCH  15  16
ENDBRANCH  14  15
ENDBRANCH  13  14
ENDBRANCH  12  13
ENDBRANCH   1  12
TORSDOF 16
ENDMDL
MODEL 9
REMARK VINA RESULT:    -4.693      7.109      9.895
REMARK INTER + INTRA:         -10.269
REMARK INTER:                  -8.177
REMARK INTRA:                  -2.093
REMARK UNBOUND:                -1.186
REMARK SMILES CCCCCCCCCCCCCCCCCC(=O)[O-]
REMARK SMILES IDX 10 1 11 2 12 3 13 4 14 5 15 6 16 7 17 8 18 9 19 10 20 11
REMARK SMILES IDX 9 12 8 13 7 14 6 15 5 16 4 17 3 18 2 19 1 20
REMARK H PARENT
REMARK Flexibility Score: inf
ROOT
ATOM      1  C   UNL     1      -3.768  26.627 -20.098  1.00  0.00     0.000 C 
ENDROOT
BRANCH   1   2
ATOM      2  C   UNL     1      -3.286  27.965 -20.671  1.00  0.00     0.000 C 
BRANCH   2   3
ATOM      3  C   UNL     1      -2.589  28.806 -19.590  1.00  0.00     0.000 C 
BRANCH   3   4
ATOM      4  C   UNL     1      -2.852  30.312 -19.749  1.00  0.00     0.000 C 
BRANCH   4   5
ATOM      5  C   UNL     1      -3.314  30.685 -21.168  1.00  0.00     0.000 C 
BRANCH   5   6
ATOM      6  C   UNL     1      -2.928  32.121 -21.556  1.00  0.00     0.000 C 
BRANCH   6   7
ATOM      7  C   UNL     1      -1.628  32.590 -20.880  1.00  0.00     0.006 C 
BRANCH   7   8
ATOM      8  C   UNL     1      -1.009  33.800 -21.593  1.00  0.00     0.053 C 
BRANCH   8   9
ATOM      9  C   UNL     1      -0.167  33.386 -22.762  1.00  0.00     0.041 C 
ATOM     10  O   UNL     1      -0.640  33.426 -23.928  1.00  0.00    -0.550 OA
ATOM     11  O   UNL     1       1.128  32.926 -22.560  1.00  0.00    -0.550 OA
ENDBRANCH   8   9
ENDBRANCH   7   8
ENDBRANCH   6   7
ENDBRANCH   5   6
ENDBRANCH   4   5
ENDBRANCH   3   4
ENDBRANCH   2   3
ENDBRANCH   1   2
BRANCH   1  12
ATOM     12  C   UNL     1      -5.300  26.527 -20.145  1.00  0.00     0.000 C 
BRANCH  12  13
ATOM     13  C   UNL     1      -5.995  27.900 -20.071  1.00  0.00    -0.000 C 
BRANCH  13  14
ATOM     14  C   UNL     1      -6.345  28.386 -18.653  1.00  0.00    -0.000 C 
BRANCH  14  15
ATOM     15  C   UNL     1      -6.406  29.918 -18.541  1.00  0.00    -0.000 C 
BRANCH  15  16
ATOM     16  C   UNL     1      -6.774  30.605 -19.870  1.00  0.00    -0.000 C 
BRANCH  16  17
ATOM     17  C   UNL     1      -6.285  32.057 -20.021  1.00  0.00    -0.000 C 
BRANCH  17  18
ATOM     18  C   UNL     1      -6.741  32.969 -18.869  1.00  0.00    -0.000 C 
BRANCH  18  19
ATOM     19  C   UNL     1      -6.461  34.454 -19.147  1.00  0.00    -0.003 C 
ATOM     20  C   UNL     1      -5.604  34.672 -20.394  1.00  0.00     0.004 C 
ENDBRANCH  18  19
ENDBRANCH  17  18
ENDBRANCH  16  17
ENDBRANCH  15  16
ENDBRANCH  14  15
ENDBRANCH  13  14
ENDBRANCH  12  13
ENDBRANCH   1  12
TORSDOF 16
ENDMDL
