MODEL 1
REMARK VINA RESULT:    -8.428      0.000      0.000
REMARK INTER + INTRA:         -10.196
REMARK INTER:                  -9.907
REMARK INTRA:                  -0.289
REMARK UNBOUND:                -0.289
REMARK SMILES O=c1cc(-c2ccc(O)c(O)c2)oc2cc(O)cc(O)c12
REMARK SMILES IDX 4 1 3 2 2 3 1 4 21 5 19 6 18 7 16 8 15 9 14 10 13 11 5 12
REMARK SMILES IDX 6 13 7 14 8 15 12 16 10 17 9 18 11 20 20 22 17 24
REMARK H PARENT 9 19 11 21 20 23 17 25
REMARK Flexibility Score: inf
ROOT
ATOM      1  C   UNL     1      11.431  55.000   3.151  1.00  0.00     0.138 A 
ATOM      2  C   UNL     1      10.122  54.629   3.486  1.00  0.00     0.100 A 
ATOM      3  C   UNL     1       9.702  54.708   4.815  1.00  0.00     0.197 A 
ATOM      4  O   UNL     1       8.540  54.316   5.094  1.00  0.00    -0.289 OA
ATOM      5  C   UNL     1      10.588  55.196   5.806  1.00  0.00     0.107 A 
ATOM      6  C   UNL     1      10.259  55.353   7.186  1.00  0.00     0.134 A 
ATOM      7  C   UNL     1      11.251  55.753   8.091  1.00  0.00     0.093 A 
ATOM      8  C   UNL     1      12.543  56.056   7.656  1.00  0.00     0.123 A 
ATOM      9  C   UNL     1      12.861  55.954   6.304  1.00  0.00     0.094 A 
ATOM     10  C   UNL     1      11.903  55.525   5.382  1.00  0.00     0.146 A 
ATOM     11  O   UNL     1      12.253  55.425   4.104  1.00  0.00    -0.456 OA
ENDROOT
BRANCH   1  12
ATOM     12  C   UNL     1      11.930  54.939   1.753  1.00  0.00     0.021 A 
ATOM     13  C   UNL     1      13.302  54.856   1.459  1.00  0.00     0.016 A 
ATOM     14  C   UNL     1      13.741  54.811   0.135  1.00  0.00     0.051 A 
ATOM     15  C   UNL     1      12.828  54.854  -0.924  1.00  0.00     0.157 A 
ATOM     16  C   UNL     1      11.013  54.996   0.689  1.00  0.00     0.062 A 
ATOM     17  C   UNL     1      11.445  54.950  -0.643  1.00  0.00     0.158 A 
BRANCH  15  18
ATOM     18  O   UNL     1      13.333  54.802  -2.224  1.00  0.00    -0.504 OA
ATOM     19  H   UNL     1      14.092  55.379  -2.559  1.00  0.00     0.293 HD
ENDBRANCH  15  18
BRANCH  17  20
ATOM     20  O   UNL     1      10.474  55.003  -1.646  1.00  0.00    -0.504 OA
ATOM     21  H   UNL     1      10.168  54.201  -2.177  1.00  0.00     0.293 HD
ENDBRANCH  17  20
ENDBRANCH   1  12
BRANCH   6  22
ATOM     22  O   UNL     1       8.980  55.154   7.714  1.00  0.00    -0.507 OA
ATOM     23  H   UNL     1       8.735  54.448   8.390  1.00  0.00     0.293 HD
ENDBRANCH   6  22
BRANCH   8  24
ATOM     24  O   UNL     1      13.519  56.467   8.562  1.00  0.00    -0.508 OA
ATOM     25  H   UNL     1      14.333  56.991   8.262  1.00  0.00     0.293 HD
ENDBRANCH   8  24
TORSDOF 5
ENDMDL
MODEL 2
REMARK VINA RESULT:    -7.712      1.168      2.786
REMARK INTER + INTRA:          -9.354
REMARK INTER:                  -9.058
REMARK INTRA:                  -0.296
REMARK UNBOUND:                -0.289
REMARK SMILES O=c1cc(-c2ccc(O)c(O)c2)oc2cc(O)cc(O)c12
REMARK SMILES IDX 4 1 3 2 2 3 1 4 21 5 19 6 18 7 16 8 15 9 14 10 13 11 5 12
REMARK SMILES IDX 6 13 7 14 8 15 12 16 10 17 9 18 11 20 20 22 17 24
REMARK H PARENT 9 19 11 21 20 23 17 25
REMARK Flexibility Score: inf
ROOT
ATOM      1  C   UNL     1      12.905  55.459   2.991  1.00  0.00     0.138 A 
ATOM      2  C   UNL     1      13.990  56.064   3.640  1.00  0.00     0.100 A 
ATOM      3  C   UNL     1      13.914  56.333   5.007  1.00  0.00     0.197 A 
ATOM      4  O   UNL     1      14.881  56.927   5.549  1.00  0.00    -0.289 OA
ATOM      5  C   UNL     1      12.758  55.959   5.736  1.00  0.00     0.107 A 
ATOM      6  C   UNL     1      12.583  56.152   7.139  1.00  0.00     0.134 A 
ATOM      7  C   UNL     1      11.354  55.831   7.731  1.00  0.00     0.093 A 
ATOM      8  C   UNL     1      10.317  55.271   6.982  1.00  0.00     0.123 A 
ATOM      9  C   UNL     1      10.496  55.033   5.621  1.00  0.00     0.094 A 
ATOM     10  C   UNL     1      11.697  55.375   4.994  1.00  0.00     0.146 A 
ATOM     11  O   UNL     1      11.820  55.147   3.690  1.00  0.00    -0.456 OA
ENDROOT
BRANCH   1  12
ATOM     12  C   UNL     1      12.933  55.147   1.539  1.00  0.00     0.021 A 
ATOM     13  C   UNL     1      14.082  54.632   0.915  1.00  0.00     0.016 A 
ATOM     14  C   UNL     1      14.082  54.358  -0.454  1.00  0.00     0.051 A 
ATOM     15  C   UNL     1      12.944  54.599  -1.231  1.00  0.00     0.157 A 
ATOM     16  C   UNL     1      11.795  55.402   0.756  1.00  0.00     0.062 A 
ATOM     17  C   UNL     1      11.786  55.130  -0.618  1.00  0.00     0.158 A 
BRANCH  15  18
ATOM     18  O   UNL     1      13.010  54.301  -2.593  1.00  0.00    -0.504 OA
ATOM     19  H   UNL     1      13.821  53.904  -3.046  1.00  0.00     0.293 HD
ENDBRANCH  15  18
BRANCH  17  20
ATOM     20  O   UNL     1      10.614  55.401  -1.329  1.00  0.00    -0.504 OA
ATOM     21  H   UNL     1       9.982  56.157  -1.108  1.00  0.00     0.293 HD
ENDBRANCH  17  20
ENDBRANCH   1  12
BRANCH   6  22
ATOM     22  O   UNL     1      13.580  56.629   7.995  1.00  0.00    -0.507 OA
ATOM     23  H   UNL     1      13.421  57.206   8.806  1.00  0.00     0.293 HD
ENDBRANCH   6  22
BRANCH   8  24
ATOM     24  O   UNL     1       9.104  54.942   7.583  1.00  0.00    -0.508 OA
ATOM     25  H   UNL     1       8.254  55.453   7.376  1.00  0.00     0.293 HD
ENDBRANCH   8  24
TORSDOF 5
ENDMDL
MODEL 3
REMARK VINA RESULT:    -7.568      5.352     10.130
REMARK INTER + INTRA:          -9.185
REMARK INTER:                  -8.915
REMARK INTRA:                  -0.270
REMARK UNBOUND:                -0.289
REMARK SMILES O=c1cc(-c2ccc(O)c(O)c2)oc2cc(O)cc(O)c12
REMARK SMILES IDX 4 1 3 2 2 3 1 4 21 5 19 6 18 7 16 8 15 9 14 10 13 11 5 12
REMARK SMILES IDX 6 13 7 14 8 15 12 16 10 17 9 18 11 20 20 22 17 24
REMARK H PARENT 9 19 11 21 20 23 17 25
REMARK Flexibility Score: inf
ROOT
ATOM      1  C   UNL     1      14.568  53.235  -2.373  1.00  0.00     0.138 A 
ATOM      2  C   UNL     1      14.835  54.109  -3.435  1.00  0.00     0.100 A 
ATOM      3  C   UNL     1      14.426  53.770  -4.726  1.00  0.00     0.197 A 
ATOM      4  O   UNL     1      14.729  54.548  -5.667  1.00  0.00    -0.289 OA
ATOM      5  C   UNL     1      13.713  52.566  -4.946  1.00  0.00     0.107 A 
ATOM      6  C   UNL     1      13.216  52.134  -6.212  1.00  0.00     0.134 A 
ATOM      7  C   UNL     1      12.611  50.875  -6.323  1.00  0.00     0.093 A 
ATOM      8  C   UNL     1      12.433  50.060  -5.203  1.00  0.00     0.123 A 
ATOM      9  C   UNL     1      12.870  50.494  -3.954  1.00  0.00     0.094 A 
ATOM     10  C   UNL     1      13.509  51.729  -3.817  1.00  0.00     0.146 A 
ATOM     11  O   UNL     1      13.926  52.097  -2.610  1.00  0.00    -0.456 OA
ENDROOT
BRANCH   1  12
ATOM     12  C   UNL     1      14.978  53.547  -0.979  1.00  0.00     0.021 A 
ATOM     13  C   UNL     1      14.242  54.431  -0.172  1.00  0.00     0.016 A 
ATOM     14  C   UNL     1      14.658  54.713   1.131  1.00  0.00     0.051 A 
ATOM     15  C   UNL     1      15.816  54.128   1.654  1.00  0.00     0.157 A 
ATOM     16  C   UNL     1      16.149  52.970  -0.458  1.00  0.00     0.062 A 
ATOM     17  C   UNL     1      16.573  53.247   0.848  1.00  0.00     0.158 A 
BRANCH  15  18
ATOM     18  O   UNL     1      16.174  54.450   2.965  1.00  0.00    -0.504 OA
ATOM     19  H   UNL     1      15.624  55.042   3.572  1.00  0.00     0.293 HD
ENDBRANCH  15  18
BRANCH  17  20
ATOM     20  O   UNL     1      17.742  52.629   1.299  1.00  0.00    -0.504 OA
ATOM     21  H   UNL     1      18.561  52.485   0.727  1.00  0.00     0.293 HD
ENDBRANCH  17  20
ENDBRANCH   1  12
BRANCH   6  22
ATOM     22  O   UNL     1      13.269  52.903  -7.379  1.00  0.00    -0.507 OA
ATOM     23  H   UNL     1      14.100  53.336  -7.751  1.00  0.00     0.293 HD
ENDBRANCH   6  22
BRANCH   8  24
ATOM     24  O   UNL     1      11.817  48.816  -5.321  1.00  0.00    -0.508 OA
ATOM     25  H   UNL     1      12.225  47.982  -4.916  1.00  0.00     0.293 HD
ENDBRANCH   8  24
TORSDOF 5
ENDMDL
MODEL 4
REMARK VINA RESULT:    -7.525      3.170      4.388
REMARK INTER + INTRA:          -9.134
REMARK INTER:                  -8.869
REMARK INTRA:                  -0.265
REMARK UNBOUND:                -0.289
REMARK SMILES O=c1cc(-c2ccc(O)c(O)c2)oc2cc(O)cc(O)c12
REMARK SMILES IDX 4 1 3 2 2 3 1 4 21 5 19 6 18 7 16 8 15 9 14 10 13 11 5 12
REMARK SMILES IDX 6 13 7 14 8 15 12 16 10 17 9 18 11 20 20 22 17 24
REMARK H PARENT 9 19 11 21 20 23 17 25
REMARK Flexibility Score: inf
ROOT
ATOM      1  C   UNL     1      13.642  57.483   3.876  1.00  0.00     0.138 A 
ATOM      2  C   UNL     1      14.420  57.557   5.040  1.00  0.00     0.100 A 
ATOM      3  C   UNL     1      13.958  56.967   6.217  1.00  0.00     0.197 A 
ATOM      4  O   UNL     1      14.651  57.098   7.258  1.00  0.00    -0.289 OA
ATOM      5  C   UNL     1      12.726  56.267   6.218  1.00  0.00     0.107 A 
ATOM      6  C   UNL     1      12.172  55.597   7.350  1.00  0.00     0.134 A 
ATOM      7  C   UNL     1      10.898  55.022   7.256  1.00  0.00     0.093 A 
ATOM      8  C   UNL     1      10.185  55.042   6.055  1.00  0.00     0.123 A 
ATOM      9  C   UNL     1      10.739  55.650   4.931  1.00  0.00     0.094 A 
ATOM     10  C   UNL     1      11.992  56.263   5.002  1.00  0.00     0.146 A 
ATOM     11  O   UNL     1      12.476  56.847   3.911  1.00  0.00    -0.456 OA
ENDROOT
BRANCH   1  12
ATOM     12  C   UNL     1      14.087  58.090   2.596  1.00  0.00     0.021 A 
ATOM     13  C   UNL     1      14.993  57.437   1.742  1.00  0.00     0.016 A 
ATOM     14  C   UNL     1      15.401  58.037   0.549  1.00  0.00     0.051 A 
ATOM     15  C   UNL     1      14.923  59.301   0.185  1.00  0.00     0.157 A 
ATOM     16  C   UNL     1      13.618  59.365   2.236  1.00  0.00     0.062 A 
ATOM     17  C   UNL     1      14.021  59.974   1.041  1.00  0.00     0.158 A 
BRANCH  15  18
ATOM     18  O   UNL     1      15.368  59.843  -1.022  1.00  0.00    -0.504 OA
ATOM     19  H   UNL     1      16.080  60.557  -1.092  1.00  0.00     0.293 HD
ENDBRANCH  15  18
BRANCH  17  20
ATOM     20  O   UNL     1      13.506  61.239   0.747  1.00  0.00    -0.504 OA
ATOM     21  H   UNL     1      12.555  61.406   0.453  1.00  0.00     0.293 HD
ENDBRANCH  17  20
ENDBRANCH   1  12
BRANCH   6  22
ATOM     22  O   UNL     1      12.832  55.448   8.574  1.00  0.00    -0.507 OA
ATOM     23  H   UNL     1      13.832  55.448   8.697  1.00  0.00     0.293 HD
ENDBRANCH   6  22
BRANCH   8  24
ATOM     24  O   UNL     1       8.925  54.454   5.967  1.00  0.00    -0.508 OA
ATOM     25  H   UNL     1       8.264  54.723   5.248  1.00  0.00     0.293 HD
ENDBRANCH   8  24
TORSDOF 5
ENDMDL
MODEL 5
REMARK VINA RESULT:    -7.481      4.143      7.257
REMARK INTER + INTRA:          -9.082
REMARK INTER:                  -8.819
REMARK INTRA:                  -0.264
REMARK UNBOUND:                -0.289
REMARK SMILES O=c1cc(-c2ccc(O)c(O)c2)oc2cc(O)cc(O)c12
REMARK SMILES IDX 4 1 3 2 2 3 1 4 21 5 19 6 18 7 16 8 15 9 14 10 13 11 5 12
REMARK SMILES IDX 6 13 7 14 8 15 12 16 10 17 9 18 11 20 20 22 17 24
REMARK H PARENT 9 19 11 21 20 23 17 25
REMARK Flexibility Score: inf
ROOT
ATOM      1  C   UNL     1      13.671  53.138  -2.891  1.00  0.00     0.138 A 
ATOM      2  C   UNL     1      14.955  53.146  -2.330  1.00  0.00     0.100 A 
ATOM      3  C   UNL     1      15.153  53.711  -1.069  1.00  0.00     0.197 A 
ATOM      4  O   UNL     1      16.326  53.754  -0.616  1.00  0.00    -0.289 OA
ATOM      5  C   UNL     1      14.051  54.238  -0.352  1.00  0.00     0.107 A 
ATOM      6  C   UNL     1      14.127  54.807   0.954  1.00  0.00     0.134 A 
ATOM      7  C   UNL     1      12.985  55.385   1.523  1.00  0.00     0.093 A 
ATOM      8  C   UNL     1      11.758  55.363   0.856  1.00  0.00     0.123 A 
ATOM      9  C   UNL     1      11.662  54.765  -0.398  1.00  0.00     0.094 A 
ATOM     10  C   UNL     1      12.791  54.211  -1.007  1.00  0.00     0.146 A 
ATOM     11  O   UNL     1      12.659  53.666  -2.212  1.00  0.00    -0.456 OA
ENDROOT
BRANCH   1  12
ATOM     12  C   UNL     1      13.403  52.548  -4.228  1.00  0.00     0.021 A 
ATOM     13  C   UNL     1      13.098  51.184  -4.387  1.00  0.00     0.016 A 
ATOM     14  C   UNL     1      12.862  50.655  -5.657  1.00  0.00     0.051 A 
ATOM     15  C   UNL     1      12.930  51.468  -6.794  1.00  0.00     0.157 A 
ATOM     16  C   UNL     1      13.486  53.360  -5.372  1.00  0.00     0.062 A 
ATOM     17  C   UNL     1      13.248  52.837  -6.649  1.00  0.00     0.158 A 
BRANCH  15  18
ATOM     18  O   UNL     1      12.679  50.876  -8.034  1.00  0.00    -0.504 OA
ATOM     19  H   UNL     1      11.754  50.683  -8.391  1.00  0.00     0.293 HD
ENDBRANCH  15  18
BRANCH  17  20
ATOM     20  O   UNL     1      13.340  53.709  -7.738  1.00  0.00    -0.504 OA
ATOM     21  H   UNL     1      13.217  54.709  -7.671  1.00  0.00     0.293 HD
ENDBRANCH  17  20
ENDBRANCH   1  12
BRANCH   6  22
ATOM     22  O   UNL     1      15.283  54.811   1.742  1.00  0.00    -0.507 OA
ATOM     23  H   UNL     1      15.988  54.092   1.740  1.00  0.00     0.293 HD
ENDBRANCH   6  22
BRANCH   8  24
ATOM     24  O   UNL     1      10.624  55.927   1.436  1.00  0.00    -0.508 OA
ATOM     25  H   UNL     1       9.941  56.432   0.883  1.00  0.00     0.293 HD
ENDBRANCH   8  24
TORSDOF 5
ENDMDL
MODEL 6
REMARK VINA RESULT:    -7.444      7.469      9.487
REMARK INTER + INTRA:          -9.039
REMARK INTER:                  -8.727
REMARK INTRA:                  -0.312
REMARK UNBOUND:                -0.289
REMARK SMILES O=c1cc(-c2ccc(O)c(O)c2)oc2cc(O)cc(O)c12
REMARK SMILES IDX 4 1 3 2 2 3 1 4 21 5 19 6 18 7 16 8 15 9 14 10 13 11 5 12
REMARK SMILES IDX 6 13 7 14 8 15 12 16 10 17 9 18 11 20 20 22 17 24
REMARK H PARENT 9 19 11 21 20 23 17 25
REMARK Flexibility Score: inf
ROOT
ATOM      1  C   UNL     1      13.591  51.992  -4.191  1.00  0.00     0.138 A 
ATOM      2  C   UNL     1      13.682  52.939  -5.219  1.00  0.00     0.100 A 
ATOM      3  C   UNL     1      14.410  54.112  -5.014  1.00  0.00     0.197 A 
ATOM      4  O   UNL     1      14.427  54.968  -5.935  1.00  0.00    -0.289 OA
ATOM      5  C   UNL     1      15.082  54.319  -3.785  1.00  0.00     0.107 A 
ATOM      6  C   UNL     1      15.882  55.459  -3.475  1.00  0.00     0.134 A 
ATOM      7  C   UNL     1      16.417  55.599  -2.188  1.00  0.00     0.093 A 
ATOM      8  C   UNL     1      16.229  54.612  -1.218  1.00  0.00     0.123 A 
ATOM      9  C   UNL     1      15.491  53.471  -1.525  1.00  0.00     0.094 A 
ATOM     10  C   UNL     1      14.915  53.318  -2.789  1.00  0.00     0.146 A 
ATOM     11  O   UNL     1      14.204  52.223  -3.035  1.00  0.00    -0.456 OA
ENDROOT
BRANCH   1  12
ATOM     12  C   UNL     1      12.832  50.726  -4.355  1.00  0.00     0.021 A 
ATOM     13  C   UNL     1      12.534  50.201  -5.625  1.00  0.00     0.016 A 
ATOM     14  C   UNL     1      11.809  49.014  -5.749  1.00  0.00     0.051 A 
ATOM     15  C   UNL     1      11.361  48.329  -4.615  1.00  0.00     0.157 A 
ATOM     16  C   UNL     1      12.369  50.044  -3.217  1.00  0.00     0.062 A 
ATOM     17  C   UNL     1      11.643  48.852  -3.332  1.00  0.00     0.158 A 
BRANCH  15  18
ATOM     18  O   UNL     1      10.645  47.146  -4.808  1.00  0.00    -0.504 OA
ATOM     19  H   UNL     1       9.647  47.062  -4.674  1.00  0.00     0.293 HD
ENDBRANCH  15  18
BRANCH  17  20
ATOM     20  O   UNL     1      11.224  48.227  -2.154  1.00  0.00    -0.504 OA
ATOM     21  H   UNL     1      10.870  48.722  -1.349  1.00  0.00     0.293 HD
ENDBRANCH  17  20
ENDBRANCH   1  12
BRANCH   6  22
ATOM     22  O   UNL     1      16.200  56.465  -4.393  1.00  0.00    -0.507 OA
ATOM     23  H   UNL     1      15.589  56.801  -5.120  1.00  0.00     0.293 HD
ENDBRANCH   6  22
BRANCH   8  24
ATOM     24  O   UNL     1      16.777  54.752   0.055  1.00  0.00    -0.508 OA
ATOM     25  H   UNL     1      17.599  55.322   0.218  1.00  0.00     0.293 HD
ENDBRANCH   8  24
TORSDOF 5
ENDMDL
MODEL 7
REMARK VINA RESULT:    -7.428      2.513      6.689
REMARK INTER + INTRA:          -9.020
REMARK INTER:                  -8.710
REMARK INTRA:                  -0.310
REMARK UNBOUND:                -0.289
REMARK SMILES O=c1cc(-c2ccc(O)c(O)c2)oc2cc(O)cc(O)c12
REMARK SMILES IDX 4 1 3 2 2 3 1 4 21 5 19 6 18 7 16 8 15 9 14 10 13 11 5 12
REMARK SMILES IDX 6 13 7 14 8 15 12 16 10 17 9 18 11 20 20 22 17 24
REMARK H PARENT 9 19 11 21 20 23 17 25
REMARK Flexibility Score: inf
ROOT
ATOM      1  C   UNL     1      12.772  56.635   6.612  1.00  0.00     0.138 A 
ATOM      2  C   UNL     1      11.755  56.042   7.372  1.00  0.00     0.100 A 
ATOM      3  C   UNL     1      10.675  55.438   6.727  1.00  0.00     0.197 A 
ATOM      4  O   UNL     1       9.751  54.963   7.436  1.00  0.00    -0.289 OA
ATOM      5  C   UNL     1      10.633  55.397   5.312  1.00  0.00     0.107 A 
ATOM      6  C   UNL     1       9.599  54.779   4.546  1.00  0.00     0.134 A 
ATOM      7  C   UNL     1       9.616  54.889   3.149  1.00  0.00     0.093 A 
ATOM      8  C   UNL     1      10.658  55.544   2.490  1.00  0.00     0.123 A 
ATOM      9  C   UNL     1      11.697  56.107   3.226  1.00  0.00     0.094 A 
ATOM     10  C   UNL     1      11.692  56.045   4.622  1.00  0.00     0.146 A 
ATOM     11  O   UNL     1      12.694  56.611   5.286  1.00  0.00    -0.456 OA
ENDROOT
BRANCH   1  12
ATOM     12  C   UNL     1      13.946  57.289   7.246  1.00  0.00     0.021 A 
ATOM     13  C   UNL     1      14.371  56.949   8.542  1.00  0.00     0.016 A 
ATOM     14  C   UNL     1      15.472  57.588   9.117  1.00  0.00     0.051 A 
ATOM     15  C   UNL     1      16.167  58.581   8.418  1.00  0.00     0.157 A 
ATOM     16  C   UNL     1      14.635  58.297   6.551  1.00  0.00     0.062 A 
ATOM     17  C   UNL     1      15.741  58.942   7.119  1.00  0.00     0.158 A 
BRANCH  15  18
ATOM     18  O   UNL     1      17.260  59.178   9.049  1.00  0.00    -0.504 OA
ATOM     19  H   UNL     1      17.979  58.665   9.539  1.00  0.00     0.293 HD
ENDBRANCH  15  18
BRANCH  17  20
ATOM     20  O   UNL     1      16.381  59.927   6.363  1.00  0.00    -0.504 OA
ATOM     21  H   UNL     1      16.213  60.081   5.379  1.00  0.00     0.293 HD
ENDBRANCH  17  20
ENDBRANCH   1  12
BRANCH   6  22
ATOM     22  O   UNL     1       8.554  54.032   5.098  1.00  0.00    -0.507 OA
ATOM     23  H   UNL     1       8.112  53.240   4.658  1.00  0.00     0.293 HD
ENDBRANCH   6  22
BRANCH   8  24
ATOM     24  O   UNL     1      10.674  55.634   1.100  1.00  0.00    -0.508 OA
ATOM     25  H   UNL     1       9.831  55.827   0.571  1.00  0.00     0.293 HD
ENDBRANCH   8  24
TORSDOF 5
ENDMDL
MODEL 8
REMARK VINA RESULT:    -7.348      5.247      7.375
REMARK INTER + INTRA:          -8.926
REMARK INTER:                  -8.662
REMARK INTRA:                  -0.264
REMARK UNBOUND:                -0.289
REMARK SMILES O=c1cc(-c2ccc(O)c(O)c2)oc2cc(O)cc(O)c12
REMARK SMILES IDX 4 1 3 2 2 3 1 4 21 5 19 6 18 7 16 8 15 9 14 10 13 11 5 12
REMARK SMILES IDX 6 13 7 14 8 15 12 16 10 17 9 18 11 20 20 22 17 24
REMARK H PARENT 9 19 11 21 20 23 17 25
REMARK Flexibility Score: inf
ROOT
ATOM      1  C   UNL     1      13.712  53.163  -2.909  1.00  0.00     0.138 A 
ATOM      2  C   UNL     1      12.841  54.077  -2.300  1.00  0.00     0.100 A 
ATOM      3  C   UNL     1      13.154  54.595  -1.043  1.00  0.00     0.197 A 
ATOM      4  O   UNL     1      12.327  55.369  -0.497  1.00  0.00    -0.289 OA
ATOM      5  C   UNL     1      14.366  54.224  -0.410  1.00  0.00     0.107 A 
ATOM      6  C   UNL     1      14.807  54.714   0.856  1.00  0.00     0.134 A 
ATOM      7  C   UNL     1      15.977  54.198   1.427  1.00  0.00     0.093 A 
ATOM      8  C   UNL     1      16.752  53.253   0.751  1.00  0.00     0.123 A 
ATOM      9  C   UNL     1      16.357  52.804  -0.507  1.00  0.00     0.094 A 
ATOM     10  C   UNL     1      15.176  53.274  -1.087  1.00  0.00     0.146 A 
ATOM     11  O   UNL     1      14.826  52.807  -2.281  1.00  0.00    -0.456 OA
ENDROOT
BRANCH   1  12
ATOM     12  C   UNL     1      13.429  52.583  -4.247  1.00  0.00     0.021 A 
ATOM     13  C   UNL     1      13.121  51.222  -4.414  1.00  0.00     0.016 A 
ATOM     14  C   UNL     1      12.870  50.703  -5.685  1.00  0.00     0.051 A 
ATOM     15  C   UNL     1      12.928  51.523  -6.817  1.00  0.00     0.157 A 
ATOM     16  C   UNL     1      13.501  53.404  -5.386  1.00  0.00     0.062 A 
ATOM     17  C   UNL     1      13.250  52.891  -6.665  1.00  0.00     0.158 A 
BRANCH  15  18
ATOM     18  O   UNL     1      12.664  50.942  -8.058  1.00  0.00    -0.504 OA
ATOM     19  H   UNL     1      11.774  50.539  -8.315  1.00  0.00     0.293 HD
ENDBRANCH  15  18
BRANCH  17  20
ATOM     20  O   UNL     1      13.332  53.771  -7.748  1.00  0.00    -0.504 OA
ATOM     21  H   UNL     1      13.252  53.487  -8.713  1.00  0.00     0.293 HD
ENDBRANCH  17  20
ENDBRANCH   1  12
BRANCH   6  22
ATOM     22  O   UNL     1      14.152  55.715   1.580  1.00  0.00    -0.507 OA
ATOM     23  H   UNL     1      13.749  55.599   2.496  1.00  0.00     0.293 HD
ENDBRANCH   6  22
BRANCH   8  24
ATOM     24  O   UNL     1      17.923  52.757   1.320  1.00  0.00    -0.508 OA
ATOM     25  H   UNL     1      18.069  52.761   2.323  1.00  0.00     0.293 HD
ENDBRANCH   8  24
TORSDOF 5
ENDMDL
MODEL 9
REMARK VINA RESULT:    -7.348      1.567      6.812
REMARK INTER + INTRA:          -8.926
REMARK INTER:                  -8.631
REMARK INTRA:                  -0.294
REMARK UNBOUND:                -0.289
REMARK SMILES O=c1cc(-c2ccc(O)c(O)c2)oc2cc(O)cc(O)c12
REMARK SMILES IDX 4 1 3 2 2 3 1 4 21 5 19 6 18 7 16 8 15 9 14 10 13 11 5 12
REMARK SMILES IDX 6 13 7 14 8 15 12 16 10 17 9 18 11 20 20 22 17 24
REMARK H PARENT 9 19 11 21 20 23 17 25
REMARK Flexibility Score: inf
ROOT
ATOM      1  C   UNL     1      11.663  54.889   2.426  1.00  0.00     0.138 A 
ATOM      2  C   UNL     1      10.978  55.004   1.210  1.00  0.00     0.100 A 
ATOM      3  C   UNL     1      11.685  54.928   0.009  1.00  0.00     0.197 A 
ATOM      4  O   UNL     1      11.050  55.091  -1.065  1.00  0.00    -0.289 OA
ATOM      5  C   UNL     1      13.082  54.698   0.028  1.00  0.00     0.107 A 
ATOM      6  C   UNL     1      13.901  54.568  -1.133  1.00  0.00     0.134 A 
ATOM      7  C   UNL     1      15.289  54.439  -0.988  1.00  0.00     0.093 A 
ATOM      8  C   UNL     1      15.879  54.379   0.276  1.00  0.00     0.123 A 
ATOM      9  C   UNL     1      15.083  54.455   1.416  1.00  0.00     0.094 A 
ATOM     10  C   UNL     1      13.699  54.618   1.305  1.00  0.00     0.146 A 
ATOM     11  O   UNL     1      12.979  54.704   2.418  1.00  0.00    -0.456 OA
ENDROOT
BRANCH   1  12
ATOM     12  C   UNL     1      10.960  54.959   3.733  1.00  0.00     0.021 A 
ATOM     13  C   UNL     1      11.663  55.019   4.949  1.00  0.00     0.016 A 
ATOM     14  C   UNL     1      10.974  55.073   6.163  1.00  0.00     0.051 A 
ATOM     15  C   UNL     1       9.576  55.062   6.192  1.00  0.00     0.157 A 
ATOM     16  C   UNL     1       9.555  54.933   3.764  1.00  0.00     0.062 A 
ATOM     17  C   UNL     1       8.857  54.989   4.977  1.00  0.00     0.158 A 
BRANCH  15  18
ATOM     18  O   UNL     1       8.949  55.122   7.439  1.00  0.00    -0.504 OA
ATOM     19  H   UNL     1       9.445  55.157   8.319  1.00  0.00     0.293 HD
ENDBRANCH  15  18
BRANCH  17  20
ATOM     20  O   UNL     1       7.461  54.969   4.927  1.00  0.00    -0.504 OA
ATOM     21  H   UNL     1       6.867  55.530   5.520  1.00  0.00     0.293 HD
ENDBRANCH  17  20
ENDBRANCH   1  12
BRANCH   6  22
ATOM     22  O   UNL     1      13.408  54.535  -2.441  1.00  0.00    -0.507 OA
ATOM     23  H   UNL     1      12.645  53.958  -2.759  1.00  0.00     0.293 HD
ENDBRANCH   6  22
BRANCH   8  24
ATOM     24  O   UNL     1      17.258  54.236   0.411  1.00  0.00    -0.508 OA
ATOM     25  H   UNL     1      17.808  53.732  -0.275  1.00  0.00     0.293 HD
ENDBRANCH   8  24
TORSDOF 5
ENDMDL
