MODEL 1
REMARK VINA RESULT:     0.000      0.000      0.000
REMARK INTER + INTRA:          -0.335
REMARK INTER:                   0.000
REMARK INTRA:                  -0.335
REMARK UNBOUND:                -0.335
REMARK SMILES O=c1c(O)c(-c2ccc(O)c(O)c2)oc2cc(O)cc(O)c12
REMARK SMILES IDX 5 1 3 2 2 3 1 4 22 5 20 6 19 7 17 8 16 9 15 10 14 11 6 12
REMARK SMILES IDX 7 13 8 14 9 15 13 16 11 17 10 18 12 20 4 22 21 24 18 26
REMARK H PARENT 10 19 12 21 4 23 21 25 18 27
REMARK Flexibility Score: inf
ROOT
ATOM      1  C   UNL     1      21.901 110.987  89.678  1.00  0.00     0.180 A 
ATOM      2  C   UNL     1      21.745 111.977  90.664  1.00  0.00     0.208 A 
ATOM      3  C   UNL     1      21.212 111.617  91.912  1.00  0.00     0.238 A 
ATOM      4  O   UNL     1      21.125 112.496  92.808  1.00  0.00    -0.285 OA
ATOM      5  C   UNL     1      20.827 110.276  92.153  1.00  0.00     0.111 A 
ATOM      6  C   UNL     1      20.239 109.808  93.366  1.00  0.00     0.134 A 
ATOM      7  C   UNL     1      20.018 108.436  93.542  1.00  0.00     0.093 A 
ATOM      8  C   UNL     1      20.304 107.524  92.523  1.00  0.00     0.123 A 
ATOM      9  C   UNL     1      20.823 107.979  91.313  1.00  0.00     0.094 A 
ATOM     10  C   UNL     1      21.087 109.336  91.121  1.00  0.00     0.146 A 
ATOM     11  O   UNL     1      21.592 109.726  89.957  1.00  0.00    -0.452 OA
ENDROOT
BRANCH   1  12
ATOM     12  C   UNL     1      22.432 111.294  88.330  1.00  0.00     0.025 A 
ATOM     13  C   UNL     1      21.582 111.678  87.278  1.00  0.00     0.016 A 
ATOM     14  C   UNL     1      22.103 111.940  86.008  1.00  0.00     0.051 A 
ATOM     15  C   UNL     1      23.477 111.810  85.767  1.00  0.00     0.157 A 
ATOM     16  C   UNL     1      23.806 111.146  88.078  1.00  0.00     0.062 A 
ATOM     17  C   UNL     1      24.331 111.408  86.807  1.00  0.00     0.158 A 
BRANCH  15  18
ATOM     18  O   UNL     1      23.994 112.074  84.499  1.00  0.00    -0.504 OA
ATOM     19  H   UNL     1      24.550 111.389  84.001  1.00  0.00     0.293 HD
ENDBRANCH  15  18
BRANCH  17  20
ATOM     20  O   UNL     1      25.702 111.262  86.597  1.00  0.00    -0.504 OA
ATOM     21  H   UNL     1      26.324 110.922  87.320  1.00  0.00     0.293 HD
ENDBRANCH  17  20
ENDBRANCH   1  12
BRANCH   2  22
ATOM     22  O   UNL     1      22.152 113.290  90.412  1.00  0.00    -0.502 OA
ATOM     23  H   UNL     1      22.840 113.520  89.705  1.00  0.00     0.293 HD
ENDBRANCH   2  22
BRANCH   6  24
ATOM     24  O   UNL     1      19.831 110.644  94.410  1.00  0.00    -0.507 OA
ATOM     25  H   UNL     1      19.281 110.348  95.201  1.00  0.00     0.293 HD
ENDBRANCH   6  24
BRANCH   8  26
ATOM     26  O   UNL     1      20.066 106.163  92.700  1.00  0.00    -0.508 OA
ATOM     27  H   UNL     1      19.184 105.740  92.438  1.00  0.00     0.293 HD
ENDBRANCH   8  26
TORSDOF 6
ENDMDL
MODEL 2
REMARK VINA RESULT:     0.000      4.483      7.518
REMARK INTER + INTRA:          -0.335
REMARK INTER:                   0.000
REMARK INTRA:                  -0.335
REMARK UNBOUND:                -0.335
REMARK SMILES O=c1c(O)c(-c2ccc(O)c(O)c2)oc2cc(O)cc(O)c12
REMARK SMILES IDX 5 1 3 2 2 3 1 4 22 5 20 6 19 7 17 8 16 9 15 10 14 11 6 12
REMARK SMILES IDX 7 13 8 14 9 15 13 16 11 17 10 18 12 20 4 22 21 24 18 26
REMARK H PARENT 10 19 12 21 4 23 21 25 18 27
REMARK Flexibility Score: inf
ROOT
ATOM      1  C   UNL     1      19.663 114.516  90.348  1.00  0.00     0.180 A 
ATOM      2  C   UNL     1      18.934 115.715  90.263  1.00  0.00     0.208 A 
ATOM      3  C   UNL     1      19.632 116.932  90.194  1.00  0.00     0.238 A 
ATOM      4  O   UNL     1      18.975 117.998  90.064  1.00  0.00    -0.285 OA
ATOM      5  C   UNL     1      21.047 116.937  90.228  1.00  0.00     0.111 A 
ATOM      6  C   UNL     1      21.854 118.112  90.205  1.00  0.00     0.134 A 
ATOM      7  C   UNL     1      23.247 117.993  90.110  1.00  0.00     0.093 A 
ATOM      8  C   UNL     1      23.863 116.739  90.104  1.00  0.00     0.123 A 
ATOM      9  C   UNL     1      23.086 115.586  90.186  1.00  0.00     0.094 A 
ATOM     10  C   UNL     1      21.693 115.673  90.245  1.00  0.00     0.146 A 
ATOM     11  O   UNL     1      20.990 114.549  90.311  1.00  0.00    -0.452 OA
ENDROOT
BRANCH   1  12
ATOM     12  C   UNL     1      18.999 113.196  90.449  1.00  0.00     0.025 A 
ATOM     13  C   UNL     1      18.661 112.641  91.696  1.00  0.00     0.016 A 
ATOM     14  C   UNL     1      18.056 111.383  91.768  1.00  0.00     0.051 A 
ATOM     15  C   UNL     1      17.793 110.656  90.599  1.00  0.00     0.157 A 
ATOM     16  C   UNL     1      18.753 112.455  89.282  1.00  0.00     0.062 A 
ATOM     17  C   UNL     1      18.147 111.195  89.351  1.00  0.00     0.158 A 
BRANCH  15  18
ATOM     18  O   UNL     1      17.188 109.402  90.674  1.00  0.00    -0.504 OA
ATOM     19  H   UNL     1      16.291 109.221  90.241  1.00  0.00     0.293 HD
ENDBRANCH  15  18
BRANCH  17  20
ATOM     20  O   UNL     1      17.906 110.493  88.170  1.00  0.00    -0.504 OA
ATOM     21  H   UNL     1      17.910 109.482  88.134  1.00  0.00     0.293 HD
ENDBRANCH  17  20
ENDBRANCH   1  12
BRANCH   2  22
ATOM     22  O   UNL     1      17.538 115.687  90.209  1.00  0.00    -0.502 OA
ATOM     23  H   UNL     1      17.024 114.905  89.821  1.00  0.00     0.293 HD
ENDBRANCH   2  22
BRANCH   6  24
ATOM     24  O   UNL     1      21.345 119.411  90.300  1.00  0.00    -0.507 OA
ATOM     25  H   UNL     1      20.549 119.676  90.859  1.00  0.00     0.293 HD
ENDBRANCH   6  24
BRANCH   8  26
ATOM     26  O   UNL     1      25.249 116.629  90.025  1.00  0.00    -0.508 OA
ATOM     27  H   UNL     1      25.739 115.820  90.390  1.00  0.00     0.293 HD
ENDBRANCH   8  26
TORSDOF 6
ENDMDL
MODEL 3
REMARK VINA RESULT:     0.000      3.215      6.853
REMARK INTER + INTRA:          -0.335
REMARK INTER:                   0.000
REMARK INTRA:                  -0.335
REMARK UNBOUND:                -0.335
REMARK SMILES O=c1c(O)c(-c2ccc(O)c(O)c2)oc2cc(O)cc(O)c12
REMARK SMILES IDX 5 1 3 2 2 3 1 4 22 5 20 6 19 7 17 8 16 9 15 10 14 11 6 12
REMARK SMILES IDX 7 13 8 14 9 15 13 16 11 17 10 18 12 20 4 22 21 24 18 26
REMARK H PARENT 10 19 12 21 4 23 21 25 18 27
REMARK Flexibility Score: inf
ROOT
ATOM      1  C   UNL     1      20.483 112.848  89.665  1.00  0.00     0.180 A 
ATOM      2  C   UNL     1      20.135 114.171  89.342  1.00  0.00     0.208 A 
ATOM      3  C   UNL     1      21.135 115.047  88.891  1.00  0.00     0.238 A 
ATOM      4  O   UNL     1      20.808 116.214  88.552  1.00  0.00    -0.285 OA
ATOM      5  C   UNL     1      22.472 114.596  88.785  1.00  0.00     0.111 A 
ATOM      6  C   UNL     1      23.572 115.408  88.378  1.00  0.00     0.134 A 
ATOM      7  C   UNL     1      24.829 114.822  88.182  1.00  0.00     0.093 A 
ATOM      8  C   UNL     1      25.039 113.465  88.443  1.00  0.00     0.123 A 
ATOM      9  C   UNL     1      23.985 112.676  88.897  1.00  0.00     0.094 A 
ATOM     10  C   UNL     1      22.712 113.225  89.067  1.00  0.00     0.146 A 
ATOM     11  O   UNL     1      21.733 112.436  89.492  1.00  0.00    -0.452 OA
ENDROOT
BRANCH   1  12
ATOM     12  C   UNL     1      19.489 111.873  90.171  1.00  0.00     0.025 A 
ATOM     13  C   UNL     1      19.226 111.743  91.546  1.00  0.00     0.016 A 
ATOM     14  C   UNL     1      18.301 110.800  92.001  1.00  0.00     0.051 A 
ATOM     15  C   UNL     1      17.636 109.964  91.094  1.00  0.00     0.157 A 
ATOM     16  C   UNL     1      18.836 111.019  89.267  1.00  0.00     0.062 A 
ATOM     17  C   UNL     1      17.909 110.074  89.720  1.00  0.00     0.158 A 
BRANCH  15  18
ATOM     18  O   UNL     1      16.713 109.025  91.551  1.00  0.00    -0.504 OA
ATOM     19  H   UNL     1      15.741 109.058  91.270  1.00  0.00     0.293 HD
ENDBRANCH  15  18
BRANCH  17  20
ATOM     20  O   UNL     1      17.270 109.252  88.792  1.00  0.00    -0.504 OA
ATOM     21  H   UNL     1      16.971 108.313  89.021  1.00  0.00     0.293 HD
ENDBRANCH  17  20
ENDBRANCH   1  12
BRANCH   2  22
ATOM     22  O   UNL     1      18.805 114.591  89.434  1.00  0.00    -0.502 OA
ATOM     23  H   UNL     1      18.024 113.955  89.315  1.00  0.00     0.293 HD
ENDBRANCH   2  22
BRANCH   6  24
ATOM     24  O   UNL     1      23.491 116.790  88.180  1.00  0.00    -0.507 OA
ATOM     25  H   UNL     1      24.245 117.438  88.347  1.00  0.00     0.293 HD
ENDBRANCH   6  24
BRANCH   8  26
ATOM     26  O   UNL     1      26.296 112.893  88.261  1.00  0.00    -0.508 OA
ATOM     27  H   UNL     1      27.040 113.021  88.937  1.00  0.00     0.293 HD
ENDBRANCH   8  26
TORSDOF 6
ENDMDL
MODEL 4
REMARK VINA RESULT:     0.000      3.685      4.726
REMARK INTER + INTRA:          -0.335
REMARK INTER:                   0.000
REMARK INTRA:                  -0.335
REMARK UNBOUND:                -0.335
REMARK SMILES O=c1c(O)c(-c2ccc(O)c(O)c2)oc2cc(O)cc(O)c12
REMARK SMILES IDX 5 1 3 2 2 3 1 4 22 5 20 6 19 7 17 8 16 9 15 10 14 11 6 12
REMARK SMILES IDX 7 13 8 14 9 15 13 16 11 17 10 18 12 20 4 22 21 24 18 26
REMARK H PARENT 10 19 12 21 4 23 21 25 18 27
REMARK Flexibility Score: inf
ROOT
ATOM      1  C   UNL     1      20.907 113.737  87.884  1.00  0.00     0.180 A 
ATOM      2  C   UNL     1      22.114 113.295  88.453  1.00  0.00     0.208 A 
ATOM      3  C   UNL     1      22.127 112.086  89.168  1.00  0.00     0.238 A 
ATOM      4  O   UNL     1      23.221 111.669  89.629  1.00  0.00    -0.285 OA
ATOM      5  C   UNL     1      20.932 111.344  89.320  1.00  0.00     0.111 A 
ATOM      6  C   UNL     1      20.820 110.128  90.057  1.00  0.00     0.134 A 
ATOM      7  C   UNL     1      19.618 109.411  90.031  1.00  0.00     0.093 A 
ATOM      8  C   UNL     1      18.502 109.901  89.345  1.00  0.00     0.123 A 
ATOM      9  C   UNL     1      18.584 111.117  88.672  1.00  0.00     0.094 A 
ATOM     10  C   UNL     1      19.780 111.837  88.651  1.00  0.00     0.146 A 
ATOM     11  O   UNL     1      19.818 112.986  87.987  1.00  0.00    -0.452 OA
ENDROOT
BRANCH   1  12
ATOM     12  C   UNL     1      20.809 115.013  87.138  1.00  0.00     0.025 A 
ATOM     13  C   UNL     1      20.509 116.221  87.791  1.00  0.00     0.016 A 
ATOM     14  C   UNL     1      20.399 117.408  87.062  1.00  0.00     0.051 A 
ATOM     15  C   UNL     1      20.571 117.405  85.672  1.00  0.00     0.157 A 
ATOM     16  C   UNL     1      20.961 115.010  85.742  1.00  0.00     0.062 A 
ATOM     17  C   UNL     1      20.851 116.198  85.010  1.00  0.00     0.158 A 
BRANCH  15  18
ATOM     18  O   UNL     1      20.462 118.591  84.948  1.00  0.00    -0.504 OA
ATOM     19  H   UNL     1      19.597 119.118  84.923  1.00  0.00     0.293 HD
ENDBRANCH  15  18
BRANCH  17  20
ATOM     20  O   UNL     1      21.021 116.159  83.625  1.00  0.00    -0.504 OA
ATOM     21  H   UNL     1      20.239 116.206  82.986  1.00  0.00     0.293 HD
ENDBRANCH  17  20
ENDBRANCH   1  12
BRANCH   2  22
ATOM     22  O   UNL     1      23.288 114.032  88.274  1.00  0.00    -0.502 OA
ATOM     23  H   UNL     1      23.334 114.842  87.667  1.00  0.00     0.293 HD
ENDBRANCH   2  22
BRANCH   6  24
ATOM     24  O   UNL     1      21.844 109.598  90.848  1.00  0.00    -0.507 OA
ATOM     25  H   UNL     1      22.314 108.724  90.670  1.00  0.00     0.293 HD
ENDBRANCH   6  24
BRANCH   8  26
ATOM     26  O   UNL     1      17.305 109.189  89.337  1.00  0.00    -0.508 OA
ATOM     27  H   UNL     1      16.730 109.128  88.504  1.00  0.00     0.293 HD
ENDBRANCH   8  26
TORSDOF 6
ENDMDL
MODEL 5
REMARK VINA RESULT:     0.000      3.192      3.960
REMARK INTER + INTRA:          -0.335
REMARK INTER:                   0.000
REMARK INTRA:                  -0.335
REMARK UNBOUND:                -0.335
REMARK SMILES O=c1c(O)c(-c2ccc(O)c(O)c2)oc2cc(O)cc(O)c12
REMARK SMILES IDX 5 1 3 2 2 3 1 4 22 5 20 6 19 7 17 8 16 9 15 10 14 11 6 12
REMARK SMILES IDX 7 13 8 14 9 15 13 16 11 17 10 18 12 20 4 22 21 24 18 26
REMARK H PARENT 10 19 12 21 4 23 21 25 18 27
REMARK Flexibility Score: inf
ROOT
ATOM      1  C   UNL     1      23.327 113.771  89.075  1.00  0.00     0.180 A 
ATOM      2  C   UNL     1      24.508 113.817  89.837  1.00  0.00     0.208 A 
ATOM      3  C   UNL     1      24.661 112.924  90.910  1.00  0.00     0.238 A 
ATOM      4  O   UNL     1      25.742 112.934  91.554  1.00  0.00    -0.285 OA
ATOM      5  C   UNL     1      23.626 112.009  91.218  1.00  0.00     0.111 A 
ATOM      6  C   UNL     1      23.657 111.087  92.307  1.00  0.00     0.134 A 
ATOM      7  C   UNL     1      22.635 110.138  92.439  1.00  0.00     0.093 A 
ATOM      8  C   UNL     1      21.550 110.122  91.558  1.00  0.00     0.123 A 
ATOM      9  C   UNL     1      21.481 111.056  90.527  1.00  0.00     0.094 A 
ATOM     10  C   UNL     1      22.503 111.991  90.349  1.00  0.00     0.146 A 
ATOM     11  O   UNL     1      22.404 112.857  89.348  1.00  0.00    -0.452 OA
ENDROOT
BRANCH   1  12
ATOM     12  C   UNL     1      23.082 114.696  87.944  1.00  0.00     0.025 A 
ATOM     13  C   UNL     1      22.463 115.943  88.141  1.00  0.00     0.016 A 
ATOM     14  C   UNL     1      22.220 116.789  87.055  1.00  0.00     0.051 A 
ATOM     15  C   UNL     1      22.580 116.399  85.759  1.00  0.00     0.157 A 
ATOM     16  C   UNL     1      23.423 114.300  86.641  1.00  0.00     0.062 A 
ATOM     17  C   UNL     1      23.182 115.146  85.552  1.00  0.00     0.158 A 
BRANCH  15  18
ATOM     18  O   UNL     1      22.339 117.246  84.678  1.00  0.00    -0.504 OA
ATOM     19  H   UNL     1      21.399 117.524  84.423  1.00  0.00     0.293 HD
ENDBRANCH  15  18
BRANCH  17  20
ATOM     20  O   UNL     1      23.545 114.724  84.273  1.00  0.00    -0.504 OA
ATOM     21  H   UNL     1      22.873 114.337  83.623  1.00  0.00     0.293 HD
ENDBRANCH  17  20
ENDBRANCH   1  12
BRANCH   2  22
ATOM     22  O   UNL     1      25.526 114.714  89.502  1.00  0.00    -0.502 OA
ATOM     23  H   UNL     1      26.144 115.118  90.195  1.00  0.00     0.293 HD
ENDBRANCH   2  22
BRANCH   6  24
ATOM     24  O   UNL     1      24.646 111.079  93.294  1.00  0.00    -0.507 OA
ATOM     25  H   UNL     1      24.780 111.806  93.980  1.00  0.00     0.293 HD
ENDBRANCH   6  24
BRANCH   8  26
ATOM     26  O   UNL     1      20.529 109.185  91.705  1.00  0.00    -0.508 OA
ATOM     27  H   UNL     1      19.815 109.063  90.997  1.00  0.00     0.293 HD
ENDBRANCH   8  26
TORSDOF 6
ENDMDL
MODEL 6
REMARK VINA RESULT:     0.000     10.251     10.998
REMARK INTER + INTRA:          -0.335
REMARK INTER:                   0.000
REMARK INTRA:                  -0.335
REMARK UNBOUND:                -0.335
REMARK SMILES O=c1c(O)c(-c2ccc(O)c(O)c2)oc2cc(O)cc(O)c12
REMARK SMILES IDX 5 1 3 2 2 3 1 4 22 5 20 6 19 7 17 8 16 9 15 10 14 11 6 12
REMARK SMILES IDX 7 13 8 14 9 15 13 16 11 17 10 18 12 20 4 22 21 24 18 26
REMARK H PARENT 10 19 12 21 4 23 21 25 18 27
REMARK Flexibility Score: inf
ROOT
ATOM      1  C   UNL     1      16.002 117.478  95.447  1.00  0.00     0.180 A 
ATOM      2  C   UNL     1      17.171 118.253  95.547  1.00  0.00     0.208 A 
ATOM      3  C   UNL     1      18.133 117.913  96.511  1.00  0.00     0.238 A 
ATOM      4  O   UNL     1      19.201 118.577  96.560  1.00  0.00    -0.285 OA
ATOM      5  C   UNL     1      17.909 116.813  97.373  1.00  0.00     0.111 A 
ATOM      6  C   UNL     1      18.796 116.402  98.412  1.00  0.00     0.134 A 
ATOM      7  C   UNL     1      18.536 115.221  99.118  1.00  0.00     0.093 A 
ATOM      8  C   UNL     1      17.384 114.471  98.865  1.00  0.00     0.123 A 
ATOM      9  C   UNL     1      16.481 114.896  97.894  1.00  0.00     0.094 A 
ATOM     10  C   UNL     1      16.732 116.050  97.149  1.00  0.00     0.146 A 
ATOM     11  O   UNL     1      15.851 116.413  96.225  1.00  0.00    -0.452 OA
ENDROOT
BRANCH   1  12
ATOM     12  C   UNL     1      14.931 117.790  94.473  1.00  0.00     0.025 A 
ATOM     13  C   UNL     1      13.877 118.660  94.799  1.00  0.00     0.016 A 
ATOM     14  C   UNL     1      12.864 118.921  93.872  1.00  0.00     0.051 A 
ATOM     15  C   UNL     1      12.882 118.307  92.612  1.00  0.00     0.157 A 
ATOM     16  C   UNL     1      14.934 117.161  93.217  1.00  0.00     0.062 A 
ATOM     17  C   UNL     1      13.922 117.420  92.286  1.00  0.00     0.158 A 
BRANCH  15  18
ATOM     18  O   UNL     1      11.871 118.570  91.689  1.00  0.00    -0.504 OA
ATOM     19  H   UNL     1      10.893 118.532  91.949  1.00  0.00     0.293 HD
ENDBRANCH  15  18
BRANCH  17  20
ATOM     20  O   UNL     1      13.965 116.787  91.044  1.00  0.00    -0.504 OA
ATOM     21  H   UNL     1      13.285 116.088  90.772  1.00  0.00     0.293 HD
ENDBRANCH  17  20
ENDBRANCH   1  12
BRANCH   2  22
ATOM     22  O   UNL     1      17.383 119.322  94.672  1.00  0.00    -0.502 OA
ATOM     23  H   UNL     1      17.971 120.112  94.910  1.00  0.00     0.293 HD
ENDBRANCH   2  22
BRANCH   6  24
ATOM     24  O   UNL     1      19.925 117.128  98.806  1.00  0.00    -0.507 OA
ATOM     25  H   UNL     1      20.875 116.802  98.719  1.00  0.00     0.293 HD
ENDBRANCH   6  24
BRANCH   8  26
ATOM     26  O   UNL     1      17.124 113.305  99.583  1.00  0.00    -0.508 OA
ATOM     27  H   UNL     1      17.228 112.389  99.162  1.00  0.00     0.293 HD
ENDBRANCH   8  26
TORSDOF 6
ENDMDL
MODEL 7
REMARK VINA RESULT:     0.000      8.274     11.901
REMARK INTER + INTRA:          -0.335
REMARK INTER:                   0.000
REMARK INTRA:                  -0.335
REMARK UNBOUND:                -0.335
REMARK SMILES O=c1c(O)c(-c2ccc(O)c(O)c2)oc2cc(O)cc(O)c12
REMARK SMILES IDX 5 1 3 2 2 3 1 4 22 5 20 6 19 7 17 8 16 9 15 10 14 11 6 12
REMARK SMILES IDX 7 13 8 14 9 15 13 16 11 17 10 18 12 20 4 22 21 24 18 26
REMARK H PARENT 10 19 12 21 4 23 21 25 18 27
REMARK Flexibility Score: inf
ROOT
ATOM      1  C   UNL     1      12.939 109.771  95.216  1.00  0.00     0.180 A 
ATOM      2  C   UNL     1      12.080 108.680  94.997  1.00  0.00     0.208 A 
ATOM      3  C   UNL     1      11.892 108.215  93.685  1.00  0.00     0.238 A 
ATOM      4  O   UNL     1      11.165 107.205  93.501  1.00  0.00    -0.285 OA
ATOM      5  C   UNL     1      12.551 108.856  92.609  1.00  0.00     0.111 A 
ATOM      6  C   UNL     1      12.402 108.496  91.236  1.00  0.00     0.134 A 
ATOM      7  C   UNL     1      13.202 109.114  90.268  1.00  0.00     0.093 A 
ATOM      8  C   UNL     1      14.100 110.127  90.616  1.00  0.00     0.123 A 
ATOM      9  C   UNL     1      14.209 110.528  91.945  1.00  0.00     0.094 A 
ATOM     10  C   UNL     1      13.450 109.905  92.938  1.00  0.00     0.146 A 
ATOM     11  O   UNL     1      13.593 110.309  94.194  1.00  0.00    -0.452 OA
ENDROOT
BRANCH   1  12
ATOM     12  C   UNL     1      13.169 110.334  96.567  1.00  0.00     0.025 A 
ATOM     13  C   UNL     1      12.351 111.354  97.083  1.00  0.00     0.016 A 
ATOM     14  C   UNL     1      12.601 111.886  98.351  1.00  0.00     0.051 A 
ATOM     15  C   UNL     1      13.678 111.417  99.115  1.00  0.00     0.157 A 
ATOM     16  C   UNL     1      14.259 109.882  97.328  1.00  0.00     0.062 A 
ATOM     17  C   UNL     1      14.512 110.412  98.598  1.00  0.00     0.158 A 
BRANCH  15  18
ATOM     18  O   UNL     1      13.924 111.949 100.381  1.00  0.00    -0.504 OA
ATOM     19  H   UNL     1      13.336 111.722 101.174  1.00  0.00     0.293 HD
ENDBRANCH  15  18
BRANCH  17  20
ATOM     20  O   UNL     1      15.596 109.929  99.331  1.00  0.00    -0.504 OA
ATOM     21  H   UNL     1      16.553 110.065  99.029  1.00  0.00     0.293 HD
ENDBRANCH  17  20
ENDBRANCH   1  12
BRANCH   2  22
ATOM     22  O   UNL     1      11.457 108.048  96.076  1.00  0.00    -0.502 OA
ATOM     23  H   UNL     1      10.868 108.546  96.732  1.00  0.00     0.293 HD
ENDBRANCH   2  22
BRANCH   6  24
ATOM     24  O   UNL     1      11.470 107.562  90.771  1.00  0.00    -0.507 OA
ATOM     25  H   UNL     1      10.505 107.521  91.062  1.00  0.00     0.293 HD
ENDBRANCH   6  24
BRANCH   8  26
ATOM     26  O   UNL     1      14.881 110.748  89.644  1.00  0.00    -0.508 OA
ATOM     27  H   UNL     1      15.821 110.431  89.437  1.00  0.00     0.293 HD
ENDBRANCH   8  26
TORSDOF 6
ENDMDL
MODEL 8
REMARK VINA RESULT:     0.000      8.822     12.318
REMARK INTER + INTRA:          -0.335
REMARK INTER:                   0.000
REMARK INTRA:                  -0.335
REMARK UNBOUND:                -0.335
REMARK SMILES O=c1c(O)c(-c2ccc(O)c(O)c2)oc2cc(O)cc(O)c12
REMARK SMILES IDX 5 1 3 2 2 3 1 4 22 5 20 6 19 7 17 8 16 9 15 10 14 11 6 12
REMARK SMILES IDX 7 13 8 14 9 15 13 16 11 17 10 18 12 20 4 22 21 24 18 26
REMARK H PARENT 10 19 12 21 4 23 21 25 18 27
REMARK Flexibility Score: inf
ROOT
ATOM      1  C   UNL     1      11.777 110.920  93.472  1.00  0.00     0.180 A 
ATOM      2  C   UNL     1      11.452 109.617  93.057  1.00  0.00     0.208 A 
ATOM      3  C   UNL     1      11.804 109.209  91.760  1.00  0.00     0.238 A 
ATOM      4  O   UNL     1      11.560 108.024  91.413  1.00  0.00    -0.285 OA
ATOM      5  C   UNL     1      12.461 110.112  90.891  1.00  0.00     0.111 A 
ATOM      6  C   UNL     1      12.828 109.819  89.544  1.00  0.00     0.134 A 
ATOM      7  C   UNL     1      13.591 110.742  88.818  1.00  0.00     0.093 A 
ATOM      8  C   UNL     1      13.943 111.977  89.371  1.00  0.00     0.123 A 
ATOM      9  C   UNL     1      13.538 112.297  90.664  1.00  0.00     0.094 A 
ATOM     10  C   UNL     1      12.808 111.382  91.425  1.00  0.00     0.146 A 
ATOM     11  O   UNL     1      12.451 111.722  92.657  1.00  0.00    -0.452 OA
ENDROOT
BRANCH   1  12
ATOM     12  C   UNL     1      11.416 111.432  94.815  1.00  0.00     0.025 A 
ATOM     13  C   UNL     1      10.184 112.067  95.049  1.00  0.00     0.016 A 
ATOM     14  C   UNL     1       9.875 112.562  96.319  1.00  0.00     0.051 A 
ATOM     15  C   UNL     1      10.796 112.444  97.368  1.00  0.00     0.157 A 
ATOM     16  C   UNL     1      12.344 111.334  95.864  1.00  0.00     0.062 A 
ATOM     17  C   UNL     1      12.038 111.829  97.137  1.00  0.00     0.158 A 
BRANCH  15  18
ATOM     18  O   UNL     1      10.485 112.938  98.634  1.00  0.00    -0.504 OA
ATOM     19  H   UNL     1      11.196 113.060  99.345  1.00  0.00     0.293 HD
ENDBRANCH  15  18
BRANCH  17  20
ATOM     20  O   UNL     1      12.980 111.702  98.158  1.00  0.00    -0.504 OA
ATOM     21  H   UNL     1      13.870 112.182  98.132  1.00  0.00     0.293 HD
ENDBRANCH  17  20
ENDBRANCH   1  12
BRANCH   2  22
ATOM     22  O   UNL     1      10.823 108.734  93.938  1.00  0.00    -0.502 OA
ATOM     23  H   UNL     1       9.941 108.951  94.388  1.00  0.00     0.293 HD
ENDBRANCH   2  22
BRANCH   6  24
ATOM     24  O   UNL     1      12.450 108.655  88.867  1.00  0.00    -0.507 OA
ATOM     25  H   UNL     1      11.522 108.261  88.878  1.00  0.00     0.293 HD
ENDBRANCH   6  24
BRANCH   8  26
ATOM     26  O   UNL     1      14.689 112.897  88.637  1.00  0.00    -0.508 OA
ATOM     27  H   UNL     1      15.698 112.941  88.710  1.00  0.00     0.293 HD
ENDBRANCH   8  26
TORSDOF 6
ENDMDL
MODEL 9
REMARK VINA RESULT:     0.000      6.600      8.908
REMARK INTER + INTRA:          -0.335
REMARK INTER:                   0.000
REMARK INTRA:                  -0.335
REMARK UNBOUND:                -0.335
REMARK SMILES O=c1c(O)c(-c2ccc(O)c(O)c2)oc2cc(O)cc(O)c12
REMARK SMILES IDX 5 1 3 2 2 3 1 4 22 5 20 6 19 7 17 8 16 9 15 10 14 11 6 12
REMARK SMILES IDX 7 13 8 14 9 15 13 16 11 17 10 18 12 20 4 22 21 24 18 26
REMARK H PARENT 10 19 12 21 4 23 21 25 18 27
REMARK Flexibility Score: inf
ROOT
ATOM      1  C   UNL     1      15.717 112.695  95.481  1.00  0.00     0.180 A 
ATOM      2  C   UNL     1      15.663 113.455  96.662  1.00  0.00     0.208 A 
ATOM      3  C   UNL     1      14.636 113.204  97.586  1.00  0.00     0.238 A 
ATOM      4  O   UNL     1      14.624 113.850  98.666  1.00  0.00    -0.285 OA
ATOM      5  C   UNL     1      13.666 112.210  97.310  1.00  0.00     0.111 A 
ATOM      6  C   UNL     1      12.559 111.901  98.155  1.00  0.00     0.134 A 
ATOM      7  C   UNL     1      11.738 110.809  97.846  1.00  0.00     0.093 A 
ATOM      8  C   UNL     1      11.946 110.058  96.686  1.00  0.00     0.123 A 
ATOM      9  C   UNL     1      12.988 110.390  95.824  1.00  0.00     0.094 A 
ATOM     10  C   UNL     1      13.845 111.450  96.124  1.00  0.00     0.146 A 
ATOM     11  O   UNL     1      14.833 111.726  95.281  1.00  0.00    -0.452 OA
ENDROOT
BRANCH   1  12
ATOM     12  C   UNL     1      16.756 112.918  94.448  1.00  0.00     0.025 A 
ATOM     13  C   UNL     1      16.563 113.839  93.404  1.00  0.00     0.016 A 
ATOM     14  C   UNL     1      17.547 114.015  92.427  1.00  0.00     0.051 A 
ATOM     15  C   UNL     1      18.730 113.266  92.471  1.00  0.00     0.157 A 
ATOM     16  C   UNL     1      17.934 112.155  94.476  1.00  0.00     0.062 A 
ATOM     17  C   UNL     1      18.921 112.329  93.500  1.00  0.00     0.158 A 
BRANCH  15  18
ATOM     18  O   UNL     1      19.710 113.445  91.496  1.00  0.00    -0.504 OA
ATOM     19  H   UNL     1      19.867 112.756  90.770  1.00  0.00     0.293 HD
ENDBRANCH  15  18
BRANCH  17  20
ATOM     20  O   UNL     1      20.085 111.562  93.568  1.00  0.00    -0.504 OA
ATOM     21  H   UNL     1      20.460 111.082  92.760  1.00  0.00     0.293 HD
ENDBRANCH  17  20
ENDBRANCH   1  12
BRANCH   2  22
ATOM     22  O   UNL     1      16.643 114.416  96.926  1.00  0.00    -0.502 OA
ATOM     23  H   UNL     1      16.574 115.369  96.589  1.00  0.00     0.293 HD
ENDBRANCH   2  22
BRANCH   6  24
ATOM     24  O   UNL     1      12.209 112.643  99.286  1.00  0.00    -0.507 OA
ATOM     25  H   UNL     1      11.704 113.516  99.266  1.00  0.00     0.293 HD
ENDBRANCH   6  24
BRANCH   8  26
ATOM     26  O   UNL     1      11.114 108.983  96.377  1.00  0.00    -0.508 OA
ATOM     27  H   UNL     1      11.434 108.025  96.454  1.00  0.00     0.293 HD
ENDBRANCH   8  26
TORSDOF 6
ENDMDL
