MODEL 1
REMARK VINA RESULT:    -4.466      0.000      0.000
REMARK INTER + INTRA:         -13.611
REMARK INTER:                  -9.688
REMARK INTRA:                  -3.922
REMARK UNBOUND:                -3.922
REMARK SMILES CCCCCCCCCCCCCCCCCCCCCC(=O)[O-]
REMARK SMILES IDX 12 1 11 2 10 3 9 4 8 5 7 6 6 7 5 8 4 9 3 10 2 11 1 12 13 13
REMARK SMILES IDX 14 14 15 15 16 16 17 17 18 18 19 19 20 20 21 21 22 22 23 23
REMARK SMILES IDX 24 24
REMARK H PARENT
REMARK Flexibility Score: inf
ROOT
ATOM      1  C   UNL     1      14.098 -13.184  37.724  1.00  0.00     0.000 C 
ENDROOT
BRANCH   1   2
ATOM      2  C   UNL     1      12.676 -12.728  38.112  1.00  0.00     0.000 C 
BRANCH   2   3
ATOM      3  C   UNL     1      11.694 -13.894  38.313  1.00  0.00     0.000 C 
BRANCH   3   4
ATOM      4  C   UNL     1      10.827 -13.731  39.572  1.00  0.00    -0.000 C 
BRANCH   4   5
ATOM      5  C   UNL     1      11.036 -14.870  40.582  1.00  0.00    -0.000 C 
BRANCH   5   6
ATOM      6  C   UNL     1      10.754 -16.255  39.975  1.00  0.00    -0.000 C 
BRANCH   6   7
ATOM      7  C   UNL     1      10.909 -17.392  40.999  1.00  0.00    -0.000 C 
BRANCH   7   8
ATOM      8  C   UNL     1      11.754 -18.559  40.464  1.00  0.00    -0.000 C 
BRANCH   8   9
ATOM      9  C   UNL     1      11.343 -18.921  39.029  1.00  0.00    -0.000 C 
BRANCH   9  10
ATOM     10  C   UNL     1      12.536 -19.348  38.159  1.00  0.00    -0.000 C 
BRANCH  10  11
ATOM     11  C   UNL     1      12.469 -18.772  36.737  1.00  0.00    -0.003 C 
ATOM     12  C   UNL     1      11.939 -17.341  36.750  1.00  0.00     0.004 C 
ENDBRANCH  10  11
ENDBRANCH   9  10
ENDBRANCH   8   9
ENDBRANCH   7   8
ENDBRANCH   6   7
ENDBRANCH   5   6
ENDBRANCH   4   5
ENDBRANCH   3   4
ENDBRANCH   2   3
ENDBRANCH   1   2
BRANCH   1  13
ATOM     13  C   UNL     1      15.135 -12.852  38.813  1.00  0.00     0.000 C 
BRANCH  13  14
ATOM     14  C   UNL     1      15.816 -14.108  39.382  1.00  0.00     0.000 C 
BRANCH  14  15
ATOM     15  C   UNL     1      14.845 -14.997  40.177  1.00  0.00     0.000 C 
BRANCH  15  16
ATOM     16  C   UNL     1      14.407 -16.247  39.397  1.00  0.00     0.000 C 
BRANCH  16  17
ATOM     17  C   UNL     1      15.433 -17.390  39.488  1.00  0.00     0.000 C 
BRANCH  17  18
ATOM     18  C   UNL     1      16.138 -17.676  38.149  1.00  0.00     0.000 C 
BRANCH  18  19
ATOM     19  C   UNL     1      15.554 -16.941  36.929  1.00  0.00     0.000 C 
BRANCH  19  20
ATOM     20  C   UNL     1      16.635 -16.440  35.956  1.00  0.00     0.006 C 
BRANCH  20  21
ATOM     21  C   UNL     1      16.474 -14.950  35.628  1.00  0.00     0.053 C 
BRANCH  21  22
ATOM     22  C   UNL     1      17.725 -14.174  35.920  1.00  0.00     0.041 C 
ATOM     23  O   UNL     1      18.128 -13.297  35.110  1.00  0.00    -0.550 OA
ATOM     24  O   UNL     1      18.446 -14.421  37.083  1.00  0.00    -0.550 OA
ENDBRANCH  21  22
ENDBRANCH  20  21
ENDBRANCH  19  20
ENDBRANCH  18  19
ENDBRANCH  17  18
ENDBRANCH  16  17
ENDBRANCH  15  16
ENDBRANCH  14  15
ENDBRANCH  13  14
ENDBRANCH   1  13
TORSDOF 20
ENDMDL
MODEL 2
REMARK VINA RESULT:    -4.380      2.660      6.112
REMARK INTER + INTRA:         -13.424
REMARK INTER:                  -9.796
REMARK INTRA:                  -3.627
REMARK UNBOUND:                -3.922
REMARK SMILES CCCCCCCCCCCCCCCCCCCCCC(=O)[O-]
REMARK SMILES IDX 12 1 11 2 10 3 9 4 8 5 7 6 6 7 5 8 4 9 3 10 2 11 1 12 13 13
REMARK SMILES IDX 14 14 15 15 16 16 17 17 18 18 19 19 20 20 21 21 22 22 23 23
REMARK SMILES IDX 24 24
REMARK H PARENT
REMARK Flexibility Score: inf
ROOT
ATOM      1  C   UNL     1      15.318 -13.043  38.841  1.00  0.00     0.000 C 
ENDROOT
BRANCH   1   2
ATOM      2  C   UNL     1      15.705 -14.264  39.700  1.00  0.00     0.000 C 
BRANCH   2   3
ATOM      3  C   UNL     1      14.647 -15.381  39.687  1.00  0.00     0.000 C 
BRANCH   3   4
ATOM      4  C   UNL     1      15.259 -16.781  39.848  1.00  0.00    -0.000 C 
BRANCH   4   5
ATOM      5  C   UNL     1      15.345 -17.544  38.516  1.00  0.00    -0.000 C 
BRANCH   5   6
ATOM      6  C   UNL     1      14.382 -16.985  37.455  1.00  0.00    -0.000 C 
BRANCH   6   7
ATOM      7  C   UNL     1      15.097 -16.620  36.143  1.00  0.00    -0.000 C 
BRANCH   7   8
ATOM      8  C   UNL     1      16.627 -16.721  36.255  1.00  0.00    -0.000 C 
BRANCH   8   9
ATOM      9  C   UNL     1      17.248 -15.343  36.530  1.00  0.00    -0.000 C 
BRANCH   9  10
ATOM     10  C   UNL     1      16.943 -14.322  35.423  1.00  0.00    -0.000 C 
BRANCH  10  11
ATOM     11  C   UNL     1      18.114 -13.363  35.161  1.00  0.00    -0.003 C 
ATOM     12  C   UNL     1      18.886 -13.770  33.909  1.00  0.00     0.004 C 
ENDBRANCH  10  11
ENDBRANCH   9  10
ENDBRANCH   8   9
ENDBRANCH   7   8
ENDBRANCH   6   7
ENDBRANCH   5   6
ENDBRANCH   4   5
ENDBRANCH   3   4
ENDBRANCH   2   3
ENDBRANCH   1   2
BRANCH   1  13
ATOM     13  C   UNL     1      14.259 -13.388  37.778  1.00  0.00     0.000 C 
BRANCH  13  14
ATOM     14  C   UNL     1      12.888 -12.766  38.088  1.00  0.00     0.000 C 
BRANCH  14  15
ATOM     15  C   UNL     1      11.746 -13.796  38.039  1.00  0.00     0.000 C 
BRANCH  15  16
ATOM     16  C   UNL     1      10.814 -13.710  39.258  1.00  0.00     0.000 C 
BRANCH  16  17
ATOM     17  C   UNL     1      11.013 -14.880  40.237  1.00  0.00     0.000 C 
BRANCH  17  18
ATOM     18  C   UNL     1      11.262 -16.224  39.528  1.00  0.00     0.000 C 
BRANCH  18  19
ATOM     19  C   UNL     1      11.221 -17.465  40.439  1.00  0.00     0.000 C 
BRANCH  19  20
ATOM     20  C   UNL     1      11.970 -18.671  39.845  1.00  0.00     0.006 C 
BRANCH  20  21
ATOM     21  C   UNL     1      11.470 -19.029  38.440  1.00  0.00     0.053 C 
BRANCH  21  22
ATOM     22  C   UNL     1      12.295 -20.113  37.812  1.00  0.00     0.041 C 
ATOM     23  O   UNL     1      13.313 -20.557  38.405  1.00  0.00    -0.550 OA
ATOM     24  O   UNL     1      11.939 -20.631  36.571  1.00  0.00    -0.550 OA
ENDBRANCH  21  22
ENDBRANCH  20  21
ENDBRANCH  19  20
ENDBRANCH  18  19
ENDBRANCH  17  18
ENDBRANCH  16  17
ENDBRANCH  15  16
ENDBRANCH  14  15
ENDBRANCH  13  14
ENDBRANCH   1  13
TORSDOF 20
ENDMDL
MODEL 3
REMARK VINA RESULT:    -4.344     12.567     15.264
REMARK INTER + INTRA:         -13.346
REMARK INTER:                 -11.139
REMARK INTRA:                  -2.207
REMARK UNBOUND:                -3.922
REMARK SMILES CCCCCCCCCCCCCCCCCCCCCC(=O)[O-]
REMARK SMILES IDX 12 1 11 2 10 3 9 4 8 5 7 6 6 7 5 8 4 9 3 10 2 11 1 12 13 13
REMARK SMILES IDX 14 14 15 15 16 16 17 17 18 18 19 19 20 20 21 21 22 22 23 23
REMARK SMILES IDX 24 24
REMARK H PARENT
REMARK Flexibility Score: inf
ROOT
ATOM      1  C   UNL     1      21.360 -20.619  31.708  1.00  0.00     0.000 C 
ENDROOT
BRANCH   1   2
ATOM      2  C   UNL     1      20.001 -21.173  32.184  1.00  0.00     0.000 C 
BRANCH   2   3
ATOM      3  C   UNL     1      20.127 -22.247  33.278  1.00  0.00     0.000 C 
BRANCH   3   4
ATOM      4  C   UNL     1      19.739 -23.649  32.782  1.00  0.00    -0.000 C 
BRANCH   4   5
ATOM      5  C   UNL     1      20.366 -24.768  33.629  1.00  0.00    -0.000 C 
BRANCH   5   6
ATOM      6  C   UNL     1      21.809 -25.089  33.204  1.00  0.00    -0.000 C 
BRANCH   6   7
ATOM      7  C   UNL     1      22.476 -26.131  34.118  1.00  0.00    -0.000 C 
BRANCH   7   8
ATOM      8  C   UNL     1      24.008 -26.130  33.997  1.00  0.00    -0.000 C 
BRANCH   8   9
ATOM      9  C   UNL     1      24.494 -27.331  33.172  1.00  0.00    -0.000 C 
BRANCH   9  10
ATOM     10  C   UNL     1      24.514 -27.045  31.661  1.00  0.00    -0.000 C 
BRANCH  10  11
ATOM     11  C   UNL     1      25.701 -27.708  30.947  1.00  0.00    -0.003 C 
ATOM     12  C   UNL     1      26.942 -26.822  31.009  1.00  0.00     0.004 C 
ENDBRANCH  10  11
ENDBRANCH   9  10
ENDBRANCH   8   9
ENDBRANCH   7   8
ENDBRANCH   6   7
ENDBRANCH   5   6
ENDBRANCH   4   5
ENDBRANCH   3   4
ENDBRANCH   2   3
ENDBRANCH   1   2
BRANCH   1  13
ATOM     13  C   UNL     1      22.532 -21.131  32.565  1.00  0.00     0.000 C 
BRANCH  13  14
ATOM     14  C   UNL     1      23.527 -21.979  31.756  1.00  0.00     0.000 C 
BRANCH  14  15
ATOM     15  C   UNL     1      24.503 -22.761  32.652  1.00  0.00     0.000 C 
BRANCH  15  16
ATOM     16  C   UNL     1      25.548 -23.550  31.848  1.00  0.00     0.000 C 
BRANCH  16  17
ATOM     17  C   UNL     1      25.675 -23.056  30.397  1.00  0.00     0.000 C 
BRANCH  17  18
ATOM     18  C   UNL     1      27.054 -23.350  29.779  1.00  0.00     0.000 C 
BRANCH  18  19
ATOM     19  C   UNL     1      27.860 -22.110  29.350  1.00  0.00     0.000 C 
BRANCH  19  20
ATOM     20  C   UNL     1      28.720 -22.357  28.098  1.00  0.00     0.006 C 
BRANCH  20  21
ATOM     21  C   UNL     1      29.602 -21.150  27.754  1.00  0.00     0.053 C 
BRANCH  21  22
ATOM     22  C   UNL     1      29.129 -20.446  26.516  1.00  0.00     0.041 C 
ATOM     23  O   UNL     1      29.558 -19.294  26.241  1.00  0.00    -0.550 OA
ATOM     24  O   UNL     1      28.215 -21.061  25.668  1.00  0.00    -0.550 OA
ENDBRANCH  21  22
ENDBRANCH  20  21
ENDBRANCH  19  20
ENDBRANCH  18  19
ENDBRANCH  17  18
ENDBRANCH  16  17
ENDBRANCH  15  16
ENDBRANCH  14  15
ENDBRANCH  13  14
ENDBRANCH   1  13
TORSDOF 20
ENDMDL
MODEL 4
REMARK VINA RESULT:    -4.337      3.121      6.429
REMARK INTER + INTRA:         -13.331
REMARK INTER:                  -9.318
REMARK INTRA:                  -4.013
REMARK UNBOUND:                -3.922
REMARK SMILES CCCCCCCCCCCCCCCCCCCCCC(=O)[O-]
REMARK SMILES IDX 12 1 11 2 10 3 9 4 8 5 7 6 6 7 5 8 4 9 3 10 2 11 1 12 13 13
REMARK SMILES IDX 14 14 15 15 16 16 17 17 18 18 19 19 20 20 21 21 22 22 23 23
REMARK SMILES IDX 24 24
REMARK H PARENT
REMARK Flexibility Score: inf
ROOT
ATOM      1  C   UNL     1      15.916 -17.547  38.114  1.00  0.00     0.000 C 
ENDROOT
BRANCH   1   2
ATOM      2  C   UNL     1      14.803 -17.229  37.094  1.00  0.00     0.000 C 
BRANCH   2   3
ATOM      3  C   UNL     1      15.328 -16.600  35.792  1.00  0.00     0.000 C 
BRANCH   3   4
ATOM      4  C   UNL     1      16.749 -16.032  35.937  1.00  0.00    -0.000 C 
BRANCH   4   5
ATOM      5  C   UNL     1      16.898 -14.645  35.291  1.00  0.00    -0.000 C 
BRANCH   5   6
ATOM      6  C   UNL     1      16.722 -13.502  36.305  1.00  0.00    -0.000 C 
BRANCH   6   7
ATOM      7  C   UNL     1      16.882 -13.973  37.760  1.00  0.00    -0.000 C 
BRANCH   7   8
ATOM      8  C   UNL     1      15.600 -13.782  38.588  1.00  0.00    -0.000 C 
BRANCH   8   9
ATOM      9  C   UNL     1      14.403 -13.466  37.680  1.00  0.00    -0.000 C 
BRANCH   9  10
ATOM     10  C   UNL     1      13.052 -13.689  38.379  1.00  0.00    -0.000 C 
BRANCH  10  11
ATOM     11  C   UNL     1      12.999 -15.009  39.162  1.00  0.00    -0.003 C 
ATOM     12  C   UNL     1      11.727 -15.098  40.000  1.00  0.00     0.004 C 
ENDBRANCH  10  11
ENDBRANCH   9  10
ENDBRANCH   8   9
ENDBRANCH   7   8
ENDBRANCH   6   7
ENDBRANCH   5   6
ENDBRANCH   4   5
ENDBRANCH   3   4
ENDBRANCH   2   3
ENDBRANCH   1   2
BRANCH   1  13
ATOM     13  C   UNL     1      15.350 -17.984  39.477  1.00  0.00     0.000 C 
BRANCH  13  14
ATOM     14  C   UNL     1      15.069 -19.495  39.541  1.00  0.00     0.000 C 
BRANCH  14  15
ATOM     15  C   UNL     1      13.742 -19.819  40.249  1.00  0.00     0.000 C 
BRANCH  15  16
ATOM     16  C   UNL     1      12.764 -18.634  40.252  1.00  0.00     0.000 C 
BRANCH  16  17
ATOM     17  C   UNL     1      11.293 -19.082  40.303  1.00  0.00     0.000 C 
BRANCH  17  18
ATOM     18  C   UNL     1      10.518 -18.755  39.012  1.00  0.00     0.000 C 
BRANCH  18  19
ATOM     19  C   UNL     1      11.364 -18.157  37.872  1.00  0.00     0.000 C 
BRANCH  19  20
ATOM     20  C   UNL     1      11.316 -18.999  36.585  1.00  0.00     0.006 C 
BRANCH  20  21
ATOM     21  C   UNL     1      12.517 -19.945  36.466  1.00  0.00     0.053 C 
BRANCH  21  22
ATOM     22  C   UNL     1      12.197 -21.323  36.963  1.00  0.00     0.041 C 
ATOM     23  O   UNL     1      11.013 -21.752  36.919  1.00  0.00    -0.550 OA
ATOM     24  O   UNL     1      13.204 -22.133  37.476  1.00  0.00    -0.550 OA
ENDBRANCH  21  22
ENDBRANCH  20  21
ENDBRANCH  19  20
ENDBRANCH  18  19
ENDBRANCH  17  18
ENDBRANCH  16  17
ENDBRANCH  15  16
ENDBRANCH  14  15
ENDBRANCH  13  14
ENDBRANCH   1  13
TORSDOF 20
ENDMDL
MODEL 5
REMARK VINA RESULT:    -4.251      3.390      6.660
REMARK INTER + INTRA:         -13.145
REMARK INTER:                  -9.054
REMARK INTRA:                  -4.090
REMARK UNBOUND:                -3.922
REMARK SMILES CCCCCCCCCCCCCCCCCCCCCC(=O)[O-]
REMARK SMILES IDX 12 1 11 2 10 3 9 4 8 5 7 6 6 7 5 8 4 9 3 10 2 11 1 12 13 13
REMARK SMILES IDX 14 14 15 15 16 16 17 17 18 18 19 19 20 20 21 21 22 22 23 23
REMARK SMILES IDX 24 24
REMARK H PARENT
REMARK Flexibility Score: inf
ROOT
ATOM      1  C   UNL     1      14.134 -17.221  36.273  1.00  0.00     0.000 C 
ENDROOT
BRANCH   1   2
ATOM      2  C   UNL     1      15.173 -17.565  37.360  1.00  0.00     0.000 C 
BRANCH   2   3
ATOM      3  C   UNL     1      16.563 -16.965  37.089  1.00  0.00     0.000 C 
BRANCH   3   4
ATOM      4  C   UNL     1      16.569 -15.992  35.899  1.00  0.00    -0.000 C 
BRANCH   4   5
ATOM      5  C   UNL     1      17.477 -14.775  36.137  1.00  0.00    -0.000 C 
BRANCH   5   6
ATOM      6  C   UNL     1      17.134 -14.030  37.439  1.00  0.00    -0.000 C 
BRANCH   6   7
ATOM      7  C   UNL     1      15.863 -13.174  37.312  1.00  0.00    -0.000 C 
BRANCH   7   8
ATOM      8  C   UNL     1      14.769 -13.587  38.310  1.00  0.00    -0.000 C 
BRANCH   8   9
ATOM      9  C   UNL     1      15.368 -14.363  39.491  1.00  0.00    -0.000 C 
BRANCH   9  10
ATOM     10  C   UNL     1      14.396 -15.400  40.076  1.00  0.00    -0.000 C 
BRANCH  10  11
ATOM     11  C   UNL     1      12.999 -15.328  39.441  1.00  0.00    -0.003 C 
ATOM     12  C   UNL     1      11.909 -15.512  40.492  1.00  0.00     0.004 C 
ENDBRANCH  10  11
ENDBRANCH   9  10
ENDBRANCH   8   9
ENDBRANCH   7   8
ENDBRANCH   6   7
ENDBRANCH   5   6
ENDBRANCH   4   5
ENDBRANCH   3   4
ENDBRANCH   2   3
ENDBRANCH   1   2
BRANCH   1  13
ATOM     13  C   UNL     1      12.708 -17.642  36.674  1.00  0.00     0.000 C 
BRANCH  13  14
ATOM     14  C   UNL     1      12.452 -19.142  36.448  1.00  0.00     0.000 C 
BRANCH  14  15
ATOM     15  C   UNL     1      11.557 -19.758  37.537  1.00  0.00     0.000 C 
BRANCH  15  16
ATOM     16  C   UNL     1      11.283 -18.793  38.701  1.00  0.00     0.000 C 
BRANCH  16  17
ATOM     17  C   UNL     1      11.808 -19.324  40.046  1.00  0.00     0.000 C 
BRANCH  17  18
ATOM     18  C   UNL     1      13.284 -18.962  40.301  1.00  0.00     0.000 C 
BRANCH  18  19
ATOM     19  C   UNL     1      14.222 -20.160  40.538  1.00  0.00     0.000 C 
BRANCH  19  20
ATOM     20  C   UNL     1      14.766 -20.764  39.232  1.00  0.00     0.006 C 
BRANCH  20  21
ATOM     21  C   UNL     1      14.625 -22.291  39.197  1.00  0.00     0.053 C 
BRANCH  21  22
ATOM     22  C   UNL     1      13.447 -22.727  38.378  1.00  0.00     0.041 C 
ATOM     23  O   UNL     1      13.567 -22.890  37.134  1.00  0.00    -0.550 OA
ATOM     24  O   UNL     1      12.217 -22.953  38.987  1.00  0.00    -0.550 OA
ENDBRANCH  21  22
ENDBRANCH  20  21
ENDBRANCH  19  20
ENDBRANCH  18  19
ENDBRANCH  17  18
ENDBRANCH  16  17
ENDBRANCH  15  16
ENDBRANCH  14  15
ENDBRANCH  13  14
ENDBRANCH   1  13
TORSDOF 20
ENDMDL
MODEL 6
REMARK VINA RESULT:    -4.242      3.256      6.468
REMARK INTER + INTRA:         -13.123
REMARK INTER:                  -9.134
REMARK INTRA:                  -3.990
REMARK UNBOUND:                -3.922
REMARK SMILES CCCCCCCCCCCCCCCCCCCCCC(=O)[O-]
REMARK SMILES IDX 12 1 11 2 10 3 9 4 8 5 7 6 6 7 5 8 4 9 3 10 2 11 1 12 13 13
REMARK SMILES IDX 14 14 15 15 16 16 17 17 18 18 19 19 20 20 21 21 22 22 23 23
REMARK SMILES IDX 24 24
REMARK H PARENT
REMARK Flexibility Score: inf
ROOT
ATOM      1  C   UNL     1      14.892 -17.190  36.246  1.00  0.00     0.000 C 
ENDROOT
BRANCH   1   2
ATOM      2  C   UNL     1      15.809 -17.226  37.487  1.00  0.00     0.000 C 
BRANCH   2   3
ATOM      3  C   UNL     1      15.041 -17.384  38.810  1.00  0.00     0.000 C 
BRANCH   3   4
ATOM      4  C   UNL     1      15.169 -16.153  39.722  1.00  0.00    -0.000 C 
BRANCH   4   5
ATOM      5  C   UNL     1      13.813 -15.487  40.007  1.00  0.00    -0.000 C 
BRANCH   5   6
ATOM      6  C   UNL     1      13.371 -14.544  38.874  1.00  0.00    -0.000 C 
BRANCH   6   7
ATOM      7  C   UNL     1      14.428 -13.474  38.551  1.00  0.00    -0.000 C 
BRANCH   7   8
ATOM      8  C   UNL     1      14.457 -13.104  37.059  1.00  0.00    -0.000 C 
BRANCH   8   9
ATOM      9  C   UNL     1      15.895 -12.838  36.589  1.00  0.00    -0.000 C 
BRANCH   9  10
ATOM     10  C   UNL     1      16.373 -13.852  35.536  1.00  0.00    -0.000 C 
BRANCH  10  11
ATOM     11  C   UNL     1      17.718 -14.497  35.902  1.00  0.00    -0.003 C 
ATOM     12  C   UNL     1      17.995 -14.376  37.398  1.00  0.00     0.004 C 
ENDBRANCH  10  11
ENDBRANCH   9  10
ENDBRANCH   8   9
ENDBRANCH   7   8
ENDBRANCH   6   7
ENDBRANCH   5   6
ENDBRANCH   4   5
ENDBRANCH   3   4
ENDBRANCH   2   3
ENDBRANCH   1   2
BRANCH   1  13
ATOM     13  C   UNL     1      13.400 -17.266  36.620  1.00  0.00     0.000 C 
BRANCH  13  14
ATOM     14  C   UNL     1      12.830 -18.688  36.484  1.00  0.00     0.000 C 
BRANCH  14  15
ATOM     15  C   UNL     1      11.586 -18.912  37.360  1.00  0.00     0.000 C 
BRANCH  15  16
ATOM     16  C   UNL     1      11.389 -17.807  38.409  1.00  0.00     0.000 C 
BRANCH  16  17
ATOM     17  C   UNL     1      11.430 -18.346  39.850  1.00  0.00     0.000 C 
BRANCH  17  18
ATOM     18  C   UNL     1      12.077 -19.740  39.954  1.00  0.00     0.000 C 
BRANCH  18  19
ATOM     19  C   UNL     1      13.154 -19.884  41.044  1.00  0.00     0.000 C 
BRANCH  19  20
ATOM     20  C   UNL     1      14.450 -20.532  40.526  1.00  0.00     0.006 C 
BRANCH  20  21
ATOM     21  C   UNL     1      14.318 -21.011  39.074  1.00  0.00     0.053 C 
BRANCH  21  22
ATOM     22  C   UNL     1      14.372 -22.506  38.970  1.00  0.00     0.041 C 
ATOM     23  O   UNL     1      13.654 -23.219  39.721  1.00  0.00    -0.550 OA
ATOM     24  O   UNL     1      15.215 -23.112  38.045  1.00  0.00    -0.550 OA
ENDBRANCH  21  22
ENDBRANCH  20  21
ENDBRANCH  19  20
ENDBRANCH  18  19
ENDBRANCH  17  18
ENDBRANCH  16  17
ENDBRANCH  15  16
ENDBRANCH  14  15
ENDBRANCH  13  14
ENDBRANCH   1  13
TORSDOF 20
ENDMDL
MODEL 7
REMARK VINA RESULT:    -4.144      3.280      6.062
REMARK INTER + INTRA:         -12.912
REMARK INTER:                  -9.892
REMARK INTRA:                  -3.020
REMARK UNBOUND:                -3.922
REMARK SMILES CCCCCCCCCCCCCCCCCCCCCC(=O)[O-]
REMARK SMILES IDX 12 1 11 2 10 3 9 4 8 5 7 6 6 7 5 8 4 9 3 10 2 11 1 12 13 13
REMARK SMILES IDX 14 14 15 15 16 16 17 17 18 18 19 19 20 20 21 21 22 22 23 23
REMARK SMILES IDX 24 24
REMARK H PARENT
REMARK Flexibility Score: inf
ROOT
ATOM      1  C   UNL     1      15.887 -16.592  36.807  1.00  0.00     0.000 C 
ENDROOT
BRANCH   1   2
ATOM      2  C   UNL     1      16.638 -16.116  35.545  1.00  0.00     0.000 C 
BRANCH   2   3
ATOM      3  C   UNL     1      16.914 -14.604  35.532  1.00  0.00     0.000 C 
BRANCH   3   4
ATOM      4  C   UNL     1      16.880 -13.980  36.936  1.00  0.00    -0.000 C 
BRANCH   4   5
ATOM      5  C   UNL     1      15.770 -12.927  37.087  1.00  0.00    -0.000 C 
BRANCH   5   6
ATOM      6  C   UNL     1      15.150 -12.923  38.495  1.00  0.00    -0.000 C 
BRANCH   6   7
ATOM      7  C   UNL     1      15.867 -13.884  39.459  1.00  0.00    -0.000 C 
BRANCH   7   8
ATOM      8  C   UNL     1      14.918 -14.930  40.065  1.00  0.00    -0.000 C 
BRANCH   8   9
ATOM      9  C   UNL     1      13.661 -15.099  39.199  1.00  0.00    -0.000 C 
BRANCH   9  10
ATOM     10  C   UNL     1      12.396 -15.359  40.032  1.00  0.00    -0.000 C 
BRANCH  10  11
ATOM     11  C   UNL     1      11.168 -14.608  39.497  1.00  0.00    -0.003 C 
ATOM     12  C   UNL     1      11.570 -13.273  38.877  1.00  0.00     0.004 C 
ENDBRANCH  10  11
ENDBRANCH   9  10
ENDBRANCH   8   9
ENDBRANCH   7   8
ENDBRANCH   6   7
ENDBRANCH   5   6
ENDBRANCH   4   5
ENDBRANCH   3   4
ENDBRANCH   2   3
ENDBRANCH   1   2
BRANCH   1  13
ATOM     13  C   UNL     1      16.695 -17.627  37.611  1.00  0.00     0.000 C 
BRANCH  13  14
ATOM     14  C   UNL     1      15.942 -18.125  38.855  1.00  0.00     0.000 C 
BRANCH  14  15
ATOM     15  C   UNL     1      14.495 -18.541  38.542  1.00  0.00     0.000 C 
BRANCH  15  16
ATOM     16  C   UNL     1      13.731 -19.021  39.787  1.00  0.00     0.000 C 
BRANCH  16  17
ATOM     17  C   UNL     1      14.372 -20.262  40.431  1.00  0.00     0.000 C 
BRANCH  17  18
ATOM     18  C   UNL     1      13.723 -21.582  39.972  1.00  0.00     0.000 C 
BRANCH  18  19
ATOM     19  C   UNL     1      14.471 -22.326  38.851  1.00  0.00     0.000 C 
BRANCH  19  20
ATOM     20  C   UNL     1      13.628 -22.492  37.575  1.00  0.00     0.006 C 
BRANCH  20  21
ATOM     21  C   UNL     1      12.190 -21.992  37.761  1.00  0.00     0.053 C 
BRANCH  21  22
ATOM     22  C   UNL     1      11.751 -21.111  36.629  1.00  0.00     0.041 C 
ATOM     23  O   UNL     1      12.482 -20.157  36.251  1.00  0.00    -0.550 OA
ATOM     24  O   UNL     1      10.537 -21.343  35.993  1.00  0.00    -0.550 OA
ENDBRANCH  21  22
ENDBRANCH  20  21
ENDBRANCH  19  20
ENDBRANCH  18  19
ENDBRANCH  17  18
ENDBRANCH  16  17
ENDBRANCH  15  16
ENDBRANCH  14  15
ENDBRANCH  13  14
ENDBRANCH   1  13
TORSDOF 20
ENDMDL
MODEL 8
REMARK VINA RESULT:    -4.127      3.394      6.412
REMARK INTER + INTRA:         -12.874
REMARK INTER:                  -9.264
REMARK INTRA:                  -3.610
REMARK UNBOUND:                -3.922
REMARK SMILES CCCCCCCCCCCCCCCCCCCCCC(=O)[O-]
REMARK SMILES IDX 12 1 11 2 10 3 9 4 8 5 7 6 6 7 5 8 4 9 3 10 2 11 1 12 13 13
REMARK SMILES IDX 14 14 15 15 16 16 17 17 18 18 19 19 20 20 21 21 22 22 23 23
REMARK SMILES IDX 24 24
REMARK H PARENT
REMARK Flexibility Score: inf
ROOT
ATOM      1  C   UNL     1      14.806 -17.416  36.931  1.00  0.00     0.000 C 
ENDROOT
BRANCH   1   2
ATOM      2  C   UNL     1      15.146 -16.358  35.861  1.00  0.00     0.000 C 
BRANCH   2   3
ATOM      3  C   UNL     1      16.653 -16.077  35.737  1.00  0.00     0.000 C 
BRANCH   3   4
ATOM      4  C   UNL     1      16.953 -14.658  35.228  1.00  0.00    -0.000 C 
BRANCH   4   5
ATOM      5  C   UNL     1      17.031 -13.628  36.367  1.00  0.00    -0.000 C 
BRANCH   5   6
ATOM      6  C   UNL     1      17.516 -14.248  37.689  1.00  0.00    -0.000 C 
BRANCH   6   7
ATOM      7  C   UNL     1      16.614 -13.881  38.879  1.00  0.00    -0.000 C 
BRANCH   7   8
ATOM      8  C   UNL     1      15.220 -13.403  38.439  1.00  0.00    -0.000 C 
BRANCH   8   9
ATOM      9  C   UNL     1      14.129 -14.364  38.937  1.00  0.00    -0.000 C 
BRANCH   9  10
ATOM     10  C   UNL     1      12.887 -14.371  38.032  1.00  0.00    -0.000 C 
BRANCH  10  11
ATOM     11  C   UNL     1      11.815 -15.366  38.503  1.00  0.00    -0.003 C 
ATOM     12  C   UNL     1      11.386 -16.288  37.365  1.00  0.00     0.004 C 
ENDBRANCH  10  11
ENDBRANCH   9  10
ENDBRANCH   8   9
ENDBRANCH   7   8
ENDBRANCH   6   7
ENDBRANCH   5   6
ENDBRANCH   4   5
ENDBRANCH   3   4
ENDBRANCH   2   3
ENDBRANCH   1   2
BRANCH   1  13
ATOM     13  C   UNL     1      15.914 -17.552  37.991  1.00  0.00     0.000 C 
BRANCH  13  14
ATOM     14  C   UNL     1      15.496 -18.445  39.171  1.00  0.00     0.000 C 
BRANCH  14  15
ATOM     15  C   UNL     1      14.327 -17.851  39.976  1.00  0.00     0.000 C 
BRANCH  15  16
ATOM     16  C   UNL     1      13.049 -18.699  39.885  1.00  0.00     0.000 C 
BRANCH  16  17
ATOM     17  C   UNL     1      13.245 -19.976  39.051  1.00  0.00     0.000 C 
BRANCH  17  18
ATOM     18  C   UNL     1      12.284 -20.066  37.851  1.00  0.00     0.000 C 
BRANCH  18  19
ATOM     19  C   UNL     1      12.506 -21.272  36.920  1.00  0.00     0.000 C 
BRANCH  19  20
ATOM     20  C   UNL     1      12.767 -22.581  37.686  1.00  0.00     0.006 C 
BRANCH  20  21
ATOM     21  C   UNL     1      13.899 -23.404  37.058  1.00  0.00     0.053 C 
BRANCH  21  22
ATOM     22  C   UNL     1      15.065 -23.555  37.990  1.00  0.00     0.041 C 
ATOM     23  O   UNL     1      15.083 -22.933  39.086  1.00  0.00    -0.550 OA
ATOM     24  O   UNL     1      16.130 -24.381  37.649  1.00  0.00    -0.550 OA
ENDBRANCH  21  22
ENDBRANCH  20  21
ENDBRANCH  19  20
ENDBRANCH  18  19
ENDBRANCH  17  18
ENDBRANCH  16  17
ENDBRANCH  15  16
ENDBRANCH  14  15
ENDBRANCH  13  14
ENDBRANCH   1  13
TORSDOF 20
ENDMDL
MODEL 9
REMARK VINA RESULT:    -4.109      2.671      4.935
REMARK INTER + INTRA:         -12.836
REMARK INTER:                  -8.998
REMARK INTRA:                  -3.839
REMARK UNBOUND:                -3.922
REMARK SMILES CCCCCCCCCCCCCCCCCCCCCC(=O)[O-]
REMARK SMILES IDX 12 1 11 2 10 3 9 4 8 5 7 6 6 7 5 8 4 9 3 10 2 11 1 12 13 13
REMARK SMILES IDX 14 14 15 15 16 16 17 17 18 18 19 19 20 20 21 21 22 22 23 23
REMARK SMILES IDX 24 24
REMARK H PARENT
REMARK Flexibility Score: inf
ROOT
ATOM      1  C   UNL     1      14.998 -16.876  35.873  1.00  0.00     0.000 C 
ENDROOT
BRANCH   1   2
ATOM      2  C   UNL     1      14.499 -17.258  37.283  1.00  0.00     0.000 C 
BRANCH   2   3
ATOM      3  C   UNL     1      15.632 -17.636  38.251  1.00  0.00     0.000 C 
BRANCH   3   4
ATOM      4  C   UNL     1      15.183 -17.638  39.721  1.00  0.00    -0.000 C 
BRANCH   4   5
ATOM      5  C   UNL     1      13.707 -18.037  39.885  1.00  0.00    -0.000 C 
BRANCH   5   6
ATOM      6  C   UNL     1      13.541 -19.454  40.460  1.00  0.00    -0.000 C 
BRANCH   6   7
ATOM      7  C   UNL     1      13.572 -20.540  39.372  1.00  0.00    -0.000 C 
BRANCH   7   8
ATOM      8  C   UNL     1      12.246 -20.644  38.601  1.00  0.00    -0.000 C 
BRANCH   8   9
ATOM      9  C   UNL     1      12.490 -20.625  37.085  1.00  0.00    -0.000 C 
BRANCH   9  10
ATOM     10  C   UNL     1      11.776 -19.460  36.382  1.00  0.00    -0.000 C 
BRANCH  10  11
ATOM     11  C   UNL     1      10.618 -18.886  37.212  1.00  0.00    -0.003 C 
ATOM     12  C   UNL     1      10.841 -17.407  37.513  1.00  0.00     0.004 C 
ENDBRANCH  10  11
ENDBRANCH   9  10
ENDBRANCH   8   9
ENDBRANCH   7   8
ENDBRANCH   6   7
ENDBRANCH   5   6
ENDBRANCH   4   5
ENDBRANCH   3   4
ENDBRANCH   2   3
ENDBRANCH   1   2
BRANCH   1  13
ATOM     13  C   UNL     1      16.530 -16.728  35.817  1.00  0.00     0.000 C 
BRANCH  13  14
ATOM     14  C   UNL     1      16.971 -15.299  35.458  1.00  0.00     0.000 C 
BRANCH  14  15
ATOM     15  C   UNL     1      17.647 -14.576  36.636  1.00  0.00     0.000 C 
BRANCH  15  16
ATOM     16  C   UNL     1      16.714 -13.577  37.336  1.00  0.00     0.000 C 
BRANCH  16  17
ATOM     17  C   UNL     1      16.298 -14.042  38.743  1.00  0.00     0.000 C 
BRANCH  17  18
ATOM     18  C   UNL     1      14.777 -13.971  38.975  1.00  0.00     0.000 C 
BRANCH  18  19
ATOM     19  C   UNL     1      13.946 -13.524  37.758  1.00  0.00     0.000 C 
BRANCH  19  20
ATOM     20  C   UNL     1      12.624 -12.842  38.152  1.00  0.00     0.006 C 
BRANCH  20  21
ATOM     21  C   UNL     1      11.462 -13.839  38.241  1.00  0.00     0.053 C 
BRANCH  21  22
ATOM     22  C   UNL     1      11.055 -14.099  39.661  1.00  0.00     0.041 C 
ATOM     23  O   UNL     1      10.230 -13.337  40.232  1.00  0.00    -0.550 OA
ATOM     24  O   UNL     1      11.587 -15.181  40.354  1.00  0.00    -0.550 OA
ENDBRANCH  21  22
ENDBRANCH  20  21
ENDBRANCH  19  20
ENDBRANCH  18  19
ENDBRANCH  17  18
ENDBRANCH  16  17
ENDBRANCH  15  16
ENDBRANCH  14  15
ENDBRANCH  13  14
ENDBRANCH   1  13
TORSDOF 20
ENDMDL
