MODEL 1
REMARK VINA RESULT:    -6.024      0.000      0.000
REMARK INTER + INTRA:          -7.457
REMARK INTER:                  -7.257
REMARK INTRA:                  -0.201
REMARK UNBOUND:                -0.201
REMARK SMILES Oc1cc(O)c2cc(O)c(-c3ccc(O)c(O)c3)[o+]c2c1.[Cl-]
REMARK SMILES IDX 10 1 19 2 20 3 21 4 2 5 3 6 4 7 6 8 7 9 8 10 11 11 12 12
REMARK SMILES IDX 13 13 14 14 18 15 16 16 15 17 17 19 9 21 1 23 5 25
REMARK H PARENT 15 18 17 20 9 22 1 24 5 26
REMARK Flexibility Score: inf
ROOT
ATOM      1  C   UNL     1      55.957 -40.640 -25.884  1.00  0.00     0.402 A 
ATOM      2  O   UNL     1      55.892 -39.948 -27.019  1.00  0.00    -0.202 OA
ATOM      3  C   UNL     1      56.102 -40.487 -28.215  1.00  0.00     0.368 A 
ATOM      4  C   UNL     1      56.015 -39.677 -29.350  1.00  0.00     0.162 A 
ATOM      5  C   UNL     1      56.232 -40.214 -30.618  1.00  0.00     0.128 A 
ATOM      6  C   UNL     1      56.540 -41.572 -30.757  1.00  0.00     0.093 A 
ATOM      7  C   UNL     1      56.634 -42.406 -29.634  1.00  0.00     0.136 A 
ATOM      8  C   UNL     1      56.410 -41.863 -28.343  1.00  0.00     0.125 A 
ATOM      9  C   UNL     1      56.469 -42.624 -27.164  1.00  0.00     0.078 A 
ATOM     10  C   UNL     1      56.233 -42.019 -25.925  1.00  0.00     0.223 A 
ENDROOT
BRANCH   1  11
ATOM     11  C   UNL     1      55.714 -39.924 -24.611  1.00  0.00     0.087 A 
ATOM     12  C   UNL     1      56.587 -38.920 -24.156  1.00  0.00     0.022 A 
ATOM     13  C   UNL     1      56.323 -38.242 -22.964  1.00  0.00     0.051 A 
ATOM     14  C   UNL     1      55.180 -38.546 -22.215  1.00  0.00     0.157 A 
ATOM     15  C   UNL     1      54.558 -40.210 -23.867  1.00  0.00     0.068 A 
ATOM     16  C   UNL     1      54.291 -39.533 -22.671  1.00  0.00     0.158 A 
BRANCH  14  17
ATOM     17  O   UNL     1      54.921 -37.868 -21.024  1.00  0.00    -0.504 OA
ATOM     18  H   UNL     1      55.097 -36.874 -20.930  1.00  0.00     0.293 HD
ENDBRANCH  14  17
BRANCH  16  19
ATOM     19  O   UNL     1      53.140 -39.854 -21.953  1.00  0.00    -0.504 OA
ATOM     20  H   UNL     1      52.622 -40.709 -22.120  1.00  0.00     0.293 HD
ENDBRANCH  16  19
ENDBRANCH   1  11
BRANCH  10  21
ATOM     21  O   UNL     1      56.242 -42.785 -24.760  1.00  0.00    -0.500 OA
ATOM     22  H   UNL     1      55.811 -43.702 -24.721  1.00  0.00     0.294 HD
ENDBRANCH  10  21
BRANCH   5  23
ATOM     23  O   UNL     1      56.141 -39.390 -31.739  1.00  0.00    -0.507 OA
ATOM     24  H   UNL     1      55.862 -39.753 -32.642  1.00  0.00     0.293 HD
ENDBRANCH   5  23
BRANCH   7  25
ATOM     25  O   UNL     1      56.949 -43.750 -29.855  1.00  0.00    -0.507 OA
ATOM     26  H   UNL     1      57.878 -44.137 -29.782  1.00  0.00     0.293 HD
ENDBRANCH   7  25
TORSDOF 6
ENDMDL
MODEL 2
REMARK VINA RESULT:    -5.840     13.201     15.176
REMARK INTER + INTRA:          -7.236
REMARK INTER:                  -6.886
REMARK INTRA:                  -0.350
REMARK UNBOUND:                -0.201
REMARK SMILES Oc1cc(O)c2cc(O)c(-c3ccc(O)c(O)c3)[o+]c2c1.[Cl-]
REMARK SMILES IDX 10 1 19 2 20 3 21 4 2 5 3 6 4 7 6 8 7 9 8 10 11 11 12 12
REMARK SMILES IDX 13 13 14 14 18 15 16 16 15 17 17 19 9 21 1 23 5 25
REMARK H PARENT 15 18 17 20 9 22 1 24 5 26
REMARK Flexibility Score: inf
ROOT
ATOM      1  C   UNL     1      52.055 -27.925 -31.031  1.00  0.00     0.402 A 
ATOM      2  O   UNL     1      51.473 -27.089 -30.175  1.00  0.00    -0.202 OA
ATOM      3  C   UNL     1      50.227 -26.650 -30.317  1.00  0.00     0.368 A 
ATOM      4  C   UNL     1      49.704 -25.770 -29.365  1.00  0.00     0.162 A 
ATOM      5  C   UNL     1      48.401 -25.290 -29.489  1.00  0.00     0.128 A 
ATOM      6  C   UNL     1      47.611 -25.690 -30.573  1.00  0.00     0.093 A 
ATOM      7  C   UNL     1      48.112 -26.571 -31.541  1.00  0.00     0.136 A 
ATOM      8  C   UNL     1      49.436 -27.063 -31.416  1.00  0.00     0.125 A 
ATOM      9  C   UNL     1      50.017 -27.958 -32.329  1.00  0.00     0.078 A 
ATOM     10  C   UNL     1      51.329 -28.404 -32.137  1.00  0.00     0.223 A 
ENDROOT
BRANCH   1  11
ATOM     11  C   UNL     1      53.453 -28.335 -30.770  1.00  0.00     0.087 A 
ATOM     12  C   UNL     1      54.540 -27.586 -31.254  1.00  0.00     0.022 A 
ATOM     13  C   UNL     1      55.850 -27.980 -30.974  1.00  0.00     0.051 A 
ATOM     14  C   UNL     1      56.096 -29.119 -30.197  1.00  0.00     0.157 A 
ATOM     15  C   UNL     1      53.705 -29.464 -29.974  1.00  0.00     0.068 A 
ATOM     16  C   UNL     1      55.017 -29.863 -29.692  1.00  0.00     0.158 A 
BRANCH  14  17
ATOM     17  O   UNL     1      57.405 -29.510 -29.921  1.00  0.00    -0.504 OA
ATOM     18  H   UNL     1      58.175 -28.850 -29.954  1.00  0.00     0.293 HD
ENDBRANCH  14  17
BRANCH  16  19
ATOM     19  O   UNL     1      55.227 -30.997 -28.908  1.00  0.00    -0.504 OA
ATOM     20  H   UNL     1      55.443 -30.936 -27.920  1.00  0.00     0.293 HD
ENDBRANCH  16  19
ENDBRANCH   1  11
BRANCH  10  21
ATOM     21  O   UNL     1      51.888 -29.332 -33.016  1.00  0.00    -0.500 OA
ATOM     22  H   UNL     1      52.364 -29.044 -33.862  1.00  0.00     0.294 HD
ENDBRANCH  10  21
BRANCH   5  23
ATOM     23  O   UNL     1      47.897 -24.414 -28.530  1.00  0.00    -0.507 OA
ATOM     24  H   UNL     1      47.032 -24.606 -28.038  1.00  0.00     0.293 HD
ENDBRANCH   5  23
BRANCH   7  25
ATOM     25  O   UNL     1      47.262 -26.920 -32.595  1.00  0.00    -0.507 OA
ATOM     26  H   UNL     1      46.755 -27.791 -32.653  1.00  0.00     0.293 HD
ENDBRANCH   7  25
TORSDOF 6
ENDMDL
MODEL 3
REMARK VINA RESULT:    -5.787     13.132     15.174
REMARK INTER + INTRA:          -7.172
REMARK INTER:                  -7.302
REMARK INTRA:                   0.130
REMARK UNBOUND:                -0.201
REMARK SMILES Oc1cc(O)c2cc(O)c(-c3ccc(O)c(O)c3)[o+]c2c1.[Cl-]
REMARK SMILES IDX 10 1 19 2 20 3 21 4 2 5 3 6 4 7 6 8 7 9 8 10 11 11 12 12
REMARK SMILES IDX 13 13 14 14 18 15 16 16 15 17 17 19 9 21 1 23 5 25
REMARK H PARENT 15 18 17 20 9 22 1 24 5 26
REMARK Flexibility Score: inf
ROOT
ATOM      1  C   UNL     1      50.020 -28.516 -31.316  1.00  0.00     0.402 A 
ATOM      2  O   UNL     1      49.275 -28.953 -30.304  1.00  0.00    -0.202 OA
ATOM      3  C   UNL     1      47.947 -28.955 -30.324  1.00  0.00     0.368 A 
ATOM      4  C   UNL     1      47.252 -29.432 -29.209  1.00  0.00     0.162 A 
ATOM      5  C   UNL     1      45.857 -29.444 -29.200  1.00  0.00     0.128 A 
ATOM      6  C   UNL     1      45.148 -28.975 -30.312  1.00  0.00     0.093 A 
ATOM      7  C   UNL     1      45.822 -28.491 -31.441  1.00  0.00     0.136 A 
ATOM      8  C   UNL     1      47.240 -28.480 -31.455  1.00  0.00     0.125 A 
ATOM      9  C   UNL     1      47.999 -28.027 -32.546  1.00  0.00     0.078 A 
ATOM     10  C   UNL     1      49.396 -28.051 -32.488  1.00  0.00     0.223 A 
ENDROOT
BRANCH   1  11
ATOM     11  C   UNL     1      51.493 -28.555 -31.170  1.00  0.00     0.087 A 
ATOM     12  C   UNL     1      52.314 -27.568 -31.745  1.00  0.00     0.022 A 
ATOM     13  C   UNL     1      53.699 -27.614 -31.573  1.00  0.00     0.051 A 
ATOM     14  C   UNL     1      54.285 -28.636 -30.816  1.00  0.00     0.157 A 
ATOM     15  C   UNL     1      52.084 -29.565 -30.395  1.00  0.00     0.068 A 
ATOM     16  C   UNL     1      53.472 -29.615 -30.221  1.00  0.00     0.158 A 
BRANCH  14  17
ATOM     17  O   UNL     1      55.668 -28.679 -30.648  1.00  0.00    -0.504 OA
ATOM     18  H   UNL     1      56.221 -29.456 -30.992  1.00  0.00     0.293 HD
ENDBRANCH  14  17
BRANCH  16  19
ATOM     19  O   UNL     1      54.023 -30.641 -29.455  1.00  0.00    -0.504 OA
ATOM     20  H   UNL     1      55.005 -30.658 -29.204  1.00  0.00     0.293 HD
ENDBRANCH  16  19
ENDBRANCH   1  11
BRANCH  10  21
ATOM     21  O   UNL     1      50.149 -27.648 -33.591  1.00  0.00    -0.500 OA
ATOM     22  H   UNL     1      49.817 -26.937 -34.232  1.00  0.00     0.294 HD
ENDBRANCH  10  21
BRANCH   5  23
ATOM     23  O   UNL     1      45.181 -29.924 -28.080  1.00  0.00    -0.507 OA
ATOM     24  H   UNL     1      45.112 -29.379 -27.228  1.00  0.00     0.293 HD
ENDBRANCH   5  23
BRANCH   7  25
ATOM     25  O   UNL     1      45.043 -28.037 -32.510  1.00  0.00    -0.507 OA
ATOM     26  H   UNL     1      44.130 -27.619 -32.412  1.00  0.00     0.293 HD
ENDBRANCH   7  25
TORSDOF 6
ENDMDL
MODEL 4
REMARK VINA RESULT:    -5.742     14.921     16.667
REMARK INTER + INTRA:          -7.117
REMARK INTER:                  -7.017
REMARK INTRA:                  -0.100
REMARK UNBOUND:                -0.201
REMARK SMILES Oc1cc(O)c2cc(O)c(-c3ccc(O)c(O)c3)[o+]c2c1.[Cl-]
REMARK SMILES IDX 10 1 19 2 20 3 21 4 2 5 3 6 4 7 6 8 7 9 8 10 11 11 12 12
REMARK SMILES IDX 13 13 14 14 18 15 16 16 15 17 17 19 9 21 1 23 5 25
REMARK H PARENT 15 18 17 20 9 22 1 24 5 26
REMARK Flexibility Score: inf
ROOT
ATOM      1  C   UNL     1      46.942 -28.758 -30.588  1.00  0.00     0.402 A 
ATOM      2  O   UNL     1      45.826 -28.409 -31.223  1.00  0.00    -0.202 OA
ATOM      3  C   UNL     1      44.620 -28.839 -30.868  1.00  0.00     0.368 A 
ATOM      4  C   UNL     1      43.507 -28.419 -31.601  1.00  0.00     0.162 A 
ATOM      5  C   UNL     1      42.228 -28.856 -31.254  1.00  0.00     0.128 A 
ATOM      6  C   UNL     1      42.058 -29.720 -30.167  1.00  0.00     0.093 A 
ATOM      7  C   UNL     1      43.158 -30.156 -29.417  1.00  0.00     0.136 A 
ATOM      8  C   UNL     1      44.459 -29.712 -29.765  1.00  0.00     0.125 A 
ATOM      9  C   UNL     1      45.617 -30.085 -29.063  1.00  0.00     0.078 A 
ATOM     10  C   UNL     1      46.867 -29.602 -29.464  1.00  0.00     0.223 A 
ENDROOT
BRANCH   1  11
ATOM     11  C   UNL     1      48.229 -28.221 -31.085  1.00  0.00     0.087 A 
ATOM     12  C   UNL     1      49.092 -27.492 -30.248  1.00  0.00     0.022 A 
ATOM     13  C   UNL     1      50.312 -27.016 -30.735  1.00  0.00     0.051 A 
ATOM     14  C   UNL     1      50.694 -27.271 -32.058  1.00  0.00     0.157 A 
ATOM     15  C   UNL     1      48.626 -28.491 -32.404  1.00  0.00     0.068 A 
ATOM     16  C   UNL     1      49.847 -28.015 -32.896  1.00  0.00     0.158 A 
BRANCH  14  17
ATOM     17  O   UNL     1      51.911 -26.792 -32.540  1.00  0.00    -0.504 OA
ATOM     18  H   UNL     1      52.673 -26.555 -31.915  1.00  0.00     0.293 HD
ENDBRANCH  14  17
BRANCH  16  19
ATOM     19  O   UNL     1      50.201 -28.292 -34.216  1.00  0.00    -0.504 OA
ATOM     20  H   UNL     1      50.831 -27.697 -34.740  1.00  0.00     0.293 HD
ENDBRANCH  16  19
ENDBRANCH   1  11
BRANCH  10  21
ATOM     21  O   UNL     1      48.010 -29.932 -28.737  1.00  0.00    -0.500 OA
ATOM     22  H   UNL     1      47.955 -30.404 -27.841  1.00  0.00     0.294 HD
ENDBRANCH  10  21
BRANCH   5  23
ATOM     23  O   UNL     1      41.130 -28.426 -31.997  1.00  0.00    -0.507 OA
ATOM     24  H   UNL     1      40.186 -28.490 -31.634  1.00  0.00     0.293 HD
ENDBRANCH   5  23
BRANCH   7  25
ATOM     25  O   UNL     1      42.906 -31.021 -28.348  1.00  0.00    -0.507 OA
ATOM     26  H   UNL     1      43.518 -31.773 -28.067  1.00  0.00     0.293 HD
ENDBRANCH   7  25
TORSDOF 6
ENDMDL
MODEL 5
REMARK VINA RESULT:    -5.688     13.337     14.875
REMARK INTER + INTRA:          -7.052
REMARK INTER:                  -6.892
REMARK INTRA:                  -0.160
REMARK UNBOUND:                -0.201
REMARK SMILES Oc1cc(O)c2cc(O)c(-c3ccc(O)c(O)c3)[o+]c2c1.[Cl-]
REMARK SMILES IDX 10 1 19 2 20 3 21 4 2 5 3 6 4 7 6 8 7 9 8 10 11 11 12 12
REMARK SMILES IDX 13 13 14 14 18 15 16 16 15 17 17 19 9 21 1 23 5 25
REMARK H PARENT 15 18 17 20 9 22 1 24 5 26
REMARK Flexibility Score: inf
ROOT
ATOM      1  C   UNL     1      51.127 -28.379 -30.952  1.00  0.00     0.402 A 
ATOM      2  O   UNL     1      51.636 -27.981 -29.789  1.00  0.00    -0.202 OA
ATOM      3  C   UNL     1      52.941 -27.877 -29.561  1.00  0.00     0.368 A 
ATOM      4  C   UNL     1      53.379 -27.453 -28.304  1.00  0.00     0.162 A 
ATOM      5  C   UNL     1      54.742 -27.336 -28.034  1.00  0.00     0.128 A 
ATOM      6  C   UNL     1      55.678 -27.647 -29.027  1.00  0.00     0.093 A 
ATOM      7  C   UNL     1      55.265 -28.075 -30.296  1.00  0.00     0.136 A 
ATOM      8  C   UNL     1      53.879 -28.192 -30.574  1.00  0.00     0.125 A 
ATOM      9  C   UNL     1      53.372 -28.599 -31.818  1.00  0.00     0.078 A 
ATOM     10  C   UNL     1      51.991 -28.687 -32.020  1.00  0.00     0.223 A 
ENDROOT
BRANCH   1  11
ATOM     11  C   UNL     1      49.655 -28.465 -31.080  1.00  0.00     0.087 A 
ATOM     12  C   UNL     1      48.898 -29.336 -30.276  1.00  0.00     0.022 A 
ATOM     13  C   UNL     1      47.508 -29.382 -30.400  1.00  0.00     0.051 A 
ATOM     14  C   UNL     1      46.851 -28.552 -31.317  1.00  0.00     0.157 A 
ATOM     15  C   UNL     1      48.989 -27.621 -31.983  1.00  0.00     0.068 A 
ATOM     16  C   UNL     1      47.596 -27.664 -32.111  1.00  0.00     0.158 A 
BRANCH  14  17
ATOM     17  O   UNL     1      45.463 -28.602 -31.438  1.00  0.00    -0.504 OA
ATOM     18  H   UNL     1      44.970 -29.482 -31.542  1.00  0.00     0.293 HD
ENDBRANCH  14  17
BRANCH  16  19
ATOM     19  O   UNL     1      46.972 -26.819 -33.028  1.00  0.00    -0.504 OA
ATOM     20  H   UNL     1      46.049 -26.437 -32.864  1.00  0.00     0.293 HD
ENDBRANCH  16  19
ENDBRANCH   1  11
BRANCH  10  21
ATOM     21  O   UNL     1      51.487 -29.043 -33.271  1.00  0.00    -0.500 OA
ATOM     22  H   UNL     1      50.603 -28.683 -33.611  1.00  0.00     0.294 HD
ENDBRANCH  10  21
BRANCH   5  23
ATOM     23  O   UNL     1      55.160 -26.911 -26.775  1.00  0.00    -0.507 OA
ATOM     24  H   UNL     1      55.858 -27.422 -26.247  1.00  0.00     0.293 HD
ENDBRANCH   5  23
BRANCH   7  25
ATOM     25  O   UNL     1      56.260 -28.370 -31.232  1.00  0.00    -0.507 OA
ATOM     26  H   UNL     1      56.670 -29.283 -31.360  1.00  0.00     0.293 HD
ENDBRANCH   7  25
TORSDOF 6
ENDMDL
MODEL 6
REMARK VINA RESULT:    -5.661      1.885      7.437
REMARK INTER + INTRA:          -7.019
REMARK INTER:                  -6.721
REMARK INTRA:                  -0.298
REMARK UNBOUND:                -0.201
REMARK SMILES Oc1cc(O)c2cc(O)c(-c3ccc(O)c(O)c3)[o+]c2c1.[Cl-]
REMARK SMILES IDX 10 1 19 2 20 3 21 4 2 5 3 6 4 7 6 8 7 9 8 10 11 11 12 12
REMARK SMILES IDX 13 13 14 14 18 15 16 16 15 17 17 19 9 21 1 23 5 25
REMARK H PARENT 15 18 17 20 9 22 1 24 5 26
REMARK Flexibility Score: inf
ROOT
ATOM      1  C   UNL     1      55.553 -40.243 -24.187  1.00  0.00     0.402 A 
ATOM      2  O   UNL     1      54.344 -40.239 -23.632  1.00  0.00    -0.202 OA
ATOM      3  C   UNL     1      53.999 -39.424 -22.641  1.00  0.00     0.368 A 
ATOM      4  C   UNL     1      52.704 -39.498 -22.121  1.00  0.00     0.162 A 
ATOM      5  C   UNL     1      52.314 -38.657 -21.078  1.00  0.00     0.128 A 
ATOM      6  C   UNL     1      53.224 -37.736 -20.548  1.00  0.00     0.093 A 
ATOM      7  C   UNL     1      54.529 -37.643 -21.051  1.00  0.00     0.136 A 
ATOM      8  C   UNL     1      54.928 -38.495 -22.113  1.00  0.00     0.125 A 
ATOM      9  C   UNL     1      56.208 -38.463 -22.689  1.00  0.00     0.078 A 
ATOM     10  C   UNL     1      56.527 -39.332 -23.738  1.00  0.00     0.223 A 
ENDROOT
BRANCH   1  11
ATOM     11  C   UNL     1      55.820 -41.206 -25.279  1.00  0.00     0.087 A 
ATOM     12  C   UNL     1      56.032 -42.572 -25.017  1.00  0.00     0.022 A 
ATOM     13  C   UNL     1      56.258 -43.465 -26.067  1.00  0.00     0.051 A 
ATOM     14  C   UNL     1      56.264 -43.013 -27.393  1.00  0.00     0.157 A 
ATOM     15  C   UNL     1      55.806 -40.762 -26.611  1.00  0.00     0.068 A 
ATOM     16  C   UNL     1      56.034 -41.654 -27.665  1.00  0.00     0.158 A 
BRANCH  14  17
ATOM     17  O   UNL     1      56.492 -43.907 -28.437  1.00  0.00    -0.504 OA
ATOM     18  H   UNL     1      56.313 -43.654 -29.402  1.00  0.00     0.293 HD
ENDBRANCH  14  17
BRANCH  16  19
ATOM     19  O   UNL     1      56.026 -41.173 -28.974  1.00  0.00    -0.504 OA
ATOM     20  H   UNL     1      55.165 -41.016 -29.484  1.00  0.00     0.293 HD
ENDBRANCH  16  19
ENDBRANCH   1  11
BRANCH  10  21
ATOM     21  O   UNL     1      57.782 -39.266 -24.344  1.00  0.00    -0.500 OA
ATOM     22  H   UNL     1      58.221 -40.083 -24.751  1.00  0.00     0.294 HD
ENDBRANCH  10  21
BRANCH   5  23
ATOM     23  O   UNL     1      51.019 -38.744 -20.573  1.00  0.00    -0.507 OA
ATOM     24  H   UNL     1      50.680 -38.102 -19.866  1.00  0.00     0.293 HD
ENDBRANCH   5  23
BRANCH   7  25
ATOM     25  O   UNL     1      55.379 -36.700 -20.466  1.00  0.00    -0.507 OA
ATOM     26  H   UNL     1      55.911 -36.858 -19.623  1.00  0.00     0.293 HD
ENDBRANCH   7  25
TORSDOF 6
ENDMDL
MODEL 7
REMARK VINA RESULT:    -5.660     15.638     16.979
REMARK INTER + INTRA:          -7.019
REMARK INTER:                  -6.770
REMARK INTRA:                  -0.249
REMARK UNBOUND:                -0.201
REMARK SMILES Oc1cc(O)c2cc(O)c(-c3ccc(O)c(O)c3)[o+]c2c1.[Cl-]
REMARK SMILES IDX 10 1 19 2 20 3 21 4 2 5 3 6 4 7 6 8 7 9 8 10 11 11 12 12
REMARK SMILES IDX 13 13 14 14 18 15 16 16 15 17 17 19 9 21 1 23 5 25
REMARK H PARENT 15 18 17 20 9 22 1 24 5 26
REMARK Flexibility Score: inf
ROOT
ATOM      1  C   UNL     1      45.519 -28.069 -30.326  1.00  0.00     0.402 A 
ATOM      2  O   UNL     1      46.272 -28.378 -31.379  1.00  0.00    -0.202 OA
ATOM      3  C   UNL     1      47.540 -28.003 -31.505  1.00  0.00     0.368 A 
ATOM      4  C   UNL     1      48.248 -28.375 -32.650  1.00  0.00     0.162 A 
ATOM      5  C   UNL     1      49.580 -27.993 -32.812  1.00  0.00     0.128 A 
ATOM      6  C   UNL     1      50.211 -27.232 -31.821  1.00  0.00     0.093 A 
ATOM      7  C   UNL     1      49.523 -26.845 -30.664  1.00  0.00     0.136 A 
ATOM      8  C   UNL     1      48.169 -27.235 -30.496  1.00  0.00     0.125 A 
ATOM      9  C   UNL     1      47.406 -26.905 -29.364  1.00  0.00     0.078 A 
ATOM     10  C   UNL     1      46.077 -27.329 -29.267  1.00  0.00     0.223 A 
ENDROOT
BRANCH   1  11
ATOM     11  C   UNL     1      44.115 -28.537 -30.307  1.00  0.00     0.087 A 
ATOM     12  C   UNL     1      43.148 -27.993 -31.171  1.00  0.00     0.022 A 
ATOM     13  C   UNL     1      41.835 -28.469 -31.150  1.00  0.00     0.051 A 
ATOM     14  C   UNL     1      41.470 -29.500 -30.276  1.00  0.00     0.157 A 
ATOM     15  C   UNL     1      43.748 -29.585 -29.447  1.00  0.00     0.068 A 
ATOM     16  C   UNL     1      42.433 -30.063 -29.422  1.00  0.00     0.158 A 
BRANCH  14  17
ATOM     17  O   UNL     1      40.157 -29.970 -30.257  1.00  0.00    -0.504 OA
ATOM     18  H   UNL     1      39.417 -29.460 -29.787  1.00  0.00     0.293 HD
ENDBRANCH  14  17
BRANCH  16  19
ATOM     19  O   UNL     1      42.104 -31.097 -28.546  1.00  0.00    -0.504 OA
ATOM     20  H   UNL     1      42.128 -32.069 -28.828  1.00  0.00     0.293 HD
ENDBRANCH  16  19
ENDBRANCH   1  11
BRANCH  10  21
ATOM     21  O   UNL     1      45.334 -27.045 -28.121  1.00  0.00    -0.500 OA
ATOM     22  H   UNL     1      44.891 -26.144 -27.982  1.00  0.00     0.294 HD
ENDBRANCH  10  21
BRANCH   5  23
ATOM     23  O   UNL     1      50.270 -28.374 -33.961  1.00  0.00    -0.507 OA
ATOM     24  H   UNL     1      51.255 -28.170 -34.080  1.00  0.00     0.293 HD
ENDBRANCH   5  23
BRANCH   7  25
ATOM     25  O   UNL     1      50.223 -26.083 -29.724  1.00  0.00    -0.507 OA
ATOM     26  H   UNL     1      50.979 -25.454 -29.949  1.00  0.00     0.293 HD
ENDBRANCH   7  25
TORSDOF 6
ENDMDL
MODEL 8
REMARK VINA RESULT:    -5.627     12.402     14.418
REMARK INTER + INTRA:          -6.979
REMARK INTER:                  -6.626
REMARK INTRA:                  -0.353
REMARK UNBOUND:                -0.201
REMARK SMILES Oc1cc(O)c2cc(O)c(-c3ccc(O)c(O)c3)[o+]c2c1.[Cl-]
REMARK SMILES IDX 10 1 19 2 20 3 21 4 2 5 3 6 4 7 6 8 7 9 8 10 11 11 12 12
REMARK SMILES IDX 13 13 14 14 18 15 16 16 15 17 17 19 9 21 1 23 5 25
REMARK H PARENT 15 18 17 20 9 22 1 24 5 26
REMARK Flexibility Score: inf
ROOT
ATOM      1  C   UNL     1      47.208 -30.684 -28.769  1.00  0.00     0.402 A 
ATOM      2  O   UNL     1      47.087 -31.991 -28.985  1.00  0.00    -0.202 OA
ATOM      3  C   UNL     1      46.847 -32.871 -28.019  1.00  0.00     0.368 A 
ATOM      4  C   UNL     1      46.739 -34.226 -28.345  1.00  0.00     0.162 A 
ATOM      5  C   UNL     1      46.489 -35.172 -27.352  1.00  0.00     0.128 A 
ATOM      6  C   UNL     1      46.347 -34.765 -26.020  1.00  0.00     0.093 A 
ATOM      7  C   UNL     1      46.452 -33.413 -25.667  1.00  0.00     0.136 A 
ATOM      8  C   UNL     1      46.702 -32.447 -26.676  1.00  0.00     0.125 A 
ATOM      9  C   UNL     1      46.809 -31.071 -26.417  1.00  0.00     0.078 A 
ATOM     10  C   UNL     1      47.053 -30.177 -27.465  1.00  0.00     0.223 A 
ENDROOT
BRANCH   1  11
ATOM     11  C   UNL     1      47.487 -29.805 -29.927  1.00  0.00     0.087 A 
ATOM     12  C   UNL     1      48.803 -29.491 -30.310  1.00  0.00     0.022 A 
ATOM     13  C   UNL     1      49.041 -28.679 -31.421  1.00  0.00     0.051 A 
ATOM     14  C   UNL     1      47.971 -28.178 -32.174  1.00  0.00     0.157 A 
ATOM     15  C   UNL     1      46.419 -29.318 -30.697  1.00  0.00     0.068 A 
ATOM     16  C   UNL     1      46.653 -28.502 -31.811  1.00  0.00     0.158 A 
BRANCH  14  17
ATOM     17  O   UNL     1      48.212 -27.366 -33.281  1.00  0.00    -0.504 OA
ATOM     18  H   UNL     1      48.855 -27.645 -34.013  1.00  0.00     0.293 HD
ENDBRANCH  14  17
BRANCH  16  19
ATOM     19  O   UNL     1      45.566 -28.026 -32.543  1.00  0.00    -0.504 OA
ATOM     20  H   UNL     1      45.684 -27.487 -33.392  1.00  0.00     0.293 HD
ENDBRANCH  16  19
ENDBRANCH   1  11
BRANCH  10  21
ATOM     21  O   UNL     1      47.109 -28.806 -27.216  1.00  0.00    -0.500 OA
ATOM     22  H   UNL     1      47.756 -28.201 -27.708  1.00  0.00     0.294 HD
ENDBRANCH  10  21
BRANCH   5  23
ATOM     23  O   UNL     1      46.385 -36.519 -27.696  1.00  0.00    -0.507 OA
ATOM     24  H   UNL     1      47.029 -37.211 -27.333  1.00  0.00     0.293 HD
ENDBRANCH   5  23
BRANCH   7  25
ATOM     25  O   UNL     1      46.301 -33.087 -24.316  1.00  0.00    -0.507 OA
ATOM     26  H   UNL     1      46.783 -32.329 -23.856  1.00  0.00     0.293 HD
ENDBRANCH   7  25
TORSDOF 6
ENDMDL
MODEL 9
REMARK VINA RESULT:    -5.620     12.642     14.001
REMARK INTER + INTRA:          -6.971
REMARK INTER:                  -6.633
REMARK INTRA:                  -0.338
REMARK UNBOUND:                -0.201
REMARK SMILES Oc1cc(O)c2cc(O)c(-c3ccc(O)c(O)c3)[o+]c2c1.[Cl-]
REMARK SMILES IDX 10 1 19 2 20 3 21 4 2 5 3 6 4 7 6 8 7 9 8 10 11 11 12 12
REMARK SMILES IDX 13 13 14 14 18 15 16 16 15 17 17 19 9 21 1 23 5 25
REMARK H PARENT 15 18 17 20 9 22 1 24 5 26
REMARK Flexibility Score: inf
ROOT
ATOM      1  C   UNL     1      47.056 -30.727 -29.255  1.00  0.00     0.402 A 
ATOM      2  O   UNL     1      48.324 -30.415 -29.507  1.00  0.00    -0.202 OA
ATOM      3  C   UNL     1      48.686 -29.463 -30.360  1.00  0.00     0.368 A 
ATOM      4  C   UNL     1      50.046 -29.211 -30.560  1.00  0.00     0.162 A 
ATOM      5  C   UNL     1      50.455 -28.219 -31.451  1.00  0.00     0.128 A 
ATOM      6  C   UNL     1      49.500 -27.472 -32.150  1.00  0.00     0.093 A 
ATOM      7  C   UNL     1      48.131 -27.706 -31.967  1.00  0.00     0.136 A 
ATOM      8  C   UNL     1      47.711 -28.712 -31.060  1.00  0.00     0.125 A 
ATOM      9  C   UNL     1      46.362 -29.006 -30.803  1.00  0.00     0.078 A 
ATOM     10  C   UNL     1      46.024 -30.011 -29.890  1.00  0.00     0.223 A 
ENDROOT
BRANCH   1  11
ATOM     11  C   UNL     1      46.780 -31.816 -28.291  1.00  0.00     0.087 A 
ATOM     12  C   UNL     1      46.511 -31.547 -26.937  1.00  0.00     0.022 A 
ATOM     13  C   UNL     1      46.230 -32.591 -26.052  1.00  0.00     0.051 A 
ATOM     14  C   UNL     1      46.201 -33.915 -26.506  1.00  0.00     0.157 A 
ATOM     15  C   UNL     1      46.728 -33.144 -28.745  1.00  0.00     0.068 A 
ATOM     16  C   UNL     1      46.448 -34.192 -27.861  1.00  0.00     0.158 A 
BRANCH  14  17
ATOM     17  O   UNL     1      45.922 -34.954 -25.619  1.00  0.00    -0.504 OA
ATOM     18  H   UNL     1      45.704 -35.888 -25.947  1.00  0.00     0.293 HD
ENDBRANCH  14  17
BRANCH  16  19
ATOM     19  O   UNL     1      46.418 -35.499 -28.346  1.00  0.00    -0.504 OA
ATOM     20  H   UNL     1      47.075 -36.205 -28.033  1.00  0.00     0.293 HD
ENDBRANCH  16  19
ENDBRANCH   1  11
BRANCH  10  21
ATOM     21  O   UNL     1      44.685 -30.268 -29.597  1.00  0.00    -0.500 OA
ATOM     22  H   UNL     1      44.381 -30.512 -28.662  1.00  0.00     0.294 HD
ENDBRANCH  10  21
BRANCH   5  23
ATOM     23  O   UNL     1      51.816 -27.982 -31.637  1.00  0.00    -0.507 OA
ATOM     24  H   UNL     1      52.518 -28.635 -31.310  1.00  0.00     0.293 HD
ENDBRANCH   5  23
BRANCH   7  25
ATOM     25  O   UNL     1      47.240 -26.920 -32.705  1.00  0.00    -0.507 OA
ATOM     26  H   UNL     1      47.357 -25.932 -32.873  1.00  0.00     0.293 HD
ENDBRANCH   7  25
TORSDOF 6
ENDMDL
