MODEL 1
REMARK VINA RESULT:    -4.567      0.000      0.000
REMARK INTER + INTRA:          -9.081
REMARK INTER:                  -7.770
REMARK INTRA:                  -1.311
REMARK UNBOUND:                -1.311
REMARK SMILES CCCCCCCCCCCCCC(=O)[O-]
REMARK SMILES IDX 8 1 9 2 10 3 11 4 12 5 13 6 14 7 15 8 16 9 7 10 6 11 5 12
REMARK SMILES IDX 4 13 3 14 2 15 1 16
REMARK H PARENT
REMARK Flexibility Score: inf
ROOT
ATOM      1  C   UNL     1      84.531 125.562 129.791  1.00  0.00     0.000 C 
ENDROOT
BRANCH   1   2
ATOM      2  C   UNL     1      85.404 125.949 128.584  1.00  0.00     0.000 C 
BRANCH   2   3
ATOM      3  C   UNL     1      86.798 125.288 128.638  1.00  0.00     0.000 C 
BRANCH   3   4
ATOM      4  C   UNL     1      86.814 123.940 129.378  1.00  0.00     0.000 C 
BRANCH   4   5
ATOM      5  C   UNL     1      87.925 123.852 130.434  1.00  0.00     0.006 C 
BRANCH   5   6
ATOM      6  C   UNL     1      87.526 122.909 131.573  1.00  0.00     0.053 C 
BRANCH   6   7
ATOM      7  C   UNL     1      88.018 121.522 131.300  1.00  0.00     0.041 C 
ATOM      8  O   UNL     1      89.180 121.339 130.848  1.00  0.00    -0.550 OA
ATOM      9  O   UNL     1      87.212 120.429 131.590  1.00  0.00    -0.550 OA
ENDBRANCH   6   7
ENDBRANCH   5   6
ENDBRANCH   4   5
ENDBRANCH   3   4
ENDBRANCH   2   3
ENDBRANCH   1   2
BRANCH   1  10
ATOM     10  C   UNL     1      83.156 124.998 129.372  1.00  0.00     0.000 C 
BRANCH  10  11
ATOM     11  C   UNL     1      83.244 123.763 128.455  1.00  0.00    -0.000 C 
BRANCH  11  12
ATOM     12  C   UNL     1      82.628 123.948 127.056  1.00  0.00    -0.000 C 
BRANCH  12  13
ATOM     13  C   UNL     1      83.642 124.246 125.931  1.00  0.00    -0.000 C 
BRANCH  13  14
ATOM     14  C   UNL     1      84.885 123.334 125.911  1.00  0.00    -0.000 C 
BRANCH  14  15
ATOM     15  C   UNL     1      84.976 122.391 124.698  1.00  0.00    -0.003 C 
ATOM     16  C   UNL     1      83.649 122.249 123.954  1.00  0.00     0.004 C 
ENDBRANCH  14  15
ENDBRANCH  13  14
ENDBRANCH  12  13
ENDBRANCH  11  12
ENDBRANCH  10  11
ENDBRANCH   1  10
TORSDOF 12
ENDMDL
MODEL 2
REMARK VINA RESULT:    -4.538      1.658      2.393
REMARK INTER + INTRA:          -9.033
REMARK INTER:                  -7.255
REMARK INTRA:                  -1.778
REMARK UNBOUND:                -1.311
REMARK SMILES CCCCCCCCCCCCCC(=O)[O-]
REMARK SMILES IDX 8 1 9 2 10 3 11 4 12 5 13 6 14 7 15 8 16 9 7 10 6 11 5 12
REMARK SMILES IDX 4 13 3 14 2 15 1 16
REMARK H PARENT
REMARK Flexibility Score: inf
ROOT
ATOM      1  C   UNL     1      86.375 124.946 128.344  1.00  0.00     0.000 C 
ENDROOT
BRANCH   1   2
ATOM      2  C   UNL     1      86.273 124.903 129.879  1.00  0.00     0.000 C 
BRANCH   2   3
ATOM      3  C   UNL     1      87.305 123.940 130.504  1.00  0.00     0.000 C 
BRANCH   3   4
ATOM      4  C   UNL     1      87.786 122.841 129.541  1.00  0.00     0.000 C 
BRANCH   4   5
ATOM      5  C   UNL     1      88.390 121.631 130.268  1.00  0.00     0.006 C 
BRANCH   5   6
ATOM      6  C   UNL     1      87.294 120.762 130.890  1.00  0.00     0.053 C 
BRANCH   6   7
ATOM      7  C   UNL     1      86.899 119.667 129.950  1.00  0.00     0.041 C 
ATOM      8  O   UNL     1      85.866 118.981 130.174  1.00  0.00    -0.550 OA
ATOM      9  O   UNL     1      87.642 119.436 128.800  1.00  0.00    -0.550 OA
ENDBRANCH   6   7
ENDBRANCH   5   6
ENDBRANCH   4   5
ENDBRANCH   3   4
ENDBRANCH   2   3
ENDBRANCH   1   2
BRANCH   1  10
ATOM     10  C   UNL     1      84.992 124.975 127.658  1.00  0.00     0.000 C 
BRANCH  10  11
ATOM     11  C   UNL     1      83.862 124.373 128.515  1.00  0.00    -0.000 C 
BRANCH  11  12
ATOM     12  C   UNL     1      83.364 122.990 128.055  1.00  0.00    -0.000 C 
BRANCH  12  13
ATOM     13  C   UNL     1      84.358 121.832 128.282  1.00  0.00    -0.000 C 
BRANCH  13  14
ATOM     14  C   UNL     1      85.031 121.287 127.006  1.00  0.00    -0.000 C 
BRANCH  14  15
ATOM     15  C   UNL     1      84.295 121.617 125.695  1.00  0.00    -0.003 C 
ATOM     16  C   UNL     1      85.102 122.532 124.775  1.00  0.00     0.004 C 
ENDBRANCH  14  15
ENDBRANCH  13  14
ENDBRANCH  12  13
ENDBRANCH  11  12
ENDBRANCH  10  11
ENDBRANCH   1  10
TORSDOF 12
ENDMDL
MODEL 3
REMARK VINA RESULT:    -4.423      1.297      2.604
REMARK INTER + INTRA:          -8.837
REMARK INTER:                  -7.646
REMARK INTRA:                  -1.190
REMARK UNBOUND:                -1.311
REMARK SMILES CCCCCCCCCCCCCC(=O)[O-]
REMARK SMILES IDX 8 1 9 2 10 3 11 4 12 5 13 6 14 7 15 8 16 9 7 10 6 11 5 12
REMARK SMILES IDX 4 13 3 14 2 15 1 16
REMARK H PARENT
REMARK Flexibility Score: inf
ROOT
ATOM      1  C   UNL     1      87.030 124.095 129.131  1.00  0.00     0.000 C 
ENDROOT
BRANCH   1   2
ATOM      2  C   UNL     1      87.555 124.222 130.572  1.00  0.00     0.000 C 
BRANCH   2   3
ATOM      3  C   UNL     1      86.447 123.976 131.619  1.00  0.00     0.000 C 
BRANCH   3   4
ATOM      4  C   UNL     1      86.596 122.645 132.373  1.00  0.00     0.000 C 
BRANCH   4   5
ATOM      5  C   UNL     1      85.957 121.462 131.630  1.00  0.00     0.006 C 
BRANCH   5   6
ATOM      6  C   UNL     1      86.998 120.382 131.322  1.00  0.00     0.053 C 
BRANCH   6   7
ATOM      7  C   UNL     1      87.557 120.572 129.947  1.00  0.00     0.041 C 
ATOM      8  O   UNL     1      86.850 120.321 128.935  1.00  0.00    -0.550 OA
ATOM      9  O   UNL     1      88.842 121.074 129.782  1.00  0.00    -0.550 OA
ENDBRANCH   6   7
ENDBRANCH   5   6
ENDBRANCH   4   5
ENDBRANCH   3   4
ENDBRANCH   2   3
ENDBRANCH   1   2
BRANCH   1  10
ATOM     10  C   UNL     1      86.683 125.462 128.503  1.00  0.00     0.000 C 
BRANCH  10  11
ATOM     11  C   UNL     1      85.230 125.565 128.002  1.00  0.00    -0.000 C 
BRANCH  11  12
ATOM     12  C   UNL     1      84.338 124.358 128.347  1.00  0.00    -0.000 C 
BRANCH  12  13
ATOM     13  C   UNL     1      83.689 123.659 127.134  1.00  0.00    -0.000 C 
BRANCH  13  14
ATOM     14  C   UNL     1      84.120 124.202 125.757  1.00  0.00    -0.000 C 
BRANCH  14  15
ATOM     15  C   UNL     1      84.730 123.153 124.810  1.00  0.00    -0.003 C 
ATOM     16  C   UNL     1      83.713 122.116 124.337  1.00  0.00     0.004 C 
ENDBRANCH  14  15
ENDBRANCH  13  14
ENDBRANCH  12  13
ENDBRANCH  11  12
ENDBRANCH  10  11
ENDBRANCH   1  10
TORSDOF 12
ENDMDL
MODEL 4
REMARK VINA RESULT:    -4.407      1.287      2.272
REMARK INTER + INTRA:          -8.809
REMARK INTER:                  -8.231
REMARK INTRA:                  -0.578
REMARK UNBOUND:                -1.311
REMARK SMILES CCCCCCCCCCCCCC(=O)[O-]
REMARK SMILES IDX 8 1 9 2 10 3 11 4 12 5 13 6 14 7 15 8 16 9 7 10 6 11 5 12
REMARK SMILES IDX 4 13 3 14 2 15 1 16
REMARK H PARENT
REMARK Flexibility Score: inf
ROOT
ATOM      1  C   UNL     1      84.243 124.631 128.311  1.00  0.00     0.000 C 
ENDROOT
BRANCH   1   2
ATOM      2  C   UNL     1      85.273 125.548 128.995  1.00  0.00     0.000 C 
BRANCH   2   3
ATOM      3  C   UNL     1      86.720 125.207 128.582  1.00  0.00     0.000 C 
BRANCH   3   4
ATOM      4  C   UNL     1      87.183 123.816 129.045  1.00  0.00     0.000 C 
BRANCH   4   5
ATOM      5  C   UNL     1      87.851 123.838 130.428  1.00  0.00     0.006 C 
BRANCH   5   6
ATOM      6  C   UNL     1      87.618 122.519 131.171  1.00  0.00     0.053 C 
BRANCH   6   7
ATOM      7  C   UNL     1      88.621 121.494 130.744  1.00  0.00     0.041 C 
ATOM      8  O   UNL     1      89.684 121.336 131.402  1.00  0.00    -0.550 OA
ATOM      9  O   UNL     1      88.361 120.680 129.650  1.00  0.00    -0.550 OA
ENDBRANCH   6   7
ENDBRANCH   5   6
ENDBRANCH   4   5
ENDBRANCH   3   4
ENDBRANCH   2   3
ENDBRANCH   1   2
BRANCH   1  10
ATOM     10  C   UNL     1      84.490 124.492 126.792  1.00  0.00     0.000 C 
BRANCH  10  11
ATOM     11  C   UNL     1      84.747 123.044 126.335  1.00  0.00    -0.000 C 
BRANCH  11  12
ATOM     12  C   UNL     1      84.636 122.813 124.817  1.00  0.00    -0.000 C 
BRANCH  12  13
ATOM     13  C   UNL     1      83.298 122.206 124.346  1.00  0.00    -0.000 C 
BRANCH  13  14
ATOM     14  C   UNL     1      83.261 121.765 122.870  1.00  0.00    -0.000 C 
BRANCH  14  15
ATOM     15  C   UNL     1      82.233 120.665 122.548  1.00  0.00    -0.003 C 
ATOM     16  C   UNL     1      82.259 119.515 123.552  1.00  0.00     0.004 C 
ENDBRANCH  14  15
ENDBRANCH  13  14
ENDBRANCH  12  13
ENDBRANCH  11  12
ENDBRANCH  10  11
ENDBRANCH   1  10
TORSDOF 12
ENDMDL
MODEL 5
REMARK VINA RESULT:    -4.324      1.601      2.318
REMARK INTER + INTRA:          -8.669
REMARK INTER:                  -7.226
REMARK INTRA:                  -1.442
REMARK UNBOUND:                -1.311
REMARK SMILES CCCCCCCCCCCCCC(=O)[O-]
REMARK SMILES IDX 8 1 9 2 10 3 11 4 12 5 13 6 14 7 15 8 16 9 7 10 6 11 5 12
REMARK SMILES IDX 4 13 3 14 2 15 1 16
REMARK H PARENT
REMARK Flexibility Score: inf
ROOT
ATOM      1  C   UNL     1      84.500 124.220 128.043  1.00  0.00     0.000 C 
ENDROOT
BRANCH   1   2
ATOM      2  C   UNL     1      85.160 125.605 128.167  1.00  0.00     0.000 C 
BRANCH   2   3
ATOM      3  C   UNL     1      86.634 125.508 128.615  1.00  0.00     0.000 C 
BRANCH   3   4
ATOM      4  C   UNL     1      87.157 124.065 128.712  1.00  0.00     0.000 C 
BRANCH   4   5
ATOM      5  C   UNL     1      87.753 123.736 130.088  1.00  0.00     0.006 C 
BRANCH   5   6
ATOM      6  C   UNL     1      87.256 122.379 130.591  1.00  0.00     0.053 C 
BRANCH   6   7
ATOM      7  C   UNL     1      88.290 121.323 130.355  1.00  0.00     0.041 C 
ATOM      8  O   UNL     1      89.320 121.272 131.078  1.00  0.00    -0.550 OA
ATOM      9  O   UNL     1      88.092 120.364 129.369  1.00  0.00    -0.550 OA
ENDBRANCH   6   7
ENDBRANCH   5   6
ENDBRANCH   4   5
ENDBRANCH   3   4
ENDBRANCH   2   3
ENDBRANCH   1   2
BRANCH   1  10
ATOM     10  C   UNL     1      83.470 124.155 126.895  1.00  0.00     0.000 C 
BRANCH  10  11
ATOM     11  C   UNL     1      84.105 124.130 125.491  1.00  0.00    -0.000 C 
BRANCH  11  12
ATOM     12  C   UNL     1      83.980 122.790 124.745  1.00  0.00    -0.000 C 
BRANCH  12  13
ATOM     13  C   UNL     1      83.059 121.752 125.421  1.00  0.00    -0.000 C 
BRANCH  13  14
ATOM     14  C   UNL     1      83.774 120.502 125.971  1.00  0.00    -0.000 C 
BRANCH  14  15
ATOM     15  C   UNL     1      84.976 120.794 126.887  1.00  0.00    -0.003 C 
ATOM     16  C   UNL     1      84.667 120.568 128.365  1.00  0.00     0.004 C 
ENDBRANCH  14  15
ENDBRANCH  13  14
ENDBRANCH  12  13
ENDBRANCH  11  12
ENDBRANCH  10  11
ENDBRANCH   1  10
TORSDOF 12
ENDMDL
MODEL 6
REMARK VINA RESULT:    -4.319      2.571      4.216
REMARK INTER + INTRA:          -8.661
REMARK INTER:                  -7.170
REMARK INTRA:                  -1.491
REMARK UNBOUND:                -1.311
REMARK SMILES CCCCCCCCCCCCCC(=O)[O-]
REMARK SMILES IDX 8 1 9 2 10 3 11 4 12 5 13 6 14 7 15 8 16 9 7 10 6 11 5 12
REMARK SMILES IDX 4 13 3 14 2 15 1 16
REMARK H PARENT
REMARK Flexibility Score: inf
ROOT
ATOM      1  C   UNL     1      88.208 121.321 129.870  1.00  0.00     0.000 C 
ENDROOT
BRANCH   1   2
ATOM      2  C   UNL     1      88.300 122.182 131.142  1.00  0.00     0.000 C 
BRANCH   2   3
ATOM      3  C   UNL     1      86.994 122.146 131.964  1.00  0.00     0.000 C 
BRANCH   3   4
ATOM      4  C   UNL     1      86.305 123.515 132.089  1.00  0.00     0.000 C 
BRANCH   4   5
ATOM      5  C   UNL     1      86.857 124.554 131.101  1.00  0.00     0.006 C 
BRANCH   5   6
ATOM      6  C   UNL     1      85.793 124.956 130.076  1.00  0.00     0.053 C 
BRANCH   6   7
ATOM      7  C   UNL     1      86.425 125.230 128.748  1.00  0.00     0.041 C 
ATOM      8  O   UNL     1      87.201 124.384 128.228  1.00  0.00    -0.550 OA
ATOM      9  O   UNL     1      86.118 126.397 128.060  1.00  0.00    -0.550 OA
ENDBRANCH   6   7
ENDBRANCH   5   6
ENDBRANCH   4   5
ENDBRANCH   3   4
ENDBRANCH   2   3
ENDBRANCH   1   2
BRANCH   1  10
ATOM     10  C   UNL     1      87.043 120.308 129.921  1.00  0.00     0.000 C 
BRANCH  10  11
ATOM     11  C   UNL     1      86.084 120.405 128.720  1.00  0.00    -0.000 C 
BRANCH  11  12
ATOM     12  C   UNL     1      85.195 121.662 128.699  1.00  0.00    -0.000 C 
BRANCH  12  13
ATOM     13  C   UNL     1      84.251 121.773 127.483  1.00  0.00    -0.000 C 
BRANCH  13  14
ATOM     14  C   UNL     1      84.946 121.715 126.107  1.00  0.00    -0.000 C 
BRANCH  14  15
ATOM     15  C   UNL     1      84.692 122.934 125.202  1.00  0.00    -0.003 C 
ATOM     16  C   UNL     1      84.142 124.137 125.966  1.00  0.00     0.004 C 
ENDBRANCH  14  15
ENDBRANCH  13  14
ENDBRANCH  12  13
ENDBRANCH  11  12
ENDBRANCH  10  11
ENDBRANCH   1  10
TORSDOF 12
ENDMDL
MODEL 7
REMARK VINA RESULT:    -4.246      3.217      6.337
REMARK INTER + INTRA:          -8.536
REMARK INTER:                  -6.738
REMARK INTRA:                  -1.798
REMARK UNBOUND:                -1.311
REMARK SMILES CCCCCCCCCCCCCC(=O)[O-]
REMARK SMILES IDX 8 1 9 2 10 3 11 4 12 5 13 6 14 7 15 8 16 9 7 10 6 11 5 12
REMARK SMILES IDX 4 13 3 14 2 15 1 16
REMARK H PARENT
REMARK Flexibility Score: inf
ROOT
ATOM      1  C   UNL     1      86.546 120.537 129.378  1.00  0.00     0.000 C 
ENDROOT
BRANCH   1   2
ATOM      2  C   UNL     1      85.759 121.375 128.355  1.00  0.00     0.000 C 
BRANCH   2   3
ATOM      3  C   UNL     1      84.542 122.077 128.992  1.00  0.00     0.000 C 
BRANCH   3   4
ATOM      4  C   UNL     1      83.859 123.094 128.061  1.00  0.00     0.000 C 
BRANCH   4   5
ATOM      5  C   UNL     1      84.821 123.696 127.026  1.00  0.00     0.006 C 
BRANCH   5   6
ATOM      6  C   UNL     1      84.106 123.950 125.697  1.00  0.00     0.053 C 
BRANCH   6   7
ATOM      7  C   UNL     1      84.433 122.871 124.713  1.00  0.00     0.041 C 
ATOM      8  O   UNL     1      85.627 122.504 124.549  1.00  0.00    -0.550 OA
ATOM      9  O   UNL     1      83.415 122.236 124.013  1.00  0.00    -0.550 OA
ENDBRANCH   6   7
ENDBRANCH   5   6
ENDBRANCH   4   5
ENDBRANCH   3   4
ENDBRANCH   2   3
ENDBRANCH   1   2
BRANCH   1  10
ATOM     10  C   UNL     1      87.898 121.179 129.757  1.00  0.00     0.000 C 
BRANCH  10  11
ATOM     11  C   UNL     1      88.056 121.447 131.267  1.00  0.00    -0.000 C 
BRANCH  11  12
ATOM     12  C   UNL     1      86.750 121.374 132.079  1.00  0.00    -0.000 C 
BRANCH  12  13
ATOM     13  C   UNL     1      86.150 122.740 132.472  1.00  0.00    -0.000 C 
BRANCH  13  14
ATOM     14  C   UNL     1      86.942 123.969 131.985  1.00  0.00    -0.000 C 
BRANCH  14  15
ATOM     15  C   UNL     1      86.244 124.798 130.892  1.00  0.00    -0.003 C 
ATOM     16  C   UNL     1      86.979 124.757 129.553  1.00  0.00     0.004 C 
ENDBRANCH  14  15
ENDBRANCH  13  14
ENDBRANCH  12  13
ENDBRANCH  11  12
ENDBRANCH  10  11
ENDBRANCH   1  10
TORSDOF 12
ENDMDL
MODEL 8
REMARK VINA RESULT:    -4.231      2.552      5.813
REMARK INTER + INTRA:          -8.511
REMARK INTER:                  -7.479
REMARK INTRA:                  -1.032
REMARK UNBOUND:                -1.311
REMARK SMILES CCCCCCCCCCCCCC(=O)[O-]
REMARK SMILES IDX 8 1 9 2 10 3 11 4 12 5 13 6 14 7 15 8 16 9 7 10 6 11 5 12
REMARK SMILES IDX 4 13 3 14 2 15 1 16
REMARK H PARENT
REMARK Flexibility Score: inf
ROOT
ATOM      1  C   UNL     1      85.790 125.674 128.692  1.00  0.00     0.000 C 
ENDROOT
BRANCH   1   2
ATOM      2  C   UNL     1      85.245 124.871 127.498  1.00  0.00     0.000 C 
BRANCH   2   3
ATOM      3  C   UNL     1      83.803 124.375 127.739  1.00  0.00     0.000 C 
BRANCH   3   4
ATOM      4  C   UNL     1      83.091 123.901 126.462  1.00  0.00     0.000 C 
BRANCH   4   5
ATOM      5  C   UNL     1      84.037 123.788 125.257  1.00  0.00     0.006 C 
BRANCH   5   6
ATOM      6  C   UNL     1      83.894 122.426 124.572  1.00  0.00     0.053 C 
BRANCH   6   7
ATOM      7  C   UNL     1      84.142 121.321 125.550  1.00  0.00     0.041 C 
ATOM      8  O   UNL     1      85.257 121.226 126.128  1.00  0.00    -0.550 OA
ATOM      9  O   UNL     1      83.127 120.425 125.859  1.00  0.00    -0.550 OA
ENDBRANCH   6   7
ENDBRANCH   5   6
ENDBRANCH   4   5
ENDBRANCH   3   4
ENDBRANCH   2   3
ENDBRANCH   1   2
BRANCH   1  10
ATOM     10  C   UNL     1      86.753 124.846 129.572  1.00  0.00     0.000 C 
BRANCH  10  11
ATOM     11  C   UNL     1      86.192 124.523 130.970  1.00  0.00    -0.000 C 
BRANCH  11  12
ATOM     12  C   UNL     1      87.085 123.614 131.834  1.00  0.00    -0.000 C 
BRANCH  12  13
ATOM     13  C   UNL     1      88.425 123.210 131.183  1.00  0.00    -0.000 C 
BRANCH  13  14
ATOM     14  C   UNL     1      88.745 121.702 131.223  1.00  0.00    -0.000 C 
BRANCH  14  15
ATOM     15  C   UNL     1      87.542 120.778 130.965  1.00  0.00    -0.003 C 
ATOM     16  C   UNL     1      87.186 120.665 129.483  1.00  0.00     0.004 C 
ENDBRANCH  14  15
ENDBRANCH  13  14
ENDBRANCH  12  13
ENDBRANCH  11  12
ENDBRANCH  10  11
ENDBRANCH   1  10
TORSDOF 12
ENDMDL
MODEL 9
REMARK VINA RESULT:    -4.211      2.879      5.327
REMARK INTER + INTRA:          -8.476
REMARK INTER:                  -6.692
REMARK INTRA:                  -1.784
REMARK UNBOUND:                -1.311
REMARK SMILES CCCCCCCCCCCCCC(=O)[O-]
REMARK SMILES IDX 8 1 9 2 10 3 11 4 12 5 13 6 14 7 15 8 16 9 7 10 6 11 5 12
REMARK SMILES IDX 4 13 3 14 2 15 1 16
REMARK H PARENT
REMARK Flexibility Score: inf
ROOT
ATOM      1  C   UNL     1      84.184 125.853 129.742  1.00  0.00     0.000 C 
ENDROOT
BRANCH   1   2
ATOM      2  C   UNL     1      85.447 125.696 128.876  1.00  0.00     0.000 C 
BRANCH   2   3
ATOM      3  C   UNL     1      85.180 124.866 127.603  1.00  0.00     0.000 C 
BRANCH   3   4
ATOM      4  C   UNL     1      83.822 124.145 127.609  1.00  0.00     0.000 C 
BRANCH   4   5
ATOM      5  C   UNL     1      83.947 122.635 127.857  1.00  0.00     0.006 C 
BRANCH   5   6
ATOM      6  C   UNL     1      85.124 122.047 127.074  1.00  0.00     0.053 C 
BRANCH   6   7
ATOM      7  C   UNL     1      84.752 121.854 125.637  1.00  0.00     0.041 C 
ATOM      8  O   UNL     1      83.740 121.168 125.332  1.00  0.00    -0.550 OA
ATOM      9  O   UNL     1      85.493 122.471 124.638  1.00  0.00    -0.550 OA
ENDBRANCH   6   7
ENDBRANCH   5   6
ENDBRANCH   4   5
ENDBRANCH   3   4
ENDBRANCH   2   3
ENDBRANCH   1   2
BRANCH   1  10
ATOM     10  C   UNL     1      84.411 125.419 131.206  1.00  0.00     0.000 C 
BRANCH  10  11
ATOM     11  C   UNL     1      84.686 123.912 131.371  1.00  0.00    -0.000 C 
BRANCH  11  12
ATOM     12  C   UNL     1      85.935 123.567 132.203  1.00  0.00    -0.000 C 
BRANCH  12  13
ATOM     13  C   UNL     1      87.190 124.403 131.872  1.00  0.00    -0.000 C 
BRANCH  13  14
ATOM     14  C   UNL     1      88.324 123.632 131.168  1.00  0.00    -0.000 C 
BRANCH  14  15
ATOM     15  C   UNL     1      87.957 123.059 129.787  1.00  0.00    -0.003 C 
ATOM     16  C   UNL     1      87.930 121.532 129.764  1.00  0.00     0.004 C 
ENDBRANCH  14  15
ENDBRANCH  13  14
ENDBRANCH  12  13
ENDBRANCH  11  12
ENDBRANCH  10  11
ENDBRANCH   1  10
TORSDOF 12
ENDMDL
