MODEL 1
REMARK VINA RESULT:    12.768      0.000      0.000
REMARK INTER + INTRA:          14.744
REMARK INTER:                  15.007
REMARK INTRA:                  -0.263
REMARK UNBOUND:                -0.263
REMARK SMILES O=c1cc(-c2ccc(O)c(O)c2)oc2cc(O)cc(O)c12
REMARK SMILES IDX 4 1 3 2 2 3 1 4 21 5 19 6 18 7 16 8 15 9 14 10 13 11 5 12
REMARK SMILES IDX 6 13 7 14 8 15 12 16 10 17 9 18 11 20 20 22 17 24
REMARK H PARENT 9 19 11 21 20 23 17 25
REMARK Flexibility Score: inf
ROOT
ATOM      1  C   UNL     1     -42.234  44.685  12.067  1.00  0.00     0.138 A 
ATOM      2  C   UNL     1     -41.058  44.081  11.592  1.00  0.00     0.100 A 
ATOM      3  C   UNL     1     -41.058  42.717  11.296  1.00  0.00     0.197 A 
ATOM      4  O   UNL     1     -39.998  42.183  10.871  1.00  0.00    -0.289 OA
ATOM      5  C   UNL     1     -42.235  41.965  11.481  1.00  0.00     0.107 A 
ATOM      6  C   UNL     1     -42.322  40.580  11.205  1.00  0.00     0.134 A 
ATOM      7  C   UNL     1     -43.531  39.902  11.422  1.00  0.00     0.093 A 
ATOM      8  C   UNL     1     -44.651  40.581  11.908  1.00  0.00     0.123 A 
ATOM      9  C   UNL     1     -44.571  41.950  12.183  1.00  0.00     0.094 A 
ATOM     10  C   UNL     1     -43.376  42.644  11.974  1.00  0.00     0.146 A 
ATOM     11  O   UNL     1     -43.326  43.944  12.240  1.00  0.00    -0.456 OA
ENDROOT
BRANCH   1  12
ATOM     12  C   UNL     1     -42.291  46.131  12.400  1.00  0.00     0.021 A 
ATOM     13  C   UNL     1     -42.459  46.526  13.738  1.00  0.00     0.016 A 
ATOM     14  C   UNL     1     -42.524  47.880  14.077  1.00  0.00     0.051 A 
ATOM     15  C   UNL     1     -42.433  48.862  13.086  1.00  0.00     0.157 A 
ATOM     16  C   UNL     1     -42.214  47.124  11.403  1.00  0.00     0.062 A 
ATOM     17  C   UNL     1     -42.281  48.484  11.743  1.00  0.00     0.158 A 
BRANCH  15  18
ATOM     18  O   UNL     1     -42.499  50.205  13.455  1.00  0.00    -0.504 OA
ATOM     19  H   UNL     1     -43.374  50.714  13.480  1.00  0.00     0.293 HD
ENDBRANCH  15  18
BRANCH  17  20
ATOM     20  O   UNL     1     -42.201  49.459  10.748  1.00  0.00    -0.504 OA
ATOM     21  H   UNL     1     -43.030  49.917  10.386  1.00  0.00     0.293 HD
ENDBRANCH  17  20
ENDBRANCH   1  12
BRANCH   6  22
ATOM     22  O   UNL     1     -41.220  39.876  10.718  1.00  0.00    -0.507 OA
ATOM     23  H   UNL     1     -40.312  40.314  10.612  1.00  0.00     0.293 HD
ENDBRANCH   6  22
BRANCH   8  24
ATOM     24  O   UNL     1     -45.839  39.883  12.115  1.00  0.00    -0.508 OA
ATOM     25  H   UNL     1     -46.308  39.890  13.014  1.00  0.00     0.293 HD
ENDBRANCH   8  24
TORSDOF 5
ENDMDL
MODEL 2
REMARK VINA RESULT:    13.881      0.818      1.545
REMARK INTER + INTRA:          16.052
REMARK INTER:                  16.317
REMARK INTRA:                  -0.265
REMARK UNBOUND:                -0.263
REMARK SMILES O=c1cc(-c2ccc(O)c(O)c2)oc2cc(O)cc(O)c12
REMARK SMILES IDX 4 1 3 2 2 3 1 4 21 5 19 6 18 7 16 8 15 9 14 10 13 11 5 12
REMARK SMILES IDX 6 13 7 14 8 15 12 16 10 17 9 18 11 20 20 22 17 24
REMARK H PARENT 9 19 11 21 20 23 17 25
REMARK Flexibility Score: inf
ROOT
ATOM      1  C   UNL     1     -42.030  44.823  11.989  1.00  0.00     0.138 A 
ATOM      2  C   UNL     1     -40.783  44.175  12.019  1.00  0.00     0.100 A 
ATOM      3  C   UNL     1     -40.735  42.780  12.040  1.00  0.00     0.197 A 
ATOM      4  O   UNL     1     -39.612  42.207  12.068  1.00  0.00    -0.289 OA
ATOM      5  C   UNL     1     -41.935  42.042  12.035  1.00  0.00     0.107 A 
ATOM      6  C   UNL     1     -41.976  40.628  12.055  1.00  0.00     0.134 A 
ATOM      7  C   UNL     1     -43.214  39.968  12.054  1.00  0.00     0.093 A 
ATOM      8  C   UNL     1     -44.408  40.693  12.034  1.00  0.00     0.123 A 
ATOM      9  C   UNL     1     -44.374  42.091  12.015  1.00  0.00     0.094 A 
ATOM     10  C   UNL     1     -43.151  42.768  12.015  1.00  0.00     0.146 A 
ATOM     11  O   UNL     1     -43.145  44.096  11.994  1.00  0.00    -0.456 OA
ENDROOT
BRANCH   1  12
ATOM     12  C   UNL     1     -42.142  46.303  11.966  1.00  0.00     0.021 A 
ATOM     13  C   UNL     1     -42.164  46.975  10.733  1.00  0.00     0.016 A 
ATOM     14  C   UNL     1     -42.261  48.368  10.684  1.00  0.00     0.051 A 
ATOM     15  C   UNL     1     -42.327  49.114  11.863  1.00  0.00     0.157 A 
ATOM     16  C   UNL     1     -42.195  47.060  13.154  1.00  0.00     0.062 A 
ATOM     17  C   UNL     1     -42.290  48.459  13.105  1.00  0.00     0.158 A 
BRANCH  15  18
ATOM     18  O   UNL     1     -42.426  50.503  11.783  1.00  0.00    -0.504 OA
ATOM     19  H   UNL     1     -41.875  51.116  12.371  1.00  0.00     0.293 HD
ENDBRANCH  15  18
BRANCH  17  20
ATOM     20  O   UNL     1     -42.344  49.199  14.286  1.00  0.00    -0.504 OA
ATOM     21  H   UNL     1     -41.636  49.103  15.005  1.00  0.00     0.293 HD
ENDBRANCH  17  20
ENDBRANCH   1  12
BRANCH   6  22
ATOM     22  O   UNL     1     -40.800  39.877  12.074  1.00  0.00    -0.507 OA
ATOM     23  H   UNL     1     -40.200  39.848  12.891  1.00  0.00     0.293 HD
ENDBRANCH   6  22
BRANCH   8  24
ATOM     24  O   UNL     1     -45.624  40.012  12.035  1.00  0.00    -0.508 OA
ATOM     25  H   UNL     1     -45.757  39.165  12.575  1.00  0.00     0.293 HD
ENDBRANCH   8  24
TORSDOF 5
ENDMDL
