MODEL 1
REMARK VINA RESULT:    14.724      0.000      0.000
REMARK INTER + INTRA:          17.532
REMARK INTER:                  17.736
REMARK INTRA:                  -0.205
REMARK UNBOUND:                -0.205
REMARK SMILES O=c1c(O)c(-c2ccc(O)c(O)c2)oc2cc(O)cc(O)c12
REMARK SMILES IDX 5 1 3 2 2 3 1 4 22 5 20 6 19 7 17 8 16 9 15 10 14 11 6 12
REMARK SMILES IDX 7 13 8 14 9 15 13 16 11 17 10 18 12 20 4 22 21 24 18 26
REMARK H PARENT 10 19 12 21 4 23 21 25 18 27
REMARK Flexibility Score: inf
ROOT
ATOM      1  C   UNL     1     -42.301  44.692  12.156  1.00  0.00     0.180 A 
ATOM      2  C   UNL     1     -41.092  44.104  11.736  1.00  0.00     0.208 A 
ATOM      3  C   UNL     1     -41.067  42.728  11.460  1.00  0.00     0.238 A 
ATOM      4  O   UNL     1     -39.988  42.188  11.094  1.00  0.00    -0.285 OA
ATOM      5  C   UNL     1     -42.249  41.970  11.588  1.00  0.00     0.111 A 
ATOM      6  C   UNL     1     -42.309  40.580  11.325  1.00  0.00     0.134 A 
ATOM      7  C   UNL     1     -43.527  39.899  11.466  1.00  0.00     0.093 A 
ATOM      8  C   UNL     1     -44.682  40.576  11.863  1.00  0.00     0.123 A 
ATOM      9  C   UNL     1     -44.628  41.949  12.124  1.00  0.00     0.094 A 
ATOM     10  C   UNL     1     -43.424  42.646  11.991  1.00  0.00     0.146 A 
ATOM     11  O   UNL     1     -43.399  43.949  12.251  1.00  0.00    -0.452 OA
ENDROOT
BRANCH   1  12
ATOM     12  C   UNL     1     -42.403  46.132  12.484  1.00  0.00     0.025 A 
ATOM     13  C   UNL     1     -42.564  46.526  13.822  1.00  0.00     0.016 A 
ATOM     14  C   UNL     1     -42.641  47.880  14.157  1.00  0.00     0.051 A 
ATOM     15  C   UNL     1     -42.544  48.861  13.162  1.00  0.00     0.157 A 
ATOM     16  C   UNL     1     -42.285  47.121  11.491  1.00  0.00     0.062 A 
ATOM     17  C   UNL     1     -42.361  48.480  11.827  1.00  0.00     0.158 A 
BRANCH  15  18
ATOM     18  O   UNL     1     -42.622  50.213  13.491  1.00  0.00    -0.504 OA
ATOM     19  H   UNL     1     -43.448  50.761  13.284  1.00  0.00     0.293 HD
ENDBRANCH  15  18
BRANCH  17  20
ATOM     20  O   UNL     1     -42.251  49.458  10.839  1.00  0.00    -0.504 OA
ATOM     21  H   UNL     1     -41.513  50.152  10.861  1.00  0.00     0.293 HD
ENDBRANCH  17  20
ENDBRANCH   1  12
BRANCH   2  22
ATOM     22  O   UNL     1     -39.946  44.887  11.570  1.00  0.00    -0.502 OA
ATOM     23  H   UNL     1     -39.218  44.938  12.272  1.00  0.00     0.293 HD
ENDBRANCH   2  22
BRANCH   6  24
ATOM     24  O   UNL     1     -41.174  39.875  10.926  1.00  0.00    -0.507 OA
ATOM     25  H   UNL     1     -40.258  40.309  10.899  1.00  0.00     0.293 HD
ENDBRANCH   6  24
BRANCH   8  26
ATOM     26  O   UNL     1     -45.879  39.875  11.995  1.00  0.00    -0.508 OA
ATOM     27  H   UNL     1     -45.991  39.144  12.687  1.00  0.00     0.293 HD
ENDBRANCH   8  26
TORSDOF 6
ENDMDL
MODEL 2
REMARK VINA RESULT:    15.925      1.449      3.175
REMARK INTER + INTRA:          18.978
REMARK INTER:                  19.296
REMARK INTRA:                  -0.318
REMARK UNBOUND:                -0.205
REMARK SMILES O=c1c(O)c(-c2ccc(O)c(O)c2)oc2cc(O)cc(O)c12
REMARK SMILES IDX 5 1 3 2 2 3 1 4 22 5 20 6 19 7 17 8 16 9 15 10 14 11 6 12
REMARK SMILES IDX 7 13 8 14 9 15 13 16 11 17 10 18 12 20 4 22 21 24 18 26
REMARK H PARENT 10 19 12 21 4 23 21 25 18 27
REMARK Flexibility Score: inf
ROOT
ATOM      1  C   UNL     1     -42.361  44.797  12.078  1.00  0.00     0.180 A 
ATOM      2  C   UNL     1     -43.627  44.180  12.031  1.00  0.00     0.208 A 
ATOM      3  C   UNL     1     -43.700  42.779  12.065  1.00  0.00     0.238 A 
ATOM      4  O   UNL     1     -44.826  42.214  12.012  1.00  0.00    -0.285 OA
ATOM      5  C   UNL     1     -42.514  42.021  12.165  1.00  0.00     0.111 A 
ATOM      6  C   UNL     1     -42.501  40.607  12.209  1.00  0.00     0.134 A 
ATOM      7  C   UNL     1     -41.279  39.926  12.319  1.00  0.00     0.093 A 
ATOM      8  C   UNL     1     -40.075  40.629  12.387  1.00  0.00     0.123 A 
ATOM      9  C   UNL     1     -40.082  42.027  12.343  1.00  0.00     0.094 A 
ATOM     10  C   UNL     1     -41.288  42.724  12.233  1.00  0.00     0.146 A 
ATOM     11  O   UNL     1     -41.266  44.052  12.187  1.00  0.00    -0.452 OA
ENDROOT
BRANCH   1  12
ATOM     12  C   UNL     1     -42.201  46.268  12.028  1.00  0.00     0.025 A 
ATOM     13  C   UNL     1     -42.007  46.899  10.789  1.00  0.00     0.016 A 
ATOM     14  C   UNL     1     -41.874  48.288  10.715  1.00  0.00     0.051 A 
ATOM     15  C   UNL     1     -41.950  49.068  11.877  1.00  0.00     0.157 A 
ATOM     16  C   UNL     1     -42.298  47.056  13.189  1.00  0.00     0.062 A 
ATOM     17  C   UNL     1     -42.166  48.451  13.115  1.00  0.00     0.158 A 
BRANCH  15  18
ATOM     18  O   UNL     1     -41.817  50.453  11.808  1.00  0.00    -0.504 OA
ATOM     19  H   UNL     1     -41.577  51.003  12.625  1.00  0.00     0.293 HD
ENDBRANCH  15  18
BRANCH  17  20
ATOM     20  O   UNL     1     -42.255  49.229  14.268  1.00  0.00    -0.504 OA
ATOM     21  H   UNL     1     -42.901  49.001  15.014  1.00  0.00     0.293 HD
ENDBRANCH  17  20
ENDBRANCH   1  12
BRANCH   2  22
ATOM     22  O   UNL     1     -44.789  44.954  11.981  1.00  0.00    -0.502 OA
ATOM     23  H   UNL     1     -45.093  45.526  12.760  1.00  0.00     0.293 HD
ENDBRANCH   2  22
BRANCH   6  24
ATOM     24  O   UNL     1     -43.687  39.875  12.145  1.00  0.00    -0.507 OA
ATOM     25  H   UNL     1     -44.592  40.315  12.265  1.00  0.00     0.293 HD
ENDBRANCH   6  24
BRANCH   8  26
ATOM     26  O   UNL     1     -38.875  39.929  12.496  1.00  0.00    -0.508 OA
ATOM     27  H   UNL     1     -38.825  38.932  12.323  1.00  0.00     0.293 HD
ENDBRANCH   8  26
TORSDOF 6
ENDMDL
