MODEL 1
REMARK VINA RESULT:    -4.147      0.000      0.000
REMARK INTER + INTRA:         -13.758
REMARK INTER:                 -10.451
REMARK INTRA:                  -3.307
REMARK UNBOUND:                -3.307
REMARK SMILES CCCCCCCCCCCCCCCCCCCCCCCCCCCC(=O)[O-]
REMARK SMILES IDX 15 1 16 2 17 3 18 4 19 5 20 6 21 7 22 8 23 9 24 10 25 11
REMARK SMILES IDX 26 12 27 13 28 14 29 15 30 16 14 17 13 18 12 19 11 20 10 21
REMARK SMILES IDX 9 22 8 23 7 24 6 25 5 26 4 27 3 28 2 29 1 30
REMARK H PARENT
REMARK Flexibility Score: inf
ROOT
ATOM      1  C   UNL     1     303.166 326.147 645.328  1.00  0.00     0.000 C 
ENDROOT
BRANCH   1   2
ATOM      2  C   UNL     1     302.492 327.435 645.838  1.00  0.00     0.000 C 
BRANCH   2   3
ATOM      3  C   UNL     1     301.699 328.160 644.743  1.00  0.00     0.000 C 
BRANCH   3   4
ATOM      4  C   UNL     1     300.280 328.495 645.219  1.00  0.00     0.000 C 
BRANCH   4   5
ATOM      5  C   UNL     1     299.279 328.651 644.061  1.00  0.00     0.000 C 
BRANCH   5   6
ATOM      6  C   UNL     1     299.225 330.076 643.469  1.00  0.00     0.000 C 
BRANCH   6   7
ATOM      7  C   UNL     1     299.595 331.151 644.506  1.00  0.00     0.000 C 
BRANCH   7   8
ATOM      8  C   UNL     1     300.852 331.947 644.119  1.00  0.00     0.000 C 
BRANCH   8   9
ATOM      9  C   UNL     1     300.542 333.325 643.496  1.00  0.00     0.000 C 
BRANCH   9  10
ATOM     10  C   UNL     1     299.969 334.309 644.530  1.00  0.00     0.000 C 
BRANCH  10  11
ATOM     11  C   UNL     1     300.950 335.436 644.899  1.00  0.00     0.000 C 
BRANCH  11  12
ATOM     12  C   UNL     1     302.123 335.012 645.808  1.00  0.00     0.006 C 
BRANCH  12  13
ATOM     13  C   UNL     1     303.517 335.252 645.207  1.00  0.00     0.053 C 
BRANCH  13  14
ATOM     14  C   UNL     1     304.036 336.620 645.523  1.00  0.00     0.041 C 
ATOM     15  O   UNL     1     303.354 337.638 645.234  1.00  0.00    -0.550 OA
ATOM     16  O   UNL     1     305.283 336.773 646.114  1.00  0.00    -0.550 OA
ENDBRANCH  13  14
ENDBRANCH  12  13
ENDBRANCH  11  12
ENDBRANCH  10  11
ENDBRANCH   9  10
ENDBRANCH   8   9
ENDBRANCH   7   8
ENDBRANCH   6   7
ENDBRANCH   5   6
ENDBRANCH   4   5
ENDBRANCH   3   4
ENDBRANCH   2   3
ENDBRANCH   1   2
BRANCH   1  17
ATOM     17  C   UNL     1     302.605 325.598 644.000  1.00  0.00     0.000 C 
BRANCH  17  18
ATOM     18  C   UNL     1     302.263 324.097 644.009  1.00  0.00     0.000 C 
BRANCH  18  19
ATOM     19  C   UNL     1     300.785 323.822 643.695  1.00  0.00     0.000 C 
BRANCH  19  20
ATOM     20  C   UNL     1     299.884 324.931 644.248  1.00  0.00     0.000 C 
BRANCH  20  21
ATOM     21  C   UNL     1     299.170 324.468 645.526  1.00  0.00     0.000 C 
BRANCH  21  22
ATOM     22  C   UNL     1     299.451 325.379 646.734  1.00  0.00    -0.000 C 
BRANCH  22  23
ATOM     23  C   UNL     1     300.205 324.702 647.897  1.00  0.00    -0.000 C 
BRANCH  23  24
ATOM     24  C   UNL     1     301.275 323.676 647.478  1.00  0.00    -0.000 C 
BRANCH  24  25
ATOM     25  C   UNL     1     302.628 323.821 648.196  1.00  0.00    -0.000 C 
BRANCH  25  26
ATOM     26  C   UNL     1     303.678 322.813 647.698  1.00  0.00    -0.000 C 
BRANCH  26  27
ATOM     27  C   UNL     1     304.786 322.558 648.731  1.00  0.00    -0.000 C 
BRANCH  27  28
ATOM     28  C   UNL     1     304.950 321.066 649.066  1.00  0.00    -0.000 C 
BRANCH  28  29
ATOM     29  C   UNL     1     306.047 320.815 650.111  1.00  0.00    -0.003 C 
ATOM     30  C   UNL     1     306.028 321.842 651.243  1.00  0.00     0.004 C 
ENDBRANCH  28  29
ENDBRANCH  27  28
ENDBRANCH  26  27
ENDBRANCH  25  26
ENDBRANCH  24  25
ENDBRANCH  23  24
ENDBRANCH  22  23
ENDBRANCH  21  22
ENDBRANCH  20  21
ENDBRANCH  19  20
ENDBRANCH  18  19
ENDBRANCH  17  18
ENDBRANCH   1  17
TORSDOF 26
ENDMDL
MODEL 2
REMARK VINA RESULT:    -4.116      4.557      9.820
REMARK INTER + INTRA:         -13.678
REMARK INTER:                  -9.261
REMARK INTRA:                  -4.417
REMARK UNBOUND:                -3.307
REMARK SMILES CCCCCCCCCCCCCCCCCCCCCCCCCCCC(=O)[O-]
REMARK SMILES IDX 15 1 16 2 17 3 18 4 19 5 20 6 21 7 22 8 23 9 24 10 25 11
REMARK SMILES IDX 26 12 27 13 28 14 29 15 30 16 14 17 13 18 12 19 11 20 10 21
REMARK SMILES IDX 9 22 8 23 7 24 6 25 5 26 4 27 3 28 2 29 1 30
REMARK H PARENT
REMARK Flexibility Score: inf
ROOT
ATOM      1  C   UNL     1     302.948 323.632 644.136  1.00  0.00     0.000 C 
ENDROOT
BRANCH   1   2
ATOM      2  C   UNL     1     302.555 324.330 642.821  1.00  0.00     0.000 C 
BRANCH   2   3
ATOM      3  C   UNL     1     301.267 325.152 642.951  1.00  0.00     0.000 C 
BRANCH   3   4
ATOM      4  C   UNL     1     300.410 324.656 644.123  1.00  0.00     0.000 C 
BRANCH   4   5
ATOM      5  C   UNL     1     299.274 325.627 644.489  1.00  0.00     0.000 C 
BRANCH   5   6
ATOM      6  C   UNL     1     298.943 325.662 645.997  1.00  0.00     0.000 C 
BRANCH   6   7
ATOM      7  C   UNL     1     299.009 324.265 646.639  1.00  0.00     0.000 C 
BRANCH   7   8
ATOM      8  C   UNL     1     299.848 324.239 647.926  1.00  0.00     0.000 C 
BRANCH   8   9
ATOM      9  C   UNL     1     301.331 324.609 647.704  1.00  0.00     0.000 C 
BRANCH   9  10
ATOM     10  C   UNL     1     302.246 323.373 647.748  1.00  0.00     0.000 C 
BRANCH  10  11
ATOM     11  C   UNL     1     303.439 323.540 648.706  1.00  0.00     0.000 C 
BRANCH  11  12
ATOM     12  C   UNL     1     304.675 322.680 648.368  1.00  0.00     0.006 C 
BRANCH  12  13
ATOM     13  C   UNL     1     305.957 323.083 649.113  1.00  0.00     0.053 C 
BRANCH  13  14
ATOM     14  C   UNL     1     306.580 321.923 649.827  1.00  0.00     0.041 C 
ATOM     15  O   UNL     1     306.350 321.738 651.051  1.00  0.00    -0.550 OA
ATOM     16  O   UNL     1     307.432 321.063 649.149  1.00  0.00    -0.550 OA
ENDBRANCH  13  14
ENDBRANCH  12  13
ENDBRANCH  11  12
ENDBRANCH  10  11
ENDBRANCH   9  10
ENDBRANCH   8   9
ENDBRANCH   7   8
ENDBRANCH   6   7
ENDBRANCH   5   6
ENDBRANCH   4   5
ENDBRANCH   3   4
ENDBRANCH   2   3
ENDBRANCH   1   2
BRANCH   1  17
ATOM     17  C   UNL     1     304.396 323.887 644.604  1.00  0.00     0.000 C 
BRANCH  17  18
ATOM     18  C   UNL     1     304.760 325.368 644.817  1.00  0.00     0.000 C 
BRANCH  18  19
ATOM     19  C   UNL     1     304.500 325.844 646.254  1.00  0.00     0.000 C 
BRANCH  19  20
ATOM     20  C   UNL     1     303.953 327.276 646.275  1.00  0.00     0.000 C 
BRANCH  20  21
ATOM     21  C   UNL     1     302.515 327.318 645.738  1.00  0.00     0.000 C 
BRANCH  21  22
ATOM     22  C   UNL     1     302.352 328.263 644.535  1.00  0.00    -0.000 C 
BRANCH  22  23
ATOM     23  C   UNL     1     301.592 329.571 644.834  1.00  0.00    -0.000 C 
BRANCH  23  24
ATOM     24  C   UNL     1     300.068 329.512 644.608  1.00  0.00    -0.000 C 
BRANCH  24  25
ATOM     25  C   UNL     1     299.638 329.047 643.206  1.00  0.00    -0.000 C 
BRANCH  25  26
ATOM     26  C   UNL     1     299.263 330.216 642.279  1.00  0.00    -0.000 C 
BRANCH  26  27
ATOM     27  C   UNL     1     299.311 331.574 642.996  1.00  0.00    -0.000 C 
BRANCH  27  28
ATOM     28  C   UNL     1     300.150 332.614 642.234  1.00  0.00    -0.000 C 
BRANCH  28  29
ATOM     29  C   UNL     1     301.021 333.466 643.170  1.00  0.00    -0.003 C 
ATOM     30  C   UNL     1     300.316 333.807 644.483  1.00  0.00     0.004 C 
ENDBRANCH  28  29
ENDBRANCH  27  28
ENDBRANCH  26  27
ENDBRANCH  25  26
ENDBRANCH  24  25
ENDBRANCH  23  24
ENDBRANCH  22  23
ENDBRANCH  21  22
ENDBRANCH  20  21
ENDBRANCH  19  20
ENDBRANCH  18  19
ENDBRANCH  17  18
ENDBRANCH   1  17
TORSDOF 26
ENDMDL
MODEL 3
REMARK VINA RESULT:    -4.108      5.864      8.713
REMARK INTER + INTRA:         -13.658
REMARK INTER:                  -8.549
REMARK INTRA:                  -5.109
REMARK UNBOUND:                -3.307
REMARK SMILES CCCCCCCCCCCCCCCCCCCCCCCCCCCC(=O)[O-]
REMARK SMILES IDX 15 1 16 2 17 3 18 4 19 5 20 6 21 7 22 8 23 9 24 10 25 11
REMARK SMILES IDX 26 12 27 13 28 14 29 15 30 16 14 17 13 18 12 19 11 20 10 21
REMARK SMILES IDX 9 22 8 23 7 24 6 25 5 26 4 27 3 28 2 29 1 30
REMARK H PARENT
REMARK Flexibility Score: inf
ROOT
ATOM      1  C   UNL     1     301.500 323.586 647.158  1.00  0.00     0.000 C 
ENDROOT
BRANCH   1   2
ATOM      2  C   UNL     1     299.997 323.813 647.401  1.00  0.00     0.000 C 
BRANCH   2   3
ATOM      3  C   UNL     1     299.648 325.293 647.602  1.00  0.00     0.000 C 
BRANCH   3   4
ATOM      4  C   UNL     1     299.100 325.911 646.308  1.00  0.00     0.000 C 
BRANCH   4   5
ATOM      5  C   UNL     1     299.730 327.277 645.982  1.00  0.00     0.000 C 
BRANCH   5   6
ATOM      6  C   UNL     1     300.895 327.202 644.971  1.00  0.00     0.000 C 
BRANCH   6   7
ATOM      7  C   UNL     1     300.655 326.138 643.886  1.00  0.00     0.000 C 
BRANCH   7   8
ATOM      8  C   UNL     1     301.710 325.020 643.904  1.00  0.00     0.000 C 
BRANCH   8   9
ATOM      9  C   UNL     1     301.220 323.700 643.271  1.00  0.00     0.000 C 
BRANCH   9  10
ATOM     10  C   UNL     1     302.377 322.884 642.669  1.00  0.00     0.000 C 
BRANCH  10  11
ATOM     11  C   UNL     1     303.656 323.715 642.461  1.00  0.00     0.000 C 
BRANCH  11  12
ATOM     12  C   UNL     1     304.915 323.165 643.165  1.00  0.00     0.006 C 
BRANCH  12  13
ATOM     13  C   UNL     1     304.651 322.519 644.534  1.00  0.00     0.053 C 
BRANCH  13  14
ATOM     14  C   UNL     1     305.092 321.089 644.575  1.00  0.00     0.041 C 
ATOM     15  O   UNL     1     304.785 320.306 643.637  1.00  0.00    -0.550 OA
ATOM     16  O   UNL     1     305.819 320.614 645.657  1.00  0.00    -0.550 OA
ENDBRANCH  13  14
ENDBRANCH  12  13
ENDBRANCH  11  12
ENDBRANCH  10  11
ENDBRANCH   9  10
ENDBRANCH   8   9
ENDBRANCH   7   8
ENDBRANCH   6   7
ENDBRANCH   5   6
ENDBRANCH   4   5
ENDBRANCH   3   4
ENDBRANCH   2   3
ENDBRANCH   1   2
BRANCH   1  17
ATOM     17  C   UNL     1     302.441 324.422 648.051  1.00  0.00     0.000 C 
BRANCH  17  18
ATOM     18  C   UNL     1     303.494 323.610 648.827  1.00  0.00     0.000 C 
BRANCH  18  19
ATOM     19  C   UNL     1     303.893 322.313 648.107  1.00  0.00     0.000 C 
BRANCH  19  20
ATOM     20  C   UNL     1     304.800 321.445 648.987  1.00  0.00     0.000 C 
BRANCH  20  21
ATOM     21  C   UNL     1     305.183 322.189 650.275  1.00  0.00     0.000 C 
BRANCH  21  22
ATOM     22  C   UNL     1     306.682 322.082 650.604  1.00  0.00    -0.000 C 
BRANCH  22  23
ATOM     23  C   UNL     1     307.629 322.390 649.427  1.00  0.00    -0.000 C 
BRANCH  23  24
ATOM     24  C   UNL     1     307.859 323.887 649.141  1.00  0.00    -0.000 C 
BRANCH  24  25
ATOM     25  C   UNL     1     307.798 324.280 647.654  1.00  0.00    -0.000 C 
BRANCH  25  26
ATOM     26  C   UNL     1     306.418 324.816 647.236  1.00  0.00    -0.000 C 
BRANCH  26  27
ATOM     27  C   UNL     1     306.305 326.340 647.396  1.00  0.00    -0.000 C 
BRANCH  27  28
ATOM     28  C   UNL     1     305.004 326.902 646.798  1.00  0.00    -0.000 C 
BRANCH  28  29
ATOM     29  C   UNL     1     304.553 326.134 645.547  1.00  0.00    -0.003 C 
ATOM     30  C   UNL     1     305.016 326.797 644.250  1.00  0.00     0.004 C 
ENDBRANCH  28  29
ENDBRANCH  27  28
ENDBRANCH  26  27
ENDBRANCH  25  26
ENDBRANCH  24  25
ENDBRANCH  23  24
ENDBRANCH  22  23
ENDBRANCH  21  22
ENDBRANCH  20  21
ENDBRANCH  19  20
ENDBRANCH  18  19
ENDBRANCH  17  18
ENDBRANCH   1  17
TORSDOF 26
ENDMDL
MODEL 4
REMARK VINA RESULT:    -4.100      3.967      9.092
REMARK INTER + INTRA:         -13.639
REMARK INTER:                  -9.134
REMARK INTRA:                  -4.505
REMARK UNBOUND:                -3.307
REMARK SMILES CCCCCCCCCCCCCCCCCCCCCCCCCCCC(=O)[O-]
REMARK SMILES IDX 15 1 16 2 17 3 18 4 19 5 20 6 21 7 22 8 23 9 24 10 25 11
REMARK SMILES IDX 26 12 27 13 28 14 29 15 30 16 14 17 13 18 12 19 11 20 10 21
REMARK SMILES IDX 9 22 8 23 7 24 6 25 5 26 4 27 3 28 2 29 1 30
REMARK H PARENT
REMARK Flexibility Score: inf
ROOT
ATOM      1  C   UNL     1     299.441 325.575 645.964  1.00  0.00     0.000 C 
ENDROOT
BRANCH   1   2
ATOM      2  C   UNL     1     298.892 324.275 646.580  1.00  0.00     0.000 C 
BRANCH   2   3
ATOM      3  C   UNL     1     299.767 323.748 647.724  1.00  0.00     0.000 C 
BRANCH   3   4
ATOM      4  C   UNL     1     301.238 323.655 647.298  1.00  0.00     0.000 C 
BRANCH   4   5
ATOM      5  C   UNL     1     302.191 324.373 648.270  1.00  0.00     0.000 C 
BRANCH   5   6
ATOM      6  C   UNL     1     303.621 323.790 648.287  1.00  0.00     0.000 C 
BRANCH   6   7
ATOM      7  C   UNL     1     303.638 322.284 647.976  1.00  0.00     0.000 C 
BRANCH   7   8
ATOM      8  C   UNL     1     304.768 321.537 648.704  1.00  0.00     0.000 C 
BRANCH   8   9
ATOM      9  C   UNL     1     305.206 322.213 650.022  1.00  0.00     0.000 C 
BRANCH   9  10
ATOM     10  C   UNL     1     306.736 322.240 650.175  1.00  0.00     0.000 C 
BRANCH  10  11
ATOM     11  C   UNL     1     307.459 322.762 648.921  1.00  0.00     0.000 C 
BRANCH  11  12
ATOM     12  C   UNL     1     307.158 324.232 648.557  1.00  0.00     0.006 C 
BRANCH  12  13
ATOM     13  C   UNL     1     308.220 325.237 649.031  1.00  0.00     0.053 C 
BRANCH  13  14
ATOM     14  C   UNL     1     307.759 326.654 648.881  1.00  0.00     0.041 C 
ATOM     15  O   UNL     1     307.323 327.062 647.773  1.00  0.00    -0.550 OA
ATOM     16  O   UNL     1     307.834 327.529 649.956  1.00  0.00    -0.550 OA
ENDBRANCH  13  14
ENDBRANCH  12  13
ENDBRANCH  11  12
ENDBRANCH  10  11
ENDBRANCH   9  10
ENDBRANCH   8   9
ENDBRANCH   7   8
ENDBRANCH   6   7
ENDBRANCH   5   6
ENDBRANCH   4   5
ENDBRANCH   3   4
ENDBRANCH   2   3
ENDBRANCH   1   2
BRANCH   1  17
ATOM     17  C   UNL     1     298.988 325.855 644.516  1.00  0.00     0.000 C 
BRANCH  17  18
ATOM     18  C   UNL     1     300.068 325.629 643.441  1.00  0.00     0.000 C 
BRANCH  18  19
ATOM     19  C   UNL     1     300.776 324.274 643.586  1.00  0.00     0.000 C 
BRANCH  19  20
ATOM     20  C   UNL     1     302.263 324.382 643.227  1.00  0.00     0.000 C 
BRANCH  20  21
ATOM     21  C   UNL     1     303.121 323.572 644.208  1.00  0.00     0.000 C 
BRANCH  21  22
ATOM     22  C   UNL     1     304.326 324.365 644.746  1.00  0.00    -0.000 C 
BRANCH  22  23
ATOM     23  C   UNL     1     304.215 325.896 644.597  1.00  0.00    -0.000 C 
BRANCH  23  24
ATOM     24  C   UNL     1     303.808 326.652 645.878  1.00  0.00    -0.000 C 
BRANCH  24  25
ATOM     25  C   UNL     1     302.433 327.340 645.815  1.00  0.00    -0.000 C 
BRANCH  25  26
ATOM     26  C   UNL     1     302.495 328.738 645.178  1.00  0.00    -0.000 C 
BRANCH  26  27
ATOM     27  C   UNL     1     301.357 328.978 644.173  1.00  0.00    -0.000 C 
BRANCH  27  28
ATOM     28  C   UNL     1     300.117 329.613 644.826  1.00  0.00    -0.000 C 
BRANCH  28  29
ATOM     29  C   UNL     1     299.063 330.038 643.793  1.00  0.00    -0.003 C 
ATOM     30  C   UNL     1     299.010 329.103 642.585  1.00  0.00     0.004 C 
ENDBRANCH  28  29
ENDBRANCH  27  28
ENDBRANCH  26  27
ENDBRANCH  25  26
ENDBRANCH  24  25
ENDBRANCH  23  24
ENDBRANCH  22  23
ENDBRANCH  21  22
ENDBRANCH  20  21
ENDBRANCH  19  20
ENDBRANCH  18  19
ENDBRANCH  17  18
ENDBRANCH   1  17
TORSDOF 26
ENDMDL
MODEL 5
REMARK VINA RESULT:    -4.094      1.794      4.789
REMARK INTER + INTRA:         -13.623
REMARK INTER:                  -9.391
REMARK INTRA:                  -4.232
REMARK UNBOUND:                -3.307
REMARK SMILES CCCCCCCCCCCCCCCCCCCCCCCCCCCC(=O)[O-]
REMARK SMILES IDX 15 1 16 2 17 3 18 4 19 5 20 6 21 7 22 8 23 9 24 10 25 11
REMARK SMILES IDX 26 12 27 13 28 14 29 15 30 16 14 17 13 18 12 19 11 20 10 21
REMARK SMILES IDX 9 22 8 23 7 24 6 25 5 26 4 27 3 28 2 29 1 30
REMARK H PARENT
REMARK Flexibility Score: inf
ROOT
ATOM      1  C   UNL     1     302.258 323.369 647.479  1.00  0.00     0.000 C 
ENDROOT
BRANCH   1   2
ATOM      2  C   UNL     1     301.289 324.489 647.899  1.00  0.00     0.000 C 
BRANCH   2   3
ATOM      3  C   UNL     1     299.818 324.071 647.783  1.00  0.00     0.000 C 
BRANCH   3   4
ATOM      4  C   UNL     1     299.081 324.927 646.743  1.00  0.00     0.000 C 
BRANCH   4   5
ATOM      5  C   UNL     1     299.240 324.396 645.308  1.00  0.00     0.000 C 
BRANCH   5   6
ATOM      6  C   UNL     1     299.245 325.500 644.229  1.00  0.00     0.000 C 
BRANCH   6   7
ATOM      7  C   UNL     1     298.970 326.893 644.822  1.00  0.00     0.000 C 
BRANCH   7   8
ATOM      8  C   UNL     1     299.335 328.035 643.859  1.00  0.00     0.000 C 
BRANCH   8   9
ATOM      9  C   UNL     1     299.906 329.281 644.569  1.00  0.00     0.000 C 
BRANCH   9  10
ATOM     10  C   UNL     1     299.235 330.578 644.084  1.00  0.00     0.000 C 
BRANCH  10  11
ATOM     11  C   UNL     1     300.245 331.643 643.620  1.00  0.00     0.000 C 
BRANCH  11  12
ATOM     12  C   UNL     1     299.782 333.105 643.799  1.00  0.00     0.006 C 
BRANCH  12  13
ATOM     13  C   UNL     1     300.921 334.136 643.823  1.00  0.00     0.053 C 
BRANCH  13  14
ATOM     14  C   UNL     1     300.956 334.904 645.108  1.00  0.00     0.041 C 
ATOM     15  O   UNL     1     301.661 334.497 646.068  1.00  0.00    -0.550 OA
ATOM     16  O   UNL     1     300.193 336.054 645.254  1.00  0.00    -0.550 OA
ENDBRANCH  13  14
ENDBRANCH  12  13
ENDBRANCH  11  12
ENDBRANCH  10  11
ENDBRANCH   9  10
ENDBRANCH   8   9
ENDBRANCH   7   8
ENDBRANCH   6   7
ENDBRANCH   5   6
ENDBRANCH   4   5
ENDBRANCH   3   4
ENDBRANCH   2   3
ENDBRANCH   1   2
BRANCH   1  17
ATOM     17  C   UNL     1     303.567 323.297 648.293  1.00  0.00     0.000 C 
BRANCH  17  18
ATOM     18  C   UNL     1     304.407 322.027 648.064  1.00  0.00     0.000 C 
BRANCH  18  19
ATOM     19  C   UNL     1     305.518 322.228 647.023  1.00  0.00     0.000 C 
BRANCH  19  20
ATOM     20  C   UNL     1     305.053 321.805 645.625  1.00  0.00     0.000 C 
BRANCH  20  21
ATOM     21  C   UNL     1     304.898 323.028 644.709  1.00  0.00     0.000 C 
BRANCH  21  22
ATOM     22  C   UNL     1     303.669 322.934 643.787  1.00  0.00    -0.000 C 
BRANCH  22  23
ATOM     23  C   UNL     1     302.624 324.051 643.983  1.00  0.00    -0.000 C 
BRANCH  23  24
ATOM     24  C   UNL     1     302.826 325.302 643.106  1.00  0.00    -0.000 C 
BRANCH  24  25
ATOM     25  C   UNL     1     302.867 326.634 643.876  1.00  0.00    -0.000 C 
BRANCH  25  26
ATOM     26  C   UNL     1     302.628 326.457 645.385  1.00  0.00    -0.000 C 
BRANCH  26  27
ATOM     27  C   UNL     1     303.754 327.066 646.235  1.00  0.00    -0.000 C 
BRANCH  27  28
ATOM     28  C   UNL     1     304.993 326.159 646.311  1.00  0.00    -0.000 C 
BRANCH  28  29
ATOM     29  C   UNL     1     306.009 326.639 647.357  1.00  0.00    -0.003 C 
ATOM     30  C   UNL     1     306.788 325.488 647.994  1.00  0.00     0.004 C 
ENDBRANCH  28  29
ENDBRANCH  27  28
ENDBRANCH  26  27
ENDBRANCH  25  26
ENDBRANCH  24  25
ENDBRANCH  23  24
ENDBRANCH  22  23
ENDBRANCH  21  22
ENDBRANCH  20  21
ENDBRANCH  19  20
ENDBRANCH  18  19
ENDBRANCH  17  18
ENDBRANCH   1  17
TORSDOF 26
ENDMDL
MODEL 6
REMARK VINA RESULT:    -4.046      4.510      8.336
REMARK INTER + INTRA:         -13.502
REMARK INTER:                  -8.482
REMARK INTRA:                  -5.020
REMARK UNBOUND:                -3.307
REMARK SMILES CCCCCCCCCCCCCCCCCCCCCCCCCCCC(=O)[O-]
REMARK SMILES IDX 15 1 16 2 17 3 18 4 19 5 20 6 21 7 22 8 23 9 24 10 25 11
REMARK SMILES IDX 26 12 27 13 28 14 29 15 30 16 14 17 13 18 12 19 11 20 10 21
REMARK SMILES IDX 9 22 8 23 7 24 6 25 5 26 4 27 3 28 2 29 1 30
REMARK H PARENT
REMARK Flexibility Score: inf
ROOT
ATOM      1  C   UNL     1     302.158 324.434 647.892  1.00  0.00     0.000 C 
ENDROOT
BRANCH   1   2
ATOM      2  C   UNL     1     303.478 323.820 648.393  1.00  0.00     0.000 C 
BRANCH   2   3
ATOM      3  C   UNL     1     303.840 322.521 647.662  1.00  0.00     0.000 C 
BRANCH   3   4
ATOM      4  C   UNL     1     304.540 321.533 648.604  1.00  0.00     0.000 C 
BRANCH   4   5
ATOM      5  C   UNL     1     305.782 320.878 647.974  1.00  0.00     0.000 C 
BRANCH   5   6
ATOM      6  C   UNL     1     306.975 320.740 648.944  1.00  0.00     0.000 C 
BRANCH   6   7
ATOM      7  C   UNL     1     306.984 321.844 650.016  1.00  0.00     0.000 C 
BRANCH   7   8
ATOM      8  C   UNL     1     307.870 323.040 649.633  1.00  0.00     0.000 C 
BRANCH   8   9
ATOM      9  C   UNL     1     307.072 324.265 649.137  1.00  0.00     0.000 C 
BRANCH   9  10
ATOM     10  C   UNL     1     307.191 324.453 647.615  1.00  0.00     0.000 C 
BRANCH  10  11
ATOM     11  C   UNL     1     307.616 325.878 647.215  1.00  0.00     0.000 C 
BRANCH  11  12
ATOM     12  C   UNL     1     307.030 327.005 648.091  1.00  0.00     0.006 C 
BRANCH  12  13
ATOM     13  C   UNL     1     308.070 327.775 648.920  1.00  0.00     0.053 C 
BRANCH  13  14
ATOM     14  C   UNL     1     307.461 328.422 650.126  1.00  0.00     0.041 C 
ATOM     15  O   UNL     1     308.066 328.397 651.229  1.00  0.00    -0.550 OA
ATOM     16  O   UNL     1     306.216 329.030 650.036  1.00  0.00    -0.550 OA
ENDBRANCH  13  14
ENDBRANCH  12  13
ENDBRANCH  11  12
ENDBRANCH  10  11
ENDBRANCH   9  10
ENDBRANCH   8   9
ENDBRANCH   7   8
ENDBRANCH   6   7
ENDBRANCH   5   6
ENDBRANCH   4   5
ENDBRANCH   3   4
ENDBRANCH   2   3
ENDBRANCH   1   2
BRANCH   1  17
ATOM     17  C   UNL     1     301.080 323.413 647.471  1.00  0.00     0.000 C 
BRANCH  17  18
ATOM     18  C   UNL     1     299.666 323.996 647.294  1.00  0.00     0.000 C 
BRANCH  18  19
ATOM     19  C   UNL     1     299.645 325.531 647.347  1.00  0.00     0.000 C 
BRANCH  19  20
ATOM     20  C   UNL     1     299.057 326.123 646.060  1.00  0.00     0.000 C 
BRANCH  20  21
ATOM     21  C   UNL     1     299.704 327.478 645.739  1.00  0.00     0.000 C 
BRANCH  21  22
ATOM     22  C   UNL     1     300.349 327.519 644.344  1.00  0.00    -0.000 C 
BRANCH  22  23
ATOM     23  C   UNL     1     300.073 326.283 643.464  1.00  0.00    -0.000 C 
BRANCH  23  24
ATOM     24  C   UNL     1     301.311 325.433 643.118  1.00  0.00    -0.000 C 
BRANCH  24  25
ATOM     25  C   UNL     1     301.376 324.065 643.820  1.00  0.00    -0.000 C 
BRANCH  25  26
ATOM     26  C   UNL     1     302.808 323.661 644.209  1.00  0.00    -0.000 C 
BRANCH  26  27
ATOM     27  C   UNL     1     303.840 324.745 643.860  1.00  0.00    -0.000 C 
BRANCH  27  28
ATOM     28  C   UNL     1     304.564 325.292 645.102  1.00  0.00    -0.000 C 
BRANCH  28  29
ATOM     29  C   UNL     1     304.456 326.820 645.219  1.00  0.00    -0.003 C 
ATOM     30  C   UNL     1     303.478 327.259 646.309  1.00  0.00     0.004 C 
ENDBRANCH  28  29
ENDBRANCH  27  28
ENDBRANCH  26  27
ENDBRANCH  25  26
ENDBRANCH  24  25
ENDBRANCH  23  24
ENDBRANCH  22  23
ENDBRANCH  21  22
ENDBRANCH  20  21
ENDBRANCH  19  20
ENDBRANCH  18  19
ENDBRANCH  17  18
ENDBRANCH   1  17
TORSDOF 26
ENDMDL
MODEL 7
REMARK VINA RESULT:    -4.034      2.338      5.060
REMARK INTER + INTRA:         -13.473
REMARK INTER:                  -8.213
REMARK INTRA:                  -5.259
REMARK UNBOUND:                -3.307
REMARK SMILES CCCCCCCCCCCCCCCCCCCCCCCCCCCC(=O)[O-]
REMARK SMILES IDX 15 1 16 2 17 3 18 4 19 5 20 6 21 7 22 8 23 9 24 10 25 11
REMARK SMILES IDX 26 12 27 13 28 14 29 15 30 16 14 17 13 18 12 19 11 20 10 21
REMARK SMILES IDX 9 22 8 23 7 24 6 25 5 26 4 27 3 28 2 29 1 30
REMARK H PARENT
REMARK Flexibility Score: inf
ROOT
ATOM      1  C   UNL     1     299.434 330.724 644.259  1.00  0.00     0.000 C 
ENDROOT
BRANCH   1   2
ATOM      2  C   UNL     1     299.582 331.186 642.798  1.00  0.00     0.000 C 
BRANCH   2   3
ATOM      3  C   UNL     1     299.989 332.661 642.683  1.00  0.00     0.000 C 
BRANCH   3   4
ATOM      4  C   UNL     1     299.700 333.417 643.987  1.00  0.00     0.000 C 
BRANCH   4   5
ATOM      5  C   UNL     1     300.916 334.204 644.506  1.00  0.00     0.000 C 
BRANCH   5   6
ATOM      6  C   UNL     1     301.130 334.090 646.031  1.00  0.00     0.000 C 
BRANCH   6   7
ATOM      7  C   UNL     1     302.410 333.312 646.382  1.00  0.00     0.000 C 
BRANCH   7   8
ATOM      8  C   UNL     1     302.358 331.843 645.930  1.00  0.00     0.000 C 
BRANCH   8   9
ATOM      9  C   UNL     1     303.603 331.400 645.131  1.00  0.00     0.000 C 
BRANCH   9  10
ATOM     10  C   UNL     1     303.300 331.245 643.630  1.00  0.00     0.000 C 
BRANCH  10  11
ATOM     11  C   UNL     1     303.654 332.499 642.811  1.00  0.00     0.000 C 
BRANCH  11  12
ATOM     12  C   UNL     1     304.832 333.330 643.364  1.00  0.00     0.006 C 
BRANCH  12  13
ATOM     13  C   UNL     1     304.471 334.775 643.745  1.00  0.00     0.053 C 
BRANCH  13  14
ATOM     14  C   UNL     1     304.314 335.651 642.541  1.00  0.00     0.041 C 
ATOM     15  O   UNL     1     305.312 335.925 641.825  1.00  0.00    -0.550 OA
ATOM     16  O   UNL     1     303.071 336.183 642.224  1.00  0.00    -0.550 OA
ENDBRANCH  13  14
ENDBRANCH  12  13
ENDBRANCH  11  12
ENDBRANCH  10  11
ENDBRANCH   9  10
ENDBRANCH   8   9
ENDBRANCH   7   8
ENDBRANCH   6   7
ENDBRANCH   5   6
ENDBRANCH   4   5
ENDBRANCH   3   4
ENDBRANCH   2   3
ENDBRANCH   1   2
BRANCH   1  17
ATOM     17  C   UNL     1     299.547 329.201 644.478  1.00  0.00     0.000 C 
BRANCH  17  18
ATOM     18  C   UNL     1     300.869 328.572 644.002  1.00  0.00     0.000 C 
BRANCH  18  19
ATOM     19  C   UNL     1     301.740 328.069 645.162  1.00  0.00     0.000 C 
BRANCH  19  20
ATOM     20  C   UNL     1     303.090 327.545 644.658  1.00  0.00     0.000 C 
BRANCH  20  21
ATOM     21  C   UNL     1     303.577 326.372 645.520  1.00  0.00     0.000 C 
BRANCH  21  22
ATOM     22  C   UNL     1     302.609 326.028 646.666  1.00  0.00    -0.000 C 
BRANCH  22  23
ATOM     23  C   UNL     1     302.859 324.663 647.339  1.00  0.00    -0.000 C 
BRANCH  23  24
ATOM     24  C   UNL     1     301.590 323.866 647.699  1.00  0.00    -0.000 C 
BRANCH  24  25
ATOM     25  C   UNL     1     300.290 324.689 647.716  1.00  0.00    -0.000 C 
BRANCH  25  26
ATOM     26  C   UNL     1     299.282 324.235 646.646  1.00  0.00    -0.000 C 
BRANCH  26  27
ATOM     27  C   UNL     1     298.875 325.374 645.699  1.00  0.00    -0.000 C 
BRANCH  27  28
ATOM     28  C   UNL     1     299.599 325.301 644.344  1.00  0.00    -0.000 C 
BRANCH  28  29
ATOM     29  C   UNL     1     300.553 324.102 644.251  1.00  0.00    -0.003 C 
ATOM     30  C   UNL     1     301.618 324.279 643.169  1.00  0.00     0.004 C 
ENDBRANCH  28  29
ENDBRANCH  27  28
ENDBRANCH  26  27
ENDBRANCH  25  26
ENDBRANCH  24  25
ENDBRANCH  23  24
ENDBRANCH  22  23
ENDBRANCH  21  22
ENDBRANCH  20  21
ENDBRANCH  19  20
ENDBRANCH  18  19
ENDBRANCH  17  18
ENDBRANCH   1  17
TORSDOF 26
ENDMDL
MODEL 8
REMARK VINA RESULT:    -3.991      2.789      4.816
REMARK INTER + INTRA:         -13.365
REMARK INTER:                  -8.174
REMARK INTRA:                  -5.191
REMARK UNBOUND:                -3.307
REMARK SMILES CCCCCCCCCCCCCCCCCCCCCCCCCCCC(=O)[O-]
REMARK SMILES IDX 15 1 16 2 17 3 18 4 19 5 20 6 21 7 22 8 23 9 24 10 25 11
REMARK SMILES IDX 26 12 27 13 28 14 29 15 30 16 14 17 13 18 12 19 11 20 10 21
REMARK SMILES IDX 9 22 8 23 7 24 6 25 5 26 4 27 3 28 2 29 1 30
REMARK H PARENT
REMARK Flexibility Score: inf
ROOT
ATOM      1  C   UNL     1     305.801 325.398 646.117  1.00  0.00     0.000 C 
ENDROOT
BRANCH   1   2
ATOM      2  C   UNL     1     304.918 326.465 645.444  1.00  0.00     0.000 C 
BRANCH   2   3
ATOM      3  C   UNL     1     303.895 327.079 646.408  1.00  0.00     0.000 C 
BRANCH   3   4
ATOM      4  C   UNL     1     302.460 326.784 645.954  1.00  0.00     0.000 C 
BRANCH   4   5
ATOM      5  C   UNL     1     301.730 328.030 645.423  1.00  0.00     0.000 C 
BRANCH   5   6
ATOM      6  C   UNL     1     302.054 328.365 643.952  1.00  0.00     0.000 C 
BRANCH   6   7
ATOM      7  C   UNL     1     302.342 329.863 643.747  1.00  0.00     0.000 C 
BRANCH   7   8
ATOM      8  C   UNL     1     303.550 330.355 644.561  1.00  0.00     0.000 C 
BRANCH   8   9
ATOM      9  C   UNL     1     303.239 331.581 645.446  1.00  0.00     0.000 C 
BRANCH   9  10
ATOM     10  C   UNL     1     301.728 331.848 645.551  1.00  0.00     0.000 C 
BRANCH  10  11
ATOM     11  C   UNL     1     301.375 333.346 645.503  1.00  0.00     0.000 C 
BRANCH  11  12
ATOM     12  C   UNL     1     300.325 333.737 644.442  1.00  0.00     0.006 C 
BRANCH  12  13
ATOM     13  C   UNL     1     300.773 333.515 642.988  1.00  0.00     0.053 C 
BRANCH  13  14
ATOM     14  C   UNL     1     299.948 332.473 642.299  1.00  0.00     0.041 C 
ATOM     15  O   UNL     1     299.324 331.613 642.974  1.00  0.00    -0.550 OA
ATOM     16  O   UNL     1     299.889 332.435 640.913  1.00  0.00    -0.550 OA
ENDBRANCH  13  14
ENDBRANCH  12  13
ENDBRANCH  11  12
ENDBRANCH  10  11
ENDBRANCH   9  10
ENDBRANCH   8   9
ENDBRANCH   7   8
ENDBRANCH   6   7
ENDBRANCH   5   6
ENDBRANCH   4   5
ENDBRANCH   3   4
ENDBRANCH   2   3
ENDBRANCH   1   2
BRANCH   1  17
ATOM     17  C   UNL     1     305.267 324.860 647.461  1.00  0.00     0.000 C 
BRANCH  17  18
ATOM     18  C   UNL     1     305.335 323.330 647.622  1.00  0.00     0.000 C 
BRANCH  18  19
ATOM     19  C   UNL     1     303.979 322.710 647.991  1.00  0.00     0.000 C 
BRANCH  19  20
ATOM     20  C   UNL     1     302.917 323.793 648.218  1.00  0.00     0.000 C 
BRANCH  20  21
ATOM     21  C   UNL     1     301.589 323.401 647.554  1.00  0.00     0.000 C 
BRANCH  21  22
ATOM     22  C   UNL     1     300.453 324.394 647.855  1.00  0.00    -0.000 C 
BRANCH  22  23
ATOM     23  C   UNL     1     299.233 324.288 646.918  1.00  0.00    -0.000 C 
BRANCH  23  24
ATOM     24  C   UNL     1     298.915 325.559 646.106  1.00  0.00    -0.000 C 
BRANCH  24  25
ATOM     25  C   UNL     1     299.097 325.419 644.585  1.00  0.00    -0.000 C 
BRANCH  25  26
ATOM     26  C   UNL     1     300.248 324.471 644.207  1.00  0.00    -0.000 C 
BRANCH  26  27
ATOM     27  C   UNL     1     301.056 324.978 643.003  1.00  0.00    -0.000 C 
BRANCH  27  28
ATOM     28  C   UNL     1     302.509 324.472 643.011  1.00  0.00    -0.000 C 
BRANCH  28  29
ATOM     29  C   UNL     1     302.817 323.594 644.233  1.00  0.00    -0.003 C 
ATOM     30  C   UNL     1     304.133 322.829 644.091  1.00  0.00     0.004 C 
ENDBRANCH  28  29
ENDBRANCH  27  28
ENDBRANCH  26  27
ENDBRANCH  25  26
ENDBRANCH  24  25
ENDBRANCH  23  24
ENDBRANCH  22  23
ENDBRANCH  21  22
ENDBRANCH  20  21
ENDBRANCH  19  20
ENDBRANCH  18  19
ENDBRANCH  17  18
ENDBRANCH   1  17
TORSDOF 26
ENDMDL
MODEL 9
REMARK VINA RESULT:    -3.949      2.153      4.117
REMARK INTER + INTRA:         -13.257
REMARK INTER:                  -8.548
REMARK INTRA:                  -4.709
REMARK UNBOUND:                -3.307
REMARK SMILES CCCCCCCCCCCCCCCCCCCCCCCCCCCC(=O)[O-]
REMARK SMILES IDX 15 1 16 2 17 3 18 4 19 5 20 6 21 7 22 8 23 9 24 10 25 11
REMARK SMILES IDX 26 12 27 13 28 14 29 15 30 16 14 17 13 18 12 19 11 20 10 21
REMARK SMILES IDX 9 22 8 23 7 24 6 25 5 26 4 27 3 28 2 29 1 30
REMARK H PARENT
REMARK Flexibility Score: inf
ROOT
ATOM      1  C   UNL     1     303.048 329.447 643.953  1.00  0.00     0.000 C 
ENDROOT
BRANCH   1   2
ATOM      2  C   UNL     1     302.460 330.049 645.241  1.00  0.00     0.000 C 
BRANCH   2   3
ATOM      3  C   UNL     1     301.107 330.734 645.009  1.00  0.00     0.000 C 
BRANCH   3   4
ATOM      4  C   UNL     1     299.980 329.702 644.878  1.00  0.00     0.000 C 
BRANCH   4   5
ATOM      5  C   UNL     1     299.028 329.999 643.706  1.00  0.00     0.000 C 
BRANCH   5   6
ATOM      6  C   UNL     1     299.384 329.247 642.405  1.00  0.00     0.000 C 
BRANCH   6   7
ATOM      7  C   UNL     1     300.271 330.089 641.472  1.00  0.00     0.000 C 
BRANCH   7   8
ATOM      8  C   UNL     1     299.486 331.183 640.730  1.00  0.00     0.000 C 
BRANCH   8   9
ATOM      9  C   UNL     1     299.622 332.581 641.370  1.00  0.00     0.000 C 
BRANCH   9  10
ATOM     10  C   UNL     1     300.950 332.741 642.129  1.00  0.00     0.000 C 
BRANCH  10  11
ATOM     11  C   UNL     1     301.130 334.142 642.742  1.00  0.00     0.000 C 
BRANCH  11  12
ATOM     12  C   UNL     1     300.717 334.265 644.224  1.00  0.00     0.006 C 
BRANCH  12  13
ATOM     13  C   UNL     1     301.057 335.618 644.871  1.00  0.00     0.053 C 
BRANCH  13  14
ATOM     14  C   UNL     1     302.481 335.678 645.331  1.00  0.00     0.041 C 
ATOM     15  O   UNL     1     303.036 336.792 645.522  1.00  0.00    -0.550 OA
ATOM     16  O   UNL     1     303.201 334.508 645.524  1.00  0.00    -0.550 OA
ENDBRANCH  13  14
ENDBRANCH  12  13
ENDBRANCH  11  12
ENDBRANCH  10  11
ENDBRANCH   9  10
ENDBRANCH   8   9
ENDBRANCH   7   8
ENDBRANCH   6   7
ENDBRANCH   5   6
ENDBRANCH   4   5
ENDBRANCH   3   4
ENDBRANCH   2   3
ENDBRANCH   1   2
BRANCH   1  17
ATOM     17  C   UNL     1     303.129 327.906 643.928  1.00  0.00     0.000 C 
BRANCH  17  18
ATOM     18  C   UNL     1     302.812 327.216 645.268  1.00  0.00     0.000 C 
BRANCH  18  19
ATOM     19  C   UNL     1     304.048 326.568 645.909  1.00  0.00     0.000 C 
BRANCH  19  20
ATOM     20  C   UNL     1     303.712 325.193 646.499  1.00  0.00     0.000 C 
BRANCH  20  21
ATOM     21  C   UNL     1     302.314 325.200 647.135  1.00  0.00     0.000 C 
BRANCH  21  22
ATOM     22  C   UNL     1     301.826 323.794 647.524  1.00  0.00    -0.000 C 
BRANCH  22  23
ATOM     23  C   UNL     1     300.295 323.609 647.503  1.00  0.00    -0.000 C 
BRANCH  23  24
ATOM     24  C   UNL     1     299.485 324.875 647.163  1.00  0.00    -0.000 C 
BRANCH  24  25
ATOM     25  C   UNL     1     298.875 324.895 645.750  1.00  0.00    -0.000 C 
BRANCH  25  26
ATOM     26  C   UNL     1     299.441 326.025 644.873  1.00  0.00    -0.000 C 
BRANCH  26  27
ATOM     27  C   UNL     1     300.078 325.500 643.577  1.00  0.00    -0.000 C 
BRANCH  27  28
ATOM     28  C   UNL     1     300.966 324.267 643.813  1.00  0.00    -0.000 C 
BRANCH  28  29
ATOM     29  C   UNL     1     302.263 324.310 642.991  1.00  0.00    -0.003 C 
ATOM     30  C   UNL     1     303.273 323.249 643.427  1.00  0.00     0.004 C 
ENDBRANCH  28  29
ENDBRANCH  27  28
ENDBRANCH  26  27
ENDBRANCH  25  26
ENDBRANCH  24  25
ENDBRANCH  23  24
ENDBRANCH  22  23
ENDBRANCH  21  22
ENDBRANCH  20  21
ENDBRANCH  19  20
ENDBRANCH  18  19
ENDBRANCH  17  18
ENDBRANCH   1  17
TORSDOF 26
ENDMDL
