MODEL 1
REMARK VINA RESULT:    -3.916      0.000      0.000
REMARK INTER + INTRA:         -15.804
REMARK INTER:                 -10.325
REMARK INTRA:                  -5.479
REMARK UNBOUND:                -5.479
REMARK SMILES CCCCCCCCCCCCCCCCCCCCCCCCCCCCCC(=O)[O-]
REMARK SMILES IDX 16 1 17 2 18 3 19 4 20 5 21 6 22 7 23 8 24 9 25 10 26 11
REMARK SMILES IDX 27 12 28 13 29 14 30 15 31 16 32 17 15 18 14 19 13 20 12 21
REMARK SMILES IDX 11 22 10 23 9 24 8 25 7 26 6 27 5 28 4 29 3 30 2 31 1 32
REMARK H PARENT
REMARK Flexibility Score: inf
ROOT
ATOM      1  C   UNL     1      27.804  42.341  47.867  1.00  0.00     0.000 C 
ENDROOT
BRANCH   1   2
ATOM      2  C   UNL     1      26.411  41.703  48.022  1.00  0.00     0.000 C 
BRANCH   2   3
ATOM      3  C   UNL     1      26.398  40.286  48.628  1.00  0.00     0.000 C 
BRANCH   3   4
ATOM      4  C   UNL     1      26.427  39.129  47.610  1.00  0.00     0.000 C 
BRANCH   4   5
ATOM      5  C   UNL     1      27.305  37.933  48.036  1.00  0.00     0.000 C 
BRANCH   5   6
ATOM      6  C   UNL     1      27.856  37.134  46.840  1.00  0.00     0.000 C 
BRANCH   6   7
ATOM      7  C   UNL     1      29.128  36.353  47.209  1.00  0.00     0.000 C 
BRANCH   7   8
ATOM      8  C   UNL     1      29.016  35.686  48.593  1.00  0.00     0.000 C 
BRANCH   8   9
ATOM      9  C   UNL     1      30.337  35.019  49.029  1.00  0.00     0.000 C 
BRANCH   9  10
ATOM     10  C   UNL     1      30.454  34.842  50.553  1.00  0.00     0.000 C 
BRANCH  10  11
ATOM     11  C   UNL     1      31.542  33.831  50.951  1.00  0.00     0.000 C 
BRANCH  11  12
ATOM     12  C   UNL     1      32.421  33.411  49.762  1.00  0.00     0.000 C 
BRANCH  12  13
ATOM     13  C   UNL     1      32.588  31.884  49.667  1.00  0.00     0.006 C 
BRANCH  13  14
ATOM     14  C   UNL     1      33.649  31.479  48.636  1.00  0.00     0.053 C 
BRANCH  14  15
ATOM     15  C   UNL     1      33.088  30.561  47.594  1.00  0.00     0.041 C 
ATOM     16  O   UNL     1      32.062  30.894  46.942  1.00  0.00    -0.550 OA
ATOM     17  O   UNL     1      33.715  29.352  47.322  1.00  0.00    -0.550 OA
ENDBRANCH  14  15
ENDBRANCH  13  14
ENDBRANCH  12  13
ENDBRANCH  11  12
ENDBRANCH  10  11
ENDBRANCH   9  10
ENDBRANCH   8   9
ENDBRANCH   7   8
ENDBRANCH   6   7
ENDBRANCH   5   6
ENDBRANCH   4   5
ENDBRANCH   3   4
ENDBRANCH   2   3
ENDBRANCH   1   2
BRANCH   1  18
ATOM     18  C   UNL     1      28.266  42.576  46.416  1.00  0.00     0.000 C 
BRANCH  18  19
ATOM     19  C   UNL     1      27.264  42.095  45.344  1.00  0.00     0.000 C 
BRANCH  19  20
ATOM     20  C   UNL     1      27.664  40.749  44.710  1.00  0.00     0.000 C 
BRANCH  20  21
ATOM     21  C   UNL     1      29.163  40.675  44.354  1.00  0.00     0.000 C 
BRANCH  21  22
ATOM     22  C   UNL     1      29.923  39.530  45.052  1.00  0.00     0.000 C 
BRANCH  22  23
ATOM     23  C   UNL     1      31.052  39.972  45.999  1.00  0.00     0.000 C 
BRANCH  23  24
ATOM     24  C   UNL     1      30.953  39.432  47.442  1.00  0.00    -0.000 C 
BRANCH  24  25
ATOM     25  C   UNL     1      30.804  40.505  48.535  1.00  0.00    -0.000 C 
BRANCH  25  26
ATOM     26  C   UNL     1      29.986  40.018  49.744  1.00  0.00    -0.000 C 
BRANCH  26  27
ATOM     27  C   UNL     1      30.377  38.596  50.184  1.00  0.00    -0.000 C 
BRANCH  27  28
ATOM     28  C   UNL     1      31.176  38.583  51.499  1.00  0.00    -0.000 C 
BRANCH  28  29
ATOM     29  C   UNL     1      32.495  37.802  51.379  1.00  0.00    -0.000 C 
BRANCH  29  30
ATOM     30  C   UNL     1      33.325  38.223  50.153  1.00  0.00    -0.000 C 
BRANCH  30  31
ATOM     31  C   UNL     1      33.562  37.061  49.176  1.00  0.00    -0.003 C 
ATOM     32  C   UNL     1      34.651  36.101  49.654  1.00  0.00     0.004 C 
ENDBRANCH  30  31
ENDBRANCH  29  30
ENDBRANCH  28  29
ENDBRANCH  27  28
ENDBRANCH  26  27
ENDBRANCH  25  26
ENDBRANCH  24  25
ENDBRANCH  23  24
ENDBRANCH  22  23
ENDBRANCH  21  22
ENDBRANCH  20  21
ENDBRANCH  19  20
ENDBRANCH  18  19
ENDBRANCH   1  18
TORSDOF 28
ENDMDL
MODEL 2
REMARK VINA RESULT:    -3.882      7.636     11.220
REMARK INTER + INTRA:         -15.715
REMARK INTER:                 -11.441
REMARK INTRA:                  -4.274
REMARK UNBOUND:                -5.479
REMARK SMILES CCCCCCCCCCCCCCCCCCCCCCCCCCCCCC(=O)[O-]
REMARK SMILES IDX 16 1 17 2 18 3 19 4 20 5 21 6 22 7 23 8 24 9 25 10 26 11
REMARK SMILES IDX 27 12 28 13 29 14 30 15 31 16 32 17 15 18 14 19 13 20 12 21
REMARK SMILES IDX 11 22 10 23 9 24 8 25 7 26 6 27 5 28 4 29 3 30 2 31 1 32
REMARK H PARENT
REMARK Flexibility Score: inf
ROOT
ATOM      1  C   UNL     1      22.111  33.081  46.204  1.00  0.00     0.000 C 
ENDROOT
BRANCH   1   2
ATOM      2  C   UNL     1      22.658  31.895  47.022  1.00  0.00     0.000 C 
BRANCH   2   3
ATOM      3  C   UNL     1      23.570  32.275  48.204  1.00  0.00     0.000 C 
BRANCH   3   4
ATOM      4  C   UNL     1      24.786  33.154  47.850  1.00  0.00     0.000 C 
BRANCH   4   5
ATOM      5  C   UNL     1      24.966  34.385  48.763  1.00  0.00     0.000 C 
BRANCH   5   6
ATOM      6  C   UNL     1      26.273  35.153  48.489  1.00  0.00     0.000 C 
BRANCH   6   7
ATOM      7  C   UNL     1      26.107  36.666  48.714  1.00  0.00     0.000 C 
BRANCH   7   8
ATOM      8  C   UNL     1      27.066  37.490  47.836  1.00  0.00     0.000 C 
BRANCH   8   9
ATOM      9  C   UNL     1      27.702  36.645  46.712  1.00  0.00     0.000 C 
BRANCH   9  10
ATOM     10  C   UNL     1      28.761  37.412  45.901  1.00  0.00     0.000 C 
BRANCH  10  11
ATOM     11  C   UNL     1      29.003  38.833  46.437  1.00  0.00     0.000 C 
BRANCH  11  12
ATOM     12  C   UNL     1      28.686  39.919  45.397  1.00  0.00     0.000 C 
BRANCH  12  13
ATOM     13  C   UNL     1      27.211  40.360  45.441  1.00  0.00     0.006 C 
BRANCH  13  14
ATOM     14  C   UNL     1      26.964  41.455  46.485  1.00  0.00     0.053 C 
BRANCH  14  15
ATOM     15  C   UNL     1      27.752  42.693  46.187  1.00  0.00     0.041 C 
ATOM     16  O   UNL     1      27.498  43.375  45.158  1.00  0.00    -0.550 OA
ATOM     17  O   UNL     1      28.748  43.111  47.062  1.00  0.00    -0.550 OA
ENDBRANCH  14  15
ENDBRANCH  13  14
ENDBRANCH  12  13
ENDBRANCH  11  12
ENDBRANCH  10  11
ENDBRANCH   9  10
ENDBRANCH   8   9
ENDBRANCH   7   8
ENDBRANCH   6   7
ENDBRANCH   5   6
ENDBRANCH   4   5
ENDBRANCH   3   4
ENDBRANCH   2   3
ENDBRANCH   1   2
BRANCH   1  18
ATOM     18  C   UNL     1      21.747  32.762  44.741  1.00  0.00     0.000 C 
BRANCH  18  19
ATOM     19  C   UNL     1      20.618  33.642  44.161  1.00  0.00     0.000 C 
BRANCH  19  20
ATOM     20  C   UNL     1      20.107  34.698  45.162  1.00  0.00     0.000 C 
BRANCH  20  21
ATOM     21  C   UNL     1      18.697  34.379  45.702  1.00  0.00     0.000 C 
BRANCH  21  22
ATOM     22  C   UNL     1      18.086  33.080  45.143  1.00  0.00     0.000 C 
BRANCH  22  23
ATOM     23  C   UNL     1      17.957  31.927  46.155  1.00  0.00     0.000 C 
BRANCH  23  24
ATOM     24  C   UNL     1      19.012  30.808  46.019  1.00  0.00    -0.000 C 
BRANCH  24  25
ATOM     25  C   UNL     1      19.434  30.142  47.341  1.00  0.00    -0.000 C 
BRANCH  25  26
ATOM     26  C   UNL     1      18.762  30.776  48.572  1.00  0.00    -0.000 C 
BRANCH  26  27
ATOM     27  C   UNL     1      19.782  31.220  49.635  1.00  0.00    -0.000 C 
BRANCH  27  28
ATOM     28  C   UNL     1      19.590  32.686  50.062  1.00  0.00    -0.000 C 
BRANCH  28  29
ATOM     29  C   UNL     1      19.611  33.655  48.867  1.00  0.00    -0.000 C 
BRANCH  29  30
ATOM     30  C   UNL     1      20.452  34.915  49.139  1.00  0.00    -0.000 C 
BRANCH  30  31
ATOM     31  C   UNL     1      21.555  34.671  50.181  1.00  0.00    -0.003 C 
ATOM     32  C   UNL     1      21.394  35.543  51.426  1.00  0.00     0.004 C 
ENDBRANCH  30  31
ENDBRANCH  29  30
ENDBRANCH  28  29
ENDBRANCH  27  28
ENDBRANCH  26  27
ENDBRANCH  25  26
ENDBRANCH  24  25
ENDBRANCH  23  24
ENDBRANCH  22  23
ENDBRANCH  21  22
ENDBRANCH  20  21
ENDBRANCH  19  20
ENDBRANCH  18  19
ENDBRANCH   1  18
TORSDOF 28
ENDMDL
MODEL 3
REMARK VINA RESULT:    -3.880      1.458      4.569
REMARK INTER + INTRA:         -15.711
REMARK INTER:                 -11.879
REMARK INTRA:                  -3.832
REMARK UNBOUND:                -5.479
REMARK SMILES CCCCCCCCCCCCCCCCCCCCCCCCCCCCCC(=O)[O-]
REMARK SMILES IDX 16 1 17 2 18 3 19 4 20 5 21 6 22 7 23 8 24 9 25 10 26 11
REMARK SMILES IDX 27 12 28 13 29 14 30 15 31 16 32 17 15 18 14 19 13 20 12 21
REMARK SMILES IDX 11 22 10 23 9 24 8 25 7 26 6 27 5 28 4 29 3 30 2 31 1 32
REMARK H PARENT
REMARK Flexibility Score: inf
ROOT
ATOM      1  C   UNL     1      30.806  40.338  46.599  1.00  0.00     0.000 C 
ENDROOT
BRANCH   1   2
ATOM      2  C   UNL     1      30.876  39.101  47.515  1.00  0.00     0.000 C 
BRANCH   2   3
ATOM      3  C   UNL     1      31.768  39.254  48.762  1.00  0.00     0.000 C 
BRANCH   3   4
ATOM      4  C   UNL     1      33.103  38.484  48.723  1.00  0.00     0.000 C 
BRANCH   4   5
ATOM      5  C   UNL     1      33.180  37.300  49.710  1.00  0.00     0.000 C 
BRANCH   5   6
ATOM      6  C   UNL     1      34.364  36.356  49.428  1.00  0.00     0.000 C 
BRANCH   6   7
ATOM      7  C   UNL     1      33.911  34.892  49.295  1.00  0.00     0.000 C 
BRANCH   7   8
ATOM      8  C   UNL     1      32.684  34.584  50.173  1.00  0.00     0.000 C 
BRANCH   8   9
ATOM      9  C   UNL     1      32.052  33.218  49.835  1.00  0.00     0.000 C 
BRANCH   9  10
ATOM     10  C   UNL     1      33.087  32.151  49.437  1.00  0.00     0.000 C 
BRANCH  10  11
ATOM     11  C   UNL     1      32.755  31.474  48.097  1.00  0.00     0.000 C 
BRANCH  11  12
ATOM     12  C   UNL     1      33.683  30.289  47.788  1.00  0.00     0.000 C 
BRANCH  12  13
ATOM     13  C   UNL     1      32.915  28.962  47.654  1.00  0.00     0.006 C 
BRANCH  13  14
ATOM     14  C   UNL     1      32.245  28.816  46.282  1.00  0.00     0.053 C 
BRANCH  14  15
ATOM     15  C   UNL     1      30.789  28.487  46.408  1.00  0.00     0.041 C 
ATOM     16  O   UNL     1      30.313  27.479  45.820  1.00  0.00    -0.550 OA
ATOM     17  O   UNL     1      29.964  29.277  47.199  1.00  0.00    -0.550 OA
ENDBRANCH  14  15
ENDBRANCH  13  14
ENDBRANCH  12  13
ENDBRANCH  11  12
ENDBRANCH  10  11
ENDBRANCH   9  10
ENDBRANCH   8   9
ENDBRANCH   7   8
ENDBRANCH   6   7
ENDBRANCH   5   6
ENDBRANCH   4   5
ENDBRANCH   3   4
ENDBRANCH   2   3
ENDBRANCH   1   2
BRANCH   1  18
ATOM     18  C   UNL     1      30.513  40.046  45.115  1.00  0.00     0.000 C 
BRANCH  18  19
ATOM     19  C   UNL     1      29.262  39.175  44.873  1.00  0.00     0.000 C 
BRANCH  19  20
ATOM     20  C   UNL     1      28.050  39.991  44.381  1.00  0.00     0.000 C 
BRANCH  20  21
ATOM     21  C   UNL     1      28.363  41.493  44.223  1.00  0.00     0.000 C 
BRANCH  21  22
ATOM     22  C   UNL     1      27.438  42.420  45.036  1.00  0.00     0.000 C 
BRANCH  22  23
ATOM     23  C   UNL     1      27.985  42.852  46.409  1.00  0.00     0.000 C 
BRANCH  23  24
ATOM     24  C   UNL     1      27.185  42.342  47.628  1.00  0.00    -0.000 C 
BRANCH  24  25
ATOM     25  C   UNL     1      28.036  41.771  48.777  1.00  0.00    -0.000 C 
BRANCH  25  26
ATOM     26  C   UNL     1      27.880  40.248  48.935  1.00  0.00    -0.000 C 
BRANCH  26  27
ATOM     27  C   UNL     1      26.417  39.827  49.160  1.00  0.00    -0.000 C 
BRANCH  27  28
ATOM     28  C   UNL     1      26.118  38.419  48.614  1.00  0.00    -0.000 C 
BRANCH  28  29
ATOM     29  C   UNL     1      26.843  38.135  47.288  1.00  0.00    -0.000 C 
BRANCH  29  30
ATOM     30  C   UNL     1      27.540  36.763  47.275  1.00  0.00    -0.000 C 
BRANCH  30  31
ATOM     31  C   UNL     1      28.570  36.616  48.405  1.00  0.00    -0.003 C 
ATOM     32  C   UNL     1      29.693  35.640  48.057  1.00  0.00     0.004 C 
ENDBRANCH  30  31
ENDBRANCH  29  30
ENDBRANCH  28  29
ENDBRANCH  27  28
ENDBRANCH  26  27
ENDBRANCH  25  26
ENDBRANCH  24  25
ENDBRANCH  23  24
ENDBRANCH  22  23
ENDBRANCH  21  22
ENDBRANCH  20  21
ENDBRANCH  19  20
ENDBRANCH  18  19
ENDBRANCH   1  18
TORSDOF 28
ENDMDL
MODEL 4
REMARK VINA RESULT:    -3.850      1.683      3.852
REMARK INTER + INTRA:         -15.632
REMARK INTER:                 -11.302
REMARK INTRA:                  -4.329
REMARK UNBOUND:                -5.479
REMARK SMILES CCCCCCCCCCCCCCCCCCCCCCCCCCCCCC(=O)[O-]
REMARK SMILES IDX 16 1 17 2 18 3 19 4 20 5 21 6 22 7 23 8 24 9 25 10 26 11
REMARK SMILES IDX 27 12 28 13 29 14 30 15 31 16 32 17 15 18 14 19 13 20 12 21
REMARK SMILES IDX 11 22 10 23 9 24 8 25 7 26 6 27 5 28 4 29 3 30 2 31 1 32
REMARK H PARENT
REMARK Flexibility Score: inf
ROOT
ATOM      1  C   UNL     1      29.536  39.764  44.715  1.00  0.00     0.000 C 
ENDROOT
BRANCH   1   2
ATOM      2  C   UNL     1      29.047  38.303  44.764  1.00  0.00     0.000 C 
BRANCH   2   3
ATOM      3  C   UNL     1      28.419  37.862  46.100  1.00  0.00     0.000 C 
BRANCH   3   4
ATOM      4  C   UNL     1      29.381  37.180  47.093  1.00  0.00     0.000 C 
BRANCH   4   5
ATOM      5  C   UNL     1      28.773  35.970  47.834  1.00  0.00     0.000 C 
BRANCH   5   6
ATOM      6  C   UNL     1      29.838  35.052  48.464  1.00  0.00     0.000 C 
BRANCH   6   7
ATOM      7  C   UNL     1      30.915  35.854  49.213  1.00  0.00     0.000 C 
BRANCH   7   8
ATOM      8  C   UNL     1      31.724  34.973  50.183  1.00  0.00     0.000 C 
BRANCH   8   9
ATOM      9  C   UNL     1      30.887  33.807  50.749  1.00  0.00     0.000 C 
BRANCH   9  10
ATOM     10  C   UNL     1      31.688  32.502  50.899  1.00  0.00     0.000 C 
BRANCH  10  11
ATOM     11  C   UNL     1      31.810  31.726  49.578  1.00  0.00     0.000 C 
BRANCH  11  12
ATOM     12  C   UNL     1      33.247  31.706  49.034  1.00  0.00     0.000 C 
BRANCH  12  13
ATOM     13  C   UNL     1      33.348  31.005  47.668  1.00  0.00     0.006 C 
BRANCH  13  14
ATOM     14  C   UNL     1      33.410  29.479  47.801  1.00  0.00     0.053 C 
BRANCH  14  15
ATOM     15  C   UNL     1      32.218  28.818  47.181  1.00  0.00     0.041 C 
ATOM     16  O   UNL     1      32.303  28.305  46.033  1.00  0.00    -0.550 OA
ATOM     17  O   UNL     1      31.020  28.744  47.882  1.00  0.00    -0.550 OA
ENDBRANCH  14  15
ENDBRANCH  13  14
ENDBRANCH  12  13
ENDBRANCH  11  12
ENDBRANCH  10  11
ENDBRANCH   9  10
ENDBRANCH   8   9
ENDBRANCH   7   8
ENDBRANCH   6   7
ENDBRANCH   5   6
ENDBRANCH   4   5
ENDBRANCH   3   4
ENDBRANCH   2   3
ENDBRANCH   1   2
BRANCH   1  18
ATOM     18  C   UNL     1      28.530  40.778  44.139  1.00  0.00     0.000 C 
BRANCH  18  19
ATOM     19  C   UNL     1      27.681  41.506  45.204  1.00  0.00     0.000 C 
BRANCH  19  20
ATOM     20  C   UNL     1      27.563  43.021  44.944  1.00  0.00     0.000 C 
BRANCH  20  21
ATOM     21  C   UNL     1      26.562  43.716  45.890  1.00  0.00     0.000 C 
BRANCH  21  22
ATOM     22  C   UNL     1      26.020  42.810  47.012  1.00  0.00     0.000 C 
BRANCH  22  23
ATOM     23  C   UNL     1      26.528  43.142  48.427  1.00  0.00     0.000 C 
BRANCH  23  24
ATOM     24  C   UNL     1      26.938  41.925  49.284  1.00  0.00    -0.000 C 
BRANCH  24  25
ATOM     25  C   UNL     1      26.730  40.554  48.615  1.00  0.00    -0.000 C 
BRANCH  25  26
ATOM     26  C   UNL     1      27.454  39.413  49.353  1.00  0.00    -0.000 C 
BRANCH  26  27
ATOM     27  C   UNL     1      28.427  39.932  50.426  1.00  0.00    -0.000 C 
BRANCH  27  28
ATOM     28  C   UNL     1      29.877  39.479  50.176  1.00  0.00    -0.000 C 
BRANCH  28  29
ATOM     29  C   UNL     1      30.381  39.866  48.776  1.00  0.00    -0.000 C 
BRANCH  29  30
ATOM     30  C   UNL     1      30.912  41.309  48.713  1.00  0.00    -0.000 C 
BRANCH  30  31
ATOM     31  C   UNL     1      30.226  42.140  47.618  1.00  0.00    -0.003 C 
ATOM     32  C   UNL     1      30.115  43.620  47.982  1.00  0.00     0.004 C 
ENDBRANCH  30  31
ENDBRANCH  29  30
ENDBRANCH  28  29
ENDBRANCH  27  28
ENDBRANCH  26  27
ENDBRANCH  25  26
ENDBRANCH  24  25
ENDBRANCH  23  24
ENDBRANCH  22  23
ENDBRANCH  21  22
ENDBRANCH  20  21
ENDBRANCH  19  20
ENDBRANCH  18  19
ENDBRANCH   1  18
TORSDOF 28
ENDMDL
MODEL 5
REMARK VINA RESULT:    -3.849      2.728      5.120
REMARK INTER + INTRA:         -15.629
REMARK INTER:                  -9.918
REMARK INTRA:                  -5.712
REMARK UNBOUND:                -5.479
REMARK SMILES CCCCCCCCCCCCCCCCCCCCCCCCCCCCCC(=O)[O-]
REMARK SMILES IDX 16 1 17 2 18 3 19 4 20 5 21 6 22 7 23 8 24 9 25 10 26 11
REMARK SMILES IDX 27 12 28 13 29 14 30 15 31 16 32 17 15 18 14 19 13 20 12 21
REMARK SMILES IDX 11 22 10 23 9 24 8 25 7 26 6 27 5 28 4 29 3 30 2 31 1 32
REMARK H PARENT
REMARK Flexibility Score: inf
ROOT
ATOM      1  C   UNL     1      31.052  40.033  45.605  1.00  0.00     0.000 C 
ENDROOT
BRANCH   1   2
ATOM      2  C   UNL     1      30.455  40.699  46.860  1.00  0.00     0.000 C 
BRANCH   2   3
ATOM      3  C   UNL     1      30.583  39.886  48.162  1.00  0.00     0.000 C 
BRANCH   3   4
ATOM      4  C   UNL     1      30.358  40.678  49.465  1.00  0.00     0.000 C 
BRANCH   4   5
ATOM      5  C   UNL     1      30.135  39.796  50.712  1.00  0.00     0.000 C 
BRANCH   5   6
ATOM      6  C   UNL     1      31.138  38.632  50.814  1.00  0.00     0.000 C 
BRANCH   6   7
ATOM      7  C   UNL     1      32.540  39.117  51.219  1.00  0.00     0.000 C 
BRANCH   7   8
ATOM      8  C   UNL     1      33.574  38.898  50.100  1.00  0.00     0.000 C 
BRANCH   8   9
ATOM      9  C   UNL     1      33.278  37.632  49.269  1.00  0.00     0.000 C 
BRANCH   9  10
ATOM     10  C   UNL     1      34.314  36.513  49.479  1.00  0.00     0.000 C 
BRANCH  10  11
ATOM     11  C   UNL     1      33.669  35.121  49.582  1.00  0.00     0.000 C 
BRANCH  11  12
ATOM     12  C   UNL     1      32.271  35.163  50.219  1.00  0.00     0.000 C 
BRANCH  12  13
ATOM     13  C   UNL     1      32.265  34.622  51.660  1.00  0.00     0.006 C 
BRANCH  13  14
ATOM     14  C   UNL     1      32.340  35.744  52.702  1.00  0.00     0.053 C 
BRANCH  14  15
ATOM     15  C   UNL     1      33.684  35.802  53.360  1.00  0.00     0.041 C 
ATOM     16  O   UNL     1      34.522  36.677  53.016  1.00  0.00    -0.550 OA
ATOM     17  O   UNL     1      34.000  34.906  54.374  1.00  0.00    -0.550 OA
ENDBRANCH  14  15
ENDBRANCH  13  14
ENDBRANCH  12  13
ENDBRANCH  11  12
ENDBRANCH  10  11
ENDBRANCH   9  10
ENDBRANCH   8   9
ENDBRANCH   7   8
ENDBRANCH   6   7
ENDBRANCH   5   6
ENDBRANCH   4   5
ENDBRANCH   3   4
ENDBRANCH   2   3
ENDBRANCH   1   2
BRANCH   1  18
ATOM     18  C   UNL     1      30.096  39.912  44.403  1.00  0.00     0.000 C 
BRANCH  18  19
ATOM     19  C   UNL     1      28.758  39.210  44.723  1.00  0.00     0.000 C 
BRANCH  19  20
ATOM     20  C   UNL     1      27.587  40.198  44.886  1.00  0.00     0.000 C 
BRANCH  20  21
ATOM     21  C   UNL     1      27.923  41.616  44.381  1.00  0.00     0.000 C 
BRANCH  21  22
ATOM     22  C   UNL     1      27.867  42.704  45.470  1.00  0.00     0.000 C 
BRANCH  22  23
ATOM     23  C   UNL     1      26.471  43.293  45.739  1.00  0.00     0.000 C 
BRANCH  23  24
ATOM     24  C   UNL     1      26.069  43.386  47.227  1.00  0.00    -0.000 C 
BRANCH  24  25
ATOM     25  C   UNL     1      27.198  43.086  48.230  1.00  0.00    -0.000 C 
BRANCH  25  26
ATOM     26  C   UNL     1      26.895  41.871  49.125  1.00  0.00    -0.000 C 
BRANCH  26  27
ATOM     27  C   UNL     1      26.422  40.649  48.317  1.00  0.00    -0.000 C 
BRANCH  27  28
ATOM     28  C   UNL     1      26.887  39.318  48.934  1.00  0.00    -0.000 C 
BRANCH  28  29
ATOM     29  C   UNL     1      27.074  38.214  47.880  1.00  0.00    -0.000 C 
BRANCH  29  30
ATOM     30  C   UNL     1      27.376  36.841  48.505  1.00  0.00    -0.000 C 
BRANCH  30  31
ATOM     31  C   UNL     1      28.884  36.582  48.652  1.00  0.00    -0.003 C 
ATOM     32  C   UNL     1      29.584  36.390  47.307  1.00  0.00     0.004 C 
ENDBRANCH  30  31
ENDBRANCH  29  30
ENDBRANCH  28  29
ENDBRANCH  27  28
ENDBRANCH  26  27
ENDBRANCH  25  26
ENDBRANCH  24  25
ENDBRANCH  23  24
ENDBRANCH  22  23
ENDBRANCH  21  22
ENDBRANCH  20  21
ENDBRANCH  19  20
ENDBRANCH  18  19
ENDBRANCH   1  18
TORSDOF 28
ENDMDL
MODEL 6
REMARK VINA RESULT:    -3.844      2.587      4.003
REMARK INTER + INTRA:         -15.615
REMARK INTER:                  -9.723
REMARK INTRA:                  -5.892
REMARK UNBOUND:                -5.479
REMARK SMILES CCCCCCCCCCCCCCCCCCCCCCCCCCCCCC(=O)[O-]
REMARK SMILES IDX 16 1 17 2 18 3 19 4 20 5 21 6 22 7 23 8 24 9 25 10 26 11
REMARK SMILES IDX 27 12 28 13 29 14 30 15 31 16 32 17 15 18 14 19 13 20 12 21
REMARK SMILES IDX 11 22 10 23 9 24 8 25 7 26 6 27 5 28 4 29 3 30 2 31 1 32
REMARK H PARENT
REMARK Flexibility Score: inf
ROOT
ATOM      1  C   UNL     1      25.940  43.019  46.858  1.00  0.00     0.000 C 
ENDROOT
BRANCH   1   2
ATOM      2  C   UNL     1      26.184  43.432  48.322  1.00  0.00     0.000 C 
BRANCH   2   3
ATOM      3  C   UNL     1      27.433  42.817  48.982  1.00  0.00     0.000 C 
BRANCH   3   4
ATOM      4  C   UNL     1      27.172  41.608  49.902  1.00  0.00     0.000 C 
BRANCH   4   5
ATOM      5  C   UNL     1      27.185  40.245  49.177  1.00  0.00     0.000 C 
BRANCH   5   6
ATOM      6  C   UNL     1      25.779  39.765  48.770  1.00  0.00     0.000 C 
BRANCH   6   7
ATOM      7  C   UNL     1      25.836  38.677  47.685  1.00  0.00     0.000 C 
BRANCH   7   8
ATOM      8  C   UNL     1      27.281  38.365  47.255  1.00  0.00     0.000 C 
BRANCH   8   9
ATOM      9  C   UNL     1      27.584  36.852  47.276  1.00  0.00     0.000 C 
BRANCH   9  10
ATOM     10  C   UNL     1      29.063  36.524  47.007  1.00  0.00     0.000 C 
BRANCH  10  11
ATOM     11  C   UNL     1      29.797  36.026  48.262  1.00  0.00     0.000 C 
BRANCH  11  12
ATOM     12  C   UNL     1      29.855  37.086  49.373  1.00  0.00     0.000 C 
BRANCH  12  13
ATOM     13  C   UNL     1      31.183  37.051  50.149  1.00  0.00     0.006 C 
BRANCH  13  14
ATOM     14  C   UNL     1      32.395  37.274  49.237  1.00  0.00     0.053 C 
BRANCH  14  15
ATOM     15  C   UNL     1      33.566  36.440  49.657  1.00  0.00     0.041 C 
ATOM     16  O   UNL     1      34.639  36.992  50.022  1.00  0.00    -0.550 OA
ATOM     17  O   UNL     1      33.464  35.055  49.672  1.00  0.00    -0.550 OA
ENDBRANCH  14  15
ENDBRANCH  13  14
ENDBRANCH  12  13
ENDBRANCH  11  12
ENDBRANCH  10  11
ENDBRANCH   9  10
ENDBRANCH   8   9
ENDBRANCH   7   8
ENDBRANCH   6   7
ENDBRANCH   5   6
ENDBRANCH   4   5
ENDBRANCH   3   4
ENDBRANCH   2   3
ENDBRANCH   1   2
BRANCH   1  18
ATOM     18  C   UNL     1      26.786  43.769  45.810  1.00  0.00     0.000 C 
BRANCH  18  19
ATOM     19  C   UNL     1      27.622  42.850  44.893  1.00  0.00     0.000 C 
BRANCH  19  20
ATOM     20  C   UNL     1      27.618  41.379  45.353  1.00  0.00     0.000 C 
BRANCH  20  21
ATOM     21  C   UNL     1      28.042  40.400  44.238  1.00  0.00     0.000 C 
BRANCH  21  22
ATOM     22  C   UNL     1      29.168  39.430  44.644  1.00  0.00     0.000 C 
BRANCH  22  23
ATOM     23  C   UNL     1      30.542  40.082  44.881  1.00  0.00     0.000 C 
BRANCH  23  24
ATOM     24  C   UNL     1      31.176  39.801  46.260  1.00  0.00    -0.000 C 
BRANCH  24  25
ATOM     25  C   UNL     1      30.354  40.282  47.470  1.00  0.00    -0.000 C 
BRANCH  25  26
ATOM     26  C   UNL     1      30.552  41.778  47.771  1.00  0.00    -0.000 C 
BRANCH  26  27
ATOM     27  C   UNL     1      31.082  42.025  49.195  1.00  0.00    -0.000 C 
BRANCH  27  28
ATOM     28  C   UNL     1      30.948  40.786  50.098  1.00  0.00    -0.000 C 
BRANCH  28  29
ATOM     29  C   UNL     1      31.182  41.112  51.583  1.00  0.00    -0.000 C 
BRANCH  29  30
ATOM     30  C   UNL     1      29.885  41.484  52.322  1.00  0.00    -0.000 C 
BRANCH  30  31
ATOM     31  C   UNL     1      29.362  40.339  53.203  1.00  0.00    -0.003 C 
ATOM     32  C   UNL     1      28.935  39.117  52.390  1.00  0.00     0.004 C 
ENDBRANCH  30  31
ENDBRANCH  29  30
ENDBRANCH  28  29
ENDBRANCH  27  28
ENDBRANCH  26  27
ENDBRANCH  25  26
ENDBRANCH  24  25
ENDBRANCH  23  24
ENDBRANCH  22  23
ENDBRANCH  21  22
ENDBRANCH  20  21
ENDBRANCH  19  20
ENDBRANCH  18  19
ENDBRANCH   1  18
TORSDOF 28
ENDMDL
MODEL 7
REMARK VINA RESULT:    -3.824      7.710     11.469
REMARK INTER + INTRA:         -15.563
REMARK INTER:                 -12.453
REMARK INTRA:                  -3.110
REMARK UNBOUND:                -5.479
REMARK SMILES CCCCCCCCCCCCCCCCCCCCCCCCCCCCCC(=O)[O-]
REMARK SMILES IDX 16 1 17 2 18 3 19 4 20 5 21 6 22 7 23 8 24 9 25 10 26 11
REMARK SMILES IDX 27 12 28 13 29 14 30 15 31 16 32 17 15 18 14 19 13 20 12 21
REMARK SMILES IDX 11 22 10 23 9 24 8 25 7 26 6 27 5 28 4 29 3 30 2 31 1 32
REMARK H PARENT
REMARK Flexibility Score: inf
ROOT
ATOM      1  C   UNL     1      22.798  34.738  49.984  1.00  0.00     0.000 C 
ENDROOT
BRANCH   1   2
ATOM      2  C   UNL     1      23.839  33.988  49.129  1.00  0.00     0.000 C 
BRANCH   2   3
ATOM      3  C   UNL     1      25.310  34.339  49.423  1.00  0.00     0.000 C 
BRANCH   3   4
ATOM      4  C   UNL     1      26.022  35.173  48.340  1.00  0.00     0.000 C 
BRANCH   4   5
ATOM      5  C   UNL     1      26.473  36.572  48.812  1.00  0.00     0.000 C 
BRANCH   5   6
ATOM      6  C   UNL     1      26.475  37.618  47.681  1.00  0.00     0.000 C 
BRANCH   6   7
ATOM      7  C   UNL     1      27.899  37.935  47.196  1.00  0.00     0.000 C 
BRANCH   7   8
ATOM      8  C   UNL     1      28.307  37.067  45.992  1.00  0.00     0.000 C 
BRANCH   8   9
ATOM      9  C   UNL     1      29.156  37.849  44.968  1.00  0.00     0.000 C 
BRANCH   9  10
ATOM     10  C   UNL     1      29.473  39.287  45.414  1.00  0.00     0.000 C 
BRANCH  10  11
ATOM     11  C   UNL     1      28.858  40.345  44.484  1.00  0.00     0.000 C 
BRANCH  11  12
ATOM     12  C   UNL     1      27.675  41.083  45.129  1.00  0.00     0.000 C 
BRANCH  12  13
ATOM     13  C   UNL     1      28.089  41.872  46.384  1.00  0.00     0.006 C 
BRANCH  13  14
ATOM     14  C   UNL     1      27.067  41.737  47.519  1.00  0.00     0.053 C 
BRANCH  14  15
ATOM     15  C   UNL     1      26.494  43.064  47.910  1.00  0.00     0.041 C 
ATOM     16  O   UNL     1      26.636  43.495  49.085  1.00  0.00    -0.550 OA
ATOM     17  O   UNL     1      25.826  43.838  46.968  1.00  0.00    -0.550 OA
ENDBRANCH  14  15
ENDBRANCH  13  14
ENDBRANCH  12  13
ENDBRANCH  11  12
ENDBRANCH  10  11
ENDBRANCH   9  10
ENDBRANCH   8   9
ENDBRANCH   7   8
ENDBRANCH   6   7
ENDBRANCH   5   6
ENDBRANCH   4   5
ENDBRANCH   3   4
ENDBRANCH   2   3
ENDBRANCH   1   2
BRANCH   1  18
ATOM     18  C   UNL     1      21.326  34.488  49.603  1.00  0.00     0.000 C 
BRANCH  18  19
ATOM     19  C   UNL     1      21.092  34.247  48.096  1.00  0.00     0.000 C 
BRANCH  19  20
ATOM     20  C   UNL     1      19.659  34.597  47.649  1.00  0.00     0.000 C 
BRANCH  20  21
ATOM     21  C   UNL     1      19.594  35.117  46.197  1.00  0.00     0.000 C 
BRANCH  21  22
ATOM     22  C   UNL     1      19.245  34.037  45.155  1.00  0.00     0.000 C 
BRANCH  22  23
ATOM     23  C   UNL     1      20.429  33.530  44.313  1.00  0.00     0.000 C 
BRANCH  23  24
ATOM     24  C   UNL     1      20.409  32.021  43.986  1.00  0.00    -0.000 C 
BRANCH  24  25
ATOM     25  C   UNL     1      19.015  31.367  44.001  1.00  0.00    -0.000 C 
BRANCH  25  26
ATOM     26  C   UNL     1      18.904  30.221  45.022  1.00  0.00    -0.000 C 
BRANCH  26  27
ATOM     27  C   UNL     1      18.200  30.655  46.320  1.00  0.00    -0.000 C 
BRANCH  27  28
ATOM     28  C   UNL     1      19.194  31.066  47.421  1.00  0.00    -0.000 C 
BRANCH  28  29
ATOM     29  C   UNL     1      18.803  30.515  48.802  1.00  0.00    -0.000 C 
BRANCH  29  30
ATOM     30  C   UNL     1      20.020  30.057  49.625  1.00  0.00    -0.000 C 
BRANCH  30  31
ATOM     31  C   UNL     1      20.364  31.036  50.759  1.00  0.00    -0.003 C 
ATOM     32  C   UNL     1      21.859  31.068  51.077  1.00  0.00     0.004 C 
ENDBRANCH  30  31
ENDBRANCH  29  30
ENDBRANCH  28  29
ENDBRANCH  27  28
ENDBRANCH  26  27
ENDBRANCH  25  26
ENDBRANCH  24  25
ENDBRANCH  23  24
ENDBRANCH  22  23
ENDBRANCH  21  22
ENDBRANCH  20  21
ENDBRANCH  19  20
ENDBRANCH  18  19
ENDBRANCH   1  18
TORSDOF 28
ENDMDL
MODEL 8
REMARK VINA RESULT:    -3.759      2.505      4.928
REMARK INTER + INTRA:         -15.391
REMARK INTER:                  -9.149
REMARK INTRA:                  -6.242
REMARK UNBOUND:                -5.479
REMARK SMILES CCCCCCCCCCCCCCCCCCCCCCCCCCCCCC(=O)[O-]
REMARK SMILES IDX 16 1 17 2 18 3 19 4 20 5 21 6 22 7 23 8 24 9 25 10 26 11
REMARK SMILES IDX 27 12 28 13 29 14 30 15 31 16 32 17 15 18 14 19 13 20 12 21
REMARK SMILES IDX 11 22 10 23 9 24 8 25 7 26 6 27 5 28 4 29 3 30 2 31 1 32
REMARK H PARENT
REMARK Flexibility Score: inf
ROOT
ATOM      1  C   UNL     1      27.619  42.901  44.996  1.00  0.00     0.000 C 
ENDROOT
BRANCH   1   2
ATOM      2  C   UNL     1      26.523  43.615  45.810  1.00  0.00     0.000 C 
BRANCH   2   3
ATOM      3  C   UNL     1      26.020  42.852  47.050  1.00  0.00     0.000 C 
BRANCH   3   4
ATOM      4  C   UNL     1      26.501  43.401  48.408  1.00  0.00     0.000 C 
BRANCH   4   5
ATOM      5  C   UNL     1      27.720  42.659  48.995  1.00  0.00     0.000 C 
BRANCH   5   6
ATOM      6  C   UNL     1      29.065  43.247  48.528  1.00  0.00     0.000 C 
BRANCH   6   7
ATOM      7  C   UNL     1      30.222  42.250  48.712  1.00  0.00     0.000 C 
BRANCH   7   8
ATOM      8  C   UNL     1      30.565  41.513  47.405  1.00  0.00     0.000 C 
BRANCH   8   9
ATOM      9  C   UNL     1      31.085  40.083  47.659  1.00  0.00     0.000 C 
BRANCH   9  10
ATOM     10  C   UNL     1      31.762  39.918  49.031  1.00  0.00     0.000 C 
BRANCH  10  11
ATOM     11  C   UNL     1      32.951  38.944  48.991  1.00  0.00     0.000 C 
BRANCH  11  12
ATOM     12  C   UNL     1      32.524  37.482  49.194  1.00  0.00     0.000 C 
BRANCH  12  13
ATOM     13  C   UNL     1      31.416  37.336  50.252  1.00  0.00     0.006 C 
BRANCH  13  14
ATOM     14  C   UNL     1      30.127  36.749  49.666  1.00  0.00     0.053 C 
BRANCH  14  15
ATOM     15  C   UNL     1      30.293  35.308  49.293  1.00  0.00     0.041 C 
ATOM     16  O   UNL     1      30.945  34.530  50.040  1.00  0.00    -0.550 OA
ATOM     17  O   UNL     1      29.704  34.816  48.134  1.00  0.00    -0.550 OA
ENDBRANCH  14  15
ENDBRANCH  13  14
ENDBRANCH  12  13
ENDBRANCH  11  12
ENDBRANCH  10  11
ENDBRANCH   9  10
ENDBRANCH   8   9
ENDBRANCH   7   8
ENDBRANCH   6   7
ENDBRANCH   5   6
ENDBRANCH   4   5
ENDBRANCH   3   4
ENDBRANCH   2   3
ENDBRANCH   1   2
BRANCH   1  18
ATOM     18  C   UNL     1      27.734  41.382  45.232  1.00  0.00     0.000 C 
BRANCH  18  19
ATOM     19  C   UNL     1      28.393  40.608  44.070  1.00  0.00     0.000 C 
BRANCH  19  20
ATOM     20  C   UNL     1      29.486  39.630  44.546  1.00  0.00     0.000 C 
BRANCH  20  21
ATOM     21  C   UNL     1      28.985  38.173  44.645  1.00  0.00     0.000 C 
BRANCH  21  22
ATOM     22  C   UNL     1      29.062  37.575  46.063  1.00  0.00     0.000 C 
BRANCH  22  23
ATOM     23  C   UNL     1      27.771  37.686  46.893  1.00  0.00     0.000 C 
BRANCH  23  24
ATOM     24  C   UNL     1      27.698  38.904  47.839  1.00  0.00    -0.000 C 
BRANCH  24  25
ATOM     25  C   UNL     1      26.279  39.430  48.122  1.00  0.00    -0.000 C 
BRANCH  25  26
ATOM     26  C   UNL     1      25.629  38.766  49.348  1.00  0.00    -0.000 C 
BRANCH  26  27
ATOM     27  C   UNL     1      26.136  39.359  50.675  1.00  0.00    -0.000 C 
BRANCH  27  28
ATOM     28  C   UNL     1      26.853  38.316  51.552  1.00  0.00    -0.000 C 
BRANCH  28  29
ATOM     29  C   UNL     1      28.162  38.854  52.154  1.00  0.00    -0.000 C 
BRANCH  29  30
ATOM     30  C   UNL     1      28.837  39.910  51.261  1.00  0.00    -0.000 C 
BRANCH  30  31
ATOM     31  C   UNL     1      29.244  41.167  52.044  1.00  0.00    -0.003 C 
ATOM     32  C   UNL     1      28.049  41.888  52.666  1.00  0.00     0.004 C 
ENDBRANCH  30  31
ENDBRANCH  29  30
ENDBRANCH  28  29
ENDBRANCH  27  28
ENDBRANCH  26  27
ENDBRANCH  25  26
ENDBRANCH  24  25
ENDBRANCH  23  24
ENDBRANCH  22  23
ENDBRANCH  21  22
ENDBRANCH  20  21
ENDBRANCH  19  20
ENDBRANCH  18  19
ENDBRANCH   1  18
TORSDOF 28
ENDMDL
MODEL 9
REMARK VINA RESULT:    -3.754      8.665     10.846
REMARK INTER + INTRA:         -15.377
REMARK INTER:                  -9.721
REMARK INTRA:                  -5.656
REMARK UNBOUND:                -5.479
REMARK SMILES CCCCCCCCCCCCCCCCCCCCCCCCCCCCCC(=O)[O-]
REMARK SMILES IDX 16 1 17 2 18 3 19 4 20 5 21 6 22 7 23 8 24 9 25 10 26 11
REMARK SMILES IDX 27 12 28 13 29 14 30 15 31 16 32 17 15 18 14 19 13 20 12 21
REMARK SMILES IDX 11 22 10 23 9 24 8 25 7 26 6 27 5 28 4 29 3 30 2 31 1 32
REMARK H PARENT
REMARK Flexibility Score: inf
ROOT
ATOM      1  C   UNL     1      20.062  34.483  45.242  1.00  0.00     0.000 C 
ENDROOT
BRANCH   1   2
ATOM      2  C   UNL     1      19.480  33.323  44.412  1.00  0.00     0.000 C 
BRANCH   2   3
ATOM      3  C   UNL     1      18.503  32.399  45.165  1.00  0.00     0.000 C 
BRANCH   3   4
ATOM      4  C   UNL     1      18.951  30.930  45.302  1.00  0.00     0.000 C 
BRANCH   4   5
ATOM      5  C   UNL     1      18.543  30.266  46.634  1.00  0.00     0.000 C 
BRANCH   5   6
ATOM      6  C   UNL     1      19.711  29.539  47.328  1.00  0.00     0.000 C 
BRANCH   6   7
ATOM      7  C   UNL     1      19.360  29.135  48.769  1.00  0.00     0.000 C 
BRANCH   7   8
ATOM      8  C   UNL     1      20.617  28.907  49.629  1.00  0.00     0.000 C 
BRANCH   8   9
ATOM      9  C   UNL     1      21.917  29.223  48.860  1.00  0.00     0.000 C 
BRANCH   9  10
ATOM     10  C   UNL     1      22.697  30.411  49.448  1.00  0.00     0.000 C 
BRANCH  10  11
ATOM     11  C   UNL     1      23.874  29.968  50.332  1.00  0.00     0.000 C 
BRANCH  11  12
ATOM     12  C   UNL     1      24.176  30.967  51.459  1.00  0.00     0.000 C 
BRANCH  12  13
ATOM     13  C   UNL     1      23.874  30.388  52.853  1.00  0.00     0.006 C 
BRANCH  13  14
ATOM     14  C   UNL     1      25.142  29.905  53.568  1.00  0.00     0.053 C 
BRANCH  14  15
ATOM     15  C   UNL     1      25.947  31.048  54.103  1.00  0.00     0.041 C 
ATOM     16  O   UNL     1      27.207  31.004  54.077  1.00  0.00    -0.550 OA
ATOM     17  O   UNL     1      25.308  32.175  54.605  1.00  0.00    -0.550 OA
ENDBRANCH  14  15
ENDBRANCH  13  14
ENDBRANCH  12  13
ENDBRANCH  11  12
ENDBRANCH  10  11
ENDBRANCH   9  10
ENDBRANCH   8   9
ENDBRANCH   7   8
ENDBRANCH   6   7
ENDBRANCH   5   6
ENDBRANCH   4   5
ENDBRANCH   3   4
ENDBRANCH   2   3
ENDBRANCH   1   2
BRANCH   1  18
ATOM     18  C   UNL     1      19.056  35.217  46.149  1.00  0.00     0.000 C 
BRANCH  18  19
ATOM     19  C   UNL     1      19.395  35.155  47.654  1.00  0.00     0.000 C 
BRANCH  19  20
ATOM     20  C   UNL     1      20.684  34.362  47.946  1.00  0.00     0.000 C 
BRANCH  20  21
ATOM     21  C   UNL     1      20.407  32.950  48.504  1.00  0.00     0.000 C 
BRANCH  21  22
ATOM     22  C   UNL     1      19.052  32.812  49.225  1.00  0.00     0.000 C 
BRANCH  22  23
ATOM     23  C   UNL     1      19.128  32.301  50.675  1.00  0.00     0.000 C 
BRANCH  23  24
ATOM     24  C   UNL     1      20.445  32.615  51.416  1.00  0.00    -0.000 C 
BRANCH  24  25
ATOM     25  C   UNL     1      20.470  33.958  52.168  1.00  0.00    -0.000 C 
BRANCH  25  26
ATOM     26  C   UNL     1      21.433  34.978  51.537  1.00  0.00    -0.000 C 
BRANCH  26  27
ATOM     27  C   UNL     1      22.903  34.527  51.616  1.00  0.00    -0.000 C 
BRANCH  27  28
ATOM     28  C   UNL     1      23.874  35.573  51.041  1.00  0.00    -0.000 C 
BRANCH  28  29
ATOM     29  C   UNL     1      24.688  35.031  49.854  1.00  0.00    -0.000 C 
BRANCH  29  30
ATOM     30  C   UNL     1      23.972  33.886  49.116  1.00  0.00    -0.000 C 
BRANCH  30  31
ATOM     31  C   UNL     1      24.892  33.165  48.119  1.00  0.00    -0.003 C 
ATOM     32  C   UNL     1      24.122  32.517  46.968  1.00  0.00     0.004 C 
ENDBRANCH  30  31
ENDBRANCH  29  30
ENDBRANCH  28  29
ENDBRANCH  27  28
ENDBRANCH  26  27
ENDBRANCH  25  26
ENDBRANCH  24  25
ENDBRANCH  23  24
ENDBRANCH  22  23
ENDBRANCH  21  22
ENDBRANCH  20  21
ENDBRANCH  19  20
ENDBRANCH  18  19
ENDBRANCH   1  18
TORSDOF 28
ENDMDL
