MODEL 1
REMARK VINA RESULT:    -6.790      0.000      0.000
REMARK INTER + INTRA:          -8.491
REMARK INTER:                  -8.179
REMARK INTRA:                  -0.312
REMARK UNBOUND:                -0.312
REMARK SMILES O=c1c(O)c(-c2ccc(O)c(O)c2)oc2cc(O)cc(O)c12
REMARK SMILES IDX 5 1 3 2 2 3 1 4 22 5 20 6 19 7 17 8 16 9 15 10 14 11 6 12
REMARK SMILES IDX 7 13 8 14 9 15 13 16 11 17 10 18 12 20 4 22 21 24 18 26
REMARK H PARENT 10 19 12 21 4 23 21 25 18 27
REMARK Flexibility Score: inf
ROOT
ATOM      1  C   UNL     1       8.552  26.265  58.844  1.00  0.00     0.180 A 
ATOM      2  C   UNL     1       7.556  25.380  59.298  1.00  0.00     0.208 A 
ATOM      3  C   UNL     1       6.219  25.625  58.946  1.00  0.00     0.238 A 
ATOM      4  O   UNL     1       5.317  24.845  59.356  1.00  0.00    -0.285 OA
ATOM      5  C   UNL     1       5.904  26.733  58.133  1.00  0.00     0.111 A 
ATOM      6  C   UNL     1       4.585  27.048  57.730  1.00  0.00     0.134 A 
ATOM      7  C   UNL     1       4.353  28.164  56.912  1.00  0.00     0.093 A 
ATOM      8  C   UNL     1       5.414  28.970  56.490  1.00  0.00     0.123 A 
ATOM      9  C   UNL     1       6.720  28.664  56.885  1.00  0.00     0.094 A 
ATOM     10  C   UNL     1       6.970  27.557  57.702  1.00  0.00     0.146 A 
ATOM     11  O   UNL     1       8.220  27.292  58.067  1.00  0.00    -0.452 OA
ENDROOT
BRANCH   1  12
ATOM     12  C   UNL     1       9.981  26.085  59.188  1.00  0.00     0.025 A 
ATOM     13  C   UNL     1      10.491  26.494  60.433  1.00  0.00     0.016 A 
ATOM     14  C   UNL     1      11.848  26.335  60.726  1.00  0.00     0.051 A 
ATOM     15  C   UNL     1      12.717  25.782  59.781  1.00  0.00     0.157 A 
ATOM     16  C   UNL     1      10.861  25.549  58.233  1.00  0.00     0.062 A 
ATOM     17  C   UNL     1      12.223  25.390  58.526  1.00  0.00     0.158 A 
BRANCH  15  18
ATOM     18  O   UNL     1      14.066  25.635  60.104  1.00  0.00    -0.504 OA
ATOM     19  H   UNL     1      14.795  26.129  59.604  1.00  0.00     0.293 HD
ENDBRANCH  15  18
BRANCH  17  20
ATOM     20  O   UNL     1      13.084  24.844  57.576  1.00  0.00    -0.504 OA
ATOM     21  H   UNL     1      13.846  24.230  57.839  1.00  0.00     0.293 HD
ENDBRANCH  17  20
ENDBRANCH   1  12
BRANCH   2  22
ATOM     22  O   UNL     1       7.900  24.262  60.061  1.00  0.00    -0.502 OA
ATOM     23  H   UNL     1       7.996  24.300  61.068  1.00  0.00     0.293 HD
ENDBRANCH   2  22
BRANCH   6  24
ATOM     24  O   UNL     1       3.503  26.262  58.134  1.00  0.00    -0.507 OA
ATOM     25  H   UNL     1       3.411  25.296  57.848  1.00  0.00     0.293 HD
ENDBRANCH   6  24
BRANCH   8  26
ATOM     26  O   UNL     1       5.158  30.072  55.677  1.00  0.00    -0.508 OA
ATOM     27  H   UNL     1       5.858  30.434  55.040  1.00  0.00     0.293 HD
ENDBRANCH   8  26
TORSDOF 6
ENDMDL
MODEL 2
REMARK VINA RESULT:    -6.673      1.332      6.674
REMARK INTER + INTRA:          -8.351
REMARK INTER:                  -8.406
REMARK INTRA:                   0.055
REMARK UNBOUND:                -0.312
REMARK SMILES O=c1c(O)c(-c2ccc(O)c(O)c2)oc2cc(O)cc(O)c12
REMARK SMILES IDX 5 1 3 2 2 3 1 4 22 5 20 6 19 7 17 8 16 9 15 10 14 11 6 12
REMARK SMILES IDX 7 13 8 14 9 15 13 16 11 17 10 18 12 20 4 22 21 24 18 26
REMARK H PARENT 10 19 12 21 4 23 21 25 18 27
REMARK Flexibility Score: inf
ROOT
ATOM      1  C   UNL     1       7.378  26.881  58.450  1.00  0.00     0.180 A 
ATOM      2  C   UNL     1       6.909  26.279  59.633  1.00  0.00     0.208 A 
ATOM      3  C   UNL     1       7.800  25.518  60.406  1.00  0.00     0.238 A 
ATOM      4  O   UNL     1       7.388  24.965  61.463  1.00  0.00    -0.285 OA
ATOM      5  C   UNL     1       9.142  25.388  59.996  1.00  0.00     0.111 A 
ATOM      6  C   UNL     1      10.104  24.642  60.719  1.00  0.00     0.134 A 
ATOM      7  C   UNL     1      11.424  24.567  60.251  1.00  0.00     0.093 A 
ATOM      8  C   UNL     1      11.801  25.223  59.076  1.00  0.00     0.123 A 
ATOM      9  C   UNL     1      10.855  25.961  58.357  1.00  0.00     0.094 A 
ATOM     10  C   UNL     1       9.534  26.045  58.807  1.00  0.00     0.146 A 
ATOM     11  O   UNL     1       8.655  26.749  58.102  1.00  0.00    -0.452 OA
ENDROOT
BRANCH   1  12
ATOM     12  C   UNL     1       6.496  27.683  57.571  1.00  0.00     0.025 A 
ATOM     13  C   UNL     1       6.869  28.966  57.133  1.00  0.00     0.016 A 
ATOM     14  C   UNL     1       6.009  29.713  56.324  1.00  0.00     0.051 A 
ATOM     15  C   UNL     1       4.762  29.201  55.953  1.00  0.00     0.157 A 
ATOM     16  C   UNL     1       5.234  27.179  57.213  1.00  0.00     0.062 A 
ATOM     17  C   UNL     1       4.370  27.929  56.402  1.00  0.00     0.158 A 
BRANCH  15  18
ATOM     18  O   UNL     1       3.927  29.970  55.143  1.00  0.00    -0.504 OA
ATOM     19  H   UNL     1       2.987  29.675  54.906  1.00  0.00     0.293 HD
ENDBRANCH  15  18
BRANCH  17  20
ATOM     20  O   UNL     1       3.126  27.414  56.041  1.00  0.00    -0.504 OA
ATOM     21  H   UNL     1       2.744  26.586  56.484  1.00  0.00     0.293 HD
ENDBRANCH  17  20
ENDBRANCH   1  12
BRANCH   2  22
ATOM     22  O   UNL     1       5.586  26.464  60.043  1.00  0.00    -0.502 OA
ATOM     23  H   UNL     1       4.810  25.979  59.609  1.00  0.00     0.293 HD
ENDBRANCH   2  22
BRANCH   6  24
ATOM     24  O   UNL     1       9.760  23.976  61.898  1.00  0.00    -0.507 OA
ATOM     25  H   UNL     1       8.812  23.978  62.253  1.00  0.00     0.293 HD
ENDBRANCH   6  24
BRANCH   8  26
ATOM     26  O   UNL     1      13.118  25.135  58.632  1.00  0.00    -0.508 OA
ATOM     27  H   UNL     1      13.882  24.953  59.273  1.00  0.00     0.293 HD
ENDBRANCH   8  26
TORSDOF 6
ENDMDL
MODEL 3
REMARK VINA RESULT:    -6.196      2.263      6.808
REMARK INTER + INTRA:          -7.775
REMARK INTER:                  -7.943
REMARK INTRA:                   0.167
REMARK UNBOUND:                -0.312
REMARK SMILES O=c1c(O)c(-c2ccc(O)c(O)c2)oc2cc(O)cc(O)c12
REMARK SMILES IDX 5 1 3 2 2 3 1 4 22 5 20 6 19 7 17 8 16 9 15 10 14 11 6 12
REMARK SMILES IDX 7 13 8 14 9 15 13 16 11 17 10 18 12 20 4 22 21 24 18 26
REMARK H PARENT 10 19 12 21 4 23 21 25 18 27
REMARK Flexibility Score: inf
ROOT
ATOM      1  C   UNL     1       6.723  26.433  58.603  1.00  0.00     0.180 A 
ATOM      2  C   UNL     1       8.117  26.264  58.689  1.00  0.00     0.208 A 
ATOM      3  C   UNL     1       8.634  25.343  59.614  1.00  0.00     0.238 A 
ATOM      4  O   UNL     1       9.882  25.191  59.708  1.00  0.00    -0.285 OA
ATOM      5  C   UNL     1       7.750  24.596  60.420  1.00  0.00     0.111 A 
ATOM      6  C   UNL     1       8.188  23.646  61.374  1.00  0.00     0.134 A 
ATOM      7  C   UNL     1       7.246  22.935  62.132  1.00  0.00     0.093 A 
ATOM      8  C   UNL     1       5.878  23.154  61.955  1.00  0.00     0.123 A 
ATOM      9  C   UNL     1       5.439  24.092  61.015  1.00  0.00     0.094 A 
ATOM     10  C   UNL     1       6.363  24.812  60.251  1.00  0.00     0.146 A 
ATOM     11  O   UNL     1       5.919  25.701  59.369  1.00  0.00    -0.452 OA
ENDROOT
BRANCH   1  12
ATOM     12  C   UNL     1       6.103  27.398  57.666  1.00  0.00     0.025 A 
ATOM     13  C   UNL     1       6.712  28.632  57.376  1.00  0.00     0.016 A 
ATOM     14  C   UNL     1       6.097  29.536  56.507  1.00  0.00     0.051 A 
ATOM     15  C   UNL     1       4.862  29.232  55.926  1.00  0.00     0.157 A 
ATOM     16  C   UNL     1       4.853  27.104  57.097  1.00  0.00     0.062 A 
ATOM     17  C   UNL     1       4.234  28.011  56.225  1.00  0.00     0.158 A 
BRANCH  15  18
ATOM     18  O   UNL     1       4.274  30.154  55.061  1.00  0.00    -0.504 OA
ATOM     19  H   UNL     1       4.815  30.676  54.383  1.00  0.00     0.293 HD
ENDBRANCH  15  18
BRANCH  17  20
ATOM     20  O   UNL     1       2.999  27.703  55.655  1.00  0.00    -0.504 OA
ATOM     21  H   UNL     1       2.929  27.247  54.752  1.00  0.00     0.293 HD
ENDBRANCH  17  20
ENDBRANCH   1  12
BRANCH   2  22
ATOM     22  O   UNL     1       8.969  26.981  57.845  1.00  0.00    -0.502 OA
ATOM     23  H   UNL     1       8.765  27.125  56.863  1.00  0.00     0.293 HD
ENDBRANCH   2  22
BRANCH   6  24
ATOM     24  O   UNL     1       9.548  23.402  61.574  1.00  0.00    -0.507 OA
ATOM     25  H   UNL     1      10.254  23.776  60.951  1.00  0.00     0.293 HD
ENDBRANCH   6  24
BRANCH   8  26
ATOM     26  O   UNL     1       4.962  22.434  62.719  1.00  0.00    -0.508 OA
ATOM     27  H   UNL     1       4.099  22.853  63.046  1.00  0.00     0.293 HD
ENDBRANCH   8  26
TORSDOF 6
ENDMDL
MODEL 4
REMARK VINA RESULT:    -5.938      1.518      6.647
REMARK INTER + INTRA:          -7.465
REMARK INTER:                  -7.520
REMARK INTRA:                   0.055
REMARK UNBOUND:                -0.312
REMARK SMILES O=c1c(O)c(-c2ccc(O)c(O)c2)oc2cc(O)cc(O)c12
REMARK SMILES IDX 5 1 3 2 2 3 1 4 22 5 20 6 19 7 17 8 16 9 15 10 14 11 6 12
REMARK SMILES IDX 7 13 8 14 9 15 13 16 11 17 10 18 12 20 4 22 21 24 18 26
REMARK H PARENT 10 19 12 21 4 23 21 25 18 27
REMARK Flexibility Score: inf
ROOT
ATOM      1  C   UNL     1       7.843  26.631  58.762  1.00  0.00     0.180 A 
ATOM      2  C   UNL     1       7.621  26.226  60.092  1.00  0.00     0.208 A 
ATOM      3  C   UNL     1       8.646  25.552  60.776  1.00  0.00     0.238 A 
ATOM      4  O   UNL     1       8.456  25.175  61.964  1.00  0.00    -0.285 OA
ATOM      5  C   UNL     1       9.876  25.314  60.128  1.00  0.00     0.111 A 
ATOM      6  C   UNL     1      10.960  24.647  60.747  1.00  0.00     0.134 A 
ATOM      7  C   UNL     1      12.156  24.456  60.039  1.00  0.00     0.093 A 
ATOM      8  C   UNL     1      12.289  24.920  58.728  1.00  0.00     0.123 A 
ATOM      9  C   UNL     1      11.222  25.579  58.111  1.00  0.00     0.094 A 
ATOM     10  C   UNL     1      10.021  25.777  58.800  1.00  0.00     0.146 A 
ATOM     11  O   UNL     1       9.020  26.403  58.188  1.00  0.00    -0.452 OA
ENDROOT
BRANCH   1  12
ATOM     12  C   UNL     1       6.804  27.329  57.969  1.00  0.00     0.025 A 
ATOM     13  C   UNL     1       5.467  26.898  57.973  1.00  0.00     0.016 A 
ATOM     14  C   UNL     1       4.510  27.558  57.198  1.00  0.00     0.051 A 
ATOM     15  C   UNL     1       4.873  28.646  56.400  1.00  0.00     0.157 A 
ATOM     16  C   UNL     1       7.171  28.410  57.150  1.00  0.00     0.062 A 
ATOM     17  C   UNL     1       6.211  29.073  56.372  1.00  0.00     0.158 A 
BRANCH  15  18
ATOM     18  O   UNL     1       3.895  29.285  55.639  1.00  0.00    -0.504 OA
ATOM     19  H   UNL     1       3.930  29.307  54.626  1.00  0.00     0.293 HD
ENDBRANCH  15  18
BRANCH  17  20
ATOM     20  O   UNL     1       6.583  30.154  55.573  1.00  0.00    -0.504 OA
ATOM     21  H   UNL     1       6.362  31.108  55.832  1.00  0.00     0.293 HD
ENDBRANCH  17  20
ENDBRANCH   1  12
BRANCH   2  22
ATOM     22  O   UNL     1       6.412  26.517  60.727  1.00  0.00    -0.502 OA
ATOM     23  H   UNL     1       5.987  25.891  61.401  1.00  0.00     0.293 HD
ENDBRANCH   2  22
BRANCH   6  24
ATOM     24  O   UNL     1      10.860  24.173  62.056  1.00  0.00    -0.507 OA
ATOM     25  H   UNL     1      10.483  23.256  62.264  1.00  0.00     0.293 HD
ENDBRANCH   6  24
BRANCH   8  26
ATOM     26  O   UNL     1      13.487  24.719  58.046  1.00  0.00    -0.508 OA
ATOM     27  H   UNL     1      14.382  24.930  58.474  1.00  0.00     0.293 HD
ENDBRANCH   8  26
TORSDOF 6
ENDMDL
MODEL 5
REMARK VINA RESULT:    -5.670      5.452      7.024
REMARK INTER + INTRA:          -7.142
REMARK INTER:                  -6.823
REMARK INTRA:                  -0.319
REMARK UNBOUND:                -0.312
REMARK SMILES O=c1c(O)c(-c2ccc(O)c(O)c2)oc2cc(O)cc(O)c12
REMARK SMILES IDX 5 1 3 2 2 3 1 4 22 5 20 6 19 7 17 8 16 9 15 10 14 11 6 12
REMARK SMILES IDX 7 13 8 14 9 15 13 16 11 17 10 18 12 20 4 22 21 24 18 26
REMARK H PARENT 10 19 12 21 4 23 21 25 18 27
REMARK Flexibility Score: inf
ROOT
ATOM      1  C   UNL     1       5.881  30.809  61.202  1.00  0.00     0.180 A 
ATOM      2  C   UNL     1       5.430  29.924  62.199  1.00  0.00     0.208 A 
ATOM      3  C   UNL     1       4.891  28.686  61.815  1.00  0.00     0.238 A 
ATOM      4  O   UNL     1       4.474  27.889  62.699  1.00  0.00    -0.285 OA
ATOM      5  C   UNL     1       4.830  28.347  60.448  1.00  0.00     0.111 A 
ATOM      6  C   UNL     1       4.305  27.120  59.977  1.00  0.00     0.134 A 
ATOM      7  C   UNL     1       4.287  26.852  58.600  1.00  0.00     0.093 A 
ATOM      8  C   UNL     1       4.783  27.785  57.686  1.00  0.00     0.123 A 
ATOM      9  C   UNL     1       5.303  29.000  58.145  1.00  0.00     0.094 A 
ATOM     10  C   UNL     1       5.327  29.286  59.514  1.00  0.00     0.146 A 
ATOM     11  O   UNL     1       5.821  30.450  59.923  1.00  0.00    -0.452 OA
ENDROOT
BRANCH   1  12
ATOM     12  C   UNL     1       6.445  32.140  61.526  1.00  0.00     0.025 A 
ATOM     13  C   UNL     1       7.828  32.328  61.695  1.00  0.00     0.016 A 
ATOM     14  C   UNL     1       8.334  33.587  62.025  1.00  0.00     0.051 A 
ATOM     15  C   UNL     1       7.471  34.672  62.204  1.00  0.00     0.157 A 
ATOM     16  C   UNL     1       5.578  33.227  61.727  1.00  0.00     0.062 A 
ATOM     17  C   UNL     1       6.085  34.492  62.058  1.00  0.00     0.158 A 
BRANCH  15  18
ATOM     18  O   UNL     1       8.006  35.918  62.531  1.00  0.00    -0.504 OA
ATOM     19  H   UNL     1       8.687  36.382  61.941  1.00  0.00     0.293 HD
ENDBRANCH  15  18
BRANCH  17  20
ATOM     20  O   UNL     1       5.217  35.568  62.242  1.00  0.00    -0.504 OA
ATOM     21  H   UNL     1       4.216  35.470  62.120  1.00  0.00     0.293 HD
ENDBRANCH  17  20
ENDBRANCH   1  12
BRANCH   2  22
ATOM     22  O   UNL     1       5.547  30.263  63.549  1.00  0.00    -0.502 OA
ATOM     23  H   UNL     1       5.028  31.027  63.964  1.00  0.00     0.293 HD
ENDBRANCH   2  22
BRANCH   6  24
ATOM     24  O   UNL     1       3.803  26.165  60.864  1.00  0.00    -0.507 OA
ATOM     25  H   UNL     1       2.825  25.902  60.865  1.00  0.00     0.293 HD
ENDBRANCH   6  24
BRANCH   8  26
ATOM     26  O   UNL     1       4.756  27.495  56.325  1.00  0.00    -0.508 OA
ATOM     27  H   UNL     1       5.585  27.184  55.832  1.00  0.00     0.293 HD
ENDBRANCH   8  26
TORSDOF 6
ENDMDL
MODEL 6
REMARK VINA RESULT:    -5.436      3.277      6.180
REMARK INTER + INTRA:          -6.860
REMARK INTER:                  -6.976
REMARK INTRA:                   0.115
REMARK UNBOUND:                -0.312
REMARK SMILES O=c1c(O)c(-c2ccc(O)c(O)c2)oc2cc(O)cc(O)c12
REMARK SMILES IDX 5 1 3 2 2 3 1 4 22 5 20 6 19 7 17 8 16 9 15 10 14 11 6 12
REMARK SMILES IDX 7 13 8 14 9 15 13 16 11 17 10 18 12 20 4 22 21 24 18 26
REMARK H PARENT 10 19 12 21 4 23 21 25 18 27
REMARK Flexibility Score: inf
ROOT
ATOM      1  C   UNL     1       4.765  26.267  59.112  1.00  0.00     0.180 A 
ATOM      2  C   UNL     1       6.172  26.224  59.158  1.00  0.00     0.208 A 
ATOM      3  C   UNL     1       6.904  27.050  58.290  1.00  0.00     0.238 A 
ATOM      4  O   UNL     1       8.165  27.013  58.314  1.00  0.00    -0.285 OA
ATOM      5  C   UNL     1       6.222  27.915  57.410  1.00  0.00     0.111 A 
ATOM      6  C   UNL     1       6.884  28.781  56.507  1.00  0.00     0.134 A 
ATOM      7  C   UNL     1       6.134  29.620  55.669  1.00  0.00     0.093 A 
ATOM      8  C   UNL     1       4.738  29.609  55.716  1.00  0.00     0.123 A 
ATOM      9  C   UNL     1       4.078  28.755  56.605  1.00  0.00     0.094 A 
ATOM     10  C   UNL     1       4.808  27.911  57.448  1.00  0.00     0.146 A 
ATOM     11  O   UNL     1       4.156  27.106  58.279  1.00  0.00    -0.452 OA
ENDROOT
BRANCH   1  12
ATOM     12  C   UNL     1       3.924  25.413  59.981  1.00  0.00     0.025 A 
ATOM     13  C   UNL     1       2.820  25.938  60.676  1.00  0.00     0.016 A 
ATOM     14  C   UNL     1       2.055  25.118  61.509  1.00  0.00     0.051 A 
ATOM     15  C   UNL     1       2.385  23.770  61.673  1.00  0.00     0.157 A 
ATOM     16  C   UNL     1       4.266  24.063  60.165  1.00  0.00     0.062 A 
ATOM     17  C   UNL     1       3.499  23.239  61.001  1.00  0.00     0.158 A 
BRANCH  15  18
ATOM     18  O   UNL     1       1.602  22.976  62.510  1.00  0.00    -0.504 OA
ATOM     19  H   UNL     1       0.593  23.060  62.541  1.00  0.00     0.293 HD
ENDBRANCH  15  18
BRANCH  17  20
ATOM     20  O   UNL     1       3.840  21.897  61.164  1.00  0.00    -0.504 OA
ATOM     21  H   UNL     1       4.466  21.425  60.523  1.00  0.00     0.293 HD
ENDBRANCH  17  20
ENDBRANCH   1  12
BRANCH   2  22
ATOM     22  O   UNL     1       6.824  25.395  60.073  1.00  0.00    -0.502 OA
ATOM     23  H   UNL     1       6.901  25.626  61.056  1.00  0.00     0.293 HD
ENDBRANCH   2  22
BRANCH   6  24
ATOM     24  O   UNL     1       8.278  28.817  56.437  1.00  0.00    -0.507 OA
ATOM     25  H   UNL     1       8.854  28.165  56.954  1.00  0.00     0.293 HD
ENDBRANCH   6  24
BRANCH   8  26
ATOM     26  O   UNL     1       4.016  30.452  54.875  1.00  0.00    -0.508 OA
ATOM     27  H   UNL     1       4.471  31.175  54.330  1.00  0.00     0.293 HD
ENDBRANCH   8  26
TORSDOF 6
ENDMDL
MODEL 7
REMARK VINA RESULT:    -5.420      5.237      7.057
REMARK INTER + INTRA:          -6.841
REMARK INTER:                  -6.672
REMARK INTRA:                  -0.168
REMARK UNBOUND:                -0.312
REMARK SMILES O=c1c(O)c(-c2ccc(O)c(O)c2)oc2cc(O)cc(O)c12
REMARK SMILES IDX 5 1 3 2 2 3 1 4 22 5 20 6 19 7 17 8 16 9 15 10 14 11 6 12
REMARK SMILES IDX 7 13 8 14 9 15 13 16 11 17 10 18 12 20 4 22 21 24 18 26
REMARK H PARENT 10 19 12 21 4 23 21 25 18 27
REMARK Flexibility Score: inf
ROOT
ATOM      1  C   UNL     1       5.598  29.947  61.345  1.00  0.00     0.180 A 
ATOM      2  C   UNL     1       6.409  28.890  61.800  1.00  0.00     0.208 A 
ATOM      3  C   UNL     1       6.569  27.758  60.985  1.00  0.00     0.238 A 
ATOM      4  O   UNL     1       7.285  26.801  61.387  1.00  0.00    -0.285 OA
ATOM      5  C   UNL     1       5.936  27.711  59.726  1.00  0.00     0.111 A 
ATOM      6  C   UNL     1       6.049  26.610  58.844  1.00  0.00     0.134 A 
ATOM      7  C   UNL     1       5.394  26.642  57.603  1.00  0.00     0.093 A 
ATOM      8  C   UNL     1       4.631  27.750  57.228  1.00  0.00     0.123 A 
ATOM      9  C   UNL     1       4.515  28.841  58.096  1.00  0.00     0.094 A 
ATOM     10  C   UNL     1       5.159  28.827  59.338  1.00  0.00     0.146 A 
ATOM     11  O   UNL     1       5.027  29.874  60.146  1.00  0.00    -0.452 OA
ENDROOT
BRANCH   1  12
ATOM     12  C   UNL     1       5.365  31.165  62.154  1.00  0.00     0.025 A 
ATOM     13  C   UNL     1       4.726  31.103  63.405  1.00  0.00     0.016 A 
ATOM     14  C   UNL     1       4.496  32.269  64.139  1.00  0.00     0.051 A 
ATOM     15  C   UNL     1       4.886  33.512  63.634  1.00  0.00     0.157 A 
ATOM     16  C   UNL     1       5.737  32.419  61.640  1.00  0.00     0.062 A 
ATOM     17  C   UNL     1       5.507  33.590  62.376  1.00  0.00     0.158 A 
BRANCH  15  18
ATOM     18  O   UNL     1       4.644  34.658  64.392  1.00  0.00    -0.504 OA
ATOM     19  H   UNL     1       5.316  35.414  64.452  1.00  0.00     0.293 HD
ENDBRANCH  15  18
BRANCH  17  20
ATOM     20  O   UNL     1       5.892  34.827  61.862  1.00  0.00    -0.504 OA
ATOM     21  H   UNL     1       6.854  35.021  61.608  1.00  0.00     0.293 HD
ENDBRANCH  17  20
ENDBRANCH   1  12
BRANCH   2  22
ATOM     22  O   UNL     1       7.066  28.983  63.029  1.00  0.00    -0.502 OA
ATOM     23  H   UNL     1       7.003  28.259  63.735  1.00  0.00     0.293 HD
ENDBRANCH   2  22
BRANCH   6  24
ATOM     24  O   UNL     1       6.804  25.487  59.188  1.00  0.00    -0.507 OA
ATOM     25  H   UNL     1       6.677  25.009  60.071  1.00  0.00     0.293 HD
ENDBRANCH   6  24
BRANCH   8  26
ATOM     26  O   UNL     1       3.993  27.758  55.991  1.00  0.00    -0.508 OA
ATOM     27  H   UNL     1       3.977  28.587  55.408  1.00  0.00     0.293 HD
ENDBRANCH   8  26
TORSDOF 6
ENDMDL
MODEL 8
REMARK VINA RESULT:    -5.281      3.216      6.553
REMARK INTER + INTRA:          -6.673
REMARK INTER:                  -6.365
REMARK INTRA:                  -0.309
REMARK UNBOUND:                -0.312
REMARK SMILES O=c1c(O)c(-c2ccc(O)c(O)c2)oc2cc(O)cc(O)c12
REMARK SMILES IDX 5 1 3 2 2 3 1 4 22 5 20 6 19 7 17 8 16 9 15 10 14 11 6 12
REMARK SMILES IDX 7 13 8 14 9 15 13 16 11 17 10 18 12 20 4 22 21 24 18 26
REMARK H PARENT 10 19 12 21 4 23 21 25 18 27
REMARK Flexibility Score: inf
ROOT
ATOM      1  C   UNL     1       6.549  27.001  59.478  1.00  0.00     0.180 A 
ATOM      2  C   UNL     1       6.814  25.622  59.379  1.00  0.00     0.208 A 
ATOM      3  C   UNL     1       7.366  24.957  60.485  1.00  0.00     0.238 A 
ATOM      4  O   UNL     1       7.618  23.723  60.404  1.00  0.00    -0.285 OA
ATOM      5  C   UNL     1       7.624  25.673  61.672  1.00  0.00     0.111 A 
ATOM      6  C   UNL     1       8.176  25.077  62.831  1.00  0.00     0.134 A 
ATOM      7  C   UNL     1       8.395  25.856  63.977  1.00  0.00     0.093 A 
ATOM      8  C   UNL     1       8.073  27.215  63.987  1.00  0.00     0.123 A 
ATOM      9  C   UNL     1       7.529  27.810  62.844  1.00  0.00     0.094 A 
ATOM     10  C   UNL     1       7.305  27.051  61.692  1.00  0.00     0.146 A 
ATOM     11  O   UNL     1       6.791  27.642  60.618  1.00  0.00    -0.452 OA
ENDROOT
BRANCH   1  12
ATOM     12  C   UNL     1       5.984  27.777  58.349  1.00  0.00     0.025 A 
ATOM     13  C   UNL     1       4.604  27.788  58.086  1.00  0.00     0.016 A 
ATOM     14  C   UNL     1       4.098  28.508  57.001  1.00  0.00     0.051 A 
ATOM     15  C   UNL     1       4.958  29.215  56.157  1.00  0.00     0.157 A 
ATOM     16  C   UNL     1       6.849  28.472  57.487  1.00  0.00     0.062 A 
ATOM     17  C   UNL     1       6.343  29.195  56.398  1.00  0.00     0.158 A 
BRANCH  15  18
ATOM     18  O   UNL     1       4.423  29.926  55.083  1.00  0.00    -0.504 OA
ATOM     19  H   UNL     1       4.229  29.487  54.191  1.00  0.00     0.293 HD
ENDBRANCH  15  18
BRANCH  17  20
ATOM     20  O   UNL     1       7.208  29.892  55.557  1.00  0.00    -0.504 OA
ATOM     21  H   UNL     1       7.673  29.440  54.778  1.00  0.00     0.293 HD
ENDBRANCH  17  20
ENDBRANCH   1  12
BRANCH   2  22
ATOM     22  O   UNL     1       6.503  24.926  58.209  1.00  0.00    -0.502 OA
ATOM     23  H   UNL     1       5.551  24.810  57.882  1.00  0.00     0.293 HD
ENDBRANCH   2  22
BRANCH   6  24
ATOM     24  O   UNL     1       8.506  23.721  62.854  1.00  0.00    -0.507 OA
ATOM     25  H   UNL     1       9.441  23.404  63.080  1.00  0.00     0.293 HD
ENDBRANCH   6  24
BRANCH   8  26
ATOM     26  O   UNL     1       8.299  27.966  65.138  1.00  0.00    -0.508 OA
ATOM     27  H   UNL     1       8.517  27.526  66.024  1.00  0.00     0.293 HD
ENDBRANCH   8  26
TORSDOF 6
ENDMDL
MODEL 9
REMARK VINA RESULT:    -5.057      2.087      2.580
REMARK INTER + INTRA:          -6.404
REMARK INTER:                  -6.554
REMARK INTRA:                   0.150
REMARK UNBOUND:                -0.312
REMARK SMILES O=c1c(O)c(-c2ccc(O)c(O)c2)oc2cc(O)cc(O)c12
REMARK SMILES IDX 5 1 3 2 2 3 1 4 22 5 20 6 19 7 17 8 16 9 15 10 14 11 6 12
REMARK SMILES IDX 7 13 8 14 9 15 13 16 11 17 10 18 12 20 4 22 21 24 18 26
REMARK H PARENT 10 19 12 21 4 23 21 25 18 27
REMARK Flexibility Score: inf
ROOT
ATOM      1  C   UNL     1       8.885  26.124  59.663  1.00  0.00     0.180 A 
ATOM      2  C   UNL     1       8.527  26.595  60.940  1.00  0.00     0.208 A 
ATOM      3  C   UNL     1       7.259  27.169  61.122  1.00  0.00     0.238 A 
ATOM      4  O   UNL     1       6.932  27.604  62.260  1.00  0.00    -0.285 OA
ATOM      5  C   UNL     1       6.365  27.242  60.034  1.00  0.00     0.111 A 
ATOM      6  C   UNL     1       5.069  27.801  60.133  1.00  0.00     0.134 A 
ATOM      7  C   UNL     1       4.234  27.830  59.005  1.00  0.00     0.093 A 
ATOM      8  C   UNL     1       4.670  27.312  57.783  1.00  0.00     0.123 A 
ATOM      9  C   UNL     1       5.951  26.759  57.679  1.00  0.00     0.094 A 
ATOM     10  C   UNL     1       6.798  26.723  58.791  1.00  0.00     0.146 A 
ATOM     11  O   UNL     1       8.011  26.197  58.663  1.00  0.00    -0.452 OA
ENDROOT
BRANCH   1  12
ATOM     12  C   UNL     1      10.211  25.524  59.387  1.00  0.00     0.025 A 
ATOM     13  C   UNL     1      10.907  25.801  58.198  1.00  0.00     0.016 A 
ATOM     14  C   UNL     1      12.145  25.204  57.950  1.00  0.00     0.051 A 
ATOM     15  C   UNL     1      12.701  24.315  58.874  1.00  0.00     0.157 A 
ATOM     16  C   UNL     1      10.762  24.614  60.305  1.00  0.00     0.062 A 
ATOM     17  C   UNL     1      12.005  24.015  60.057  1.00  0.00     0.158 A 
BRANCH  15  18
ATOM     18  O   UNL     1      13.940  23.737  58.599  1.00  0.00    -0.504 OA
ATOM     19  H   UNL     1      14.598  23.500  59.333  1.00  0.00     0.293 HD
ENDBRANCH  15  18
BRANCH  17  20
ATOM     20  O   UNL     1      12.549  23.124  60.981  1.00  0.00    -0.504 OA
ATOM     21  H   UNL     1      12.438  23.259  61.979  1.00  0.00     0.293 HD
ENDBRANCH  17  20
ENDBRANCH   1  12
BRANCH   2  22
ATOM     22  O   UNL     1       9.412  26.465  62.014  1.00  0.00    -0.502 OA
ATOM     23  H   UNL     1      10.406  26.320  61.884  1.00  0.00     0.293 HD
ENDBRANCH   2  22
BRANCH   6  24
ATOM     24  O   UNL     1       4.603  28.326  61.340  1.00  0.00    -0.507 OA
ATOM     25  H   UNL     1       3.961  27.813  61.932  1.00  0.00     0.293 HD
ENDBRANCH   6  24
BRANCH   8  26
ATOM     26  O   UNL     1       3.823  27.351  56.679  1.00  0.00    -0.508 OA
ATOM     27  H   UNL     1       4.155  27.640  55.766  1.00  0.00     0.293 HD
ENDBRANCH   8  26
TORSDOF 6
ENDMDL
