MODEL 1
REMARK VINA RESULT:    -2.344      0.000      0.000
REMARK INTER + INTRA:          -3.335
REMARK INTER:                  -3.234
REMARK INTRA:                  -0.101
REMARK UNBOUND:                -0.101
REMARK SMILES CC[C@@H](CC[C@H](C)[C@@H]1CC[C@@H]2[C@@H]3CC=C4C[C@@H](O)CC[C@@]4(C)[C@@H]3CC[C@@]21C)C(C)C
REMARK SMILES IDX 5 1 4 2 3 3 2 4 1 5 28 6 29 7 30 8 6 9 7 10 8 11 9 12 26 13
REMARK SMILES IDX 10 14 11 15 25 16 27 17 12 18 24 19 23 20 13 21 21 22 14 23
REMARK SMILES IDX 15 24 20 25 22 26 16 27 19 28 17 29 18 30
REMARK H PARENT 18 31
REMARK Flexibility Score: inf
ROOT
ATOM      1  C   UNL     1     -13.584  30.731  10.330  1.00  0.00     0.004 C 
ENDROOT
BRANCH   1   2
ATOM      2  C   UNL     1     -13.982  29.564   9.402  1.00  0.00     0.004 C 
BRANCH   2   3
ATOM      3  C   UNL     1     -13.333  28.211   9.840  1.00  0.00    -0.009 C 
BRANCH   3   4
ATOM      4  C   UNL     1     -12.059  27.892   9.010  1.00  0.00     0.000 C 
ATOM      5  C   UNL     1     -10.769  28.261   9.743  1.00  0.00     0.004 C 
ENDBRANCH   3   4
BRANCH   3   6
ATOM      6  C   UNL     1     -14.379  27.049   9.803  1.00  0.00    -0.014 C 
ATOM      7  C   UNL     1     -15.537  27.273  10.789  1.00  0.00     0.007 C 
ATOM      8  C   UNL     1     -13.751  25.663  10.022  1.00  0.00     0.007 C 
ENDBRANCH   3   6
ENDBRANCH   2   3
ENDBRANCH   1   2
BRANCH   1   9
ATOM      9  C   UNL     1     -12.321  31.518   9.863  1.00  0.00    -0.011 C 
ATOM     10  C   UNL     1     -11.366  31.692  11.076  1.00  0.00     0.008 C 
BRANCH   9  11
ATOM     11  C   UNL     1     -12.620  32.900   9.152  1.00  0.00    -0.002 C 
ATOM     12  C   UNL     1     -12.928  34.034  10.147  1.00  0.00     0.005 C 
ATOM     13  C   UNL     1     -13.839  32.964   8.127  1.00  0.00    -0.026 C 
ATOM     14  C   UNL     1     -14.430  34.071  10.260  1.00  0.00     0.005 C 
ATOM     15  C   UNL     1     -14.905  33.876   8.826  1.00  0.00    -0.001 C 
ATOM     16  C   UNL     1     -14.461  31.596   7.726  1.00  0.00     0.007 C 
ATOM     17  C   UNL     1     -13.325  33.646   6.828  1.00  0.00     0.012 C 
ATOM     18  C   UNL     1     -16.406  33.470   8.682  1.00  0.00     0.000 C 
ATOM     19  C   UNL     1     -15.813  31.676   6.979  1.00  0.00     0.005 C 
ATOM     20  C   UNL     1     -16.676  32.945   7.258  1.00  0.00     0.003 C 
ATOM     21  C   UNL     1     -16.954  32.476   9.729  1.00  0.00     0.031 C 
ATOM     22  C   UNL     1     -18.222  32.741   6.991  1.00  0.00    -0.008 C 
ATOM     23  C   UNL     1     -18.363  32.047   9.422  1.00  0.00    -0.027 C 
ATOM     24  C   UNL     1     -18.930  32.111   8.195  1.00  0.00    -0.065 C 
ATOM     25  C   UNL     1     -18.909  34.122   6.731  1.00  0.00     0.014 C 
ATOM     26  C   UNL     1     -18.426  31.860   5.722  1.00  0.00     0.016 C 
ATOM     27  C   UNL     1     -20.430  31.947   8.091  1.00  0.00     0.063 C 
ATOM     28  C   UNL     1     -20.454  34.056   6.670  1.00  0.00     0.033 C 
ATOM     29  C   UNL     1     -21.071  33.332   7.883  1.00  0.00     0.118 C 
BRANCH  29  30
ATOM     30  O   UNL     1     -20.904  34.125   9.032  1.00  0.00    -0.393 OA
ATOM     31  H   UNL     1     -20.032  33.867   9.434  1.00  0.00     0.210 HD
ENDBRANCH  29  30
ENDBRANCH   9  11
ENDBRANCH   1   9
TORSDOF 7
ENDMDL
MODEL 2
REMARK VINA RESULT:    -0.694      1.738      3.179
REMARK INTER + INTRA:          -1.059
REMARK INTER:                  -0.152
REMARK INTRA:                  -0.908
REMARK UNBOUND:                -0.101
REMARK SMILES CC[C@@H](CC[C@H](C)[C@@H]1CC[C@@H]2[C@@H]3CC=C4C[C@@H](O)CC[C@@]4(C)[C@@H]3CC[C@@]21C)C(C)C
REMARK SMILES IDX 5 1 4 2 3 3 2 4 1 5 28 6 29 7 30 8 6 9 7 10 8 11 9 12 26 13
REMARK SMILES IDX 10 14 11 15 25 16 27 17 12 18 24 19 23 20 13 21 21 22 14 23
REMARK SMILES IDX 15 24 20 25 22 26 16 27 19 28 17 29 18 30
REMARK H PARENT 18 31
REMARK Flexibility Score: inf
ROOT
ATOM      1  C   UNL     1     -11.990  30.457   9.911  1.00  0.00     0.004 C 
ENDROOT
BRANCH   1   2
ATOM      2  C   UNL     1     -10.873  31.167   9.115  1.00  0.00     0.004 C 
BRANCH   2   3
ATOM      3  C   UNL     1      -9.534  31.247   9.918  1.00  0.00    -0.009 C 
BRANCH   3   4
ATOM      4  C   UNL     1      -9.429  30.111  10.971  1.00  0.00     0.000 C 
ATOM      5  C   UNL     1      -8.404  29.043  10.588  1.00  0.00     0.004 C 
ENDBRANCH   3   4
BRANCH   3   6
ATOM      6  C   UNL     1      -9.341  32.666  10.545  1.00  0.00    -0.014 C 
ATOM      7  C   UNL     1      -9.695  33.794   9.561  1.00  0.00     0.007 C 
ATOM      8  C   UNL     1      -7.933  32.885  11.124  1.00  0.00     0.007 C 
ENDBRANCH   3   6
ENDBRANCH   2   3
ENDBRANCH   1   2
BRANCH   1   9
ATOM      9  C   UNL     1     -12.963  31.426  10.651  1.00  0.00    -0.011 C 
ATOM     10  C   UNL     1     -14.323  30.704  10.856  1.00  0.00     0.008 C 
BRANCH   9  11
ATOM     11  C   UNL     1     -13.148  32.839   9.964  1.00  0.00    -0.002 C 
ATOM     12  C   UNL     1     -13.660  33.918  10.936  1.00  0.00     0.005 C 
ATOM     13  C   UNL     1     -14.152  32.944   8.730  1.00  0.00    -0.026 C 
ATOM     14  C   UNL     1     -15.156  33.936  10.761  1.00  0.00     0.005 C 
ATOM     15  C   UNL     1     -15.347  33.809   9.256  1.00  0.00    -0.001 C 
ATOM     16  C   UNL     1     -14.660  31.592   8.152  1.00  0.00     0.007 C 
ATOM     17  C   UNL     1     -13.414  33.696   7.587  1.00  0.00     0.012 C 
ATOM     18  C   UNL     1     -16.786  33.397   8.809  1.00  0.00     0.000 C 
ATOM     19  C   UNL     1     -15.848  31.697   7.166  1.00  0.00     0.005 C 
ATOM     20  C   UNL     1     -16.771  32.942   7.337  1.00  0.00     0.003 C 
ATOM     21  C   UNL     1     -17.504  32.345   9.684  1.00  0.00     0.031 C 
ATOM     22  C   UNL     1     -18.235  32.738   6.771  1.00  0.00    -0.008 C 
ATOM     23  C   UNL     1     -18.821  31.919   9.095  1.00  0.00    -0.027 C 
ATOM     24  C   UNL     1     -19.146  32.041   7.787  1.00  0.00    -0.065 C 
ATOM     25  C   UNL     1     -18.886  34.124   6.452  1.00  0.00     0.014 C 
ATOM     26  C   UNL     1     -18.178  31.921   5.445  1.00  0.00     0.016 C 
ATOM     27  C   UNL     1     -20.596  31.868   7.391  1.00  0.00     0.063 C 
ATOM     28  C   UNL     1     -20.390  34.046   6.095  1.00  0.00     0.033 C 
ATOM     29  C   UNL     1     -21.211  33.256   7.132  1.00  0.00     0.118 C 
BRANCH  29  30
ATOM     30  O   UNL     1     -21.280  33.991   8.328  1.00  0.00    -0.393 OA
ATOM     31  H   UNL     1     -20.884  33.420   9.039  1.00  0.00     0.210 HD
ENDBRANCH  29  30
ENDBRANCH   9  11
ENDBRANCH   1   9
TORSDOF 7
ENDMDL
MODEL 3
REMARK VINA RESULT:    -0.437      2.702      5.863
REMARK INTER + INTRA:          -0.705
REMARK INTER:                  -0.957
REMARK INTRA:                   0.253
REMARK UNBOUND:                -0.101
REMARK SMILES CC[C@@H](CC[C@H](C)[C@@H]1CC[C@@H]2[C@@H]3CC=C4C[C@@H](O)CC[C@@]4(C)[C@@H]3CC[C@@]21C)C(C)C
REMARK SMILES IDX 5 1 4 2 3 3 2 4 1 5 28 6 29 7 30 8 6 9 7 10 8 11 9 12 26 13
REMARK SMILES IDX 10 14 11 15 25 16 27 17 12 18 24 19 23 20 13 21 21 22 14 23
REMARK SMILES IDX 15 24 20 25 22 26 16 27 19 28 17 29 18 30
REMARK H PARENT 18 31
REMARK Flexibility Score: inf
ROOT
ATOM      1  C   UNL     1     -10.987  27.147  10.139  1.00  0.00     0.004 C 
ENDROOT
BRANCH   1   2
ATOM      2  C   UNL     1     -10.681  28.380  11.016  1.00  0.00     0.004 C 
BRANCH   2   3
ATOM      3  C   UNL     1      -9.414  29.154  10.526  1.00  0.00    -0.009 C 
BRANCH   3   4
ATOM      4  C   UNL     1      -8.109  28.368  10.826  1.00  0.00     0.000 C 
ATOM      5  C   UNL     1      -6.875  29.268  10.875  1.00  0.00     0.004 C 
ENDBRANCH   3   4
BRANCH   3   6
ATOM      6  C   UNL     1      -9.386  30.606  11.106  1.00  0.00    -0.014 C 
ATOM      7  C   UNL     1     -10.778  31.261  11.114  1.00  0.00     0.007 C 
ATOM      8  C   UNL     1      -8.370  31.520  10.402  1.00  0.00     0.007 C 
ENDBRANCH   3   6
ENDBRANCH   2   3
ENDBRANCH   1   2
BRANCH   1   9
ATOM      9  C   UNL     1     -11.998  26.144  10.776  1.00  0.00    -0.011 C 
ATOM     10  C   UNL     1     -11.459  24.700  10.579  1.00  0.00     0.008 C 
BRANCH   9  11
ATOM     11  C   UNL     1     -13.489  26.285  10.265  1.00  0.00    -0.002 C 
ATOM     12  C   UNL     1     -13.663  25.870   8.792  1.00  0.00     0.005 C 
ATOM     13  C   UNL     1     -14.167  27.726  10.327  1.00  0.00    -0.026 C 
ATOM     14  C   UNL     1     -13.554  27.147   8.001  1.00  0.00     0.005 C 
ATOM     15  C   UNL     1     -14.340  28.155   8.830  1.00  0.00    -0.001 C 
ATOM     16  C   UNL     1     -13.386  28.810  11.125  1.00  0.00     0.007 C 
ATOM     17  C   UNL     1     -15.560  27.562  10.997  1.00  0.00     0.012 C 
ATOM     18  C   UNL     1     -14.070  29.651   8.473  1.00  0.00     0.000 C 
ATOM     19  C   UNL     1     -13.885  30.262  10.935  1.00  0.00     0.005 C 
ATOM     20  C   UNL     1     -14.612  30.566   9.589  1.00  0.00     0.003 C 
ATOM     21  C   UNL     1     -12.610  30.027   8.139  1.00  0.00     0.031 C 
ATOM     22  C   UNL     1     -14.572  32.090   9.169  1.00  0.00    -0.008 C 
ATOM     23  C   UNL     1     -12.434  31.508   7.944  1.00  0.00    -0.027 C 
ATOM     24  C   UNL     1     -13.273  32.447   8.439  1.00  0.00    -0.065 C 
ATOM     25  C   UNL     1     -15.748  32.408   8.186  1.00  0.00     0.014 C 
ATOM     26  C   UNL     1     -14.749  32.989  10.430  1.00  0.00     0.016 C 
ATOM     27  C   UNL     1     -13.158  33.860   7.910  1.00  0.00     0.063 C 
ATOM     28  C   UNL     1     -15.675  33.817   7.551  1.00  0.00     0.033 C 
ATOM     29  C   UNL     1     -14.303  34.115   6.913  1.00  0.00     0.118 C 
BRANCH  29  30
ATOM     30  O   UNL     1     -14.140  33.319   5.767  1.00  0.00    -0.393 OA
ATOM     31  H   UNL     1     -13.241  32.902   5.834  1.00  0.00     0.210 HD
ENDBRANCH  29  30
ENDBRANCH   9  11
ENDBRANCH   1   9
TORSDOF 7
ENDMDL
MODEL 4
REMARK VINA RESULT:    -0.067      3.104      6.460
REMARK INTER + INTRA:          -0.194
REMARK INTER:                  -0.613
REMARK INTRA:                   0.420
REMARK UNBOUND:                -0.101
REMARK SMILES CC[C@@H](CC[C@H](C)[C@@H]1CC[C@@H]2[C@@H]3CC=C4C[C@@H](O)CC[C@@]4(C)[C@@H]3CC[C@@]21C)C(C)C
REMARK SMILES IDX 5 1 4 2 3 3 2 4 1 5 28 6 29 7 30 8 6 9 7 10 8 11 9 12 26 13
REMARK SMILES IDX 10 14 11 15 25 16 27 17 12 18 24 19 23 20 13 21 21 22 14 23
REMARK SMILES IDX 15 24 20 25 22 26 16 27 19 28 17 29 18 30
REMARK H PARENT 18 31
REMARK Flexibility Score: inf
ROOT
ATOM      1  C   UNL     1     -11.946  23.870  10.322  1.00  0.00     0.004 C 
ENDROOT
BRANCH   1   2
ATOM      2  C   UNL     1     -13.093  23.219  11.125  1.00  0.00     0.004 C 
BRANCH   2   3
ATOM      3  C   UNL     1     -13.996  22.306  10.234  1.00  0.00    -0.009 C 
BRANCH   3   4
ATOM      4  C   UNL     1     -15.326  23.011   9.854  1.00  0.00     0.000 C 
ATOM      5  C   UNL     1     -16.102  23.506  11.074  1.00  0.00     0.004 C 
ENDBRANCH   3   4
BRANCH   3   6
ATOM      6  C   UNL     1     -14.227  20.915  10.912  1.00  0.00    -0.014 C 
ATOM      7  C   UNL     1     -13.024  19.973  10.739  1.00  0.00     0.007 C 
ATOM      8  C   UNL     1     -15.519  20.223  10.447  1.00  0.00     0.007 C 
ENDBRANCH   3   6
ENDBRANCH   2   3
ENDBRANCH   1   2
BRANCH   1   9
ATOM      9  C   UNL     1     -12.159  25.384  10.013  1.00  0.00    -0.011 C 
ATOM     10  C   UNL     1     -11.451  26.221  11.114  1.00  0.00     0.008 C 
BRANCH   9  11
ATOM     11  C   UNL     1     -13.667  25.821   9.827  1.00  0.00    -0.002 C 
ATOM     12  C   UNL     1     -14.160  25.680   8.375  1.00  0.00     0.005 C 
ATOM     13  C   UNL     1     -14.066  27.316  10.210  1.00  0.00    -0.026 C 
ATOM     14  C   UNL     1     -13.969  27.039   7.754  1.00  0.00     0.005 C 
ATOM     15  C   UNL     1     -14.416  28.002   8.846  1.00  0.00    -0.001 C 
ATOM     16  C   UNL     1     -12.984  28.131  10.976  1.00  0.00     0.007 C 
ATOM     17  C   UNL     1     -15.330  27.249  11.112  1.00  0.00     0.012 C 
ATOM     18  C   UNL     1     -13.956  29.481   8.644  1.00  0.00     0.000 C 
ATOM     19  C   UNL     1     -13.250  29.651  11.081  1.00  0.00     0.005 C 
ATOM     20  C   UNL     1     -14.133  30.271   9.956  1.00  0.00     0.003 C 
ATOM     21  C   UNL     1     -12.533  29.690   8.084  1.00  0.00     0.031 C 
ATOM     22  C   UNL     1     -13.903  31.822   9.741  1.00  0.00    -0.008 C 
ATOM     23  C   UNL     1     -12.140  31.142   8.057  1.00  0.00    -0.027 C 
ATOM     24  C   UNL     1     -12.707  32.100   8.826  1.00  0.00    -0.065 C 
ATOM     25  C   UNL     1     -15.157  32.462   9.058  1.00  0.00     0.014 C 
ATOM     26  C   UNL     1     -13.703  32.520  11.120  1.00  0.00     0.016 C 
ATOM     27  C   UNL     1     -12.441  33.547   8.477  1.00  0.00     0.063 C 
ATOM     28  C   UNL     1     -14.951  33.930   8.612  1.00  0.00     0.033 C 
ATOM     29  C   UNL     1     -13.679  34.125   7.765  1.00  0.00     0.118 C 
BRANCH  29  30
ATOM     30  O   UNL     1     -13.854  33.510   6.514  1.00  0.00    -0.393 OA
ATOM     31  H   UNL     1     -13.554  32.568   6.613  1.00  0.00     0.210 HD
ENDBRANCH  29  30
ENDBRANCH   9  11
ENDBRANCH   1   9
TORSDOF 7
ENDMDL
MODEL 5
REMARK VINA RESULT:     0.054      2.745      7.309
REMARK INTER + INTRA:          -0.027
REMARK INTER:                  -0.172
REMARK INTRA:                   0.145
REMARK UNBOUND:                -0.101
REMARK SMILES CC[C@@H](CC[C@H](C)[C@@H]1CC[C@@H]2[C@@H]3CC=C4C[C@@H](O)CC[C@@]4(C)[C@@H]3CC[C@@]21C)C(C)C
REMARK SMILES IDX 5 1 4 2 3 3 2 4 1 5 28 6 29 7 30 8 6 9 7 10 8 11 9 12 26 13
REMARK SMILES IDX 10 14 11 15 25 16 27 17 12 18 24 19 23 20 13 21 21 22 14 23
REMARK SMILES IDX 15 24 20 25 22 26 16 27 19 28 17 29 18 30
REMARK H PARENT 18 31
REMARK Flexibility Score: inf
ROOT
ATOM      1  C   UNL     1     -16.332  33.100   7.745  1.00  0.00     0.004 C 
ENDROOT
BRANCH   1   2
ATOM      2  C   UNL     1     -17.708  33.799   7.750  1.00  0.00     0.004 C 
BRANCH   2   3
ATOM      3  C   UNL     1     -18.874  32.809   8.074  1.00  0.00    -0.009 C 
BRANCH   3   4
ATOM      4  C   UNL     1     -20.033  32.934   7.048  1.00  0.00     0.000 C 
ATOM      5  C   UNL     1     -19.981  31.857   5.965  1.00  0.00     0.004 C 
ENDBRANCH   3   4
BRANCH   3   6
ATOM      6  C   UNL     1     -19.359  32.979   9.551  1.00  0.00    -0.014 C 
ATOM      7  C   UNL     1     -20.872  33.237   9.644  1.00  0.00     0.007 C 
ATOM      8  C   UNL     1     -18.585  34.062  10.321  1.00  0.00     0.007 C 
ENDBRANCH   3   6
ENDBRANCH   2   3
ENDBRANCH   1   2
BRANCH   1   9
ATOM      9  C   UNL     1     -15.121  34.071   7.594  1.00  0.00    -0.011 C 
ATOM     10  C   UNL     1     -14.485  33.860   6.192  1.00  0.00     0.008 C 
BRANCH   9  11
ATOM     11  C   UNL     1     -14.041  33.975   8.746  1.00  0.00    -0.002 C 
ATOM     12  C   UNL     1     -12.595  34.094   8.227  1.00  0.00     0.005 C 
ATOM     13  C   UNL     1     -14.009  32.651   9.633  1.00  0.00    -0.026 C 
ATOM     14  C   UNL     1     -12.123  32.677   8.032  1.00  0.00     0.005 C 
ATOM     15  C   UNL     1     -12.664  31.944   9.252  1.00  0.00    -0.001 C 
ATOM     16  C   UNL     1     -15.213  31.684   9.450  1.00  0.00     0.007 C 
ATOM     17  C   UNL     1     -13.978  33.086  11.125  1.00  0.00     0.012 C 
ATOM     18  C   UNL     1     -12.679  30.386   9.129  1.00  0.00     0.000 C 
ATOM     19  C   UNL     1     -15.037  30.280  10.076  1.00  0.00     0.005 C 
ATOM     20  C   UNL     1     -13.569  29.779  10.231  1.00  0.00     0.003 C 
ATOM     21  C   UNL     1     -13.069  29.809   7.751  1.00  0.00     0.031 C 
ATOM     22  C   UNL     1     -13.432  28.204  10.294  1.00  0.00    -0.008 C 
ATOM     23  C   UNL     1     -13.185  28.309   7.776  1.00  0.00    -0.027 C 
ATOM     24  C   UNL     1     -13.397  27.579   8.895  1.00  0.00    -0.065 C 
ATOM     25  C   UNL     1     -12.094  27.809  11.001  1.00  0.00     0.014 C 
ATOM     26  C   UNL     1     -14.606  27.606  11.125  1.00  0.00     0.016 C 
ATOM     27  C   UNL     1     -13.181  26.084   8.825  1.00  0.00     0.063 C 
ATOM     28  C   UNL     1     -11.763  26.298  10.925  1.00  0.00     0.033 C 
ATOM     29  C   UNL     1     -11.834  25.742   9.490  1.00  0.00     0.118 C 
BRANCH  29  30
ATOM     30  O   UNL     1     -10.770  26.266   8.735  1.00  0.00    -0.393 OA
ATOM     31  H   UNL     1     -11.111  27.087   8.291  1.00  0.00     0.210 HD
ENDBRANCH  29  30
ENDBRANCH   9  11
ENDBRANCH   1   9
TORSDOF 7
ENDMDL
MODEL 6
REMARK VINA RESULT:     0.421      4.104      9.127
REMARK INTER + INTRA:           0.480
REMARK INTER:                   0.976
REMARK INTRA:                  -0.496
REMARK UNBOUND:                -0.101
REMARK SMILES CC[C@@H](CC[C@H](C)[C@@H]1CC[C@@H]2[C@@H]3CC=C4C[C@@H](O)CC[C@@]4(C)[C@@H]3CC[C@@]21C)C(C)C
REMARK SMILES IDX 5 1 4 2 3 3 2 4 1 5 28 6 29 7 30 8 6 9 7 10 8 11 9 12 26 13
REMARK SMILES IDX 10 14 11 15 25 16 27 17 12 18 24 19 23 20 13 21 21 22 14 23
REMARK SMILES IDX 15 24 20 25 22 26 16 27 19 28 17 29 18 30
REMARK H PARENT 18 31
REMARK Flexibility Score: inf
ROOT
ATOM      1  C   UNL     1     -11.871  30.116   8.435  1.00  0.00     0.004 C 
ENDROOT
BRANCH   1   2
ATOM      2  C   UNL     1     -12.212  31.051   9.615  1.00  0.00     0.004 C 
BRANCH   2   3
ATOM      3  C   UNL     1     -13.407  32.004   9.290  1.00  0.00    -0.009 C 
BRANCH   3   4
ATOM      4  C   UNL     1     -14.770  31.363   9.670  1.00  0.00     0.000 C 
ATOM      5  C   UNL     1     -15.420  32.031  10.881  1.00  0.00     0.004 C 
ENDBRANCH   3   4
BRANCH   3   6
ATOM      6  C   UNL     1     -13.361  32.473   7.799  1.00  0.00    -0.014 C 
ATOM      7  C   UNL     1     -12.554  33.770   7.619  1.00  0.00     0.007 C 
ATOM      8  C   UNL     1     -14.755  32.618   7.166  1.00  0.00     0.007 C 
ENDBRANCH   3   6
ENDBRANCH   2   3
ENDBRANCH   1   2
BRANCH   1   9
ATOM      9  C   UNL     1     -12.600  28.738   8.479  1.00  0.00    -0.011 C 
ATOM     10  C   UNL     1     -13.645  28.690   7.330  1.00  0.00     0.008 C 
BRANCH   9  11
ATOM     11  C   UNL     1     -13.250  28.371   9.874  1.00  0.00    -0.002 C 
ATOM     12  C   UNL     1     -12.206  28.155  10.986  1.00  0.00     0.005 C 
ATOM     13  C   UNL     1     -14.156  27.062   9.956  1.00  0.00    -0.026 C 
ATOM     14  C   UNL     1     -11.954  26.670  11.015  1.00  0.00     0.005 C 
ATOM     15  C   UNL     1     -13.341  26.065  10.849  1.00  0.00    -0.001 C 
ATOM     16  C   UNL     1     -14.527  26.408   8.595  1.00  0.00     0.007 C 
ATOM     17  C   UNL     1     -15.481  27.453  10.668  1.00  0.00     0.012 C 
ATOM     18  C   UNL     1     -13.355  24.557  10.440  1.00  0.00     0.000 C 
ATOM     19  C   UNL     1     -15.144  24.992   8.686  1.00  0.00     0.005 C 
ATOM     20  C   UNL     1     -14.759  24.157   9.945  1.00  0.00     0.003 C 
ATOM     21  C   UNL     1     -12.283  24.111   9.421  1.00  0.00     0.031 C 
ATOM     22  C   UNL     1     -14.885  22.593   9.741  1.00  0.00    -0.008 C 
ATOM     23  C   UNL     1     -12.467  22.680   8.994  1.00  0.00    -0.027 C 
ATOM     24  C   UNL     1     -13.634  22.002   9.083  1.00  0.00    -0.065 C 
ATOM     25  C   UNL     1     -15.050  21.883  11.125  1.00  0.00     0.014 C 
ATOM     26  C   UNL     1     -16.149  22.274   8.887  1.00  0.00     0.016 C 
ATOM     27  C   UNL     1     -13.603  20.498   8.915  1.00  0.00     0.063 C 
ATOM     28  C   UNL     1     -14.969  20.339  11.054  1.00  0.00     0.033 C 
ATOM     29  C   UNL     1     -13.720  19.839  10.302  1.00  0.00     0.118 C 
BRANCH  29  30
ATOM     30  O   UNL     1     -12.575  20.110  11.070  1.00  0.00    -0.393 OA
ATOM     31  H   UNL     1     -12.315  19.256  11.507  1.00  0.00     0.210 HD
ENDBRANCH  29  30
ENDBRANCH   9  11
ENDBRANCH   1   9
TORSDOF 7
ENDMDL
