MODEL 1
REMARK VINA RESULT:    -3.578      0.000      0.000
REMARK INTER + INTRA:         -10.664
REMARK INTER:                  -9.017
REMARK INTRA:                  -1.647
REMARK UNBOUND:                -1.647
REMARK SMILES CCCCCCCCCCCCCCCCCCCCCCCCCCCC(=O)[O-]
REMARK SMILES IDX 15 1 16 2 17 3 18 4 19 5 20 6 21 7 22 8 23 9 24 10 25 11
REMARK SMILES IDX 26 12 27 13 28 14 29 15 30 16 14 17 13 18 12 19 11 20 10 21
REMARK SMILES IDX 9 22 8 23 7 24 6 25 5 26 4 27 3 28 2 29 1 30
REMARK H PARENT
REMARK Flexibility Score: inf
ROOT
ATOM      1  C   UNL     1      96.406 123.191 125.147  1.00  0.00     0.000 C 
ENDROOT
BRANCH   1   2
ATOM      2  C   UNL     1      97.676 123.318 126.010  1.00  0.00     0.000 C 
BRANCH   2   3
ATOM      3  C   UNL     1      98.178 124.767 126.119  1.00  0.00     0.000 C 
BRANCH   3   4
ATOM      4  C   UNL     1      97.427 125.721 125.175  1.00  0.00     0.000 C 
BRANCH   4   5
ATOM      5  C   UNL     1      97.605 127.203 125.553  1.00  0.00     0.000 C 
BRANCH   5   6
ATOM      6  C   UNL     1      97.349 127.544 127.036  1.00  0.00     0.000 C 
BRANCH   6   7
ATOM      7  C   UNL     1      97.318 129.046 127.370  1.00  0.00     0.000 C 
BRANCH   7   8
ATOM      8  C   UNL     1      96.079 129.449 128.188  1.00  0.00     0.000 C 
BRANCH   8   9
ATOM      9  C   UNL     1      96.199 130.870 128.767  1.00  0.00     0.000 C 
BRANCH   9  10
ATOM     10  C   UNL     1      95.132 131.852 128.231  1.00  0.00     0.000 C 
BRANCH  10  11
ATOM     11  C   UNL     1      95.616 132.697 127.039  1.00  0.00     0.000 C 
BRANCH  11  12
ATOM     12  C   UNL     1      94.617 132.792 125.869  1.00  0.00     0.006 C 
BRANCH  12  13
ATOM     13  C   UNL     1      95.187 133.449 124.601  1.00  0.00     0.053 C 
BRANCH  13  14
ATOM     14  C   UNL     1      95.316 134.934 124.747  1.00  0.00     0.041 C 
ATOM     15  O   UNL     1      96.414 135.501 124.505  1.00  0.00    -0.550 OA
ATOM     16  O   UNL     1      94.216 135.696 125.123  1.00  0.00    -0.550 OA
ENDBRANCH  13  14
ENDBRANCH  12  13
ENDBRANCH  11  12
ENDBRANCH  10  11
ENDBRANCH   9  10
ENDBRANCH   8   9
ENDBRANCH   7   8
ENDBRANCH   6   7
ENDBRANCH   5   6
ENDBRANCH   4   5
ENDBRANCH   3   4
ENDBRANCH   2   3
ENDBRANCH   1   2
BRANCH   1  17
ATOM     17  C   UNL     1      95.159 122.870 125.985  1.00  0.00     0.000 C 
BRANCH  17  18
ATOM     18  C   UNL     1      93.867 122.872 125.148  1.00  0.00     0.000 C 
BRANCH  18  19
ATOM     19  C   UNL     1      93.865 123.962 124.063  1.00  0.00     0.000 C 
BRANCH  19  20
ATOM     20  C   UNL     1      93.143 123.573 122.758  1.00  0.00     0.000 C 
BRANCH  20  21
ATOM     21  C   UNL     1      92.654 122.108 122.729  1.00  0.00     0.000 C 
BRANCH  21  22
ATOM     22  C   UNL     1      92.997 121.404 121.404  1.00  0.00    -0.000 C 
BRANCH  22  23
ATOM     23  C   UNL     1      93.783 122.306 120.440  1.00  0.00    -0.000 C 
BRANCH  23  24
ATOM     24  C   UNL     1      94.983 121.588 119.803  1.00  0.00    -0.000 C 
BRANCH  24  25
ATOM     25  C   UNL     1      94.679 121.199 118.351  1.00  0.00    -0.000 C 
BRANCH  25  26
ATOM     26  C   UNL     1      93.167 121.063 118.120  1.00  0.00    -0.000 C 
BRANCH  26  27
ATOM     27  C   UNL     1      92.789 121.114 116.631  1.00  0.00    -0.000 C 
BRANCH  27  28
ATOM     28  C   UNL     1      92.176 122.464 116.220  1.00  0.00    -0.000 C 
BRANCH  28  29
ATOM     29  C   UNL     1      92.446 123.571 117.250  1.00  0.00    -0.003 C 
ATOM     30  C   UNL     1      92.791 124.910 116.601  1.00  0.00     0.004 C 
ENDBRANCH  28  29
ENDBRANCH  27  28
ENDBRANCH  26  27
ENDBRANCH  25  26
ENDBRANCH  24  25
ENDBRANCH  23  24
ENDBRANCH  22  23
ENDBRANCH  21  22
ENDBRANCH  20  21
ENDBRANCH  19  20
ENDBRANCH  18  19
ENDBRANCH  17  18
ENDBRANCH   1  17
TORSDOF 26
ENDMDL
MODEL 2
REMARK VINA RESULT:    -3.494      0.789      1.441
REMARK INTER + INTRA:         -10.453
REMARK INTER:                  -8.513
REMARK INTRA:                  -1.940
REMARK UNBOUND:                -1.647
REMARK SMILES CCCCCCCCCCCCCCCCCCCCCCCCCCCC(=O)[O-]
REMARK SMILES IDX 15 1 16 2 17 3 18 4 19 5 20 6 21 7 22 8 23 9 24 10 25 11
REMARK SMILES IDX 26 12 27 13 28 14 29 15 30 16 14 17 13 18 12 19 11 20 10 21
REMARK SMILES IDX 9 22 8 23 7 24 6 25 5 26 4 27 3 28 2 29 1 30
REMARK H PARENT
REMARK Flexibility Score: inf
ROOT
ATOM      1  C   UNL     1      95.430 123.568 125.226  1.00  0.00     0.000 C 
ENDROOT
BRANCH   1   2
ATOM      2  C   UNL     1      96.742 123.342 126.001  1.00  0.00     0.000 C 
BRANCH   2   3
ATOM      3  C   UNL     1      97.797 124.423 125.712  1.00  0.00     0.000 C 
BRANCH   3   4
ATOM      4  C   UNL     1      97.222 125.604 124.911  1.00  0.00     0.000 C 
BRANCH   4   5
ATOM      5  C   UNL     1      97.633 126.974 125.482  1.00  0.00     0.000 C 
BRANCH   5   6
ATOM      6  C   UNL     1      97.202 127.239 126.940  1.00  0.00     0.000 C 
BRANCH   6   7
ATOM      7  C   UNL     1      97.599 128.617 127.502  1.00  0.00     0.000 C 
BRANCH   7   8
ATOM      8  C   UNL     1      96.497 129.674 127.320  1.00  0.00     0.000 C 
BRANCH   8   9
ATOM      9  C   UNL     1      96.293 130.529 128.584  1.00  0.00     0.000 C 
BRANCH   9  10
ATOM     10  C   UNL     1      95.276 131.678 128.399  1.00  0.00     0.000 C 
BRANCH  10  11
ATOM     11  C   UNL     1      95.665 132.674 127.291  1.00  0.00     0.000 C 
BRANCH  11  12
ATOM     12  C   UNL     1      94.631 132.813 126.157  1.00  0.00     0.006 C 
BRANCH  12  13
ATOM     13  C   UNL     1      95.209 133.339 124.833  1.00  0.00     0.053 C 
BRANCH  13  14
ATOM     14  C   UNL     1      95.319 134.832 124.821  1.00  0.00     0.041 C 
ATOM     15  O   UNL     1      96.392 135.386 124.463  1.00  0.00    -0.550 OA
ATOM     16  O   UNL     1      94.228 135.615 125.179  1.00  0.00    -0.550 OA
ENDBRANCH  13  14
ENDBRANCH  12  13
ENDBRANCH  11  12
ENDBRANCH  10  11
ENDBRANCH   9  10
ENDBRANCH   8   9
ENDBRANCH   7   8
ENDBRANCH   6   7
ENDBRANCH   5   6
ENDBRANCH   4   5
ENDBRANCH   3   4
ENDBRANCH   2   3
ENDBRANCH   1   2
BRANCH   1  17
ATOM     17  C   UNL     1      94.306 122.631 125.695  1.00  0.00     0.000 C 
BRANCH  17  18
ATOM     18  C   UNL     1      93.014 122.801 124.877  1.00  0.00     0.000 C 
BRANCH  18  19
ATOM     19  C   UNL     1      93.142 123.876 123.783  1.00  0.00     0.000 C 
BRANCH  19  20
ATOM     20  C   UNL     1      93.062 123.340 122.339  1.00  0.00     0.000 C 
BRANCH  20  21
ATOM     21  C   UNL     1      93.439 121.848 122.206  1.00  0.00     0.000 C 
BRANCH  21  22
ATOM     22  C   UNL     1      93.444 121.376 120.741  1.00  0.00    -0.000 C 
BRANCH  22  23
ATOM     23  C   UNL     1      94.788 121.631 120.042  1.00  0.00    -0.000 C 
BRANCH  23  24
ATOM     24  C   UNL     1      94.660 122.581 118.841  1.00  0.00    -0.000 C 
BRANCH  24  25
ATOM     25  C   UNL     1      93.273 123.234 118.806  1.00  0.00    -0.000 C 
BRANCH  25  26
ATOM     26  C   UNL     1      92.980 123.836 117.424  1.00  0.00    -0.000 C 
BRANCH  26  27
ATOM     27  C   UNL     1      92.069 122.940 116.570  1.00  0.00    -0.000 C 
BRANCH  27  28
ATOM     28  C   UNL     1      91.832 121.559 117.205  1.00  0.00    -0.000 C 
BRANCH  28  29
ATOM     29  C   UNL     1      92.737 120.472 116.606  1.00  0.00    -0.003 C 
ATOM     30  C   UNL     1      93.077 120.729 115.138  1.00  0.00     0.004 C 
ENDBRANCH  28  29
ENDBRANCH  27  28
ENDBRANCH  26  27
ENDBRANCH  25  26
ENDBRANCH  24  25
ENDBRANCH  23  24
ENDBRANCH  22  23
ENDBRANCH  21  22
ENDBRANCH  20  21
ENDBRANCH  19  20
ENDBRANCH  18  19
ENDBRANCH  17  18
ENDBRANCH   1  17
TORSDOF 26
ENDMDL
MODEL 3
REMARK VINA RESULT:    -3.448      2.084      4.189
REMARK INTER + INTRA:         -10.336
REMARK INTER:                  -9.211
REMARK INTRA:                  -1.125
REMARK UNBOUND:                -1.647
REMARK SMILES CCCCCCCCCCCCCCCCCCCCCCCCCCCC(=O)[O-]
REMARK SMILES IDX 15 1 16 2 17 3 18 4 19 5 20 6 21 7 22 8 23 9 24 10 25 11
REMARK SMILES IDX 26 12 27 13 28 14 29 15 30 16 14 17 13 18 12 19 11 20 10 21
REMARK SMILES IDX 9 22 8 23 7 24 6 25 5 26 4 27 3 28 2 29 1 30
REMARK H PARENT
REMARK Flexibility Score: inf
ROOT
ATOM      1  C   UNL     1      97.315 126.576 126.991  1.00  0.00     0.000 C 
ENDROOT
BRANCH   1   2
ATOM      2  C   UNL     1      97.262 128.056 126.568  1.00  0.00     0.000 C 
BRANCH   2   3
ATOM      3  C   UNL     1      97.337 129.020 127.764  1.00  0.00     0.000 C 
BRANCH   3   4
ATOM      4  C   UNL     1      95.960 129.586 128.148  1.00  0.00     0.000 C 
BRANCH   4   5
ATOM      5  C   UNL     1      96.049 130.942 128.872  1.00  0.00     0.000 C 
BRANCH   5   6
ATOM      6  C   UNL     1      95.214 132.081 128.248  1.00  0.00     0.000 C 
BRANCH   6   7
ATOM      7  C   UNL     1      95.535 132.401 126.777  1.00  0.00     0.000 C 
BRANCH   7   8
ATOM      8  C   UNL     1      94.515 133.360 126.139  1.00  0.00     0.000 C 
BRANCH   8   9
ATOM      9  C   UNL     1      94.891 133.737 124.696  1.00  0.00     0.000 C 
BRANCH   9  10
ATOM     10  C   UNL     1      96.339 134.257 124.547  1.00  0.00     0.000 C 
BRANCH  10  11
ATOM     11  C   UNL     1      96.451 135.536 123.697  1.00  0.00     0.000 C 
BRANCH  11  12
ATOM     12  C   UNL     1      96.867 135.303 122.232  1.00  0.00     0.006 C 
BRANCH  12  13
ATOM     13  C   UNL     1      96.947 136.583 121.384  1.00  0.00     0.053 C 
BRANCH  13  14
ATOM     14  C   UNL     1      97.568 136.332 120.044  1.00  0.00     0.041 C 
ATOM     15  O   UNL     1      96.924 136.580 118.991  1.00  0.00    -0.550 OA
ATOM     16  O   UNL     1      98.868 135.850 119.957  1.00  0.00    -0.550 OA
ENDBRANCH  13  14
ENDBRANCH  12  13
ENDBRANCH  11  12
ENDBRANCH  10  11
ENDBRANCH   9  10
ENDBRANCH   8   9
ENDBRANCH   7   8
ENDBRANCH   6   7
ENDBRANCH   5   6
ENDBRANCH   4   5
ENDBRANCH   3   4
ENDBRANCH   2   3
ENDBRANCH   1   2
BRANCH   1  17
ATOM     17  C   UNL     1      97.351 125.624 125.785  1.00  0.00     0.000 C 
BRANCH  17  18
ATOM     18  C   UNL     1      97.395 124.143 126.201  1.00  0.00     0.000 C 
BRANCH  18  19
ATOM     19  C   UNL     1      96.652 123.228 125.213  1.00  0.00     0.000 C 
BRANCH  19  20
ATOM     20  C   UNL     1      95.261 123.736 124.784  1.00  0.00     0.000 C 
BRANCH  20  21
ATOM     21  C   UNL     1      94.096 122.847 125.271  1.00  0.00     0.000 C 
BRANCH  21  22
ATOM     22  C   UNL     1      92.863 122.946 124.354  1.00  0.00    -0.000 C 
BRANCH  22  23
ATOM     23  C   UNL     1      93.234 123.251 122.895  1.00  0.00    -0.000 C 
BRANCH  23  24
ATOM     24  C   UNL     1      93.118 122.019 121.985  1.00  0.00    -0.000 C 
BRANCH  24  25
ATOM     25  C   UNL     1      92.940 122.436 120.519  1.00  0.00    -0.000 C 
BRANCH  25  26
ATOM     26  C   UNL     1      94.227 122.197 119.716  1.00  0.00    -0.000 C 
BRANCH  26  27
ATOM     27  C   UNL     1      93.963 121.518 118.364  1.00  0.00    -0.000 C 
BRANCH  27  28
ATOM     28  C   UNL     1      92.500 121.653 117.907  1.00  0.00    -0.000 C 
BRANCH  28  29
ATOM     29  C   UNL     1      92.378 121.983 116.412  1.00  0.00    -0.003 C 
ATOM     30  C   UNL     1      92.813 120.824 115.515  1.00  0.00     0.004 C 
ENDBRANCH  28  29
ENDBRANCH  27  28
ENDBRANCH  26  27
ENDBRANCH  25  26
ENDBRANCH  24  25
ENDBRANCH  23  24
ENDBRANCH  22  23
ENDBRANCH  21  22
ENDBRANCH  20  21
ENDBRANCH  19  20
ENDBRANCH  18  19
ENDBRANCH  17  18
ENDBRANCH   1  17
TORSDOF 26
ENDMDL
MODEL 4
REMARK VINA RESULT:    -3.444      3.960     11.371
REMARK INTER + INTRA:         -10.327
REMARK INTER:                  -8.619
REMARK INTRA:                  -1.708
REMARK UNBOUND:                -1.647
REMARK SMILES CCCCCCCCCCCCCCCCCCCCCCCCCCCC(=O)[O-]
REMARK SMILES IDX 15 1 16 2 17 3 18 4 19 5 20 6 21 7 22 8 23 9 24 10 25 11
REMARK SMILES IDX 26 12 27 13 28 14 29 15 30 16 14 17 13 18 12 19 11 20 10 21
REMARK SMILES IDX 9 22 8 23 7 24 6 25 5 26 4 27 3 28 2 29 1 30
REMARK H PARENT
REMARK Flexibility Score: inf
ROOT
ATOM      1  C   UNL     1      96.854 123.375 125.720  1.00  0.00     0.000 C 
ENDROOT
BRANCH   1   2
ATOM      2  C   UNL     1      95.420 123.690 125.251  1.00  0.00     0.000 C 
BRANCH   2   3
ATOM      3  C   UNL     1      94.424 122.570 125.593  1.00  0.00     0.000 C 
BRANCH   3   4
ATOM      4  C   UNL     1      93.109 122.694 124.805  1.00  0.00     0.000 C 
BRANCH   4   5
ATOM      5  C   UNL     1      93.129 123.840 123.778  1.00  0.00     0.000 C 
BRANCH   5   6
ATOM      6  C   UNL     1      93.028 123.407 122.300  1.00  0.00     0.000 C 
BRANCH   6   7
ATOM      7  C   UNL     1      92.823 121.898 122.071  1.00  0.00     0.000 C 
BRANCH   7   8
ATOM      8  C   UNL     1      93.942 121.267 121.223  1.00  0.00     0.000 C 
BRANCH   8   9
ATOM      9  C   UNL     1      94.846 122.327 120.569  1.00  0.00     0.000 C 
BRANCH   9  10
ATOM     10  C   UNL     1      95.053 122.115 119.052  1.00  0.00     0.000 C 
BRANCH  10  11
ATOM     11  C   UNL     1      94.333 120.871 118.498  1.00  0.00     0.000 C 
BRANCH  11  12
ATOM     12  C   UNL     1      92.918 121.137 117.949  1.00  0.00     0.006 C 
BRANCH  12  13
ATOM     13  C   UNL     1      92.403 122.566 118.188  1.00  0.00     0.053 C 
BRANCH  13  14
ATOM     14  C   UNL     1      92.333 123.357 116.918  1.00  0.00     0.041 C 
ATOM     15  O   UNL     1      91.928 122.817 115.856  1.00  0.00    -0.550 OA
ATOM     16  O   UNL     1      92.689 124.701 116.914  1.00  0.00    -0.550 OA
ENDBRANCH  13  14
ENDBRANCH  12  13
ENDBRANCH  11  12
ENDBRANCH  10  11
ENDBRANCH   9  10
ENDBRANCH   8   9
ENDBRANCH   7   8
ENDBRANCH   6   7
ENDBRANCH   5   6
ENDBRANCH   4   5
ENDBRANCH   3   4
ENDBRANCH   2   3
ENDBRANCH   1   2
BRANCH   1  17
ATOM     17  C   UNL     1      97.657 124.647 126.037  1.00  0.00     0.000 C 
BRANCH  17  18
ATOM     18  C   UNL     1      97.356 125.796 125.059  1.00  0.00     0.000 C 
BRANCH  18  19
ATOM     19  C   UNL     1      97.842 127.160 125.580  1.00  0.00     0.000 C 
BRANCH  19  20
ATOM     20  C   UNL     1      97.320 127.538 126.981  1.00  0.00     0.000 C 
BRANCH  20  21
ATOM     21  C   UNL     1      97.319 129.058 127.257  1.00  0.00     0.000 C 
BRANCH  21  22
ATOM     22  C   UNL     1      96.180 129.479 128.203  1.00  0.00    -0.000 C 
BRANCH  22  23
ATOM     23  C   UNL     1      96.216 130.977 128.542  1.00  0.00    -0.000 C 
BRANCH  23  24
ATOM     24  C   UNL     1      95.052 131.755 127.909  1.00  0.00    -0.000 C 
BRANCH  24  25
ATOM     25  C   UNL     1      95.575 132.859 126.980  1.00  0.00    -0.000 C 
BRANCH  25  26
ATOM     26  C   UNL     1      94.728 132.952 125.702  1.00  0.00    -0.000 C 
BRANCH  26  27
ATOM     27  C   UNL     1      95.292 133.963 124.692  1.00  0.00    -0.000 C 
BRANCH  27  28
ATOM     28  C   UNL     1      94.821 135.402 124.967  1.00  0.00    -0.000 C 
BRANCH  28  29
ATOM     29  C   UNL     1      93.311 135.580 124.746  1.00  0.00    -0.003 C 
ATOM     30  C   UNL     1      92.759 136.835 125.420  1.00  0.00     0.004 C 
ENDBRANCH  28  29
ENDBRANCH  27  28
ENDBRANCH  26  27
ENDBRANCH  25  26
ENDBRANCH  24  25
ENDBRANCH  23  24
ENDBRANCH  22  23
ENDBRANCH  21  22
ENDBRANCH  20  21
ENDBRANCH  19  20
ENDBRANCH  18  19
ENDBRANCH  17  18
ENDBRANCH   1  17
TORSDOF 26
ENDMDL
MODEL 5
REMARK VINA RESULT:    -3.277     12.203     13.593
REMARK INTER + INTRA:          -9.906
REMARK INTER:                  -7.779
REMARK INTRA:                  -2.127
REMARK UNBOUND:                -1.647
REMARK SMILES CCCCCCCCCCCCCCCCCCCCCCCCCCCC(=O)[O-]
REMARK SMILES IDX 15 1 16 2 17 3 18 4 19 5 20 6 21 7 22 8 23 9 24 10 25 11
REMARK SMILES IDX 26 12 27 13 28 14 29 15 30 16 14 17 13 18 12 19 11 20 10 21
REMARK SMILES IDX 9 22 8 23 7 24 6 25 5 26 4 27 3 28 2 29 1 30
REMARK H PARENT
REMARK Flexibility Score: inf
ROOT
ATOM      1  C   UNL     1      84.613 121.483 132.327  1.00  0.00     0.000 C 
ENDROOT
BRANCH   1   2
ATOM      2  C   UNL     1      86.061 121.944 132.071  1.00  0.00     0.000 C 
BRANCH   2   3
ATOM      3  C   UNL     1      86.190 122.832 130.823  1.00  0.00     0.000 C 
BRANCH   3   4
ATOM      4  C   UNL     1      85.321 124.098 130.911  1.00  0.00     0.000 C 
BRANCH   4   5
ATOM      5  C   UNL     1      84.796 124.563 129.540  1.00  0.00     0.000 C 
BRANCH   5   6
ATOM      6  C   UNL     1      83.930 125.840 129.561  1.00  0.00     0.000 C 
BRANCH   6   7
ATOM      7  C   UNL     1      83.095 126.046 130.839  1.00  0.00     0.000 C 
BRANCH   7   8
ATOM      8  C   UNL     1      81.877 126.958 130.614  1.00  0.00     0.000 C 
BRANCH   8   9
ATOM      9  C   UNL     1      82.194 128.436 130.903  1.00  0.00     0.000 C 
BRANCH   9  10
ATOM     10  C   UNL     1      83.419 128.641 131.822  1.00  0.00     0.000 C 
BRANCH  10  11
ATOM     11  C   UNL     1      83.098 129.411 133.116  1.00  0.00     0.000 C 
BRANCH  11  12
ATOM     12  C   UNL     1      83.313 130.934 133.031  1.00  0.00     0.006 C 
BRANCH  12  13
ATOM     13  C   UNL     1      82.115 131.712 132.460  1.00  0.00     0.053 C 
BRANCH  13  14
ATOM     14  C   UNL     1      82.464 132.429 131.192  1.00  0.00     0.041 C 
ATOM     15  O   UNL     1      83.237 133.422 131.217  1.00  0.00    -0.550 OA
ATOM     16  O   UNL     1      81.957 131.984 129.977  1.00  0.00    -0.550 OA
ENDBRANCH  13  14
ENDBRANCH  12  13
ENDBRANCH  11  12
ENDBRANCH  10  11
ENDBRANCH   9  10
ENDBRANCH   8   9
ENDBRANCH   7   8
ENDBRANCH   6   7
ENDBRANCH   5   6
ENDBRANCH   4   5
ENDBRANCH   3   4
ENDBRANCH   2   3
ENDBRANCH   1   2
BRANCH   1  17
ATOM     17  C   UNL     1      84.471 119.953 132.289  1.00  0.00     0.000 C 
BRANCH  17  18
ATOM     18  C   UNL     1      83.017 119.488 132.479  1.00  0.00     0.000 C 
BRANCH  18  19
ATOM     19  C   UNL     1      82.184 119.608 131.191  1.00  0.00     0.000 C 
BRANCH  19  20
ATOM     20  C   UNL     1      82.974 120.079 129.953  1.00  0.00     0.000 C 
BRANCH  20  21
ATOM     21  C   UNL     1      82.494 121.433 129.385  1.00  0.00     0.000 C 
BRANCH  21  22
ATOM     22  C   UNL     1      82.186 121.358 127.878  1.00  0.00    -0.000 C 
BRANCH  22  23
ATOM     23  C   UNL     1      81.980 119.916 127.388  1.00  0.00    -0.000 C 
BRANCH  23  24
ATOM     24  C   UNL     1      83.065 119.468 126.396  1.00  0.00    -0.000 C 
BRANCH  24  25
ATOM     25  C   UNL     1      82.535 119.497 124.956  1.00  0.00    -0.000 C 
BRANCH  25  26
ATOM     26  C   UNL     1      83.077 120.715 124.192  1.00  0.00    -0.000 C 
BRANCH  26  27
ATOM     27  C   UNL     1      82.829 122.037 124.934  1.00  0.00    -0.000 C 
BRANCH  27  28
ATOM     28  C   UNL     1      84.064 122.954 124.939  1.00  0.00    -0.000 C 
BRANCH  28  29
ATOM     29  C   UNL     1      83.991 124.034 126.030  1.00  0.00    -0.003 C 
ATOM     30  C   UNL     1      82.591 124.627 126.180  1.00  0.00     0.004 C 
ENDBRANCH  28  29
ENDBRANCH  27  28
ENDBRANCH  26  27
ENDBRANCH  25  26
ENDBRANCH  24  25
ENDBRANCH  23  24
ENDBRANCH  22  23
ENDBRANCH  21  22
ENDBRANCH  20  21
ENDBRANCH  19  20
ENDBRANCH  18  19
ENDBRANCH  17  18
ENDBRANCH   1  17
TORSDOF 26
ENDMDL
MODEL 6
REMARK VINA RESULT:    -3.252      4.346     11.609
REMARK INTER + INTRA:          -9.841
REMARK INTER:                  -8.671
REMARK INTRA:                  -1.170
REMARK UNBOUND:                -1.647
REMARK SMILES CCCCCCCCCCCCCCCCCCCCCCCCCCCC(=O)[O-]
REMARK SMILES IDX 15 1 16 2 17 3 18 4 19 5 20 6 21 7 22 8 23 9 24 10 25 11
REMARK SMILES IDX 26 12 27 13 28 14 29 15 30 16 14 17 13 18 12 19 11 20 10 21
REMARK SMILES IDX 9 22 8 23 7 24 6 25 5 26 4 27 3 28 2 29 1 30
REMARK H PARENT
REMARK Flexibility Score: inf
ROOT
ATOM      1  C   UNL     1      97.351 126.502 126.902  1.00  0.00     0.000 C 
ENDROOT
BRANCH   1   2
ATOM      2  C   UNL     1      97.473 125.771 125.552  1.00  0.00     0.000 C 
BRANCH   2   3
ATOM      3  C   UNL     1      97.065 124.291 125.638  1.00  0.00     0.000 C 
BRANCH   3   4
ATOM      4  C   UNL     1      95.759 123.997 124.881  1.00  0.00     0.000 C 
BRANCH   4   5
ATOM      5  C   UNL     1      94.977 122.809 125.470  1.00  0.00     0.000 C 
BRANCH   5   6
ATOM      6  C   UNL     1      93.506 122.695 125.016  1.00  0.00     0.000 C 
BRANCH   6   7
ATOM      7  C   UNL     1      93.206 123.255 123.614  1.00  0.00     0.000 C 
BRANCH   7   8
ATOM      8  C   UNL     1      92.843 122.157 122.599  1.00  0.00     0.000 C 
BRANCH   8   9
ATOM      9  C   UNL     1      93.207 122.553 121.157  1.00  0.00     0.000 C 
BRANCH   9  10
ATOM     10  C   UNL     1      94.695 122.326 120.807  1.00  0.00     0.000 C 
BRANCH  10  11
ATOM     11  C   UNL     1      94.909 121.464 119.550  1.00  0.00     0.000 C 
BRANCH  11  12
ATOM     12  C   UNL     1      93.619 120.887 118.936  1.00  0.00     0.006 C 
BRANCH  12  13
ATOM     13  C   UNL     1      93.436 121.195 117.440  1.00  0.00     0.053 C 
BRANCH  13  14
ATOM     14  C   UNL     1      92.692 122.476 117.217  1.00  0.00     0.041 C 
ATOM     15  O   UNL     1      91.721 122.513 116.418  1.00  0.00    -0.550 OA
ATOM     16  O   UNL     1      93.053 123.623 117.915  1.00  0.00    -0.550 OA
ENDBRANCH  13  14
ENDBRANCH  12  13
ENDBRANCH  11  12
ENDBRANCH  10  11
ENDBRANCH   9  10
ENDBRANCH   8   9
ENDBRANCH   7   8
ENDBRANCH   6   7
ENDBRANCH   5   6
ENDBRANCH   4   5
ENDBRANCH   3   4
ENDBRANCH   2   3
ENDBRANCH   1   2
BRANCH   1  17
ATOM     17  C   UNL     1      97.351 128.030 126.742  1.00  0.00     0.000 C 
BRANCH  17  18
ATOM     18  C   UNL     1      96.542 128.741 127.841  1.00  0.00     0.000 C 
BRANCH  18  19
ATOM     19  C   UNL     1      96.751 130.265 127.839  1.00  0.00     0.000 C 
BRANCH  19  20
ATOM     20  C   UNL     1      95.671 131.066 128.593  1.00  0.00     0.000 C 
BRANCH  20  21
ATOM     21  C   UNL     1      94.826 131.985 127.683  1.00  0.00     0.000 C 
BRANCH  21  22
ATOM     22  C   UNL     1      95.690 132.755 126.668  1.00  0.00    -0.000 C 
BRANCH  22  23
ATOM     23  C   UNL     1      94.907 133.155 125.408  1.00  0.00    -0.000 C 
BRANCH  23  24
ATOM     24  C   UNL     1      94.901 134.674 125.173  1.00  0.00    -0.000 C 
BRANCH  24  25
ATOM     25  C   UNL     1      96.258 135.149 124.638  1.00  0.00    -0.000 C 
BRANCH  25  26
ATOM     26  C   UNL     1      96.377 134.895 123.128  1.00  0.00    -0.000 C 
BRANCH  26  27
ATOM     27  C   UNL     1      96.825 136.142 122.351  1.00  0.00    -0.000 C 
BRANCH  27  28
ATOM     28  C   UNL     1      97.122 135.845 120.871  1.00  0.00    -0.000 C 
BRANCH  28  29
ATOM     29  C   UNL     1      97.652 137.074 120.118  1.00  0.00    -0.003 C 
ATOM     30  C   UNL     1      96.547 138.064 119.752  1.00  0.00     0.004 C 
ENDBRANCH  28  29
ENDBRANCH  27  28
ENDBRANCH  26  27
ENDBRANCH  25  26
ENDBRANCH  24  25
ENDBRANCH  23  24
ENDBRANCH  22  23
ENDBRANCH  21  22
ENDBRANCH  20  21
ENDBRANCH  19  20
ENDBRANCH  18  19
ENDBRANCH  17  18
ENDBRANCH   1  17
TORSDOF 26
ENDMDL
MODEL 7
REMARK VINA RESULT:    -3.218      5.036     11.921
REMARK INTER + INTRA:          -9.757
REMARK INTER:                  -7.614
REMARK INTRA:                  -2.142
REMARK UNBOUND:                -1.647
REMARK SMILES CCCCCCCCCCCCCCCCCCCCCCCCCCCC(=O)[O-]
REMARK SMILES IDX 15 1 16 2 17 3 18 4 19 5 20 6 21 7 22 8 23 9 24 10 25 11
REMARK SMILES IDX 26 12 27 13 28 14 29 15 30 16 14 17 13 18 12 19 11 20 10 21
REMARK SMILES IDX 9 22 8 23 7 24 6 25 5 26 4 27 3 28 2 29 1 30
REMARK H PARENT
REMARK Flexibility Score: inf
ROOT
ATOM      1  C   UNL     1      92.889 122.969 124.655  1.00  0.00     0.000 C 
ENDROOT
BRANCH   1   2
ATOM      2  C   UNL     1      92.944 124.012 123.523  1.00  0.00     0.000 C 
BRANCH   2   3
ATOM      3  C   UNL     1      92.995 123.371 122.126  1.00  0.00     0.000 C 
BRANCH   3   4
ATOM      4  C   UNL     1      92.688 121.864 122.161  1.00  0.00     0.000 C 
BRANCH   4   5
ATOM      5  C   UNL     1      93.859 121.001 121.656  1.00  0.00     0.000 C 
BRANCH   5   6
ATOM      6  C   UNL     1      93.661 120.368 120.262  1.00  0.00     0.000 C 
BRANCH   6   7
ATOM      7  C   UNL     1      94.940 120.231 119.416  1.00  0.00     0.000 C 
BRANCH   7   8
ATOM      8  C   UNL     1      95.055 121.316 118.332  1.00  0.00     0.000 C 
BRANCH   8   9
ATOM      9  C   UNL     1      94.840 122.731 118.896  1.00  0.00     0.000 C 
BRANCH   9  10
ATOM     10  C   UNL     1      93.702 123.512 118.200  1.00  0.00     0.000 C 
BRANCH  10  11
ATOM     11  C   UNL     1      92.293 123.037 118.600  1.00  0.00     0.000 C 
BRANCH  11  12
ATOM     12  C   UNL     1      91.682 121.973 117.669  1.00  0.00     0.006 C 
BRANCH  12  13
ATOM     13  C   UNL     1      91.999 122.179 116.178  1.00  0.00     0.053 C 
BRANCH  13  14
ATOM     14  C   UNL     1      92.658 120.977 115.573  1.00  0.00     0.041 C 
ATOM     15  O   UNL     1      92.454 119.833 116.055  1.00  0.00    -0.550 OA
ATOM     16  O   UNL     1      93.476 121.118 114.459  1.00  0.00    -0.550 OA
ENDBRANCH  13  14
ENDBRANCH  12  13
ENDBRANCH  11  12
ENDBRANCH  10  11
ENDBRANCH   9  10
ENDBRANCH   8   9
ENDBRANCH   7   8
ENDBRANCH   6   7
ENDBRANCH   5   6
ENDBRANCH   4   5
ENDBRANCH   3   4
ENDBRANCH   2   3
ENDBRANCH   1   2
BRANCH   1  17
ATOM     17  C   UNL     1      94.269 122.712 125.280  1.00  0.00     0.000 C 
BRANCH  17  18
ATOM     18  C   UNL     1      95.210 123.923 125.155  1.00  0.00     0.000 C 
BRANCH  18  19
ATOM     19  C   UNL     1      96.558 123.560 124.508  1.00  0.00     0.000 C 
BRANCH  19  20
ATOM     20  C   UNL     1      97.622 123.027 125.488  1.00  0.00     0.000 C 
BRANCH  20  21
ATOM     21  C   UNL     1      98.220 124.111 126.411  1.00  0.00     0.000 C 
BRANCH  21  22
ATOM     22  C   UNL     1      97.783 125.530 126.003  1.00  0.00    -0.000 C 
BRANCH  22  23
ATOM     23  C   UNL     1      97.411 126.405 127.211  1.00  0.00    -0.000 C 
BRANCH  23  24
ATOM     24  C   UNL     1      97.398 127.904 126.874  1.00  0.00    -0.000 C 
BRANCH  24  25
ATOM     25  C   UNL     1      96.519 128.679 127.863  1.00  0.00    -0.000 C 
BRANCH  25  26
ATOM     26  C   UNL     1      96.962 130.147 127.963  1.00  0.00    -0.000 C 
BRANCH  26  27
ATOM     27  C   UNL     1      96.279 130.893 129.120  1.00  0.00    -0.000 C 
BRANCH  27  28
ATOM     28  C   UNL     1      97.287 131.566 130.068  1.00  0.00    -0.000 C 
BRANCH  28  29
ATOM     29  C   UNL     1      98.696 130.964 129.954  1.00  0.00    -0.003 C 
ATOM     30  C   UNL     1      99.471 131.021 131.270  1.00  0.00     0.004 C 
ENDBRANCH  28  29
ENDBRANCH  27  28
ENDBRANCH  26  27
ENDBRANCH  25  26
ENDBRANCH  24  25
ENDBRANCH  23  24
ENDBRANCH  22  23
ENDBRANCH  21  22
ENDBRANCH  20  21
ENDBRANCH  19  20
ENDBRANCH  18  19
ENDBRANCH  17  18
ENDBRANCH   1  17
TORSDOF 26
ENDMDL
MODEL 8
REMARK VINA RESULT:    -3.019      4.648     11.792
REMARK INTER + INTRA:          -9.256
REMARK INTER:                  -8.271
REMARK INTRA:                  -0.985
REMARK UNBOUND:                -1.647
REMARK SMILES CCCCCCCCCCCCCCCCCCCCCCCCCCCC(=O)[O-]
REMARK SMILES IDX 15 1 16 2 17 3 18 4 19 5 20 6 21 7 22 8 23 9 24 10 25 11
REMARK SMILES IDX 26 12 27 13 28 14 29 15 30 16 14 17 13 18 12 19 11 20 10 21
REMARK SMILES IDX 9 22 8 23 7 24 6 25 5 26 4 27 3 28 2 29 1 30
REMARK H PARENT
REMARK Flexibility Score: inf
ROOT
ATOM      1  C   UNL     1      97.578 128.830 127.711  1.00  0.00     0.000 C 
ENDROOT
BRANCH   1   2
ATOM      2  C   UNL     1      97.557 127.860 126.514  1.00  0.00     0.000 C 
BRANCH   2   3
ATOM      3  C   UNL     1      97.199 126.421 126.921  1.00  0.00     0.000 C 
BRANCH   3   4
ATOM      4  C   UNL     1      97.328 125.431 125.752  1.00  0.00     0.000 C 
BRANCH   4   5
ATOM      5  C   UNL     1      96.535 124.130 125.976  1.00  0.00     0.000 C 
BRANCH   5   6
ATOM      6  C   UNL     1      95.948 123.485 124.703  1.00  0.00     0.000 C 
BRANCH   6   7
ATOM      7  C   UNL     1      94.619 124.089 124.214  1.00  0.00     0.000 C 
BRANCH   7   8
ATOM      8  C   UNL     1      93.403 123.214 124.565  1.00  0.00     0.000 C 
BRANCH   8   9
ATOM      9  C   UNL     1      93.008 122.274 123.412  1.00  0.00     0.000 C 
BRANCH   9  10
ATOM     10  C   UNL     1      93.627 122.666 122.051  1.00  0.00     0.000 C 
BRANCH  10  11
ATOM     11  C   UNL     1      92.981 121.950 120.850  1.00  0.00     0.000 C 
BRANCH  11  12
ATOM     12  C   UNL     1      93.932 121.032 120.059  1.00  0.00     0.006 C 
BRANCH  12  13
ATOM     13  C   UNL     1      93.957 121.299 118.545  1.00  0.00     0.053 C 
BRANCH  13  14
ATOM     14  C   UNL     1      92.848 122.210 118.117  1.00  0.00     0.041 C 
ATOM     15  O   UNL     1      91.725 121.736 117.803  1.00  0.00    -0.550 OA
ATOM     16  O   UNL     1      93.045 123.585 118.093  1.00  0.00    -0.550 OA
ENDBRANCH  13  14
ENDBRANCH  12  13
ENDBRANCH  11  12
ENDBRANCH  10  11
ENDBRANCH   9  10
ENDBRANCH   8   9
ENDBRANCH   7   8
ENDBRANCH   6   7
ENDBRANCH   5   6
ENDBRANCH   4   5
ENDBRANCH   3   4
ENDBRANCH   2   3
ENDBRANCH   1   2
BRANCH   1  17
ATOM     17  C   UNL     1      96.242 129.568 127.888  1.00  0.00     0.000 C 
BRANCH  17  18
ATOM     18  C   UNL     1      96.419 130.981 128.471  1.00  0.00     0.000 C 
BRANCH  18  19
ATOM     19  C   UNL     1      95.303 131.946 128.036  1.00  0.00     0.000 C 
BRANCH  19  20
ATOM     20  C   UNL     1      95.169 132.131 126.510  1.00  0.00     0.000 C 
BRANCH  20  21
ATOM     21  C   UNL     1      94.858 133.583 126.084  1.00  0.00     0.000 C 
BRANCH  21  22
ATOM     22  C   UNL     1      95.396 133.906 124.678  1.00  0.00    -0.000 C 
BRANCH  22  23
ATOM     23  C   UNL     1      96.537 134.935 124.703  1.00  0.00    -0.000 C 
BRANCH  23  24
ATOM     24  C   UNL     1      96.527 135.859 123.476  1.00  0.00    -0.000 C 
BRANCH  24  25
ATOM     25  C   UNL     1      96.927 135.092 122.209  1.00  0.00    -0.000 C 
BRANCH  25  26
ATOM     26  C   UNL     1      96.895 136.006 120.975  1.00  0.00    -0.000 C 
BRANCH  26  27
ATOM     27  C   UNL     1      98.133 136.910 120.877  1.00  0.00    -0.000 C 
BRANCH  27  28
ATOM     28  C   UNL     1      97.771 138.394 120.696  1.00  0.00    -0.000 C 
BRANCH  28  29
ATOM     29  C   UNL     1      96.396 138.590 120.040  1.00  0.00    -0.003 C 
ATOM     30  C   UNL     1      96.482 138.737 118.521  1.00  0.00     0.004 C 
ENDBRANCH  28  29
ENDBRANCH  27  28
ENDBRANCH  26  27
ENDBRANCH  25  26
ENDBRANCH  24  25
ENDBRANCH  23  24
ENDBRANCH  22  23
ENDBRANCH  21  22
ENDBRANCH  20  21
ENDBRANCH  19  20
ENDBRANCH  18  19
ENDBRANCH  17  18
ENDBRANCH   1  17
TORSDOF 26
ENDMDL
MODEL 9
REMARK VINA RESULT:    -2.991     11.425     13.526
REMARK INTER + INTRA:          -9.185
REMARK INTER:                  -7.420
REMARK INTRA:                  -1.764
REMARK UNBOUND:                -1.647
REMARK SMILES CCCCCCCCCCCCCCCCCCCCCCCCCCCC(=O)[O-]
REMARK SMILES IDX 15 1 16 2 17 3 18 4 19 5 20 6 21 7 22 8 23 9 24 10 25 11
REMARK SMILES IDX 26 12 27 13 28 14 29 15 30 16 14 17 13 18 12 19 11 20 10 21
REMARK SMILES IDX 9 22 8 23 7 24 6 25 5 26 4 27 3 28 2 29 1 30
REMARK H PARENT
REMARK Flexibility Score: inf
ROOT
ATOM      1  C   UNL     1      85.609 121.064 131.097  1.00  0.00     0.000 C 
ENDROOT
BRANCH   1   2
ATOM      2  C   UNL     1      87.147 120.991 131.153  1.00  0.00     0.000 C 
BRANCH   2   3
ATOM      3  C   UNL     1      87.821 122.275 130.643  1.00  0.00     0.000 C 
BRANCH   3   4
ATOM      4  C   UNL     1      86.806 123.384 130.323  1.00  0.00     0.000 C 
BRANCH   4   5
ATOM      5  C   UNL     1      87.312 124.372 129.256  1.00  0.00     0.000 C 
BRANCH   5   6
ATOM      6  C   UNL     1      86.212 125.101 128.454  1.00  0.00     0.000 C 
BRANCH   6   7
ATOM      7  C   UNL     1      84.786 124.557 128.651  1.00  0.00     0.000 C 
BRANCH   7   8
ATOM      8  C   UNL     1      83.750 125.671 128.881  1.00  0.00     0.000 C 
BRANCH   8   9
ATOM      9  C   UNL     1      82.449 125.138 129.508  1.00  0.00     0.000 C 
BRANCH   9  10
ATOM     10  C   UNL     1      82.676 124.040 130.572  1.00  0.00     0.000 C 
BRANCH  10  11
ATOM     11  C   UNL     1      81.918 124.290 131.888  1.00  0.00     0.000 C 
BRANCH  11  12
ATOM     12  C   UNL     1      82.814 124.629 133.095  1.00  0.00     0.006 C 
BRANCH  12  13
ATOM     13  C   UNL     1      84.264 124.133 132.966  1.00  0.00     0.053 C 
BRANCH  13  14
ATOM     14  C   UNL     1      85.225 125.259 132.739  1.00  0.00     0.041 C 
ATOM     15  O   UNL     1      86.421 125.157 133.117  1.00  0.00    -0.550 OA
ATOM     16  O   UNL     1      84.807 126.411 132.084  1.00  0.00    -0.550 OA
ENDBRANCH  13  14
ENDBRANCH  12  13
ENDBRANCH  11  12
ENDBRANCH  10  11
ENDBRANCH   9  10
ENDBRANCH   8   9
ENDBRANCH   7   8
ENDBRANCH   6   7
ENDBRANCH   5   6
ENDBRANCH   4   5
ENDBRANCH   3   4
ENDBRANCH   2   3
ENDBRANCH   1   2
BRANCH   1  17
ATOM     17  C   UNL     1      84.983 119.779 130.532  1.00  0.00     0.000 C 
BRANCH  17  18
ATOM     18  C   UNL     1      84.233 118.966 131.602  1.00  0.00     0.000 C 
BRANCH  18  19
ATOM     19  C   UNL     1      82.736 119.317 131.670  1.00  0.00     0.000 C 
BRANCH  19  20
ATOM     20  C   UNL     1      82.045 119.469 130.300  1.00  0.00     0.000 C 
BRANCH  20  21
ATOM     21  C   UNL     1      82.953 120.076 129.208  1.00  0.00     0.000 C 
BRANCH  21  22
ATOM     22  C   UNL     1      82.240 121.174 128.399  1.00  0.00    -0.000 C 
BRANCH  22  23
ATOM     23  C   UNL     1      83.212 122.020 127.563  1.00  0.00    -0.000 C 
BRANCH  23  24
ATOM     24  C   UNL     1      82.489 122.975 126.600  1.00  0.00    -0.000 C 
BRANCH  24  25
ATOM     25  C   UNL     1      82.883 122.686 125.146  1.00  0.00    -0.000 C 
BRANCH  25  26
ATOM     26  C   UNL     1      81.879 121.734 124.480  1.00  0.00    -0.000 C 
BRANCH  26  27
ATOM     27  C   UNL     1      82.423 120.304 124.339  1.00  0.00    -0.000 C 
BRANCH  27  28
ATOM     28  C   UNL     1      82.347 119.780 122.895  1.00  0.00    -0.000 C 
BRANCH  28  29
ATOM     29  C   UNL     1      82.879 120.794 121.872  1.00  0.00    -0.003 C 
ATOM     30  C   UNL     1      82.918 120.234 120.450  1.00  0.00     0.004 C 
ENDBRANCH  28  29
ENDBRANCH  27  28
ENDBRANCH  26  27
ENDBRANCH  25  26
ENDBRANCH  24  25
ENDBRANCH  23  24
ENDBRANCH  22  23
ENDBRANCH  21  22
ENDBRANCH  20  21
ENDBRANCH  19  20
ENDBRANCH  18  19
ENDBRANCH  17  18
ENDBRANCH   1  17
TORSDOF 26
ENDMDL
