MODEL 1
REMARK VINA RESULT:    -4.571      0.000      0.000
REMARK INTER + INTRA:         -10.553
REMARK INTER:                  -8.312
REMARK INTRA:                  -2.241
REMARK UNBOUND:                -2.241
REMARK SMILES CCCCCCCCCCCCCCCC(=O)[O-]
REMARK SMILES IDX 9 1 10 2 11 3 12 4 13 5 14 6 15 7 16 8 17 9 18 10 8 11 7 12
REMARK SMILES IDX 6 13 5 14 4 15 3 16 2 17 1 18
REMARK H PARENT
REMARK Flexibility Score: inf
ROOT
ATOM      1  C   UNL     1      59.880  28.980  12.193  1.00  0.00     0.000 C 
ENDROOT
BRANCH   1   2
ATOM      2  C   UNL     1      60.931  28.459  13.190  1.00  0.00     0.000 C 
BRANCH   2   3
ATOM      3  C   UNL     1      62.331  29.043  12.944  1.00  0.00     0.000 C 
BRANCH   3   4
ATOM      4  C   UNL     1      62.748  29.968  14.097  1.00  0.00     0.000 C 
BRANCH   4   5
ATOM      5  C   UNL     1      62.971  31.419  13.642  1.00  0.00     0.000 C 
BRANCH   5   6
ATOM      6  C   UNL     1      61.945  31.874  12.589  1.00  0.00     0.006 C 
BRANCH   6   7
ATOM      7  C   UNL     1      61.192  33.139  13.023  1.00  0.00     0.053 C 
BRANCH   7   8
ATOM      8  C   UNL     1      60.607  32.997  14.394  1.00  0.00     0.041 C 
ATOM      9  O   UNL     1      59.797  32.065  14.645  1.00  0.00    -0.550 OA
ATOM     10  O   UNL     1      60.931  33.912  15.388  1.00  0.00    -0.550 OA
ENDBRANCH   7   8
ENDBRANCH   6   7
ENDBRANCH   5   6
ENDBRANCH   4   5
ENDBRANCH   3   4
ENDBRANCH   2   3
ENDBRANCH   1   2
BRANCH   1  11
ATOM     11  C   UNL     1      60.223  28.749  10.707  1.00  0.00     0.000 C 
BRANCH  11  12
ATOM     12  C   UNL     1      60.395  30.031   9.870  1.00  0.00    -0.000 C 
BRANCH  12  13
ATOM     13  C   UNL     1      61.648  30.061   8.971  1.00  0.00    -0.000 C 
BRANCH  13  14
ATOM     14  C   UNL     1      62.667  28.939   9.239  1.00  0.00    -0.000 C 
BRANCH  14  15
ATOM     15  C   UNL     1      64.122  29.428   9.180  1.00  0.00    -0.000 C 
BRANCH  15  16
ATOM     16  C   UNL     1      64.419  30.404  10.328  1.00  0.00    -0.000 C 
BRANCH  16  17
ATOM     17  C   UNL     1      64.991  31.741   9.834  1.00  0.00    -0.003 C 
ATOM     18  C   UNL     1      65.268  32.722  10.973  1.00  0.00     0.004 C 
ENDBRANCH  16  17
ENDBRANCH  15  16
ENDBRANCH  14  15
ENDBRANCH  13  14
ENDBRANCH  12  13
ENDBRANCH  11  12
ENDBRANCH   1  11
TORSDOF 14
ENDMDL
MODEL 2
REMARK VINA RESULT:    -4.564      1.844      3.492
REMARK INTER + INTRA:         -10.540
REMARK INTER:                  -8.663
REMARK INTRA:                  -1.877
REMARK UNBOUND:                -2.241
REMARK SMILES CCCCCCCCCCCCCCCC(=O)[O-]
REMARK SMILES IDX 9 1 10 2 11 3 12 4 13 5 14 6 15 7 16 8 17 9 18 10 8 11 7 12
REMARK SMILES IDX 6 13 5 14 4 15 3 16 2 17 1 18
REMARK H PARENT
REMARK Flexibility Score: inf
ROOT
ATOM      1  C   UNL     1      63.123  30.295  13.932  1.00  0.00     0.000 C 
ENDROOT
BRANCH   1   2
ATOM      2  C   UNL     1      63.765  31.279  12.936  1.00  0.00     0.000 C 
BRANCH   2   3
ATOM      3  C   UNL     1      62.898  32.521  12.680  1.00  0.00     0.000 C 
BRANCH   3   4
ATOM      4  C   UNL     1      61.497  32.345  13.285  1.00  0.00     0.000 C 
BRANCH   4   5
ATOM      5  C   UNL     1      61.124  33.476  14.257  1.00  0.00     0.000 C 
BRANCH   5   6
ATOM      6  C   UNL     1      61.481  33.145  15.716  1.00  0.00     0.006 C 
BRANCH   6   7
ATOM      7  C   UNL     1      62.790  33.813  16.157  1.00  0.00     0.053 C 
BRANCH   7   8
ATOM      8  C   UNL     1      62.652  34.488  17.487  1.00  0.00     0.041 C 
ATOM      9  O   UNL     1      61.521  34.582  18.035  1.00  0.00    -0.550 OA
ATOM     10  O   UNL     1      63.765  35.040  18.108  1.00  0.00    -0.550 OA
ENDBRANCH   7   8
ENDBRANCH   6   7
ENDBRANCH   5   6
ENDBRANCH   4   5
ENDBRANCH   3   4
ENDBRANCH   2   3
ENDBRANCH   1   2
BRANCH   1  11
ATOM     11  C   UNL     1      62.608  28.982  13.307  1.00  0.00     0.000 C 
BRANCH  11  12
ATOM     12  C   UNL     1      61.110  28.699  13.528  1.00  0.00    -0.000 C 
BRANCH  12  13
ATOM     13  C   UNL     1      60.263  28.628  12.241  1.00  0.00    -0.000 C 
BRANCH  13  14
ATOM     14  C   UNL     1      60.789  29.475  11.068  1.00  0.00    -0.000 C 
BRANCH  14  15
ATOM     15  C   UNL     1      61.321  28.622   9.907  1.00  0.00    -0.000 C 
BRANCH  15  16
ATOM     16  C   UNL     1      62.395  29.384   9.115  1.00  0.00    -0.000 C 
BRANCH  16  17
ATOM     17  C   UNL     1      63.770  29.349   9.799  1.00  0.00    -0.003 C 
ATOM     18  C   UNL     1      64.754  30.353   9.199  1.00  0.00     0.004 C 
ENDBRANCH  16  17
ENDBRANCH  15  16
ENDBRANCH  14  15
ENDBRANCH  13  14
ENDBRANCH  12  13
ENDBRANCH  11  12
ENDBRANCH   1  11
TORSDOF 14
ENDMDL
MODEL 3
REMARK VINA RESULT:    -4.541      2.492      4.708
REMARK INTER + INTRA:         -10.497
REMARK INTER:                  -8.346
REMARK INTRA:                  -2.152
REMARK UNBOUND:                -2.241
REMARK SMILES CCCCCCCCCCCCCCCC(=O)[O-]
REMARK SMILES IDX 9 1 10 2 11 3 12 4 13 5 14 6 15 7 16 8 17 9 18 10 8 11 7 12
REMARK SMILES IDX 6 13 5 14 4 15 3 16 2 17 1 18
REMARK H PARENT
REMARK Flexibility Score: inf
ROOT
ATOM      1  C   UNL     1      60.346  29.836  12.860  1.00  0.00     0.000 C 
ENDROOT
BRANCH   1   2
ATOM      2  C   UNL     1      61.557  28.905  13.056  1.00  0.00     0.000 C 
BRANCH   2   3
ATOM      3  C   UNL     1      62.762  29.617  13.689  1.00  0.00     0.000 C 
BRANCH   3   4
ATOM      4  C   UNL     1      63.930  29.704  12.695  1.00  0.00     0.000 C 
BRANCH   4   5
ATOM      5  C   UNL     1      63.561  29.181  11.297  1.00  0.00     0.000 C 
BRANCH   5   6
ATOM      6  C   UNL     1      63.347  30.314  10.279  1.00  0.00     0.006 C 
BRANCH   6   7
ATOM      7  C   UNL     1      62.709  29.810   8.977  1.00  0.00     0.053 C 
BRANCH   7   8
ATOM      8  C   UNL     1      61.329  29.275   9.204  1.00  0.00     0.041 C 
ATOM      9  O   UNL     1      61.128  28.032   9.236  1.00  0.00    -0.550 OA
ATOM     10  O   UNL     1      60.258  30.149   9.348  1.00  0.00    -0.550 OA
ENDBRANCH   7   8
ENDBRANCH   6   7
ENDBRANCH   5   6
ENDBRANCH   4   5
ENDBRANCH   3   4
ENDBRANCH   2   3
ENDBRANCH   1   2
BRANCH   1  11
ATOM     11  C   UNL     1      60.693  31.330  12.700  1.00  0.00     0.000 C 
BRANCH  11  12
ATOM     12  C   UNL     1      60.160  32.246  13.818  1.00  0.00    -0.000 C 
BRANCH  12  13
ATOM     13  C   UNL     1      61.107  33.390  14.232  1.00  0.00    -0.000 C 
BRANCH  13  14
ATOM     14  C   UNL     1      62.175  33.006  15.272  1.00  0.00    -0.000 C 
BRANCH  14  15
ATOM     15  C   UNL     1      63.591  33.433  14.860  1.00  0.00    -0.000 C 
BRANCH  15  16
ATOM     16  C   UNL     1      63.838  33.147  13.371  1.00  0.00    -0.000 C 
BRANCH  16  17
ATOM     17  C   UNL     1      65.300  33.380  12.958  1.00  0.00    -0.003 C 
ATOM     18  C   UNL     1      65.543  33.121  11.472  1.00  0.00     0.004 C 
ENDBRANCH  16  17
ENDBRANCH  15  16
ENDBRANCH  14  15
ENDBRANCH  13  14
ENDBRANCH  12  13
ENDBRANCH  11  12
ENDBRANCH   1  11
TORSDOF 14
ENDMDL
MODEL 4
REMARK VINA RESULT:    -4.494      2.036      2.940
REMARK INTER + INTRA:         -10.413
REMARK INTER:                  -8.528
REMARK INTRA:                  -1.885
REMARK UNBOUND:                -2.241
REMARK SMILES CCCCCCCCCCCCCCCC(=O)[O-]
REMARK SMILES IDX 9 1 10 2 11 3 12 4 13 5 14 6 15 7 16 8 17 9 18 10 8 11 7 12
REMARK SMILES IDX 6 13 5 14 4 15 3 16 2 17 1 18
REMARK H PARENT
REMARK Flexibility Score: inf
ROOT
ATOM      1  C   UNL     1      60.927  29.183  12.772  1.00  0.00     0.000 C 
ENDROOT
BRANCH   1   2
ATOM      2  C   UNL     1      60.982  30.532  13.511  1.00  0.00     0.000 C 
BRANCH   2   3
ATOM      3  C   UNL     1      60.719  31.731  12.588  1.00  0.00     0.000 C 
BRANCH   3   4
ATOM      4  C   UNL     1      60.882  33.055  13.350  1.00  0.00     0.000 C 
BRANCH   4   5
ATOM      5  C   UNL     1      60.684  32.895  14.866  1.00  0.00     0.000 C 
BRANCH   5   6
ATOM      6  C   UNL     1      61.331  34.035  15.671  1.00  0.00     0.006 C 
BRANCH   6   7
ATOM      7  C   UNL     1      62.419  33.523  16.626  1.00  0.00     0.053 C 
BRANCH   7   8
ATOM      8  C   UNL     1      62.521  34.368  17.859  1.00  0.00     0.041 C 
ATOM      9  O   UNL     1      63.480  35.173  17.997  1.00  0.00    -0.550 OA
ATOM     10  O   UNL     1      61.575  34.245  18.869  1.00  0.00    -0.550 OA
ENDBRANCH   7   8
ENDBRANCH   6   7
ENDBRANCH   5   6
ENDBRANCH   4   5
ENDBRANCH   3   4
ENDBRANCH   2   3
ENDBRANCH   1   2
BRANCH   1  11
ATOM     11  C   UNL     1      60.193  29.215  11.415  1.00  0.00     0.000 C 
BRANCH  11  12
ATOM     12  C   UNL     1      61.090  28.982  10.184  1.00  0.00    -0.000 C 
BRANCH  12  13
ATOM     13  C   UNL     1      62.605  28.976  10.472  1.00  0.00    -0.000 C 
BRANCH  13  14
ATOM     14  C   UNL     1      63.471  29.688   9.416  1.00  0.00    -0.000 C 
BRANCH  14  15
ATOM     15  C   UNL     1      64.505  30.639  10.035  1.00  0.00    -0.000 C 
BRANCH  15  16
ATOM     16  C   UNL     1      64.181  30.917  11.510  1.00  0.00    -0.000 C 
BRANCH  16  17
ATOM     17  C   UNL     1      64.267  32.410  11.864  1.00  0.00    -0.003 C 
ATOM     18  C   UNL     1      64.488  32.652  13.357  1.00  0.00     0.004 C 
ENDBRANCH  16  17
ENDBRANCH  15  16
ENDBRANCH  14  15
ENDBRANCH  13  14
ENDBRANCH  12  13
ENDBRANCH  11  12
ENDBRANCH   1  11
TORSDOF 14
ENDMDL
MODEL 5
REMARK VINA RESULT:    -4.468      2.334      4.375
REMARK INTER + INTRA:         -10.366
REMARK INTER:                  -8.358
REMARK INTRA:                  -2.007
REMARK UNBOUND:                -2.241
REMARK SMILES CCCCCCCCCCCCCCCC(=O)[O-]
REMARK SMILES IDX 9 1 10 2 11 3 12 4 13 5 14 6 15 7 16 8 17 9 18 10 8 11 7 12
REMARK SMILES IDX 6 13 5 14 4 15 3 16 2 17 1 18
REMARK H PARENT
REMARK Flexibility Score: inf
ROOT
ATOM      1  C   UNL     1      62.705  31.782  12.918  1.00  0.00     0.000 C 
ENDROOT
BRANCH   1   2
ATOM      2  C   UNL     1      61.480  32.662  12.607  1.00  0.00     0.000 C 
BRANCH   2   3
ATOM      3  C   UNL     1      60.722  33.101  13.869  1.00  0.00     0.000 C 
BRANCH   3   4
ATOM      4  C   UNL     1      60.606  31.940  14.869  1.00  0.00     0.000 C 
BRANCH   4   5
ATOM      5  C   UNL     1      61.327  32.225  16.196  1.00  0.00     0.000 C 
BRANCH   5   6
ATOM      6  C   UNL     1      61.907  33.648  16.260  1.00  0.00     0.006 C 
BRANCH   6   7
ATOM      7  C   UNL     1      63.267  33.687  16.970  1.00  0.00     0.053 C 
BRANCH   7   8
ATOM      8  C   UNL     1      63.157  34.243  18.357  1.00  0.00     0.041 C 
ATOM      9  O   UNL     1      64.185  34.369  19.073  1.00  0.00    -0.550 OA
ATOM     10  O   UNL     1      61.914  34.592  18.871  1.00  0.00    -0.550 OA
ENDBRANCH   7   8
ENDBRANCH   6   7
ENDBRANCH   5   6
ENDBRANCH   4   5
ENDBRANCH   3   4
ENDBRANCH   2   3
ENDBRANCH   1   2
BRANCH   1  11
ATOM     11  C   UNL     1      63.684  31.590  11.742  1.00  0.00     0.000 C 
BRANCH  11  12
ATOM     12  C   UNL     1      64.109  30.133  11.480  1.00  0.00    -0.000 C 
BRANCH  12  13
ATOM     13  C   UNL     1      63.789  29.603  10.067  1.00  0.00    -0.000 C 
BRANCH  13  14
ATOM     14  C   UNL     1      62.309  29.702   9.656  1.00  0.00    -0.000 C 
BRANCH  14  15
ATOM     15  C   UNL     1      61.405  28.741  10.442  1.00  0.00    -0.000 C 
BRANCH  15  16
ATOM     16  C   UNL     1      60.214  29.490  11.058  1.00  0.00    -0.000 C 
BRANCH  16  17
ATOM     17  C   UNL     1      59.899  29.027  12.488  1.00  0.00    -0.003 C 
ATOM     18  C   UNL     1      61.142  28.560  13.245  1.00  0.00     0.004 C 
ENDBRANCH  16  17
ENDBRANCH  15  16
ENDBRANCH  14  15
ENDBRANCH  13  14
ENDBRANCH  12  13
ENDBRANCH  11  12
ENDBRANCH   1  11
TORSDOF 14
ENDMDL
MODEL 6
REMARK VINA RESULT:    -4.449      0.772      3.815
REMARK INTER + INTRA:         -10.331
REMARK INTER:                  -8.321
REMARK INTRA:                  -2.010
REMARK UNBOUND:                -2.241
REMARK SMILES CCCCCCCCCCCCCCCC(=O)[O-]
REMARK SMILES IDX 9 1 10 2 11 3 12 4 13 5 14 6 15 7 16 8 17 9 18 10 8 11 7 12
REMARK SMILES IDX 6 13 5 14 4 15 3 16 2 17 1 18
REMARK H PARENT
REMARK Flexibility Score: inf
ROOT
ATOM      1  C   UNL     1      64.138  30.885   9.200  1.00  0.00     0.000 C 
ENDROOT
BRANCH   1   2
ATOM      2  C   UNL     1      65.376  31.591   9.784  1.00  0.00     0.000 C 
BRANCH   2   3
ATOM      3  C   UNL     1      65.020  32.630  10.857  1.00  0.00     0.000 C 
BRANCH   3   4
ATOM      4  C   UNL     1      64.626  31.944  12.174  1.00  0.00     0.000 C 
BRANCH   4   5
ATOM      5  C   UNL     1      63.588  32.747  12.974  1.00  0.00     0.000 C 
BRANCH   5   6
ATOM      6  C   UNL     1      62.143  32.318  12.667  1.00  0.00     0.006 C 
BRANCH   6   7
ATOM      7  C   UNL     1      61.112  33.215  13.365  1.00  0.00     0.053 C 
BRANCH   7   8
ATOM      8  C   UNL     1      61.044  32.945  14.837  1.00  0.00     0.041 C 
ATOM      9  O   UNL     1      61.256  33.873  15.662  1.00  0.00    -0.550 OA
ATOM     10  O   UNL     1      60.777  31.662  15.298  1.00  0.00    -0.550 OA
ENDBRANCH   7   8
ENDBRANCH   6   7
ENDBRANCH   5   6
ENDBRANCH   4   5
ENDBRANCH   3   4
ENDBRANCH   2   3
ENDBRANCH   1   2
BRANCH   1  11
ATOM     11  C   UNL     1      64.050  29.374   9.499  1.00  0.00     0.000 C 
BRANCH  11  12
ATOM     12  C   UNL     1      62.618  28.814   9.610  1.00  0.00    -0.000 C 
BRANCH  12  13
ATOM     13  C   UNL     1      61.508  29.753   9.096  1.00  0.00    -0.000 C 
BRANCH  13  14
ATOM     14  C   UNL     1      60.438  30.126  10.138  1.00  0.00    -0.000 C 
BRANCH  14  15
ATOM     15  C   UNL     1      60.085  28.961  11.074  1.00  0.00    -0.000 C 
BRANCH  15  16
ATOM     16  C   UNL     1      60.180  29.393  12.545  1.00  0.00    -0.000 C 
BRANCH  16  17
ATOM     17  C   UNL     1      61.106  28.485  13.370  1.00  0.00    -0.003 C 
ATOM     18  C   UNL     1      62.563  28.943  13.338  1.00  0.00     0.004 C 
ENDBRANCH  16  17
ENDBRANCH  15  16
ENDBRANCH  14  15
ENDBRANCH  13  14
ENDBRANCH  12  13
ENDBRANCH  11  12
ENDBRANCH   1  11
TORSDOF 14
ENDMDL
MODEL 7
REMARK VINA RESULT:    -4.432      1.324      3.343
REMARK INTER + INTRA:         -10.299
REMARK INTER:                  -7.942
REMARK INTRA:                  -2.357
REMARK UNBOUND:                -2.241
REMARK SMILES CCCCCCCCCCCCCCCC(=O)[O-]
REMARK SMILES IDX 9 1 10 2 11 3 12 4 13 5 14 6 15 7 16 8 17 9 18 10 8 11 7 12
REMARK SMILES IDX 6 13 5 14 4 15 3 16 2 17 1 18
REMARK H PARENT
REMARK Flexibility Score: inf
ROOT
ATOM      1  C   UNL     1      63.100  29.506  13.663  1.00  0.00     0.000 C 
ENDROOT
BRANCH   1   2
ATOM      2  C   UNL     1      61.947  29.001  12.776  1.00  0.00     0.000 C 
BRANCH   2   3
ATOM      3  C   UNL     1      60.666  29.835  12.929  1.00  0.00     0.000 C 
BRANCH   3   4
ATOM      4  C   UNL     1      60.749  31.122  12.094  1.00  0.00     0.000 C 
BRANCH   4   5
ATOM      5  C   UNL     1      60.783  32.391  12.961  1.00  0.00     0.000 C 
BRANCH   5   6
ATOM      6  C   UNL     1      60.274  32.144  14.391  1.00  0.00     0.006 C 
BRANCH   6   7
ATOM      7  C   UNL     1      61.393  32.274  15.434  1.00  0.00     0.053 C 
BRANCH   7   8
ATOM      8  C   UNL     1      61.797  33.701  15.643  1.00  0.00     0.041 C 
ATOM      9  O   UNL     1      63.017  34.015  15.679  1.00  0.00    -0.550 OA
ATOM     10  O   UNL     1      60.829  34.679  15.831  1.00  0.00    -0.550 OA
ENDBRANCH   7   8
ENDBRANCH   6   7
ENDBRANCH   5   6
ENDBRANCH   4   5
ENDBRANCH   3   4
ENDBRANCH   2   3
ENDBRANCH   1   2
BRANCH   1  11
ATOM     11  C   UNL     1      64.319  30.056  12.893  1.00  0.00     0.000 C 
BRANCH  11  12
ATOM     12  C   UNL     1      64.306  31.578  12.653  1.00  0.00    -0.000 C 
BRANCH  12  13
ATOM     13  C   UNL     1      64.509  32.009  11.186  1.00  0.00    -0.000 C 
BRANCH  13  14
ATOM     14  C   UNL     1      65.155  30.945  10.279  1.00  0.00    -0.000 C 
BRANCH  14  15
ATOM     15  C   UNL     1      64.302  30.616   9.046  1.00  0.00    -0.000 C 
BRANCH  15  16
ATOM     16  C   UNL     1      63.489  29.332   9.269  1.00  0.00    -0.000 C 
BRANCH  16  17
ATOM     17  C   UNL     1      61.989  29.528   8.998  1.00  0.00    -0.003 C 
ATOM     18  C   UNL     1      61.172  28.262   9.253  1.00  0.00     0.004 C 
ENDBRANCH  16  17
ENDBRANCH  15  16
ENDBRANCH  14  15
ENDBRANCH  13  14
ENDBRANCH  12  13
ENDBRANCH  11  12
ENDBRANCH   1  11
TORSDOF 14
ENDMDL
MODEL 8
REMARK VINA RESULT:    -4.409      2.928      5.972
REMARK INTER + INTRA:         -10.258
REMARK INTER:                  -8.443
REMARK INTRA:                  -1.815
REMARK UNBOUND:                -2.241
REMARK SMILES CCCCCCCCCCCCCCCC(=O)[O-]
REMARK SMILES IDX 9 1 10 2 11 3 12 4 13 5 14 6 15 7 16 8 17 9 18 10 8 11 7 12
REMARK SMILES IDX 6 13 5 14 4 15 3 16 2 17 1 18
REMARK H PARENT
REMARK Flexibility Score: inf
ROOT
ATOM      1  C   UNL     1      63.769  31.889  13.814  1.00  0.00     0.000 C 
ENDROOT
BRANCH   1   2
ATOM      2  C   UNL     1      63.684  30.408  14.227  1.00  0.00     0.000 C 
BRANCH   2   3
ATOM      3  C   UNL     1      63.272  29.487  13.069  1.00  0.00     0.000 C 
BRANCH   3   4
ATOM      4  C   UNL     1      62.064  28.622  13.460  1.00  0.00     0.000 C 
BRANCH   4   5
ATOM      5  C   UNL     1      60.722  29.326  13.203  1.00  0.00     0.000 C 
BRANCH   5   6
ATOM      6  C   UNL     1      60.034  28.836  11.918  1.00  0.00     0.006 C 
BRANCH   6   7
ATOM      7  C   UNL     1      60.342  29.740  10.716  1.00  0.00     0.053 C 
BRANCH   7   8
ATOM      8  C   UNL     1      61.310  29.100   9.770  1.00  0.00     0.041 C 
ATOM      9  O   UNL     1      61.077  27.953   9.305  1.00  0.00    -0.550 OA
ATOM     10  O   UNL     1      62.486  29.756   9.426  1.00  0.00    -0.550 OA
ENDBRANCH   7   8
ENDBRANCH   6   7
ENDBRANCH   5   6
ENDBRANCH   4   5
ENDBRANCH   3   4
ENDBRANCH   2   3
ENDBRANCH   1   2
BRANCH   1  11
ATOM     11  C   UNL     1      63.002  32.250  12.526  1.00  0.00     0.000 C 
BRANCH  11  12
ATOM     12  C   UNL     1      61.527  32.641  12.734  1.00  0.00    -0.000 C 
BRANCH  12  13
ATOM     13  C   UNL     1      61.223  33.360  14.064  1.00  0.00    -0.000 C 
BRANCH  13  14
ATOM     14  C   UNL     1      60.658  32.457  15.177  1.00  0.00    -0.000 C 
BRANCH  14  15
ATOM     15  C   UNL     1      61.462  32.543  16.482  1.00  0.00    -0.000 C 
BRANCH  15  16
ATOM     16  C   UNL     1      62.048  33.950  16.673  1.00  0.00    -0.000 C 
BRANCH  16  17
ATOM     17  C   UNL     1      62.597  34.175  18.090  1.00  0.00    -0.003 C 
ATOM     18  C   UNL     1      61.525  34.032  19.170  1.00  0.00     0.004 C 
ENDBRANCH  16  17
ENDBRANCH  15  16
ENDBRANCH  14  15
ENDBRANCH  13  14
ENDBRANCH  12  13
ENDBRANCH  11  12
ENDBRANCH   1  11
TORSDOF 14
ENDMDL
MODEL 9
REMARK VINA RESULT:    -4.393      2.678      6.103
REMARK INTER + INTRA:         -10.230
REMARK INTER:                  -8.103
REMARK INTRA:                  -2.126
REMARK UNBOUND:                -2.241
REMARK SMILES CCCCCCCCCCCCCCCC(=O)[O-]
REMARK SMILES IDX 9 1 10 2 11 3 12 4 13 5 14 6 15 7 16 8 17 9 18 10 8 11 7 12
REMARK SMILES IDX 6 13 5 14 4 15 3 16 2 17 1 18
REMARK H PARENT
REMARK Flexibility Score: inf
ROOT
ATOM      1  C   UNL     1      64.974  33.738  14.167  1.00  0.00     0.000 C 
ENDROOT
BRANCH   1   2
ATOM      2  C   UNL     1      64.787  32.391  13.446  1.00  0.00     0.000 C 
BRANCH   2   3
ATOM      3  C   UNL     1      64.711  32.535  11.919  1.00  0.00     0.000 C 
BRANCH   3   4
ATOM      4  C   UNL     1      64.326  31.201  11.261  1.00  0.00     0.000 C 
BRANCH   4   5
ATOM      5  C   UNL     1      64.490  31.223   9.733  1.00  0.00     0.000 C 
BRANCH   5   6
ATOM      6  C   UNL     1      63.690  30.110   9.036  1.00  0.00     0.006 C 
BRANCH   6   7
ATOM      7  C   UNL     1      62.835  29.305  10.025  1.00  0.00     0.053 C 
BRANCH   7   8
ATOM      8  C   UNL     1      61.459  29.049   9.492  1.00  0.00     0.041 C 
ATOM      9  O   UNL     1      60.573  29.941   9.570  1.00  0.00    -0.550 OA
ATOM     10  O   UNL     1      61.145  27.814   8.938  1.00  0.00    -0.550 OA
ENDBRANCH   7   8
ENDBRANCH   6   7
ENDBRANCH   5   6
ENDBRANCH   4   5
ENDBRANCH   3   4
ENDBRANCH   2   3
ENDBRANCH   1   2
BRANCH   1  11
ATOM     11  C   UNL     1      64.424  33.787  15.607  1.00  0.00     0.000 C 
BRANCH  11  12
ATOM     12  C   UNL     1      63.090  33.047  15.821  1.00  0.00    -0.000 C 
BRANCH  12  13
ATOM     13  C   UNL     1      61.832  33.836  15.407  1.00  0.00    -0.000 C 
BRANCH  13  14
ATOM     14  C   UNL     1      60.779  33.023  14.632  1.00  0.00    -0.000 C 
BRANCH  14  15
ATOM     15  C   UNL     1      61.114  32.879  13.140  1.00  0.00    -0.000 C 
BRANCH  15  16
ATOM     16  C   UNL     1      60.928  31.428  12.674  1.00  0.00    -0.000 C 
BRANCH  16  17
ATOM     17  C   UNL     1      61.588  30.413  13.620  1.00  0.00    -0.003 C 
ATOM     18  C   UNL     1      61.135  28.978  13.356  1.00  0.00     0.004 C 
ENDBRANCH  16  17
ENDBRANCH  15  16
ENDBRANCH  14  15
ENDBRANCH  13  14
ENDBRANCH  12  13
ENDBRANCH  11  12
ENDBRANCH   1  11
TORSDOF 14
ENDMDL
