MODEL 1
REMARK VINA RESULT:    -5.841      0.000      0.000
REMARK INTER + INTRA:         -10.492
REMARK INTER:                  -9.597
REMARK INTRA:                  -0.895
REMARK UNBOUND:                -0.895
REMARK SMILES C[C@H]1O[C@@H](OC[C@@H]2O[C@@H](Oc3c(-c4ccc(O)c(O)c4)oc4cc(O)cc(O)c4c3=O)[C@@H](O)[C@H](O)[C@H]2O)[C@@H](O)[C@@H](O)[C@@H]1O
REMARK SMILES IDX 7 1 36 2 34 3 32 4 9 5 8 6 6 7 5 8 4 9 1 10 2 11 42 12 3 13
REMARK SMILES IDX 40 14 38 15 43 16 41 18 39 20 37 22 35 24 10 26 11 27 12 28
REMARK SMILES IDX 30 29 21 30 29 31 31 32 22 33 27 34 23 35 26 36 24 37 13 38
REMARK SMILES IDX 20 39 14 40 18 41 15 42 16 43 19 44 17 46 28 48 25 50 33 52
REMARK H PARENT 43 17 41 19 39 21 37 23 35 25 19 45 17 47 28 49 25 51 33 53
REMARK Flexibility Score: inf
ROOT
ATOM      1  C   UNL     1       9.271  18.171  21.479  1.00  0.00     0.180 C 
ATOM      2  C   UNL     1       9.339  19.122  20.101  1.00  0.00     0.177 C 
ATOM      3  C   UNL     1      10.154  20.480  20.228  1.00  0.00     0.180 C 
ATOM      4  C   UNL     1       9.929  21.064  21.716  1.00  0.00     0.214 C 
ATOM      5  C   UNL     1       8.664  20.336  22.479  1.00  0.00     0.339 C 
ATOM      6  O   UNL     1       8.647  18.879  22.553  1.00  0.00    -0.332 OA
ENDROOT
BRANCH   1   7
ATOM      7  C   UNL     1       8.439  16.858  21.083  1.00  0.00     0.198 C 
BRANCH   7   8
ATOM      8  O   UNL     1       8.280  15.964  22.205  1.00  0.00    -0.347 OA
BRANCH   8   9
ATOM      9  C   UNL     1       7.733  14.713  21.882  1.00  0.00     0.281 C 
ATOM     10  C   UNL     1       4.875  13.796  19.813  1.00  0.00     0.041 C 
ATOM     11  C   UNL     1       5.886  13.634  20.978  1.00  0.00     0.150 C 
ATOM     12  C   UNL     1       5.111  13.314  22.280  1.00  0.00     0.174 C 
ATOM     13  O   UNL     1       6.575  14.861  21.087  1.00  0.00    -0.344 OA
ATOM     14  C   UNL     1       5.820  13.989  23.461  1.00  0.00     0.179 C 
ATOM     15  C   UNL     1       7.367  14.066  23.236  1.00  0.00     0.202 C 
BRANCH  12  16
ATOM     16  O   UNL     1       4.982  11.939  22.549  1.00  0.00    -0.388 OA
ATOM     17  H   UNL     1       4.183  11.535  22.065  1.00  0.00     0.211 HD
ENDBRANCH  12  16
BRANCH  14  18
ATOM     18  O   UNL     1       5.147  15.215  23.748  1.00  0.00    -0.387 OA
ATOM     19  H   UNL     1       5.783  15.933  23.568  1.00  0.00     0.211 HD
ENDBRANCH  14  18
BRANCH  15  20
ATOM     20  O   UNL     1       7.967  14.761  24.303  1.00  0.00    -0.385 OA
ATOM     21  H   UNL     1       8.585  15.524  23.940  1.00  0.00     0.211 HD
ENDBRANCH  15  20
ENDBRANCH   8   9
ENDBRANCH   7   8
ENDBRANCH   1   7
BRANCH   2  22
ATOM     22  O   UNL     1       9.889  18.443  18.934  1.00  0.00    -0.387 OA
ATOM     23  H   UNL     1       9.233  18.564  18.167  1.00  0.00     0.211 HD
ENDBRANCH   2  22
BRANCH   3  24
ATOM     24  O   UNL     1      10.090  21.413  19.099  1.00  0.00    -0.387 OA
ATOM     25  H   UNL     1       9.293  21.986  19.245  1.00  0.00     0.211 HD
ENDBRANCH   3  24
BRANCH   5  26
ATOM     26  O   UNL     1       8.616  20.926  23.850  1.00  0.00    -0.454 OA
BRANCH  26  27
ATOM     27  C   UNL     1       7.609  21.803  24.236  1.00  0.00     0.214 A 
ATOM     28  C   UNL     1       6.292  21.522  23.888  1.00  0.00     0.180 A 
ATOM     29  C   UNL     1       7.838  22.602  25.385  1.00  0.00     0.239 A 
ATOM     30  O   UNL     1       5.386  21.585  24.809  1.00  0.00    -0.452 OA
ATOM     31  C   UNL     1       6.758  22.825  26.274  1.00  0.00     0.111 A 
ATOM     32  O   UNL     1       9.066  22.893  25.697  1.00  0.00    -0.285 OA
ATOM     33  C   UNL     1       5.607  22.045  26.003  1.00  0.00     0.146 A 
ATOM     34  C   UNL     1       7.106  23.019  27.610  1.00  0.00     0.134 A 
ATOM     35  C   UNL     1       4.876  21.433  27.038  1.00  0.00     0.094 A 
ATOM     36  C   UNL     1       6.723  22.034  28.566  1.00  0.00     0.093 A 
ATOM     37  C   UNL     1       5.538  21.275  28.326  1.00  0.00     0.123 A 
BRANCH  28  38
ATOM     38  C   UNL     1       5.937  20.977  22.588  1.00  0.00     0.025 A 
ATOM     39  C   UNL     1       5.543  19.607  22.500  1.00  0.00     0.062 A 
ATOM     40  C   UNL     1       5.908  21.784  21.457  1.00  0.00     0.016 A 
ATOM     41  C   UNL     1       5.200  19.070  21.236  1.00  0.00     0.158 A 
ATOM     42  C   UNL     1       5.514  21.252  20.254  1.00  0.00     0.051 A 
ATOM     43  C   UNL     1       5.144  19.893  20.127  1.00  0.00     0.157 A 
BRANCH  41  44
ATOM     44  O   UNL     1       4.909  17.704  21.066  1.00  0.00    -0.504 OA
ATOM     45  H   UNL     1       3.969  17.301  21.294  1.00  0.00     0.293 HD
ENDBRANCH  41  44
BRANCH  43  46
ATOM     46  O   UNL     1       4.875  19.372  18.884  1.00  0.00    -0.504 OA
ATOM     47  H   UNL     1       4.234  18.591  18.782  1.00  0.00     0.293 HD
ENDBRANCH  43  46
ENDBRANCH  28  38
BRANCH  34  48
ATOM     48  O   UNL     1       7.851  24.124  28.010  1.00  0.00    -0.507 OA
ATOM     49  H   UNL     1       7.242  24.851  28.449  1.00  0.00     0.293 HD
ENDBRANCH  34  48
BRANCH  37  50
ATOM     50  O   UNL     1       5.033  20.330  29.268  1.00  0.00    -0.508 OA
ATOM     51  H   UNL     1       4.694  19.449  28.984  1.00  0.00     0.293 HD
ENDBRANCH  37  50
ENDBRANCH  26  27
ENDBRANCH   5  26
BRANCH   4  52
ATOM     52  O   UNL     1      11.077  21.144  22.534  1.00  0.00    -0.384 OA
ATOM     53  H   UNL     1      10.867  21.715  23.398  1.00  0.00     0.211 HD
ENDBRANCH   4  52
TORSDOF 16
ENDMDL
MODEL 2
REMARK VINA RESULT:    -3.150      1.936      5.178
REMARK INTER + INTRA:          -6.070
REMARK INTER:                  -6.608
REMARK INTRA:                   0.537
REMARK UNBOUND:                -0.895
REMARK SMILES C[C@H]1O[C@@H](OC[C@@H]2O[C@@H](Oc3c(-c4ccc(O)c(O)c4)oc4cc(O)cc(O)c4c3=O)[C@@H](O)[C@H](O)[C@H]2O)[C@@H](O)[C@@H](O)[C@@H]1O
REMARK SMILES IDX 7 1 36 2 34 3 32 4 9 5 8 6 6 7 5 8 4 9 1 10 2 11 42 12 3 13
REMARK SMILES IDX 40 14 38 15 43 16 41 18 39 20 37 22 35 24 10 26 11 27 12 28
REMARK SMILES IDX 30 29 21 30 29 31 31 32 22 33 27 34 23 35 26 36 24 37 13 38
REMARK SMILES IDX 20 39 14 40 18 41 15 42 16 43 19 44 17 46 28 48 25 50 33 52
REMARK H PARENT 43 17 41 19 39 21 37 23 35 25 19 45 17 47 28 49 25 51 33 53
REMARK Flexibility Score: inf
ROOT
ATOM      1  C   UNL     1       7.595  17.197  22.108  1.00  0.00     0.180 C 
ATOM      2  C   UNL     1       7.713  17.673  20.506  1.00  0.00     0.177 C 
ATOM      3  C   UNL     1       8.181  19.170  20.253  1.00  0.00     0.180 C 
ATOM      4  C   UNL     1       7.564  20.093  21.425  1.00  0.00     0.214 C 
ATOM      5  C   UNL     1       6.365  19.324  22.250  1.00  0.00     0.339 C 
ATOM      6  O   UNL     1       6.646  18.005  22.808  1.00  0.00    -0.332 OA
ENDROOT
BRANCH   1   7
ATOM      7  C   UNL     1       7.150  15.656  22.092  1.00  0.00     0.198 C 
BRANCH   7   8
ATOM      8  O   UNL     1       7.989  14.845  22.943  1.00  0.00    -0.347 OA
BRANCH   8   9
ATOM      9  C   UNL     1       7.568  13.514  23.081  1.00  0.00     0.281 C 
ATOM     10  C   UNL     1       4.882  11.657  21.462  1.00  0.00     0.041 C 
ATOM     11  C   UNL     1       5.860  12.013  22.612  1.00  0.00     0.150 C 
ATOM     12  C   UNL     1       5.070  12.098  23.941  1.00  0.00     0.174 C 
ATOM     13  O   UNL     1       6.432  13.261  22.283  1.00  0.00    -0.344 OA
ATOM     14  C   UNL     1       5.672  13.209  24.809  1.00  0.00     0.179 C 
ATOM     15  C   UNL     1       7.213  13.351  24.575  1.00  0.00     0.202 C 
BRANCH  12  16
ATOM     16  O   UNL     1       5.056  10.898  24.678  1.00  0.00    -0.388 OA
ATOM     17  H   UNL     1       5.286  10.096  24.094  1.00  0.00     0.211 HD
ENDBRANCH  12  16
BRANCH  14  18
ATOM     18  O   UNL     1       4.881  14.386  24.644  1.00  0.00    -0.387 OA
ATOM     19  H   UNL     1       5.428  15.024  24.147  1.00  0.00     0.211 HD
ENDBRANCH  14  18
BRANCH  15  20
ATOM     20  O   UNL     1       7.709  14.432  25.330  1.00  0.00    -0.385 OA
ATOM     21  H   UNL     1       6.935  15.094  25.570  1.00  0.00     0.211 HD
ENDBRANCH  15  20
ENDBRANCH   8   9
ENDBRANCH   7   8
ENDBRANCH   1   7
BRANCH   2  22
ATOM     22  O   UNL     1       8.602  16.844  19.701  1.00  0.00    -0.387 OA
ATOM     23  H   UNL     1       8.994  17.429  18.969  1.00  0.00     0.211 HD
ENDBRANCH   2  22
BRANCH   3  24
ATOM     24  O   UNL     1       8.130  19.669  18.877  1.00  0.00    -0.387 OA
ATOM     25  H   UNL     1       7.257  20.129  18.769  1.00  0.00     0.211 HD
ENDBRANCH   3  24
BRANCH   5  26
ATOM     26  O   UNL     1       5.938  20.264  23.328  1.00  0.00    -0.454 OA
BRANCH  26  27
ATOM     27  C   UNL     1       5.864  21.636  23.117  1.00  0.00     0.214 A 
ATOM     28  C   UNL     1       6.544  22.494  23.974  1.00  0.00     0.180 A 
ATOM     29  C   UNL     1       5.601  22.084  21.797  1.00  0.00     0.239 A 
ATOM     30  O   UNL     1       7.286  23.419  23.458  1.00  0.00    -0.452 OA
ATOM     31  C   UNL     1       6.283  23.234  21.330  1.00  0.00     0.111 A 
ATOM     32  O   UNL     1       4.939  21.298  21.001  1.00  0.00    -0.285 OA
ATOM     33  C   UNL     1       7.313  23.692  22.188  1.00  0.00     0.146 A 
ATOM     34  C   UNL     1       6.520  23.279  19.957  1.00  0.00     0.134 A 
ATOM     35  C   UNL     1       8.555  24.117  21.681  1.00  0.00     0.094 A 
ATOM     36  C   UNL     1       7.865  23.200  19.492  1.00  0.00     0.093 A 
ATOM     37  C   UNL     1       8.906  23.703  20.329  1.00  0.00     0.123 A 
BRANCH  28  38
ATOM     38  C   UNL     1       6.602  22.266  25.409  1.00  0.00     0.025 A 
ATOM     39  C   UNL     1       7.878  22.219  26.047  1.00  0.00     0.062 A 
ATOM     40  C   UNL     1       5.440  22.166  26.165  1.00  0.00     0.016 A 
ATOM     41  C   UNL     1       7.942  21.992  27.443  1.00  0.00     0.158 A 
ATOM     42  C   UNL     1       5.530  22.007  27.526  1.00  0.00     0.051 A 
ATOM     43  C   UNL     1       6.778  21.929  28.186  1.00  0.00     0.157 A 
BRANCH  41  44
ATOM     44  O   UNL     1       9.168  21.827  28.112  1.00  0.00    -0.504 OA
ATOM     45  H   UNL     1       9.687  20.917  28.111  1.00  0.00     0.293 HD
ENDBRANCH  41  44
BRANCH  43  46
ATOM     46  O   UNL     1       6.823  21.645  29.530  1.00  0.00    -0.504 OA
ATOM     47  H   UNL     1       5.980  21.375  30.027  1.00  0.00     0.293 HD
ENDBRANCH  43  46
ENDBRANCH  28  38
BRANCH  34  48
ATOM     48  O   UNL     1       5.472  23.354  19.044  1.00  0.00    -0.507 OA
ATOM     49  H   UNL     1       5.651  24.088  18.323  1.00  0.00     0.293 HD
ENDBRANCH  34  48
BRANCH  37  50
ATOM     50  O   UNL     1      10.269  23.742  19.911  1.00  0.00    -0.508 OA
ATOM     51  H   UNL     1      10.616  24.475  19.351  1.00  0.00     0.293 HD
ENDBRANCH  37  50
ENDBRANCH  26  27
ENDBRANCH   5  26
BRANCH   4  52
ATOM     52  O   UNL     1       8.496  20.714  22.285  1.00  0.00    -0.384 OA
ATOM     53  H   UNL     1       9.236  21.213  21.718  1.00  0.00     0.211 HD
ENDBRANCH   4  52
TORSDOF 16
ENDMDL
MODEL 3
REMARK VINA RESULT:    -3.147      2.101      5.484
REMARK INTER + INTRA:          -6.065
REMARK INTER:                  -6.814
REMARK INTRA:                   0.750
REMARK UNBOUND:                -0.895
REMARK SMILES C[C@H]1O[C@@H](OC[C@@H]2O[C@@H](Oc3c(-c4ccc(O)c(O)c4)oc4cc(O)cc(O)c4c3=O)[C@@H](O)[C@H](O)[C@H]2O)[C@@H](O)[C@@H](O)[C@@H]1O
REMARK SMILES IDX 7 1 36 2 34 3 32 4 9 5 8 6 6 7 5 8 4 9 1 10 2 11 42 12 3 13
REMARK SMILES IDX 40 14 38 15 43 16 41 18 39 20 37 22 35 24 10 26 11 27 12 28
REMARK SMILES IDX 30 29 21 30 29 31 31 32 22 33 27 34 23 35 26 36 24 37 13 38
REMARK SMILES IDX 20 39 14 40 18 41 15 42 16 43 19 44 17 46 28 48 25 50 33 52
REMARK H PARENT 43 17 41 19 39 21 37 23 35 25 19 45 17 47 28 49 25 51 33 53
REMARK Flexibility Score: inf
ROOT
ATOM      1  C   UNL     1       7.936  17.794  22.114  1.00  0.00     0.180 C 
ATOM      2  C   UNL     1       8.597  18.146  20.615  1.00  0.00     0.177 C 
ATOM      3  C   UNL     1       9.556  19.411  20.553  1.00  0.00     0.180 C 
ATOM      4  C   UNL     1       8.982  20.527  21.569  1.00  0.00     0.214 C 
ATOM      5  C   UNL     1       7.435  20.202  22.031  1.00  0.00     0.339 C 
ATOM      6  O   UNL     1       7.141  18.885  22.586  1.00  0.00    -0.332 OA
ENDROOT
BRANCH   1   7
ATOM      7  C   UNL     1       7.054  16.469  21.921  1.00  0.00     0.198 C 
BRANCH   7   8
ATOM      8  O   UNL     1       5.788  16.753  21.287  1.00  0.00    -0.347 OA
BRANCH   8   9
ATOM      9  C   UNL     1       5.087  15.620  20.848  1.00  0.00     0.281 C 
ATOM     10  C   UNL     1       4.891  12.237  22.193  1.00  0.00     0.041 C 
ATOM     11  C   UNL     1       4.875  13.320  21.082  1.00  0.00     0.150 C 
ATOM     12  C   UNL     1       5.779  12.858  19.911  1.00  0.00     0.174 C 
ATOM     13  O   UNL     1       5.372  14.505  21.666  1.00  0.00    -0.344 OA
ATOM     14  C   UNL     1       6.478  14.081  19.308  1.00  0.00     0.179 C 
ATOM     15  C   UNL     1       5.586  15.363  19.410  1.00  0.00     0.202 C 
BRANCH  12  16
ATOM     16  O   UNL     1       5.091  12.175  18.891  1.00  0.00    -0.388 OA
ATOM     17  H   UNL     1       5.406  12.463  17.966  1.00  0.00     0.211 HD
ENDBRANCH  12  16
BRANCH  14  18
ATOM     18  O   UNL     1       7.793  14.164  19.859  1.00  0.00    -0.387 OA
ATOM     19  H   UNL     1       7.735  13.832  20.775  1.00  0.00     0.211 HD
ENDBRANCH  14  18
BRANCH  15  20
ATOM     20  O   UNL     1       6.296  16.475  18.919  1.00  0.00    -0.385 OA
ATOM     21  H   UNL     1       6.173  16.558  17.883  1.00  0.00     0.211 HD
ENDBRANCH  15  20
ENDBRANCH   8   9
ENDBRANCH   7   8
ENDBRANCH   1   7
BRANCH   2  22
ATOM     22  O   UNL     1       9.357  17.050  20.026  1.00  0.00    -0.387 OA
ATOM     23  H   UNL     1       9.765  16.511  20.785  1.00  0.00     0.211 HD
ENDBRANCH   2  22
BRANCH   3  24
ATOM     24  O   UNL     1      10.013  19.847  19.230  1.00  0.00    -0.387 OA
ATOM     25  H   UNL     1      10.262  20.804  19.313  1.00  0.00     0.211 HD
ENDBRANCH   3  24
BRANCH   5  26
ATOM     26  O   UNL     1       7.064  21.270  23.006  1.00  0.00    -0.454 OA
BRANCH  26  27
ATOM     27  C   UNL     1       7.452  22.593  22.827  1.00  0.00     0.214 A 
ATOM     28  C   UNL     1       8.071  23.268  23.873  1.00  0.00     0.180 A 
ATOM     29  C   UNL     1       7.723  23.024  21.502  1.00  0.00     0.239 A 
ATOM     30  O   UNL     1       9.164  23.915  23.626  1.00  0.00    -0.452 OA
ATOM     31  C   UNL     1       8.812  23.905  21.293  1.00  0.00     0.111 A 
ATOM     32  O   UNL     1       7.124  22.415  20.523  1.00  0.00    -0.285 OA
ATOM     33  C   UNL     1       9.635  24.099  22.430  1.00  0.00     0.146 A 
ATOM     34  C   UNL     1       9.439  23.805  20.052  1.00  0.00     0.134 A 
ATOM     35  C   UNL     1      11.038  24.125  22.323  1.00  0.00     0.094 A 
ATOM     36  C   UNL     1      10.779  23.322  20.000  1.00  0.00     0.093 A 
ATOM     37  C   UNL     1      11.631  23.554  21.121  1.00  0.00     0.123 A 
BRANCH  28  38
ATOM     38  C   UNL     1       7.642  23.112  25.253  1.00  0.00     0.025 A 
ATOM     39  C   UNL     1       8.413  22.284  26.123  1.00  0.00     0.062 A 
ATOM     40  C   UNL     1       6.546  23.810  25.745  1.00  0.00     0.016 A 
ATOM     41  C   UNL     1       7.999  22.125  27.468  1.00  0.00     0.158 A 
ATOM     42  C   UNL     1       6.200  23.684  27.068  1.00  0.00     0.051 A 
ATOM     43  C   UNL     1       6.926  22.850  27.950  1.00  0.00     0.157 A 
BRANCH  41  44
ATOM     44  O   UNL     1       8.651  21.239  28.344  1.00  0.00    -0.504 OA
ATOM     45  H   UNL     1       9.481  21.527  28.915  1.00  0.00     0.293 HD
ENDBRANCH  41  44
BRANCH  43  46
ATOM     46  O   UNL     1       6.474  22.657  29.234  1.00  0.00    -0.504 OA
ATOM     47  H   UNL     1       7.130  22.600  30.007  1.00  0.00     0.293 HD
ENDBRANCH  43  46
ENDBRANCH  28  38
BRANCH  34  48
ATOM     48  O   UNL     1       8.769  24.125  18.875  1.00  0.00    -0.507 OA
ATOM     49  H   UNL     1       8.573  25.149  18.818  1.00  0.00     0.293 HD
ENDBRANCH  34  48
BRANCH  37  50
ATOM     50  O   UNL     1      13.008  23.182  21.123  1.00  0.00    -0.508 OA
ATOM     51  H   UNL     1      13.288  22.238  21.082  1.00  0.00     0.293 HD
ENDBRANCH  37  50
ENDBRANCH  26  27
ENDBRANCH   5  26
BRANCH   4  52
ATOM     52  O   UNL     1       9.811  20.860  22.662  1.00  0.00    -0.384 OA
ATOM     53  H   UNL     1       9.531  21.800  23.056  1.00  0.00     0.211 HD
ENDBRANCH   4  52
TORSDOF 16
ENDMDL
