MODEL 1
REMARK VINA RESULT:    -4.095      0.000      0.000
REMARK INTER + INTRA:         -11.885
REMARK INTER:                 -10.318
REMARK INTRA:                  -1.567
REMARK UNBOUND:                -1.567
REMARK SMILES CCCCCCCCCCCCCCCCCCCCCCCCCCCC(=O)[O-]
REMARK SMILES IDX 15 1 16 2 17 3 18 4 19 5 20 6 21 7 22 8 23 9 24 10 25 11
REMARK SMILES IDX 26 12 27 13 28 14 29 15 30 16 14 17 13 18 12 19 11 20 10 21
REMARK SMILES IDX 9 22 8 23 7 24 6 25 5 26 4 27 3 28 2 29 1 30
REMARK H PARENT
REMARK Flexibility Score: inf
ROOT
ATOM      1  C   UNL     1      23.138  -8.868  36.043  1.00  0.00     0.000 C 
ENDROOT
BRANCH   1   2
ATOM      2  C   UNL     1      24.223  -9.384  35.076  1.00  0.00     0.000 C 
BRANCH   2   3
ATOM      3  C   UNL     1      23.807  -9.511  33.596  1.00  0.00     0.000 C 
BRANCH   3   4
ATOM      4  C   UNL     1      24.877  -9.109  32.562  1.00  0.00     0.000 C 
BRANCH   4   5
ATOM      5  C   UNL     1      24.514  -9.406  31.097  1.00  0.00     0.000 C 
BRANCH   5   6
ATOM      6  C   UNL     1      25.526  -8.814  30.100  1.00  0.00     0.000 C 
BRANCH   6   7
ATOM      7  C   UNL     1      26.309  -9.897  29.343  1.00  0.00     0.000 C 
BRANCH   7   8
ATOM      8  C   UNL     1      27.810  -9.891  29.682  1.00  0.00     0.000 C 
BRANCH   8   9
ATOM      9  C   UNL     1      28.096 -10.521  31.062  1.00  0.00     0.000 C 
BRANCH   9  10
ATOM     10  C   UNL     1      29.579 -10.857  31.291  1.00  0.00     0.000 C 
BRANCH  10  11
ATOM     11  C   UNL     1      30.519  -9.713  30.887  1.00  0.00     0.000 C 
BRANCH  11  12
ATOM     12  C   UNL     1      30.477  -8.575  31.915  1.00  0.00     0.006 C 
BRANCH  12  13
ATOM     13  C   UNL     1      31.484  -8.821  33.043  1.00  0.00     0.053 C 
BRANCH  13  14
ATOM     14  C   UNL     1      31.906  -7.528  33.664  1.00  0.00     0.041 C 
ATOM     15  O   UNL     1      31.517  -6.434  33.177  1.00  0.00    -0.550 OA
ATOM     16  O   UNL     1      32.697  -7.531  34.806  1.00  0.00    -0.550 OA
ENDBRANCH  13  14
ENDBRANCH  12  13
ENDBRANCH  11  12
ENDBRANCH  10  11
ENDBRANCH   9  10
ENDBRANCH   8   9
ENDBRANCH   7   8
ENDBRANCH   6   7
ENDBRANCH   5   6
ENDBRANCH   4   5
ENDBRANCH   3   4
ENDBRANCH   2   3
ENDBRANCH   1   2
BRANCH   1  17
ATOM     17  C   UNL     1      23.528  -7.613  36.844  1.00  0.00     0.000 C 
BRANCH  17  18
ATOM     18  C   UNL     1      25.012  -7.584  37.256  1.00  0.00     0.000 C 
BRANCH  18  19
ATOM     19  C   UNL     1      25.349  -6.462  38.256  1.00  0.00     0.000 C 
BRANCH  19  20
ATOM     20  C   UNL     1      24.381  -5.257  38.264  1.00  0.00     0.000 C 
BRANCH  20  21
ATOM     21  C   UNL     1      24.993  -3.922  38.729  1.00  0.00     0.000 C 
BRANCH  21  22
ATOM     22  C   UNL     1      24.008  -2.747  38.613  1.00  0.00    -0.000 C 
BRANCH  22  23
ATOM     23  C   UNL     1      23.307  -2.435  39.950  1.00  0.00    -0.000 C 
BRANCH  23  24
ATOM     24  C   UNL     1      22.255  -1.307  39.872  1.00  0.00    -0.000 C 
BRANCH  24  25
ATOM     25  C   UNL     1      20.883  -1.635  40.503  1.00  0.00    -0.000 C 
BRANCH  25  26
ATOM     26  C   UNL     1      20.273  -0.500  41.348  1.00  0.00    -0.000 C 
BRANCH  26  27
ATOM     27  C   UNL     1      21.044  -0.259  42.657  1.00  0.00    -0.000 C 
BRANCH  27  28
ATOM     28  C   UNL     1      20.305  -0.827  43.882  1.00  0.00    -0.000 C 
BRANCH  28  29
ATOM     29  C   UNL     1      21.193  -1.779  44.703  1.00  0.00    -0.003 C 
ATOM     30  C   UNL     1      22.374  -2.281  43.876  1.00  0.00     0.004 C 
ENDBRANCH  28  29
ENDBRANCH  27  28
ENDBRANCH  26  27
ENDBRANCH  25  26
ENDBRANCH  24  25
ENDBRANCH  23  24
ENDBRANCH  22  23
ENDBRANCH  21  22
ENDBRANCH  20  21
ENDBRANCH  19  20
ENDBRANCH  18  19
ENDBRANCH  17  18
ENDBRANCH   1  17
TORSDOF 26
ENDMDL
MODEL 2
REMARK VINA RESULT:    -4.032      3.742     12.487
REMARK INTER + INTRA:         -11.728
REMARK INTER:                 -10.057
REMARK INTRA:                  -1.671
REMARK UNBOUND:                -1.567
REMARK SMILES CCCCCCCCCCCCCCCCCCCCCCCCCCCC(=O)[O-]
REMARK SMILES IDX 15 1 16 2 17 3 18 4 19 5 20 6 21 7 22 8 23 9 24 10 25 11
REMARK SMILES IDX 26 12 27 13 28 14 29 15 30 16 14 17 13 18 12 19 11 20 10 21
REMARK SMILES IDX 9 22 8 23 7 24 6 25 5 26 4 27 3 28 2 29 1 30
REMARK H PARENT
REMARK Flexibility Score: inf
ROOT
ATOM      1  C   UNL     1      23.275  -9.286  36.065  1.00  0.00     0.000 C 
ENDROOT
BRANCH   1   2
ATOM      2  C   UNL     1      24.341  -8.237  36.444  1.00  0.00     0.000 C 
BRANCH   2   3
ATOM      3  C   UNL     1      23.960  -7.262  37.577  1.00  0.00     0.000 C 
BRANCH   3   4
ATOM      4  C   UNL     1      25.063  -6.278  38.013  1.00  0.00     0.000 C 
BRANCH   4   5
ATOM      5  C   UNL     1      24.571  -5.057  38.810  1.00  0.00     0.000 C 
BRANCH   5   6
ATOM      6  C   UNL     1      25.315  -3.763  38.437  1.00  0.00     0.000 C 
BRANCH   6   7
ATOM      7  C   UNL     1      24.398  -2.530  38.461  1.00  0.00     0.000 C 
BRANCH   7   8
ATOM      8  C   UNL     1      23.302  -2.626  39.535  1.00  0.00     0.000 C 
BRANCH   8   9
ATOM      9  C   UNL     1      22.540  -1.295  39.707  1.00  0.00     0.000 C 
BRANCH   9  10
ATOM     10  C   UNL     1      21.063  -1.476  40.099  1.00  0.00     0.000 C 
BRANCH  10  11
ATOM     11  C   UNL     1      20.684  -0.705  41.370  1.00  0.00     0.000 C 
BRANCH  11  12
ATOM     12  C   UNL     1      21.781  -0.825  42.436  1.00  0.00     0.006 C 
BRANCH  12  13
ATOM     13  C   UNL     1      21.371  -1.813  43.533  1.00  0.00     0.053 C 
BRANCH  13  14
ATOM     14  C   UNL     1      22.535  -2.660  43.940  1.00  0.00     0.041 C 
ATOM     15  O   UNL     1      23.098  -2.472  45.051  1.00  0.00    -0.550 OA
ATOM     16  O   UNL     1      22.972  -3.683  43.110  1.00  0.00    -0.550 OA
ENDBRANCH  13  14
ENDBRANCH  12  13
ENDBRANCH  11  12
ENDBRANCH  10  11
ENDBRANCH   9  10
ENDBRANCH   8   9
ENDBRANCH   7   8
ENDBRANCH   6   7
ENDBRANCH   5   6
ENDBRANCH   4   5
ENDBRANCH   3   4
ENDBRANCH   2   3
ENDBRANCH   1   2
BRANCH   1  17
ATOM     17  C   UNL     1      23.820 -10.538  35.358  1.00  0.00     0.000 C 
BRANCH  17  18
ATOM     18  C   UNL     1      25.052 -10.258  34.476  1.00  0.00     0.000 C 
BRANCH  18  19
ATOM     19  C   UNL     1      24.789 -10.463  32.972  1.00  0.00     0.000 C 
BRANCH  19  20
ATOM     20  C   UNL     1      24.081  -9.293  32.250  1.00  0.00     0.000 C 
BRANCH  20  21
ATOM     21  C   UNL     1      24.838  -8.709  31.043  1.00  0.00     0.000 C 
BRANCH  21  22
ATOM     22  C   UNL     1      25.125  -9.761  29.959  1.00  0.00    -0.000 C 
BRANCH  22  23
ATOM     23  C   UNL     1      26.380  -9.423  29.131  1.00  0.00    -0.000 C 
BRANCH  23  24
ATOM     24  C   UNL     1      27.652 -10.190  29.555  1.00  0.00    -0.000 C 
BRANCH  24  25
ATOM     25  C   UNL     1      28.333  -9.683  30.846  1.00  0.00    -0.000 C 
BRANCH  25  26
ATOM     26  C   UNL     1      29.701 -10.324  31.149  1.00  0.00    -0.000 C 
BRANCH  26  27
ATOM     27  C   UNL     1      30.699  -9.325  31.760  1.00  0.00    -0.000 C 
BRANCH  27  28
ATOM     28  C   UNL     1      30.067  -7.942  31.999  1.00  0.00    -0.000 C 
BRANCH  28  29
ATOM     29  C   UNL     1      30.823  -7.139  33.071  1.00  0.00    -0.003 C 
ATOM     30  C   UNL     1      31.803  -8.026  33.836  1.00  0.00     0.004 C 
ENDBRANCH  28  29
ENDBRANCH  27  28
ENDBRANCH  26  27
ENDBRANCH  25  26
ENDBRANCH  24  25
ENDBRANCH  23  24
ENDBRANCH  22  23
ENDBRANCH  21  22
ENDBRANCH  20  21
ENDBRANCH  19  20
ENDBRANCH  18  19
ENDBRANCH  17  18
ENDBRANCH   1  17
TORSDOF 26
ENDMDL
MODEL 3
REMARK VINA RESULT:    -3.870      1.438      3.201
REMARK INTER + INTRA:         -11.320
REMARK INTER:                  -8.858
REMARK INTRA:                  -2.462
REMARK UNBOUND:                -1.567
REMARK SMILES CCCCCCCCCCCCCCCCCCCCCCCCCCCC(=O)[O-]
REMARK SMILES IDX 15 1 16 2 17 3 18 4 19 5 20 6 21 7 22 8 23 9 24 10 25 11
REMARK SMILES IDX 26 12 27 13 28 14 29 15 30 16 14 17 13 18 12 19 11 20 10 21
REMARK SMILES IDX 9 22 8 23 7 24 6 25 5 26 4 27 3 28 2 29 1 30
REMARK H PARENT
REMARK Flexibility Score: inf
ROOT
ATOM      1  C   UNL     1      24.997 -10.090  33.340  1.00  0.00     0.000 C 
ENDROOT
BRANCH   1   2
ATOM      2  C   UNL     1      25.021 -11.495  32.703  1.00  0.00     0.000 C 
BRANCH   2   3
ATOM      3  C   UNL     1      23.919 -11.786  31.663  1.00  0.00     0.000 C 
BRANCH   3   4
ATOM      4  C   UNL     1      22.756 -10.776  31.619  1.00  0.00     0.000 C 
BRANCH   4   5
ATOM      5  C   UNL     1      22.683  -9.919  30.343  1.00  0.00     0.000 C 
BRANCH   5   6
ATOM      6  C   UNL     1      23.202  -8.486  30.557  1.00  0.00     0.000 C 
BRANCH   6   7
ATOM      7  C   UNL     1      24.341  -8.122  29.592  1.00  0.00     0.000 C 
BRANCH   7   8
ATOM      8  C   UNL     1      24.602  -9.217  28.543  1.00  0.00     0.000 C 
BRANCH   8   9
ATOM      9  C   UNL     1      26.086  -9.640  28.503  1.00  0.00     0.000 C 
BRANCH   9  10
ATOM     10  C   UNL     1      26.715  -9.815  29.896  1.00  0.00     0.000 C 
BRANCH  10  11
ATOM     11  C   UNL     1      28.232  -9.588  29.898  1.00  0.00     0.000 C 
BRANCH  11  12
ATOM     12  C   UNL     1      28.801  -9.676  31.321  1.00  0.00     0.006 C 
BRANCH  12  13
ATOM     13  C   UNL     1      30.332  -9.725  31.295  1.00  0.00     0.053 C 
BRANCH  13  14
ATOM     14  C   UNL     1      30.907  -8.383  31.623  1.00  0.00     0.041 C 
ATOM     15  O   UNL     1      30.559  -7.785  32.675  1.00  0.00    -0.550 OA
ATOM     16  O   UNL     1      31.858  -7.812  30.788  1.00  0.00    -0.550 OA
ENDBRANCH  13  14
ENDBRANCH  12  13
ENDBRANCH  11  12
ENDBRANCH  10  11
ENDBRANCH   9  10
ENDBRANCH   8   9
ENDBRANCH   7   8
ENDBRANCH   6   7
ENDBRANCH   5   6
ENDBRANCH   4   5
ENDBRANCH   3   4
ENDBRANCH   2   3
ENDBRANCH   1   2
BRANCH   1  17
ATOM     17  C   UNL     1      24.452 -10.040  34.778  1.00  0.00     0.000 C 
BRANCH  17  18
ATOM     18  C   UNL     1      23.277  -9.060  34.956  1.00  0.00     0.000 C 
BRANCH  18  19
ATOM     19  C   UNL     1      23.018  -8.672  36.424  1.00  0.00     0.000 C 
BRANCH  19  20
ATOM     20  C   UNL     1      23.650  -7.339  36.887  1.00  0.00     0.000 C 
BRANCH  20  21
ATOM     21  C   UNL     1      25.110  -7.434  37.369  1.00  0.00     0.000 C 
BRANCH  21  22
ATOM     22  C   UNL     1      25.478  -6.322  38.367  1.00  0.00    -0.000 C 
BRANCH  22  23
ATOM     23  C   UNL     1      24.459  -5.166  38.357  1.00  0.00    -0.000 C 
BRANCH  23  24
ATOM     24  C   UNL     1      25.083  -3.763  38.534  1.00  0.00    -0.000 C 
BRANCH  24  25
ATOM     25  C   UNL     1      24.075  -2.613  38.759  1.00  0.00    -0.000 C 
BRANCH  25  26
ATOM     26  C   UNL     1      23.365  -2.635  40.126  1.00  0.00    -0.000 C 
BRANCH  26  27
ATOM     27  C   UNL     1      22.026  -1.877  40.107  1.00  0.00    -0.000 C 
BRANCH  27  28
ATOM     28  C   UNL     1      21.466  -1.647  41.521  1.00  0.00    -0.000 C 
BRANCH  28  29
ATOM     29  C   UNL     1      21.553  -0.170  41.945  1.00  0.00    -0.003 C 
ATOM     30  C   UNL     1      22.169   0.684  40.840  1.00  0.00     0.004 C 
ENDBRANCH  28  29
ENDBRANCH  27  28
ENDBRANCH  26  27
ENDBRANCH  25  26
ENDBRANCH  24  25
ENDBRANCH  23  24
ENDBRANCH  22  23
ENDBRANCH  21  22
ENDBRANCH  20  21
ENDBRANCH  19  20
ENDBRANCH  18  19
ENDBRANCH  17  18
ENDBRANCH   1  17
TORSDOF 26
ENDMDL
MODEL 4
REMARK VINA RESULT:    -3.836      1.156      2.046
REMARK INTER + INTRA:         -11.235
REMARK INTER:                  -9.818
REMARK INTRA:                  -1.417
REMARK UNBOUND:                -1.567
REMARK SMILES CCCCCCCCCCCCCCCCCCCCCCCCCCCC(=O)[O-]
REMARK SMILES IDX 15 1 16 2 17 3 18 4 19 5 20 6 21 7 22 8 23 9 24 10 25 11
REMARK SMILES IDX 26 12 27 13 28 14 29 15 30 16 14 17 13 18 12 19 11 20 10 21
REMARK SMILES IDX 9 22 8 23 7 24 6 25 5 26 4 27 3 28 2 29 1 30
REMARK H PARENT
REMARK Flexibility Score: inf
ROOT
ATOM      1  C   UNL     1      23.788  -7.331  36.891  1.00  0.00     0.000 C 
ENDROOT
BRANCH   1   2
ATOM      2  C   UNL     1      23.296  -8.592  36.150  1.00  0.00     0.000 C 
BRANCH   2   3
ATOM      3  C   UNL     1      24.209  -9.114  35.022  1.00  0.00     0.000 C 
BRANCH   3   4
ATOM      4  C   UNL     1      23.597 -10.197  34.112  1.00  0.00     0.000 C 
BRANCH   4   5
ATOM      5  C   UNL     1      23.113  -9.699  32.738  1.00  0.00     0.000 C 
BRANCH   5   6
ATOM      6  C   UNL     1      23.677 -10.529  31.571  1.00  0.00     0.000 C 
BRANCH   6   7
ATOM      7  C   UNL     1      25.134 -10.170  31.244  1.00  0.00     0.000 C 
BRANCH   7   8
ATOM      8  C   UNL     1      25.281  -9.469  29.882  1.00  0.00     0.000 C 
BRANCH   8   9
ATOM      9  C   UNL     1      26.724  -9.548  29.341  1.00  0.00     0.000 C 
BRANCH   9  10
ATOM     10  C   UNL     1      27.586 -10.615  30.039  1.00  0.00     0.000 C 
BRANCH  10  11
ATOM     11  C   UNL     1      29.077 -10.254  30.063  1.00  0.00     0.000 C 
BRANCH  11  12
ATOM     12  C   UNL     1      29.412  -9.372  31.273  1.00  0.00     0.006 C 
BRANCH  12  13
ATOM     13  C   UNL     1      30.926  -9.308  31.500  1.00  0.00     0.053 C 
BRANCH  13  14
ATOM     14  C   UNL     1      31.414  -7.897  31.406  1.00  0.00     0.041 C 
ATOM     15  O   UNL     1      32.431  -7.622  30.717  1.00  0.00    -0.550 OA
ATOM     16  O   UNL     1      30.721  -6.879  32.049  1.00  0.00    -0.550 OA
ENDBRANCH  13  14
ENDBRANCH  12  13
ENDBRANCH  11  12
ENDBRANCH  10  11
ENDBRANCH   9  10
ENDBRANCH   8   9
ENDBRANCH   7   8
ENDBRANCH   6   7
ENDBRANCH   5   6
ENDBRANCH   4   5
ENDBRANCH   3   4
ENDBRANCH   2   3
ENDBRANCH   1   2
BRANCH   1  17
ATOM     17  C   UNL     1      25.115  -7.501  37.651  1.00  0.00     0.000 C 
BRANCH  17  18
ATOM     18  C   UNL     1      25.599  -6.210  38.337  1.00  0.00     0.000 C 
BRANCH  18  19
ATOM     19  C   UNL     1      24.497  -5.144  38.486  1.00  0.00     0.000 C 
BRANCH  19  20
ATOM     20  C   UNL     1      24.981  -3.729  38.880  1.00  0.00     0.000 C 
BRANCH  20  21
ATOM     21  C   UNL     1      23.927  -2.614  38.757  1.00  0.00     0.000 C 
BRANCH  21  22
ATOM     22  C   UNL     1      23.178  -2.359  40.076  1.00  0.00    -0.000 C 
BRANCH  22  23
ATOM     23  C   UNL     1      21.772  -1.771  39.848  1.00  0.00    -0.000 C 
BRANCH  23  24
ATOM     24  C   UNL     1      21.663  -0.253  40.112  1.00  0.00    -0.000 C 
BRANCH  24  25
ATOM     25  C   UNL     1      21.722   0.168  41.598  1.00  0.00    -0.000 C 
BRANCH  25  26
ATOM     26  C   UNL     1      20.471  -0.193  42.422  1.00  0.00    -0.000 C 
BRANCH  26  27
ATOM     27  C   UNL     1      20.819  -0.675  43.841  1.00  0.00    -0.000 C 
BRANCH  27  28
ATOM     28  C   UNL     1      21.415  -2.094  43.846  1.00  0.00    -0.000 C 
BRANCH  28  29
ATOM     29  C   UNL     1      22.378  -2.312  45.027  1.00  0.00    -0.003 C 
ATOM     30  C   UNL     1      21.614  -2.452  46.341  1.00  0.00     0.004 C 
ENDBRANCH  28  29
ENDBRANCH  27  28
ENDBRANCH  26  27
ENDBRANCH  25  26
ENDBRANCH  24  25
ENDBRANCH  23  24
ENDBRANCH  22  23
ENDBRANCH  21  22
ENDBRANCH  20  21
ENDBRANCH  19  20
ENDBRANCH  18  19
ENDBRANCH  17  18
ENDBRANCH   1  17
TORSDOF 26
ENDMDL
MODEL 5
REMARK VINA RESULT:    -3.803      5.588      8.146
REMARK INTER + INTRA:         -11.150
REMARK INTER:                  -8.325
REMARK INTRA:                  -2.826
REMARK UNBOUND:                -1.567
REMARK SMILES CCCCCCCCCCCCCCCCCCCCCCCCCCCC(=O)[O-]
REMARK SMILES IDX 15 1 16 2 17 3 18 4 19 5 20 6 21 7 22 8 23 9 24 10 25 11
REMARK SMILES IDX 26 12 27 13 28 14 29 15 30 16 14 17 13 18 12 19 11 20 10 21
REMARK SMILES IDX 9 22 8 23 7 24 6 25 5 26 4 27 3 28 2 29 1 30
REMARK H PARENT
REMARK Flexibility Score: inf
ROOT
ATOM      1  C   UNL     1      24.368  -8.357  30.578  1.00  0.00     0.000 C 
ENDROOT
BRANCH   1   2
ATOM      2  C   UNL     1      25.064  -9.663  30.142  1.00  0.00     0.000 C 
BRANCH   2   3
ATOM      3  C   UNL     1      26.361  -9.498  29.324  1.00  0.00     0.000 C 
BRANCH   3   4
ATOM      4  C   UNL     1      26.752 -10.699  28.440  1.00  0.00     0.000 C 
BRANCH   4   5
ATOM      5  C   UNL     1      27.922 -11.547  28.971  1.00  0.00     0.000 C 
BRANCH   5   6
ATOM      6  C   UNL     1      27.808 -11.844  30.476  1.00  0.00     0.000 C 
BRANCH   6   7
ATOM      7  C   UNL     1      29.093 -11.494  31.243  1.00  0.00     0.000 C 
BRANCH   7   8
ATOM      8  C   UNL     1      30.179 -10.888  30.338  1.00  0.00     0.000 C 
BRANCH   8   9
ATOM      9  C   UNL     1      31.287 -10.186  31.151  1.00  0.00     0.000 C 
BRANCH   9  10
ATOM     10  C   UNL     1      31.187  -8.651  31.132  1.00  0.00     0.000 C 
BRANCH  10  11
ATOM     11  C   UNL     1      29.964  -8.124  31.892  1.00  0.00     0.000 C 
BRANCH  11  12
ATOM     12  C   UNL     1      30.317  -6.869  32.703  1.00  0.00     0.006 C 
BRANCH  12  13
ATOM     13  C   UNL     1      31.820  -6.814  32.998  1.00  0.00     0.053 C 
BRANCH  13  14
ATOM     14  C   UNL     1      32.147  -7.620  34.215  1.00  0.00     0.041 C 
ATOM     15  O   UNL     1      31.485  -8.656  34.486  1.00  0.00    -0.550 OA
ATOM     16  O   UNL     1      33.209  -7.247  35.029  1.00  0.00    -0.550 OA
ENDBRANCH  13  14
ENDBRANCH  12  13
ENDBRANCH  11  12
ENDBRANCH  10  11
ENDBRANCH   9  10
ENDBRANCH   8   9
ENDBRANCH   7   8
ENDBRANCH   6   7
ENDBRANCH   5   6
ENDBRANCH   4   5
ENDBRANCH   3   4
ENDBRANCH   2   3
ENDBRANCH   1   2
BRANCH   1  17
ATOM     17  C   UNL     1      23.995  -7.406  29.427  1.00  0.00     0.000 C 
BRANCH  17  18
ATOM     18  C   UNL     1      23.051  -8.039  28.388  1.00  0.00     0.000 C 
BRANCH  18  19
ATOM     19  C   UNL     1      21.606  -8.210  28.896  1.00  0.00     0.000 C 
BRANCH  19  20
ATOM     20  C   UNL     1      20.959  -9.589  28.628  1.00  0.00     0.000 C 
BRANCH  20  21
ATOM     21  C   UNL     1      21.478 -10.742  29.507  1.00  0.00     0.000 C 
BRANCH  21  22
ATOM     22  C   UNL     1      20.473 -11.154  30.597  1.00  0.00    -0.000 C 
BRANCH  22  23
ATOM     23  C   UNL     1      20.558 -10.251  31.843  1.00  0.00    -0.000 C 
BRANCH  23  24
ATOM     24  C   UNL     1      21.997  -9.952  32.319  1.00  0.00    -0.000 C 
BRANCH  24  25
ATOM     25  C   UNL     1      22.724 -11.127  33.010  1.00  0.00    -0.000 C 
BRANCH  25  26
ATOM     26  C   UNL     1      23.968 -10.726  33.826  1.00  0.00    -0.000 C 
BRANCH  26  27
ATOM     27  C   UNL     1      23.970  -9.235  34.204  1.00  0.00    -0.000 C 
BRANCH  27  28
ATOM     28  C   UNL     1      24.030  -9.020  35.727  1.00  0.00    -0.000 C 
BRANCH  28  29
ATOM     29  C   UNL     1      22.762  -9.531  36.433  1.00  0.00    -0.003 C 
ATOM     30  C   UNL     1      21.519  -8.801  35.930  1.00  0.00     0.004 C 
ENDBRANCH  28  29
ENDBRANCH  27  28
ENDBRANCH  26  27
ENDBRANCH  25  26
ENDBRANCH  24  25
ENDBRANCH  23  24
ENDBRANCH  22  23
ENDBRANCH  21  22
ENDBRANCH  20  21
ENDBRANCH  19  20
ENDBRANCH  18  19
ENDBRANCH  17  18
ENDBRANCH   1  17
TORSDOF 26
ENDMDL
MODEL 6
REMARK VINA RESULT:    -3.718      3.968     13.232
REMARK INTER + INTRA:         -10.936
REMARK INTER:                  -9.143
REMARK INTRA:                  -1.793
REMARK UNBOUND:                -1.567
REMARK SMILES CCCCCCCCCCCCCCCCCCCCCCCCCCCC(=O)[O-]
REMARK SMILES IDX 15 1 16 2 17 3 18 4 19 5 20 6 21 7 22 8 23 9 24 10 25 11
REMARK SMILES IDX 26 12 27 13 28 14 29 15 30 16 14 17 13 18 12 19 11 20 10 21
REMARK SMILES IDX 9 22 8 23 7 24 6 25 5 26 4 27 3 28 2 29 1 30
REMARK H PARENT
REMARK Flexibility Score: inf
ROOT
ATOM      1  C   UNL     1      25.222  -6.659  38.177  1.00  0.00     0.000 C 
ENDROOT
BRANCH   1   2
ATOM      2  C   UNL     1      24.405  -5.353  38.262  1.00  0.00     0.000 C 
BRANCH   2   3
ATOM      3  C   UNL     1      25.174  -4.102  38.732  1.00  0.00     0.000 C 
BRANCH   3   4
ATOM      4  C   UNL     1      24.481  -2.751  38.467  1.00  0.00     0.000 C 
BRANCH   4   5
ATOM      5  C   UNL     1      23.035  -2.646  38.981  1.00  0.00     0.000 C 
BRANCH   5   6
ATOM      6  C   UNL     1      22.920  -1.819  40.274  1.00  0.00     0.000 C 
BRANCH   6   7
ATOM      7  C   UNL     1      21.774  -0.797  40.219  1.00  0.00     0.000 C 
BRANCH   7   8
ATOM      8  C   UNL     1      22.162   0.561  40.828  1.00  0.00     0.000 C 
BRANCH   8   9
ATOM      9  C   UNL     1      21.627   0.726  42.266  1.00  0.00     0.000 C 
BRANCH   9  10
ATOM     10  C   UNL     1      20.301  -0.012  42.519  1.00  0.00     0.000 C 
BRANCH  10  11
ATOM     11  C   UNL     1      19.977  -0.160  44.012  1.00  0.00     0.000 C 
BRANCH  11  12
ATOM     12  C   UNL     1      20.747  -1.334  44.630  1.00  0.00     0.006 C 
BRANCH  12  13
ATOM     13  C   UNL     1      21.396  -2.196  43.541  1.00  0.00     0.053 C 
BRANCH  13  14
ATOM     14  C   UNL     1      22.600  -2.904  44.077  1.00  0.00     0.041 C 
ATOM     15  O   UNL     1      23.139  -2.516  45.147  1.00  0.00    -0.550 OA
ATOM     16  O   UNL     1      23.103  -4.015  43.415  1.00  0.00    -0.550 OA
ENDBRANCH  13  14
ENDBRANCH  12  13
ENDBRANCH  11  12
ENDBRANCH  10  11
ENDBRANCH   9  10
ENDBRANCH   8   9
ENDBRANCH   7   8
ENDBRANCH   6   7
ENDBRANCH   5   6
ENDBRANCH   4   5
ENDBRANCH   3   4
ENDBRANCH   2   3
ENDBRANCH   1   2
BRANCH   1  17
ATOM     17  C   UNL     1      24.818  -7.604  37.032  1.00  0.00     0.000 C 
BRANCH  17  18
ATOM     18  C   UNL     1      23.304  -7.610  36.747  1.00  0.00     0.000 C 
BRANCH  18  19
ATOM     19  C   UNL     1      22.809  -8.914  36.092  1.00  0.00     0.000 C 
BRANCH  19  20
ATOM     20  C   UNL     1      23.676  -9.454  34.931  1.00  0.00     0.000 C 
BRANCH  20  21
ATOM     21  C   UNL     1      22.898 -10.116  33.780  1.00  0.00     0.000 C 
BRANCH  21  22
ATOM     22  C   UNL     1      23.665 -10.077  32.447  1.00  0.00    -0.000 C 
BRANCH  22  23
ATOM     23  C   UNL     1      25.191 -10.010  32.651  1.00  0.00    -0.000 C 
BRANCH  23  24
ATOM     24  C   UNL     1      25.947 -11.294  32.246  1.00  0.00    -0.000 C 
BRANCH  24  25
ATOM     25  C   UNL     1      26.931 -11.140  31.065  1.00  0.00    -0.000 C 
BRANCH  25  26
ATOM     26  C   UNL     1      27.156  -9.689  30.597  1.00  0.00    -0.000 C 
BRANCH  26  27
ATOM     27  C   UNL     1      26.863  -9.501  29.098  1.00  0.00    -0.000 C 
BRANCH  27  28
ATOM     28  C   UNL     1      25.355  -9.408  28.806  1.00  0.00    -0.000 C 
BRANCH  28  29
ATOM     29  C   UNL     1      24.717  -8.164  29.448  1.00  0.00    -0.003 C 
ATOM     30  C   UNL     1      23.459  -7.740  28.696  1.00  0.00     0.004 C 
ENDBRANCH  28  29
ENDBRANCH  27  28
ENDBRANCH  26  27
ENDBRANCH  25  26
ENDBRANCH  24  25
ENDBRANCH  23  24
ENDBRANCH  22  23
ENDBRANCH  21  22
ENDBRANCH  20  21
ENDBRANCH  19  20
ENDBRANCH  18  19
ENDBRANCH  17  18
ENDBRANCH   1  17
TORSDOF 26
ENDMDL
MODEL 7
REMARK VINA RESULT:    -3.708      1.203      2.521
REMARK INTER + INTRA:         -10.911
REMARK INTER:                  -9.177
REMARK INTRA:                  -1.735
REMARK UNBOUND:                -1.567
REMARK SMILES CCCCCCCCCCCCCCCCCCCCCCCCCCCC(=O)[O-]
REMARK SMILES IDX 15 1 16 2 17 3 18 4 19 5 20 6 21 7 22 8 23 9 24 10 25 11
REMARK SMILES IDX 26 12 27 13 28 14 29 15 30 16 14 17 13 18 12 19 11 20 10 21
REMARK SMILES IDX 9 22 8 23 7 24 6 25 5 26 4 27 3 28 2 29 1 30
REMARK H PARENT
REMARK Flexibility Score: inf
ROOT
ATOM      1  C   UNL     1      23.658  -7.392  36.856  1.00  0.00     0.000 C 
ENDROOT
BRANCH   1   2
ATOM      2  C   UNL     1      23.284  -8.640  36.030  1.00  0.00     0.000 C 
BRANCH   2   3
ATOM      3  C   UNL     1      24.305  -9.073  34.958  1.00  0.00     0.000 C 
BRANCH   3   4
ATOM      4  C   UNL     1      23.819 -10.147  33.965  1.00  0.00     0.000 C 
BRANCH   4   5
ATOM      5  C   UNL     1      23.071  -9.607  32.734  1.00  0.00     0.000 C 
BRANCH   5   6
ATOM      6  C   UNL     1      23.799  -9.913  31.413  1.00  0.00     0.000 C 
BRANCH   6   7
ATOM      7  C   UNL     1      24.654  -8.733  30.925  1.00  0.00     0.000 C 
BRANCH   7   8
ATOM      8  C   UNL     1      25.081  -8.878  29.455  1.00  0.00     0.000 C 
BRANCH   8   9
ATOM      9  C   UNL     1      26.514  -9.437  29.319  1.00  0.00     0.000 C 
BRANCH   9  10
ATOM     10  C   UNL     1      26.707 -10.807  29.993  1.00  0.00     0.000 C 
BRANCH  10  11
ATOM     11  C   UNL     1      27.826 -10.802  31.042  1.00  0.00     0.000 C 
BRANCH  11  12
ATOM     12  C   UNL     1      28.487  -9.421  31.137  1.00  0.00     0.006 C 
BRANCH  12  13
ATOM     13  C   UNL     1      30.015  -9.543  31.119  1.00  0.00     0.053 C 
BRANCH  13  14
ATOM     14  C   UNL     1      30.637  -8.509  32.003  1.00  0.00     0.041 C 
ATOM     15  O   UNL     1      31.839  -8.622  32.361  1.00  0.00    -0.550 OA
ATOM     16  O   UNL     1      29.901  -7.400  32.398  1.00  0.00    -0.550 OA
ENDBRANCH  13  14
ENDBRANCH  12  13
ENDBRANCH  11  12
ENDBRANCH  10  11
ENDBRANCH   9  10
ENDBRANCH   8   9
ENDBRANCH   7   8
ENDBRANCH   6   7
ENDBRANCH   5   6
ENDBRANCH   4   5
ENDBRANCH   3   4
ENDBRANCH   2   3
ENDBRANCH   1   2
BRANCH   1  17
ATOM     17  C   UNL     1      25.122  -7.340  37.326  1.00  0.00     0.000 C 
BRANCH  17  18
ATOM     18  C   UNL     1      25.383  -6.274  38.407  1.00  0.00     0.000 C 
BRANCH  18  19
ATOM     19  C   UNL     1      24.398  -5.091  38.352  1.00  0.00     0.000 C 
BRANCH  19  20
ATOM     20  C   UNL     1      24.990  -3.708  38.711  1.00  0.00     0.000 C 
BRANCH  20  21
ATOM     21  C   UNL     1      23.994  -2.534  38.668  1.00  0.00     0.000 C 
BRANCH  21  22
ATOM     22  C   UNL     1      23.036  -2.527  39.871  1.00  0.00    -0.000 C 
BRANCH  22  23
ATOM     23  C   UNL     1      23.763  -2.803  41.201  1.00  0.00    -0.000 C 
BRANCH  23  24
ATOM     24  C   UNL     1      22.902  -2.567  42.462  1.00  0.00    -0.000 C 
BRANCH  24  25
ATOM     25  C   UNL     1      21.401  -2.307  42.201  1.00  0.00    -0.000 C 
BRANCH  25  26
ATOM     26  C   UNL     1      20.735  -1.327  43.185  1.00  0.00    -0.000 C 
BRANCH  26  27
ATOM     27  C   UNL     1      20.740   0.123  42.669  1.00  0.00    -0.000 C 
BRANCH  27  28
ATOM     28  C   UNL     1      21.393   0.246  41.281  1.00  0.00    -0.000 C 
BRANCH  28  29
ATOM     29  C   UNL     1      22.471   1.343  41.243  1.00  0.00    -0.003 C 
ATOM     30  C   UNL     1      22.317   2.306  42.418  1.00  0.00     0.004 C 
ENDBRANCH  28  29
ENDBRANCH  27  28
ENDBRANCH  26  27
ENDBRANCH  25  26
ENDBRANCH  24  25
ENDBRANCH  23  24
ENDBRANCH  22  23
ENDBRANCH  21  22
ENDBRANCH  20  21
ENDBRANCH  19  20
ENDBRANCH  18  19
ENDBRANCH  17  18
ENDBRANCH   1  17
TORSDOF 26
ENDMDL
MODEL 8
REMARK VINA RESULT:    -3.691      3.739     13.369
REMARK INTER + INTRA:         -10.868
REMARK INTER:                  -9.323
REMARK INTRA:                  -1.545
REMARK UNBOUND:                -1.567
REMARK SMILES CCCCCCCCCCCCCCCCCCCCCCCCCCCC(=O)[O-]
REMARK SMILES IDX 15 1 16 2 17 3 18 4 19 5 20 6 21 7 22 8 23 9 24 10 25 11
REMARK SMILES IDX 26 12 27 13 28 14 29 15 30 16 14 17 13 18 12 19 11 20 10 21
REMARK SMILES IDX 9 22 8 23 7 24 6 25 5 26 4 27 3 28 2 29 1 30
REMARK H PARENT
REMARK Flexibility Score: inf
ROOT
ATOM      1  C   UNL     1      25.165  -6.813  37.958  1.00  0.00     0.000 C 
ENDROOT
BRANCH   1   2
ATOM      2  C   UNL     1      24.352  -5.519  38.169  1.00  0.00     0.000 C 
BRANCH   2   3
ATOM      3  C   UNL     1      25.130  -4.318  38.745  1.00  0.00     0.000 C 
BRANCH   3   4
ATOM      4  C   UNL     1      24.457  -2.941  38.577  1.00  0.00     0.000 C 
BRANCH   4   5
ATOM      5  C   UNL     1      23.032  -2.836  39.149  1.00  0.00     0.000 C 
BRANCH   5   6
ATOM      6  C   UNL     1      22.924  -1.814  40.294  1.00  0.00     0.000 C 
BRANCH   6   7
ATOM      7  C   UNL     1      21.804  -0.787  40.062  1.00  0.00     0.000 C 
BRANCH   7   8
ATOM      8  C   UNL     1      22.126   0.589  40.668  1.00  0.00     0.000 C 
BRANCH   8   9
ATOM      9  C   UNL     1      21.685   0.692  42.144  1.00  0.00     0.000 C 
BRANCH   9  10
ATOM     10  C   UNL     1      20.331   0.019  42.430  1.00  0.00     0.000 C 
BRANCH  10  11
ATOM     11  C   UNL     1      20.015  -0.071  43.929  1.00  0.00     0.000 C 
BRANCH  11  12
ATOM     12  C   UNL     1      20.771  -1.235  44.583  1.00  0.00     0.006 C 
BRANCH  12  13
ATOM     13  C   UNL     1      21.312  -2.200  43.522  1.00  0.00     0.053 C 
BRANCH  13  14
ATOM     14  C   UNL     1      22.547  -2.885  44.015  1.00  0.00     0.041 C 
ATOM     15  O   UNL     1      23.061  -2.552  45.115  1.00  0.00    -0.550 OA
ATOM     16  O   UNL     1      23.108  -3.919  43.277  1.00  0.00    -0.550 OA
ENDBRANCH  13  14
ENDBRANCH  12  13
ENDBRANCH  11  12
ENDBRANCH  10  11
ENDBRANCH   9  10
ENDBRANCH   8   9
ENDBRANCH   7   8
ENDBRANCH   6   7
ENDBRANCH   5   6
ENDBRANCH   4   5
ENDBRANCH   3   4
ENDBRANCH   2   3
ENDBRANCH   1   2
BRANCH   1  17
ATOM     17  C   UNL     1      24.793  -7.613  36.697  1.00  0.00     0.000 C 
BRANCH  17  18
ATOM     18  C   UNL     1      23.363  -8.186  36.733  1.00  0.00     0.000 C 
BRANCH  18  19
ATOM     19  C   UNL     1      23.218  -9.520  35.976  1.00  0.00     0.000 C 
BRANCH  19  20
ATOM     20  C   UNL     1      24.393  -9.894  35.043  1.00  0.00     0.000 C 
BRANCH  20  21
ATOM     21  C   UNL     1      24.014 -10.127  33.569  1.00  0.00     0.000 C 
BRANCH  21  22
ATOM     22  C   UNL     1      25.018  -9.491  32.592  1.00  0.00    -0.000 C 
BRANCH  22  23
ATOM     23  C   UNL     1      24.773  -9.926  31.134  1.00  0.00    -0.000 C 
BRANCH  23  24
ATOM     24  C   UNL     1      25.171  -8.872  30.077  1.00  0.00    -0.000 C 
BRANCH  24  25
ATOM     25  C   UNL     1      26.344  -9.270  29.153  1.00  0.00    -0.000 C 
BRANCH  25  26
ATOM     26  C   UNL     1      26.780 -10.744  29.262  1.00  0.00    -0.000 C 
BRANCH  26  27
ATOM     27  C   UNL     1      28.255 -10.894  29.674  1.00  0.00    -0.000 C 
BRANCH  27  28
ATOM     28  C   UNL     1      28.565 -10.178  31.000  1.00  0.00    -0.000 C 
BRANCH  28  29
ATOM     29  C   UNL     1      30.066 -10.212  31.338  1.00  0.00    -0.003 C 
ATOM     30  C   UNL     1      30.672  -8.812  31.291  1.00  0.00     0.004 C 
ENDBRANCH  28  29
ENDBRANCH  27  28
ENDBRANCH  26  27
ENDBRANCH  25  26
ENDBRANCH  24  25
ENDBRANCH  23  24
ENDBRANCH  22  23
ENDBRANCH  21  22
ENDBRANCH  20  21
ENDBRANCH  19  20
ENDBRANCH  18  19
ENDBRANCH  17  18
ENDBRANCH   1  17
TORSDOF 26
ENDMDL
MODEL 9
REMARK VINA RESULT:    -3.578      2.180      4.940
REMARK INTER + INTRA:         -10.584
REMARK INTER:                  -7.672
REMARK INTRA:                  -2.912
REMARK UNBOUND:                -1.567
REMARK SMILES CCCCCCCCCCCCCCCCCCCCCCCCCCCC(=O)[O-]
REMARK SMILES IDX 15 1 16 2 17 3 18 4 19 5 20 6 21 7 22 8 23 9 24 10 25 11
REMARK SMILES IDX 26 12 27 13 28 14 29 15 30 16 14 17 13 18 12 19 11 20 10 21
REMARK SMILES IDX 9 22 8 23 7 24 6 25 5 26 4 27 3 28 2 29 1 30
REMARK H PARENT
REMARK Flexibility Score: inf
ROOT
ATOM      1  C   UNL     1      25.129 -11.079  34.051  1.00  0.00     0.000 C 
ENDROOT
BRANCH   1   2
ATOM      2  C   UNL     1      24.712 -10.618  32.638  1.00  0.00     0.000 C 
BRANCH   2   3
ATOM      3  C   UNL     1      24.421  -9.113  32.476  1.00  0.00     0.000 C 
BRANCH   3   4
ATOM      4  C   UNL     1      23.455  -8.736  31.335  1.00  0.00     0.000 C 
BRANCH   4   5
ATOM      5  C   UNL     1      23.976  -7.662  30.365  1.00  0.00     0.000 C 
BRANCH   5   6
ATOM      6  C   UNL     1      23.649  -7.977  28.895  1.00  0.00     0.000 C 
BRANCH   6   7
ATOM      7  C   UNL     1      23.659  -9.485  28.600  1.00  0.00     0.000 C 
BRANCH   7   8
ATOM      8  C   UNL     1      24.969  -9.953  27.944  1.00  0.00     0.000 C 
BRANCH   8   9
ATOM      9  C   UNL     1      25.969 -10.512  28.978  1.00  0.00     0.000 C 
BRANCH   9  10
ATOM     10  C   UNL     1      27.076  -9.516  29.365  1.00  0.00     0.000 C 
BRANCH  10  11
ATOM     11  C   UNL     1      28.317 -10.203  29.950  1.00  0.00     0.000 C 
BRANCH  11  12
ATOM     12  C   UNL     1      28.781  -9.503  31.235  1.00  0.00     0.006 C 
BRANCH  12  13
ATOM     13  C   UNL     1      30.310  -9.439  31.301  1.00  0.00     0.053 C 
BRANCH  13  14
ATOM     14  C   UNL     1      30.753  -8.384  32.264  1.00  0.00     0.041 C 
ATOM     15  O   UNL     1      31.278  -8.707  33.362  1.00  0.00    -0.550 OA
ATOM     16  O   UNL     1      30.620  -7.042  31.932  1.00  0.00    -0.550 OA
ENDBRANCH  13  14
ENDBRANCH  12  13
ENDBRANCH  11  12
ENDBRANCH  10  11
ENDBRANCH   9  10
ENDBRANCH   8   9
ENDBRANCH   7   8
ENDBRANCH   6   7
ENDBRANCH   5   6
ENDBRANCH   4   5
ENDBRANCH   3   4
ENDBRANCH   2   3
ENDBRANCH   1   2
BRANCH   1  17
ATOM     17  C   UNL     1      24.171 -12.086  34.712  1.00  0.00     0.000 C 
BRANCH  17  18
ATOM     18  C   UNL     1      22.759 -12.086  34.097  1.00  0.00     0.000 C 
BRANCH  18  19
ATOM     19  C   UNL     1      21.640 -11.853  35.131  1.00  0.00     0.000 C 
BRANCH  19  20
ATOM     20  C   UNL     1      22.102 -11.347  36.517  1.00  0.00     0.000 C 
BRANCH  20  21
ATOM     21  C   UNL     1      21.613  -9.938  36.900  1.00  0.00     0.000 C 
BRANCH  21  22
ATOM     22  C   UNL     1      22.296  -8.831  36.079  1.00  0.00    -0.000 C 
BRANCH  22  23
ATOM     23  C   UNL     1      23.778  -8.648  36.460  1.00  0.00    -0.000 C 
BRANCH  23  24
ATOM     24  C   UNL     1      24.173  -7.198  36.815  1.00  0.00    -0.000 C 
BRANCH  24  25
ATOM     25  C   UNL     1      25.168  -7.050  37.988  1.00  0.00    -0.000 C 
BRANCH  25  26
ATOM     26  C   UNL     1      25.505  -5.596  38.370  1.00  0.00    -0.000 C 
BRANCH  26  27
ATOM     27  C   UNL     1      24.249  -4.750  38.638  1.00  0.00    -0.000 C 
BRANCH  27  28
ATOM     28  C   UNL     1      24.465  -3.263  38.306  1.00  0.00    -0.000 C 
BRANCH  28  29
ATOM     29  C   UNL     1      23.652  -2.340  39.230  1.00  0.00    -0.003 C 
ATOM     30  C   UNL     1      23.631  -2.873  40.660  1.00  0.00     0.004 C 
ENDBRANCH  28  29
ENDBRANCH  27  28
ENDBRANCH  26  27
ENDBRANCH  25  26
ENDBRANCH  24  25
ENDBRANCH  23  24
ENDBRANCH  22  23
ENDBRANCH  21  22
ENDBRANCH  20  21
ENDBRANCH  19  20
ENDBRANCH  18  19
ENDBRANCH  17  18
ENDBRANCH   1  17
TORSDOF 26
ENDMDL
