MODEL 1
REMARK VINA RESULT:    -4.309      0.000      0.000
REMARK INTER + INTRA:         -11.016
REMARK INTER:                  -8.087
REMARK INTRA:                  -2.929
REMARK UNBOUND:                -2.929
REMARK SMILES CCCCCCCCC=CCCCCCCCC(=O)[O-]
REMARK SMILES IDX 10 1 9 2 11 3 12 4 13 5 14 6 15 7 16 8 17 9 18 10 19 11
REMARK SMILES IDX 20 12 8 13 7 14 6 15 5 16 4 17 3 18 2 19 1 20
REMARK H PARENT
REMARK Flexibility Score: inf
ROOT
ATOM      1  C   UNL     1     -21.074  10.644  37.343  1.00  0.00    -0.031 C 
ATOM      2  C   UNL     1     -20.295  11.112  38.329  1.00  0.00    -0.031 C 
ENDROOT
BRANCH   1   3
ATOM      3  C   UNL     1     -21.034   9.199  36.925  1.00  0.00     0.027 C 
BRANCH   3   4
ATOM      4  C   UNL     1     -19.595   8.735  36.668  1.00  0.00     0.004 C 
BRANCH   4   5
ATOM      5  C   UNL     1     -19.083   9.249  35.318  1.00  0.00     0.000 C 
BRANCH   5   6
ATOM      6  C   UNL     1     -17.789  10.057  35.491  1.00  0.00     0.000 C 
BRANCH   6   7
ATOM      7  C   UNL     1     -17.883  11.476  34.902  1.00  0.00     0.000 C 
BRANCH   7   8
ATOM      8  C   UNL     1     -19.292  11.898  34.436  1.00  0.00     0.006 C 
BRANCH   8   9
ATOM      9  C   UNL     1     -19.771  13.245  35.000  1.00  0.00     0.053 C 
BRANCH   9  10
ATOM     10  C   UNL     1     -21.231  13.471  34.751  1.00  0.00     0.041 C 
ATOM     11  O   UNL     1     -21.673  13.516  33.572  1.00  0.00    -0.550 OA
ATOM     12  O   UNL     1     -22.098  13.667  35.818  1.00  0.00    -0.550 OA
ENDBRANCH   9  10
ENDBRANCH   8   9
ENDBRANCH   7   8
ENDBRANCH   6   7
ENDBRANCH   5   6
ENDBRANCH   4   5
ENDBRANCH   3   4
ENDBRANCH   1   3
BRANCH   2  13
ATOM     13  C   UNL     1     -20.334  12.556  38.747  1.00  0.00     0.027 C 
BRANCH  13  14
ATOM     14  C   UNL     1     -18.970  13.230  38.539  1.00  0.00     0.004 C 
BRANCH  14  15
ATOM     15  C   UNL     1     -17.815  12.218  38.483  1.00  0.00     0.000 C 
BRANCH  15  16
ATOM     16  C   UNL     1     -16.482  12.863  38.068  1.00  0.00     0.000 C 
BRANCH  16  17
ATOM     17  C   UNL     1     -16.590  14.386  37.876  1.00  0.00    -0.000 C 
BRANCH  17  18
ATOM     18  C   UNL     1     -15.550  15.186  38.687  1.00  0.00    -0.000 C 
BRANCH  18  19
ATOM     19  C   UNL     1     -15.848  15.168  40.194  1.00  0.00    -0.003 C 
ATOM     20  C   UNL     1     -17.197  15.811  40.498  1.00  0.00     0.004 C 
ENDBRANCH  18  19
ENDBRANCH  17  18
ENDBRANCH  16  17
ENDBRANCH  15  16
ENDBRANCH  14  15
ENDBRANCH  13  14
ENDBRANCH   2  13
TORSDOF 15
ENDMDL
MODEL 2
REMARK VINA RESULT:    -4.308      8.532     10.511
REMARK INTER + INTRA:         -11.014
REMARK INTER:                  -9.208
REMARK INTRA:                  -1.807
REMARK UNBOUND:                -2.929
REMARK SMILES CCCCCCCCC=CCCCCCCCC(=O)[O-]
REMARK SMILES IDX 10 1 9 2 11 3 12 4 13 5 14 6 15 7 16 8 17 9 18 10 19 11
REMARK SMILES IDX 20 12 8 13 7 14 6 15 5 16 4 17 3 18 2 19 1 20
REMARK H PARENT
REMARK Flexibility Score: inf
ROOT
ATOM      1  C   UNL     1      -7.992   6.100  34.150  1.00  0.00    -0.031 C 
ATOM      2  C   UNL     1      -7.988   7.185  34.939  1.00  0.00    -0.031 C 
ENDROOT
BRANCH   1   3
ATOM      3  C   UNL     1      -9.111   5.097  34.194  1.00  0.00     0.027 C 
BRANCH   3   4
ATOM      4  C   UNL     1     -10.479   5.787  34.125  1.00  0.00     0.004 C 
BRANCH   4   5
ATOM      5  C   UNL     1     -11.210   5.695  35.470  1.00  0.00     0.000 C 
BRANCH   5   6
ATOM      6  C   UNL     1     -11.298   4.240  35.951  1.00  0.00     0.000 C 
BRANCH   6   7
ATOM      7  C   UNL     1     -12.511   3.489  35.374  1.00  0.00     0.000 C 
BRANCH   7   8
ATOM      8  C   UNL     1     -13.778   4.347  35.176  1.00  0.00     0.006 C 
BRANCH   8   9
ATOM      9  C   UNL     1     -14.070   4.723  33.715  1.00  0.00     0.053 C 
BRANCH   9  10
ATOM     10  C   UNL     1     -14.708   6.073  33.600  1.00  0.00     0.041 C 
ATOM     11  O   UNL     1     -14.070   7.106  33.934  1.00  0.00    -0.550 OA
ATOM     12  O   UNL     1     -16.019   6.189  33.156  1.00  0.00    -0.550 OA
ENDBRANCH   9  10
ENDBRANCH   8   9
ENDBRANCH   7   8
ENDBRANCH   6   7
ENDBRANCH   5   6
ENDBRANCH   4   5
ENDBRANCH   3   4
ENDBRANCH   1   3
BRANCH   2  13
ATOM     13  C   UNL     1      -6.868   8.188  34.895  1.00  0.00     0.027 C 
BRANCH  13  14
ATOM     14  C   UNL     1      -6.909   9.117  36.117  1.00  0.00     0.004 C 
BRANCH  14  15
ATOM     15  C   UNL     1      -8.220   8.990  36.910  1.00  0.00     0.000 C 
BRANCH  15  16
ATOM     16  C   UNL     1      -8.840  10.356  37.251  1.00  0.00     0.000 C 
BRANCH  16  17
ATOM     17  C   UNL     1     -10.329  10.446  36.875  1.00  0.00    -0.000 C 
BRANCH  17  18
ATOM     18  C   UNL     1     -10.856   9.197  36.138  1.00  0.00    -0.000 C 
BRANCH  18  19
ATOM     19  C   UNL     1     -11.811   9.558  34.990  1.00  0.00    -0.003 C 
ATOM     20  C   UNL     1     -12.068  11.061  34.938  1.00  0.00     0.004 C 
ENDBRANCH  18  19
ENDBRANCH  17  18
ENDBRANCH  16  17
ENDBRANCH  15  16
ENDBRANCH  14  15
ENDBRANCH  13  14
ENDBRANCH   2  13
TORSDOF 15
ENDMDL
MODEL 3
REMARK VINA RESULT:    -4.150      3.796      6.071
REMARK INTER + INTRA:         -10.719
REMARK INTER:                  -8.262
REMARK INTRA:                  -2.457
REMARK UNBOUND:                -2.929
REMARK SMILES CCCCCCCCC=CCCCCCCCC(=O)[O-]
REMARK SMILES IDX 10 1 9 2 11 3 12 4 13 5 14 6 15 7 16 8 17 9 18 10 19 11
REMARK SMILES IDX 20 12 8 13 7 14 6 15 5 16 4 17 3 18 2 19 1 20
REMARK H PARENT
REMARK Flexibility Score: inf
ROOT
ATOM      1  C   UNL     1     -18.952  13.002  34.678  1.00  0.00    -0.031 C 
ATOM      2  C   UNL     1     -18.501  11.745  34.552  1.00  0.00    -0.031 C 
ENDROOT
BRANCH   1   3
ATOM      3  C   UNL     1     -20.184  13.474  33.957  1.00  0.00     0.027 C 
BRANCH   3   4
ATOM      4  C   UNL     1     -19.870  14.657  33.034  1.00  0.00     0.004 C 
BRANCH   4   5
ATOM      5  C   UNL     1     -19.404  14.171  31.656  1.00  0.00     0.000 C 
BRANCH   5   6
ATOM      6  C   UNL     1     -18.020  14.739  31.311  1.00  0.00     0.000 C 
BRANCH   6   7
ATOM      7  C   UNL     1     -16.872  13.771  31.650  1.00  0.00     0.000 C 
BRANCH   7   8
ATOM      8  C   UNL     1     -15.965  14.217  32.816  1.00  0.00     0.006 C 
BRANCH   8   9
ATOM      9  C   UNL     1     -14.460  14.065  32.545  1.00  0.00     0.053 C 
BRANCH   9  10
ATOM     10  C   UNL     1     -13.728  15.362  32.702  1.00  0.00     0.041 C 
ATOM     11  O   UNL     1     -14.317  16.454  32.482  1.00  0.00    -0.550 OA
ATOM     12  O   UNL     1     -12.385  15.366  33.057  1.00  0.00    -0.550 OA
ENDBRANCH   9  10
ENDBRANCH   8   9
ENDBRANCH   7   8
ENDBRANCH   6   7
ENDBRANCH   5   6
ENDBRANCH   4   5
ENDBRANCH   3   4
ENDBRANCH   1   3
BRANCH   2  13
ATOM     13  C   UNL     1     -17.267  11.273  35.272  1.00  0.00     0.027 C 
BRANCH  13  14
ATOM     14  C   UNL     1     -17.372   9.784  35.633  1.00  0.00     0.004 C 
BRANCH  14  15
ATOM     15  C   UNL     1     -18.754   9.195  35.307  1.00  0.00     0.000 C 
BRANCH  15  16
ATOM     16  C   UNL     1     -19.547   8.813  36.568  1.00  0.00     0.000 C 
BRANCH  16  17
ATOM     17  C   UNL     1     -20.929   9.487  36.631  1.00  0.00    -0.000 C 
BRANCH  17  18
ATOM     18  C   UNL     1     -20.949  10.776  37.479  1.00  0.00    -0.000 C 
BRANCH  18  19
ATOM     19  C   UNL     1     -19.681  10.931  38.331  1.00  0.00    -0.003 C 
ATOM     20  C   UNL     1     -19.210  12.382  38.360  1.00  0.00     0.004 C 
ENDBRANCH  18  19
ENDBRANCH  17  18
ENDBRANCH  16  17
ENDBRANCH  15  16
ENDBRANCH  14  15
ENDBRANCH  13  14
ENDBRANCH   2  13
TORSDOF 15
ENDMDL
MODEL 4
REMARK VINA RESULT:    -4.125      4.645      6.770
REMARK INTER + INTRA:         -10.671
REMARK INTER:                  -8.576
REMARK INTRA:                  -2.095
REMARK UNBOUND:                -2.929
REMARK SMILES CCCCCCCCC=CCCCCCCCC(=O)[O-]
REMARK SMILES IDX 10 1 9 2 11 3 12 4 13 5 14 6 15 7 16 8 17 9 18 10 19 11
REMARK SMILES IDX 20 12 8 13 7 14 6 15 5 16 4 17 3 18 2 19 1 20
REMARK H PARENT
REMARK Flexibility Score: inf
ROOT
ATOM      1  C   UNL     1     -13.840  14.873  32.762  1.00  0.00    -0.031 C 
ATOM      2  C   UNL     1     -13.955  16.209  32.763  1.00  0.00    -0.031 C 
ENDROOT
BRANCH   1   3
ATOM      3  C   UNL     1     -15.005  13.982  32.428  1.00  0.00     0.027 C 
BRANCH   3   4
ATOM      4  C   UNL     1     -15.914  13.777  33.645  1.00  0.00     0.004 C 
BRANCH   4   5
ATOM      5  C   UNL     1     -17.223  13.087  33.245  1.00  0.00     0.000 C 
BRANCH   5   6
ATOM      6  C   UNL     1     -17.975  12.572  34.481  1.00  0.00     0.000 C 
BRANCH   6   7
ATOM      7  C   UNL     1     -17.116  11.653  35.366  1.00  0.00     0.000 C 
BRANCH   7   8
ATOM      8  C   UNL     1     -17.296  10.142  35.109  1.00  0.00     0.006 C 
BRANCH   8   9
ATOM      9  C   UNL     1     -18.752   9.705  34.882  1.00  0.00     0.053 C 
BRANCH   9  10
ATOM     10  C   UNL     1     -19.522   9.630  36.164  1.00  0.00     0.041 C 
ATOM     11  O   UNL     1     -20.322  10.551  36.478  1.00  0.00    -0.550 OA
ATOM     12  O   UNL     1     -19.332   8.560  37.030  1.00  0.00    -0.550 OA
ENDBRANCH   9  10
ENDBRANCH   8   9
ENDBRANCH   7   8
ENDBRANCH   6   7
ENDBRANCH   5   6
ENDBRANCH   4   5
ENDBRANCH   3   4
ENDBRANCH   1   3
BRANCH   2  13
ATOM     13  C   UNL     1     -12.790  17.101  33.097  1.00  0.00     0.027 C 
BRANCH  13  14
ATOM     14  C   UNL     1     -11.459  16.447  32.700  1.00  0.00     0.004 C 
BRANCH  14  15
ATOM     15  C   UNL     1     -10.512  16.264  33.896  1.00  0.00     0.000 C 
BRANCH  15  16
ATOM     16  C   UNL     1     -10.298  14.786  34.261  1.00  0.00     0.000 C 
BRANCH  16  17
ATOM     17  C   UNL     1     -10.850  14.428  35.651  1.00  0.00    -0.000 C 
BRANCH  17  18
ATOM     18  C   UNL     1     -12.058  13.468  35.608  1.00  0.00    -0.000 C 
BRANCH  18  19
ATOM     19  C   UNL     1     -13.278  14.033  36.351  1.00  0.00    -0.003 C 
ATOM     20  C   UNL     1     -13.213  15.555  36.441  1.00  0.00     0.004 C 
ENDBRANCH  18  19
ENDBRANCH  17  18
ENDBRANCH  16  17
ENDBRANCH  15  16
ENDBRANCH  14  15
ENDBRANCH  13  14
ENDBRANCH   2  13
TORSDOF 15
ENDMDL
MODEL 5
REMARK VINA RESULT:    -4.116      2.871      5.421
REMARK INTER + INTRA:         -10.654
REMARK INTER:                  -7.881
REMARK INTRA:                  -2.773
REMARK UNBOUND:                -2.929
REMARK SMILES CCCCCCCCC=CCCCCCCCC(=O)[O-]
REMARK SMILES IDX 10 1 9 2 11 3 12 4 13 5 14 6 15 7 16 8 17 9 18 10 19 11
REMARK SMILES IDX 20 12 8 13 7 14 6 15 5 16 4 17 3 18 2 19 1 20
REMARK H PARENT
REMARK Flexibility Score: inf
ROOT
ATOM      1  C   UNL     1     -20.381  11.214  38.318  1.00  0.00    -0.031 C 
ATOM      2  C   UNL     1     -21.194  10.794  37.337  1.00  0.00    -0.031 C 
ENDROOT
BRANCH   1   3
ATOM      3  C   UNL     1     -20.362  12.650  38.765  1.00  0.00     0.027 C 
BRANCH   3   4
ATOM      4  C   UNL     1     -18.952  13.243  38.671  1.00  0.00     0.004 C 
BRANCH   4   5
ATOM      5  C   UNL     1     -17.907  12.146  38.436  1.00  0.00     0.000 C 
BRANCH   5   6
ATOM      6  C   UNL     1     -16.483  12.703  38.567  1.00  0.00     0.000 C 
BRANCH   6   7
ATOM      7  C   UNL     1     -15.960  13.327  37.261  1.00  0.00     0.000 C 
BRANCH   7   8
ATOM      8  C   UNL     1     -14.926  14.458  37.444  1.00  0.00     0.006 C 
BRANCH   8   9
ATOM      9  C   UNL     1     -13.659  14.307  36.588  1.00  0.00     0.053 C 
BRANCH   9  10
ATOM     10  C   UNL     1     -13.778  15.023  35.278  1.00  0.00     0.041 C 
ATOM     11  O   UNL     1     -14.569  15.996  35.157  1.00  0.00    -0.550 OA
ATOM     12  O   UNL     1     -13.041  14.596  34.180  1.00  0.00    -0.550 OA
ENDBRANCH   9  10
ENDBRANCH   8   9
ENDBRANCH   7   8
ENDBRANCH   6   7
ENDBRANCH   5   6
ENDBRANCH   4   5
ENDBRANCH   3   4
ENDBRANCH   1   3
BRANCH   2  13
ATOM     13  C   UNL     1     -21.212   9.359  36.888  1.00  0.00     0.027 C 
BRANCH  13  14
ATOM     14  C   UNL     1     -19.791   8.783  36.813  1.00  0.00     0.004 C 
BRANCH  14  15
ATOM     15  C   UNL     1     -19.093   9.108  35.483  1.00  0.00     0.000 C 
BRANCH  15  16
ATOM     16  C   UNL     1     -17.802   9.922  35.675  1.00  0.00     0.000 C 
BRANCH  16  17
ATOM     17  C   UNL     1     -17.736  11.160  34.764  1.00  0.00    -0.000 C 
BRANCH  17  18
ATOM     18  C   UNL     1     -19.077  11.915  34.651  1.00  0.00    -0.000 C 
BRANCH  18  19
ATOM     19  C   UNL     1     -18.928  13.414  34.956  1.00  0.00    -0.003 C 
ATOM     20  C   UNL     1     -20.274  14.042  35.303  1.00  0.00     0.004 C 
ENDBRANCH  18  19
ENDBRANCH  17  18
ENDBRANCH  16  17
ENDBRANCH  15  16
ENDBRANCH  14  15
ENDBRANCH  13  14
ENDBRANCH   2  13
TORSDOF 15
ENDMDL
MODEL 6
REMARK VINA RESULT:    -4.052      3.207      6.401
REMARK INTER + INTRA:         -10.535
REMARK INTER:                  -8.430
REMARK INTRA:                  -2.105
REMARK UNBOUND:                -2.929
REMARK SMILES CCCCCCCCC=CCCCCCCCC(=O)[O-]
REMARK SMILES IDX 10 1 9 2 11 3 12 4 13 5 14 6 15 7 16 8 17 9 18 10 19 11
REMARK SMILES IDX 20 12 8 13 7 14 6 15 5 16 4 17 3 18 2 19 1 20
REMARK H PARENT
REMARK Flexibility Score: inf
ROOT
ATOM      1  C   UNL     1     -18.444  12.841  38.350  1.00  0.00    -0.031 C 
ATOM      2  C   UNL     1     -19.676  13.113  38.807  1.00  0.00    -0.031 C 
ENDROOT
BRANCH   1   3
ATOM      3  C   UNL     1     -17.336  13.856  38.417  1.00  0.00     0.027 C 
BRANCH   3   4
ATOM      4  C   UNL     1     -16.083  13.267  39.075  1.00  0.00     0.004 C 
BRANCH   4   5
ATOM      5  C   UNL     1     -15.376  14.312  39.947  1.00  0.00     0.000 C 
BRANCH   5   6
ATOM      6  C   UNL     1     -15.822  15.733  39.574  1.00  0.00     0.000 C 
BRANCH   6   7
ATOM      7  C   UNL     1     -14.642  16.670  39.262  1.00  0.00     0.000 C 
BRANCH   7   8
ATOM      8  C   UNL     1     -14.521  17.099  37.784  1.00  0.00     0.006 C 
BRANCH   8   9
ATOM      9  C   UNL     1     -14.790  15.975  36.771  1.00  0.00     0.053 C 
BRANCH   9  10
ATOM     10  C   UNL     1     -13.553  15.189  36.464  1.00  0.00     0.041 C 
ATOM     11  O   UNL     1     -13.538  13.940  36.628  1.00  0.00    -0.550 OA
ATOM     12  O   UNL     1     -12.405  15.839  36.028  1.00  0.00    -0.550 OA
ENDBRANCH   9  10
ENDBRANCH   8   9
ENDBRANCH   7   8
ENDBRANCH   6   7
ENDBRANCH   5   6
ENDBRANCH   4   5
ENDBRANCH   3   4
ENDBRANCH   1   3
BRANCH   2  13
ATOM     13  C   UNL     1     -20.785  12.099  38.740  1.00  0.00     0.027 C 
BRANCH  13  14
ATOM     14  C   UNL     1     -20.245  10.712  38.362  1.00  0.00     0.004 C 
BRANCH  14  15
ATOM     15  C   UNL     1     -21.065  10.045  37.246  1.00  0.00     0.000 C 
BRANCH  15  16
ATOM     16  C   UNL     1     -20.217   9.112  36.366  1.00  0.00     0.000 C 
BRANCH  16  17
ATOM     17  C   UNL     1     -18.855   9.721  35.990  1.00  0.00    -0.000 C 
BRANCH  17  18
ATOM     18  C   UNL     1     -18.954  10.870  34.966  1.00  0.00    -0.000 C 
BRANCH  18  19
ATOM     19  C   UNL     1     -17.674  11.718  34.917  1.00  0.00    -0.003 C 
ATOM     20  C   UNL     1     -16.540  11.050  35.689  1.00  0.00     0.004 C 
ENDBRANCH  18  19
ENDBRANCH  17  18
ENDBRANCH  16  17
ENDBRANCH  15  16
ENDBRANCH  14  15
ENDBRANCH  13  14
ENDBRANCH   2  13
TORSDOF 15
ENDMDL
MODEL 7
REMARK VINA RESULT:    -4.037      3.767      5.908
REMARK INTER + INTRA:         -10.506
REMARK INTER:                  -7.941
REMARK INTRA:                  -2.565
REMARK UNBOUND:                -2.929
REMARK SMILES CCCCCCCCC=CCCCCCCCC(=O)[O-]
REMARK SMILES IDX 10 1 9 2 11 3 12 4 13 5 14 6 15 7 16 8 17 9 18 10 19 11
REMARK SMILES IDX 20 12 8 13 7 14 6 15 5 16 4 17 3 18 2 19 1 20
REMARK H PARENT
REMARK Flexibility Score: inf
ROOT
ATOM      1  C   UNL     1     -19.450  13.078  34.617  1.00  0.00    -0.031 C 
ATOM      2  C   UNL     1     -19.008  11.813  34.558  1.00  0.00    -0.031 C 
ENDROOT
BRANCH   1   3
ATOM      3  C   UNL     1     -20.668  13.524  33.855  1.00  0.00     0.027 C 
BRANCH   3   4
ATOM      4  C   UNL     1     -20.300  13.976  32.437  1.00  0.00     0.004 C 
BRANCH   4   5
ATOM      5  C   UNL     1     -19.010  14.804  32.440  1.00  0.00     0.000 C 
BRANCH   5   6
ATOM      6  C   UNL     1     -18.101  14.411  31.267  1.00  0.00     0.000 C 
BRANCH   6   7
ATOM      7  C   UNL     1     -16.958  13.468  31.683  1.00  0.00     0.000 C 
BRANCH   7   8
ATOM      8  C   UNL     1     -16.048  14.001  32.810  1.00  0.00     0.006 C 
BRANCH   8   9
ATOM      9  C   UNL     1     -15.056  15.088  32.366  1.00  0.00     0.053 C 
BRANCH   9  10
ATOM     10  C   UNL     1     -13.692  14.873  32.946  1.00  0.00     0.041 C 
ATOM     11  O   UNL     1     -13.377  13.753  33.428  1.00  0.00    -0.550 OA
ATOM     12  O   UNL     1     -12.778  15.919  32.985  1.00  0.00    -0.550 OA
ENDBRANCH   9  10
ENDBRANCH   8   9
ENDBRANCH   7   8
ENDBRANCH   6   7
ENDBRANCH   5   6
ENDBRANCH   4   5
ENDBRANCH   3   4
ENDBRANCH   1   3
BRANCH   2  13
ATOM     13  C   UNL     1     -17.790  11.367  35.319  1.00  0.00     0.027 C 
BRANCH  13  14
ATOM     14  C   UNL     1     -17.339  12.439  36.322  1.00  0.00     0.004 C 
BRANCH  14  15
ATOM     15  C   UNL     1     -17.604  12.030  37.780  1.00  0.00     0.000 C 
BRANCH  15  16
ATOM     16  C   UNL     1     -18.589  12.974  38.490  1.00  0.00     0.000 C 
BRANCH  16  17
ATOM     17  C   UNL     1     -20.046  12.487  38.409  1.00  0.00    -0.000 C 
BRANCH  17  18
ATOM     18  C   UNL     1     -20.178  10.955  38.273  1.00  0.00    -0.000 C 
BRANCH  18  19
ATOM     19  C   UNL     1     -21.149  10.553  37.153  1.00  0.00    -0.003 C 
ATOM     20  C   UNL     1     -20.813   9.170  36.602  1.00  0.00     0.004 C 
ENDBRANCH  18  19
ENDBRANCH  17  18
ENDBRANCH  16  17
ENDBRANCH  15  16
ENDBRANCH  14  15
ENDBRANCH  13  14
ENDBRANCH   2  13
TORSDOF 15
ENDMDL
MODEL 8
REMARK VINA RESULT:    -4.031      5.411      7.823
REMARK INTER + INTRA:         -10.496
REMARK INTER:                  -7.908
REMARK INTRA:                  -2.587
REMARK UNBOUND:                -2.929
REMARK SMILES CCCCCCCCC=CCCCCCCCC(=O)[O-]
REMARK SMILES IDX 10 1 9 2 11 3 12 4 13 5 14 6 15 7 16 8 17 9 18 10 19 11
REMARK SMILES IDX 20 12 8 13 7 14 6 15 5 16 4 17 3 18 2 19 1 20
REMARK H PARENT
REMARK Flexibility Score: inf
ROOT
ATOM      1  C   UNL     1     -10.831  14.695  34.299  1.00  0.00    -0.031 C 
ATOM      2  C   UNL     1     -10.934  14.334  35.586  1.00  0.00    -0.031 C 
ENDROOT
BRANCH   1   3
ATOM      3  C   UNL     1      -9.937  15.824  33.865  1.00  0.00     0.027 C 
BRANCH   3   4
ATOM      4  C   UNL     1     -10.754  17.060  33.472  1.00  0.00     0.004 C 
BRANCH   4   5
ATOM      5  C   UNL     1     -11.967  16.670  32.619  1.00  0.00     0.000 C 
BRANCH   5   6
ATOM      6  C   UNL     1     -12.967  17.830  32.520  1.00  0.00     0.000 C 
BRANCH   6   7
ATOM      7  C   UNL     1     -14.329  17.403  31.944  1.00  0.00     0.000 C 
BRANCH   7   8
ATOM      8  C   UNL     1     -14.790  15.985  32.341  1.00  0.00     0.006 C 
BRANCH   8   9
ATOM      9  C   UNL     1     -16.314  15.821  32.458  1.00  0.00     0.053 C 
BRANCH   9  10
ATOM     10  C   UNL     1     -16.786  14.528  31.868  1.00  0.00     0.041 C 
ATOM     11  O   UNL     1     -17.553  14.530  30.869  1.00  0.00    -0.550 OA
ATOM     12  O   UNL     1     -16.409  13.321  32.442  1.00  0.00    -0.550 OA
ENDBRANCH   9  10
ENDBRANCH   8   9
ENDBRANCH   7   8
ENDBRANCH   6   7
ENDBRANCH   5   6
ENDBRANCH   4   5
ENDBRANCH   3   4
ENDBRANCH   1   3
BRANCH   2  13
ATOM     13  C   UNL     1     -11.829  13.206  36.021  1.00  0.00     0.027 C 
BRANCH  13  14
ATOM     14  C   UNL     1     -12.900  12.908  34.961  1.00  0.00     0.004 C 
BRANCH  14  15
ATOM     15  C   UNL     1     -14.272  13.496  35.328  1.00  0.00     0.000 C 
BRANCH  15  16
ATOM     16  C   UNL     1     -14.297  14.105  36.740  1.00  0.00     0.000 C 
BRANCH  16  17
ATOM     17  C   UNL     1     -14.791  15.562  36.753  1.00  0.00    -0.000 C 
BRANCH  17  18
ATOM     18  C   UNL     1     -13.957  16.505  35.861  1.00  0.00    -0.000 C 
BRANCH  18  19
ATOM     19  C   UNL     1     -13.143  17.515  36.683  1.00  0.00    -0.003 C 
ATOM     20  C   UNL     1     -13.587  17.524  38.143  1.00  0.00     0.004 C 
ENDBRANCH  18  19
ENDBRANCH  17  18
ENDBRANCH  16  17
ENDBRANCH  15  16
ENDBRANCH  14  15
ENDBRANCH  13  14
ENDBRANCH   2  13
TORSDOF 15
ENDMDL
MODEL 9
REMARK VINA RESULT:    -4.030      4.383      6.344
REMARK INTER + INTRA:         -10.494
REMARK INTER:                  -8.503
REMARK INTRA:                  -1.991
REMARK UNBOUND:                -2.929
REMARK SMILES CCCCCCCCC=CCCCCCCCC(=O)[O-]
REMARK SMILES IDX 10 1 9 2 11 3 12 4 13 5 14 6 15 7 16 8 17 9 18 10 19 11
REMARK SMILES IDX 20 12 8 13 7 14 6 15 5 16 4 17 3 18 2 19 1 20
REMARK H PARENT
REMARK Flexibility Score: inf
ROOT
ATOM      1  C   UNL     1     -18.934  11.733  34.634  1.00  0.00    -0.031 C 
ATOM      2  C   UNL     1     -17.833  11.253  35.232  1.00  0.00    -0.031 C 
ENDROOT
BRANCH   1   3
ATOM      3  C   UNL     1     -19.010  13.153  34.144  1.00  0.00     0.027 C 
BRANCH   3   4
ATOM      4  C   UNL     1     -17.634  13.660  33.696  1.00  0.00     0.004 C 
BRANCH   4   5
ATOM      5  C   UNL     1     -17.771  14.754  32.630  1.00  0.00     0.000 C 
BRANCH   5   6
ATOM      6  C   UNL     1     -16.413  15.072  31.990  1.00  0.00     0.000 C 
BRANCH   6   7
ATOM      7  C   UNL     1     -15.420  13.899  32.072  1.00  0.00     0.000 C 
BRANCH   7   8
ATOM      8  C   UNL     1     -14.097  14.211  32.801  1.00  0.00     0.006 C 
BRANCH   8   9
ATOM      9  C   UNL     1     -13.670  15.686  32.741  1.00  0.00     0.053 C 
BRANCH   9  10
ATOM     10  C   UNL     1     -12.264  15.883  33.219  1.00  0.00     0.041 C 
ATOM     11  O   UNL     1     -11.358  16.206  32.406  1.00  0.00    -0.550 OA
ATOM     12  O   UNL     1     -11.946  15.675  34.555  1.00  0.00    -0.550 OA
ENDBRANCH   9  10
ENDBRANCH   8   9
ENDBRANCH   7   8
ENDBRANCH   6   7
ENDBRANCH   5   6
ENDBRANCH   4   5
ENDBRANCH   3   4
ENDBRANCH   1   3
BRANCH   2  13
ATOM     13  C   UNL     1     -17.757   9.834  35.723  1.00  0.00     0.027 C 
BRANCH  13  14
ATOM     14  C   UNL     1     -19.105   9.117  35.560  1.00  0.00     0.004 C 
BRANCH  14  15
ATOM     15  C   UNL     1     -19.793   8.842  36.906  1.00  0.00     0.000 C 
BRANCH  15  16
ATOM     16  C   UNL     1     -21.248   9.339  36.940  1.00  0.00     0.000 C 
BRANCH  16  17
ATOM     17  C   UNL     1     -21.361  10.829  37.304  1.00  0.00    -0.000 C 
BRANCH  17  18
ATOM     18  C   UNL     1     -20.344  11.283  38.372  1.00  0.00    -0.000 C 
BRANCH  18  19
ATOM     19  C   UNL     1     -19.843  12.715  38.127  1.00  0.00    -0.003 C 
ATOM     20  C   UNL     1     -18.369  12.854  38.495  1.00  0.00     0.004 C 
ENDBRANCH  18  19
ENDBRANCH  17  18
ENDBRANCH  16  17
ENDBRANCH  15  16
ENDBRANCH  14  15
ENDBRANCH  13  14
ENDBRANCH   2  13
TORSDOF 15
ENDMDL
