MODEL 1
REMARK VINA RESULT:    -3.865      0.000      0.000
REMARK INTER + INTRA:         -13.182
REMARK INTER:                  -8.836
REMARK INTRA:                  -4.346
REMARK UNBOUND:                -4.346
REMARK SMILES CCCCCCCCCCCCCCCCCCCCCCCC(=O)[O-]
REMARK SMILES IDX 13 1 14 2 15 3 16 4 17 5 18 6 19 7 20 8 21 9 22 10 23 11
REMARK SMILES IDX 24 12 25 13 26 14 12 15 11 16 10 17 9 18 8 19 7 20 6 21 5 22
REMARK SMILES IDX 4 23 3 24 2 25 1 26
REMARK H PARENT
REMARK Flexibility Score: inf
ROOT
ATOM      1  C   UNL     1     192.863 188.969 199.926  1.00  0.00     0.000 C 
ENDROOT
BRANCH   1   2
ATOM      2  C   UNL     1     194.362 189.046 200.249  1.00  0.00     0.000 C 
BRANCH   2   3
ATOM      3  C   UNL     1     195.066 190.066 199.340  1.00  0.00     0.000 C 
BRANCH   3   4
ATOM      4  C   UNL     1     195.914 191.077 200.127  1.00  0.00     0.000 C 
BRANCH   4   5
ATOM      5  C   UNL     1     195.138 191.715 201.293  1.00  0.00     0.000 C 
BRANCH   5   6
ATOM      6  C   UNL     1     195.697 193.089 201.704  1.00  0.00     0.000 C 
BRANCH   6   7
ATOM      7  C   UNL     1     196.445 193.849 200.593  1.00  0.00     0.000 C 
BRANCH   7   8
ATOM      8  C   UNL     1     195.989 195.310 200.452  1.00  0.00     0.000 C 
BRANCH   8   9
ATOM      9  C   UNL     1     195.032 195.697 201.590  1.00  0.00     0.000 C 
BRANCH   9  10
ATOM     10  C   UNL     1     193.896 196.625 201.125  1.00  0.00     0.006 C 
BRANCH  10  11
ATOM     11  C   UNL     1     193.840 196.842 199.604  1.00  0.00     0.053 C 
BRANCH  11  12
ATOM     12  C   UNL     1     192.453 197.154 199.132  1.00  0.00     0.041 C 
ATOM     13  O   UNL     1     192.107 196.879 197.954  1.00  0.00    -0.550 OA
ATOM     14  O   UNL     1     191.553 197.781 199.985  1.00  0.00    -0.550 OA
ENDBRANCH  11  12
ENDBRANCH  10  11
ENDBRANCH   9  10
ENDBRANCH   8   9
ENDBRANCH   7   8
ENDBRANCH   6   7
ENDBRANCH   5   6
ENDBRANCH   4   5
ENDBRANCH   3   4
ENDBRANCH   2   3
ENDBRANCH   1   2
BRANCH   1  15
ATOM     15  C   UNL     1     192.368 190.175 199.109  1.00  0.00     0.000 C 
BRANCH  15  16
ATOM     16  C   UNL     1     191.526 191.192 199.902  1.00  0.00     0.000 C 
BRANCH  16  17
ATOM     17  C   UNL     1     191.949 192.659 199.680  1.00  0.00     0.000 C 
BRANCH  17  18
ATOM     18  C   UNL     1     192.433 192.918 198.241  1.00  0.00    -0.000 C 
BRANCH  18  19
ATOM     19  C   UNL     1     193.785 193.662 198.204  1.00  0.00    -0.000 C 
BRANCH  19  20
ATOM     20  C   UNL     1     194.792 193.064 197.208  1.00  0.00    -0.000 C 
BRANCH  20  21
ATOM     21  C   UNL     1     194.233 191.851 196.447  1.00  0.00    -0.000 C 
BRANCH  21  22
ATOM     22  C   UNL     1     195.063 191.495 195.205  1.00  0.00    -0.000 C 
BRANCH  22  23
ATOM     23  C   UNL     1     194.972 192.563 194.105  1.00  0.00    -0.000 C 
BRANCH  23  24
ATOM     24  C   UNL     1     193.514 192.801 193.691  1.00  0.00    -0.000 C 
BRANCH  24  25
ATOM     25  C   UNL     1     193.170 194.295 193.724  1.00  0.00    -0.003 C 
ATOM     26  C   UNL     1     192.248 194.622 194.895  1.00  0.00     0.004 C 
ENDBRANCH  24  25
ENDBRANCH  23  24
ENDBRANCH  22  23
ENDBRANCH  21  22
ENDBRANCH  20  21
ENDBRANCH  19  20
ENDBRANCH  18  19
ENDBRANCH  17  18
ENDBRANCH  16  17
ENDBRANCH  15  16
ENDBRANCH   1  15
TORSDOF 22
ENDMDL
MODEL 2
REMARK VINA RESULT:    -3.803      9.472     12.273
REMARK INTER + INTRA:         -13.040
REMARK INTER:                  -8.275
REMARK INTRA:                  -4.766
REMARK UNBOUND:                -4.346
REMARK SMILES CCCCCCCCCCCCCCCCCCCCCCCC(=O)[O-]
REMARK SMILES IDX 13 1 14 2 15 3 16 4 17 5 18 6 19 7 20 8 21 9 22 10 23 11
REMARK SMILES IDX 24 12 25 13 26 14 12 15 11 16 10 17 9 18 8 19 7 20 6 21 5 22
REMARK SMILES IDX 4 23 3 24 2 25 1 26
REMARK H PARENT
REMARK Flexibility Score: inf
ROOT
ATOM      1  C   UNL     1     183.170 188.859 199.165  1.00  0.00     0.000 C 
ENDROOT
BRANCH   1   2
ATOM      2  C   UNL     1     181.660 188.651 199.341  1.00  0.00     0.000 C 
BRANCH   2   3
ATOM      3  C   UNL     1     181.324 187.155 199.455  1.00  0.00     0.000 C 
BRANCH   3   4
ATOM      4  C   UNL     1     182.503 186.320 199.980  1.00  0.00     0.000 C 
BRANCH   4   5
ATOM      5  C   UNL     1     182.397 184.837 199.583  1.00  0.00     0.000 C 
BRANCH   5   6
ATOM      6  C   UNL     1     183.704 184.282 198.988  1.00  0.00     0.000 C 
BRANCH   6   7
ATOM      7  C   UNL     1     184.946 185.166 199.201  1.00  0.00     0.000 C 
BRANCH   7   8
ATOM      8  C   UNL     1     185.996 185.006 198.090  1.00  0.00     0.000 C 
BRANCH   8   9
ATOM      9  C   UNL     1     186.679 186.347 197.785  1.00  0.00     0.000 C 
BRANCH   9  10
ATOM     10  C   UNL     1     186.658 187.314 198.983  1.00  0.00     0.006 C 
BRANCH  10  11
ATOM     11  C   UNL     1     187.964 188.098 199.186  1.00  0.00     0.053 C 
BRANCH  11  12
ATOM     12  C   UNL     1     188.050 189.288 198.281  1.00  0.00     0.041 C 
ATOM     13  O   UNL     1     187.090 190.099 198.206  1.00  0.00    -0.550 OA
ATOM     14  O   UNL     1     189.178 189.483 197.494  1.00  0.00    -0.550 OA
ENDBRANCH  11  12
ENDBRANCH  10  11
ENDBRANCH   9  10
ENDBRANCH   8   9
ENDBRANCH   7   8
ENDBRANCH   6   7
ENDBRANCH   5   6
ENDBRANCH   4   5
ENDBRANCH   3   4
ENDBRANCH   2   3
ENDBRANCH   1   2
BRANCH   1  15
ATOM     15  C   UNL     1     183.504 189.981 198.166  1.00  0.00     0.000 C 
BRANCH  15  16
ATOM     16  C   UNL     1     182.288 190.789 197.672  1.00  0.00     0.000 C 
BRANCH  16  17
ATOM     17  C   UNL     1     182.024 190.651 196.157  1.00  0.00     0.000 C 
BRANCH  17  18
ATOM     18  C   UNL     1     180.561 190.286 195.849  1.00  0.00    -0.000 C 
BRANCH  18  19
ATOM     19  C   UNL     1     180.309 188.765 195.926  1.00  0.00    -0.000 C 
BRANCH  19  20
ATOM     20  C   UNL     1     181.400 187.923 195.243  1.00  0.00    -0.000 C 
BRANCH  20  21
ATOM     21  C   UNL     1     181.744 186.643 196.023  1.00  0.00    -0.000 C 
BRANCH  21  22
ATOM     22  C   UNL     1     183.256 186.382 196.100  1.00  0.00    -0.000 C 
BRANCH  22  23
ATOM     23  C   UNL     1     184.086 187.535 195.514  1.00  0.00    -0.000 C 
BRANCH  23  24
ATOM     24  C   UNL     1     185.129 187.009 194.521  1.00  0.00    -0.000 C 
BRANCH  24  25
ATOM     25  C   UNL     1     184.941 185.508 194.267  1.00  0.00    -0.003 C 
ATOM     26  C   UNL     1     186.201 184.889 193.669  1.00  0.00     0.004 C 
ENDBRANCH  24  25
ENDBRANCH  23  24
ENDBRANCH  22  23
ENDBRANCH  21  22
ENDBRANCH  20  21
ENDBRANCH  19  20
ENDBRANCH  18  19
ENDBRANCH  17  18
ENDBRANCH  16  17
ENDBRANCH  15  16
ENDBRANCH   1  15
TORSDOF 22
ENDMDL
MODEL 3
REMARK VINA RESULT:    -3.790      2.157      4.888
REMARK INTER + INTRA:         -13.009
REMARK INTER:                  -9.026
REMARK INTRA:                  -3.984
REMARK UNBOUND:                -4.346
REMARK SMILES CCCCCCCCCCCCCCCCCCCCCCCC(=O)[O-]
REMARK SMILES IDX 13 1 14 2 15 3 16 4 17 5 18 6 19 7 20 8 21 9 22 10 23 11
REMARK SMILES IDX 24 12 25 13 26 14 12 15 11 16 10 17 9 18 8 19 7 20 6 21 5 22
REMARK SMILES IDX 4 23 3 24 2 25 1 26
REMARK H PARENT
REMARK Flexibility Score: inf
ROOT
ATOM      1  C   UNL     1     195.099 192.270 197.201  1.00  0.00     0.000 C 
ENDROOT
BRANCH   1   2
ATOM      2  C   UNL     1     196.460 192.726 196.658  1.00  0.00     0.000 C 
BRANCH   2   3
ATOM      3  C   UNL     1     197.278 193.428 197.753  1.00  0.00     0.000 C 
BRANCH   3   4
ATOM      4  C   UNL     1     196.396 194.042 198.852  1.00  0.00     0.000 C 
BRANCH   4   5
ATOM      5  C   UNL     1     197.155 194.237 200.176  1.00  0.00     0.000 C 
BRANCH   5   6
ATOM      6  C   UNL     1     196.225 194.580 201.355  1.00  0.00     0.000 C 
BRANCH   6   7
ATOM      7  C   UNL     1     195.076 195.548 201.019  1.00  0.00     0.000 C 
BRANCH   7   8
ATOM      8  C   UNL     1     195.309 196.968 201.557  1.00  0.00     0.000 C 
BRANCH   8   9
ATOM      9  C   UNL     1     194.506 197.998 200.748  1.00  0.00     0.000 C 
BRANCH   9  10
ATOM     10  C   UNL     1     193.530 197.346 199.753  1.00  0.00     0.006 C 
BRANCH  10  11
ATOM     11  C   UNL     1     192.060 197.751 199.952  1.00  0.00     0.053 C 
BRANCH  11  12
ATOM     12  C   UNL     1     191.289 196.713 200.707  1.00  0.00     0.041 C 
ATOM     13  O   UNL     1     190.343 197.053 201.465  1.00  0.00    -0.550 OA
ATOM     14  O   UNL     1     191.638 195.373 200.601  1.00  0.00    -0.550 OA
ENDBRANCH  11  12
ENDBRANCH  10  11
ENDBRANCH   9  10
ENDBRANCH   8   9
ENDBRANCH   7   8
ENDBRANCH   6   7
ENDBRANCH   5   6
ENDBRANCH   4   5
ENDBRANCH   3   4
ENDBRANCH   2   3
ENDBRANCH   1   2
BRANCH   1  15
ATOM     15  C   UNL     1     194.750 190.827 196.796  1.00  0.00     0.000 C 
BRANCH  15  16
ATOM     16  C   UNL     1     195.951 189.974 196.344  1.00  0.00     0.000 C 
BRANCH  16  17
ATOM     17  C   UNL     1     196.282 188.809 197.300  1.00  0.00     0.000 C 
BRANCH  17  18
ATOM     18  C   UNL     1     195.365 188.787 198.536  1.00  0.00    -0.000 C 
BRANCH  18  19
ATOM     19  C   UNL     1     196.143 189.038 199.846  1.00  0.00    -0.000 C 
BRANCH  19  20
ATOM     20  C   UNL     1     196.257 190.525 200.221  1.00  0.00    -0.000 C 
BRANCH  20  21
ATOM     21  C   UNL     1     195.181 190.973 201.224  1.00  0.00    -0.000 C 
BRANCH  21  22
ATOM     22  C   UNL     1     193.998 191.682 200.547  1.00  0.00    -0.000 C 
BRANCH  22  23
ATOM     23  C   UNL     1     192.755 190.786 200.437  1.00  0.00    -0.000 C 
BRANCH  23  24
ATOM     24  C   UNL     1     192.806 189.650 201.466  1.00  0.00    -0.000 C 
BRANCH  24  25
ATOM     25  C   UNL     1     192.399 188.314 200.831  1.00  0.00    -0.003 C 
ATOM     26  C   UNL     1     191.868 188.517 199.415  1.00  0.00     0.004 C 
ENDBRANCH  24  25
ENDBRANCH  23  24
ENDBRANCH  22  23
ENDBRANCH  21  22
ENDBRANCH  20  21
ENDBRANCH  19  20
ENDBRANCH  18  19
ENDBRANCH  17  18
ENDBRANCH  16  17
ENDBRANCH  15  16
ENDBRANCH   1  15
TORSDOF 22
ENDMDL
MODEL 4
REMARK VINA RESULT:    -3.731      2.611      5.372
REMARK INTER + INTRA:         -12.876
REMARK INTER:                  -9.118
REMARK INTRA:                  -3.758
REMARK UNBOUND:                -4.346
REMARK SMILES CCCCCCCCCCCCCCCCCCCCCCCC(=O)[O-]
REMARK SMILES IDX 13 1 14 2 15 3 16 4 17 5 18 6 19 7 20 8 21 9 22 10 23 11
REMARK SMILES IDX 24 12 25 13 26 14 12 15 11 16 10 17 9 18 8 19 7 20 6 21 5 22
REMARK SMILES IDX 4 23 3 24 2 25 1 26
REMARK H PARENT
REMARK Flexibility Score: inf
ROOT
ATOM      1  C   UNL     1     192.075 188.933 198.478  1.00  0.00     0.000 C 
ENDROOT
BRANCH   1   2
ATOM      2  C   UNL     1     192.043 188.533 199.960  1.00  0.00     0.000 C 
BRANCH   2   3
ATOM      3  C   UNL     1     193.332 188.971 200.673  1.00  0.00     0.000 C 
BRANCH   3   4
ATOM      4  C   UNL     1     194.488 189.243 199.696  1.00  0.00     0.000 C 
BRANCH   4   5
ATOM      5  C   UNL     1     195.023 190.681 199.802  1.00  0.00     0.000 C 
BRANCH   5   6
ATOM      6  C   UNL     1     195.924 191.074 198.618  1.00  0.00     0.000 C 
BRANCH   6   7
ATOM      7  C   UNL     1     195.707 190.255 197.332  1.00  0.00     0.000 C 
BRANCH   7   8
ATOM      8  C   UNL     1     194.553 190.786 196.468  1.00  0.00     0.000 C 
BRANCH   8   9
ATOM      9  C   UNL     1     194.976 192.051 195.707  1.00  0.00     0.000 C 
BRANCH   9  10
ATOM     10  C   UNL     1     193.797 192.746 195.002  1.00  0.00     0.006 C 
BRANCH  10  11
ATOM     11  C   UNL     1     194.160 193.397 193.657  1.00  0.00     0.053 C 
BRANCH  11  12
ATOM     12  C   UNL     1     193.164 193.066 192.588  1.00  0.00     0.041 C 
ATOM     13  O   UNL     1     192.612 191.934 192.563  1.00  0.00    -0.550 OA
ATOM     14  O   UNL     1     192.872 193.996 191.599  1.00  0.00    -0.550 OA
ENDBRANCH  11  12
ENDBRANCH  10  11
ENDBRANCH   9  10
ENDBRANCH   8   9
ENDBRANCH   7   8
ENDBRANCH   6   7
ENDBRANCH   5   6
ENDBRANCH   4   5
ENDBRANCH   3   4
ENDBRANCH   2   3
ENDBRANCH   1   2
BRANCH   1  15
ATOM     15  C   UNL     1     191.190 190.154 198.172  1.00  0.00     0.000 C 
BRANCH  15  16
ATOM     16  C   UNL     1     190.712 190.933 199.412  1.00  0.00     0.000 C 
BRANCH  16  17
ATOM     17  C   UNL     1     191.416 192.293 199.603  1.00  0.00     0.000 C 
BRANCH  17  18
ATOM     18  C   UNL     1     192.303 192.667 198.401  1.00  0.00    -0.000 C 
BRANCH  18  19
ATOM     19  C   UNL     1     192.684 194.163 198.399  1.00  0.00    -0.000 C 
BRANCH  19  20
ATOM     20  C   UNL     1     194.157 194.425 198.756  1.00  0.00    -0.000 C 
BRANCH  20  21
ATOM     21  C   UNL     1     194.442 194.286 200.261  1.00  0.00    -0.000 C 
BRANCH  21  22
ATOM     22  C   UNL     1     194.472 195.640 200.987  1.00  0.00    -0.000 C 
BRANCH  22  23
ATOM     23  C   UNL     1     194.104 196.814 200.067  1.00  0.00    -0.000 C 
BRANCH  23  24
ATOM     24  C   UNL     1     192.971 197.650 200.673  1.00  0.00    -0.000 C 
BRANCH  24  25
ATOM     25  C   UNL     1     191.615 197.255 200.075  1.00  0.00    -0.003 C 
ATOM     26  C   UNL     1     190.814 196.394 201.048  1.00  0.00     0.004 C 
ENDBRANCH  24  25
ENDBRANCH  23  24
ENDBRANCH  22  23
ENDBRANCH  21  22
ENDBRANCH  20  21
ENDBRANCH  19  20
ENDBRANCH  18  19
ENDBRANCH  17  18
ENDBRANCH  16  17
ENDBRANCH  15  16
ENDBRANCH   1  15
TORSDOF 22
ENDMDL
MODEL 5
REMARK VINA RESULT:    -3.711     10.109     13.629
REMARK INTER + INTRA:         -12.829
REMARK INTER:                  -8.574
REMARK INTRA:                  -4.255
REMARK UNBOUND:                -4.346
REMARK SMILES CCCCCCCCCCCCCCCCCCCCCCCC(=O)[O-]
REMARK SMILES IDX 13 1 14 2 15 3 16 4 17 5 18 6 19 7 20 8 21 9 22 10 23 11
REMARK SMILES IDX 24 12 25 13 26 14 12 15 11 16 10 17 9 18 8 19 7 20 6 21 5 22
REMARK SMILES IDX 4 23 3 24 2 25 1 26
REMARK H PARENT
REMARK Flexibility Score: inf
ROOT
ATOM      1  C   UNL     1     182.974 187.227 196.686  1.00  0.00     0.000 C 
ENDROOT
BRANCH   1   2
ATOM      2  C   UNL     1     183.233 186.378 195.434  1.00  0.00     0.000 C 
BRANCH   2   3
ATOM      3  C   UNL     1     184.739 186.268 195.149  1.00  0.00     0.000 C 
BRANCH   3   4
ATOM      4  C   UNL     1     185.583 186.205 196.433  1.00  0.00     0.000 C 
BRANCH   4   5
ATOM      5  C   UNL     1     186.352 184.880 196.567  1.00  0.00     0.000 C 
BRANCH   5   6
ATOM      6  C   UNL     1     186.144 184.202 197.934  1.00  0.00     0.000 C 
BRANCH   6   7
ATOM      7  C   UNL     1     184.844 184.588 198.663  1.00  0.00     0.000 C 
BRANCH   7   8
ATOM      8  C   UNL     1     185.093 185.236 200.033  1.00  0.00     0.000 C 
BRANCH   8   9
ATOM      9  C   UNL     1     184.244 186.505 200.202  1.00  0.00     0.000 C 
BRANCH   9  10
ATOM     10  C   UNL     1     185.093 187.758 200.481  1.00  0.00     0.006 C 
BRANCH  10  11
ATOM     11  C   UNL     1     185.933 188.232 199.284  1.00  0.00     0.053 C 
BRANCH  11  12
ATOM     12  C   UNL     1     185.543 189.605 198.833  1.00  0.00     0.041 C 
ATOM     13  O   UNL     1     184.335 189.877 198.601  1.00  0.00    -0.550 OA
ATOM     14  O   UNL     1     186.517 190.576 198.636  1.00  0.00    -0.550 OA
ENDBRANCH  11  12
ENDBRANCH  10  11
ENDBRANCH   9  10
ENDBRANCH   8   9
ENDBRANCH   7   8
ENDBRANCH   6   7
ENDBRANCH   5   6
ENDBRANCH   4   5
ENDBRANCH   3   4
ENDBRANCH   2   3
ENDBRANCH   1   2
BRANCH   1  15
ATOM     15  C   UNL     1     181.714 186.789 197.452  1.00  0.00     0.000 C 
BRANCH  15  16
ATOM     16  C   UNL     1     181.652 185.288 197.791  1.00  0.00     0.000 C 
BRANCH  16  17
ATOM     17  C   UNL     1     180.504 184.913 198.753  1.00  0.00     0.000 C 
BRANCH  17  18
ATOM     18  C   UNL     1     180.966 184.853 200.220  1.00  0.00    -0.000 C 
BRANCH  18  19
ATOM     19  C   UNL     1     181.748 183.560 200.534  1.00  0.00    -0.000 C 
BRANCH  19  20
ATOM     20  C   UNL     1     182.321 183.516 201.961  1.00  0.00    -0.000 C 
BRANCH  20  21
ATOM     21  C   UNL     1     183.551 182.602 202.083  1.00  0.00    -0.000 C 
BRANCH  21  22
ATOM     22  C   UNL     1     183.257 181.151 201.670  1.00  0.00    -0.000 C 
BRANCH  22  23
ATOM     23  C   UNL     1     184.500 180.422 201.139  1.00  0.00    -0.000 C 
BRANCH  23  24
ATOM     24  C   UNL     1     185.204 181.252 200.059  1.00  0.00    -0.000 C 
BRANCH  24  25
ATOM     25  C   UNL     1     186.728 181.133 200.179  1.00  0.00    -0.003 C 
ATOM     26  C   UNL     1     187.316 182.323 200.931  1.00  0.00     0.004 C 
ENDBRANCH  24  25
ENDBRANCH  23  24
ENDBRANCH  22  23
ENDBRANCH  21  22
ENDBRANCH  20  21
ENDBRANCH  19  20
ENDBRANCH  18  19
ENDBRANCH  17  18
ENDBRANCH  16  17
ENDBRANCH  15  16
ENDBRANCH   1  15
TORSDOF 22
ENDMDL
MODEL 6
REMARK VINA RESULT:    -3.710     10.380     13.865
REMARK INTER + INTRA:         -12.828
REMARK INTER:                  -8.590
REMARK INTRA:                  -4.239
REMARK UNBOUND:                -4.346
REMARK SMILES CCCCCCCCCCCCCCCCCCCCCCCC(=O)[O-]
REMARK SMILES IDX 13 1 14 2 15 3 16 4 17 5 18 6 19 7 20 8 21 9 22 10 23 11
REMARK SMILES IDX 24 12 25 13 26 14 12 15 11 16 10 17 9 18 8 19 7 20 6 21 5 22
REMARK SMILES IDX 4 23 3 24 2 25 1 26
REMARK H PARENT
REMARK Flexibility Score: inf
ROOT
ATOM      1  C   UNL     1     181.540 186.483 197.562  1.00  0.00     0.000 C 
ENDROOT
BRANCH   1   2
ATOM      2  C   UNL     1     182.030 187.675 198.395  1.00  0.00     0.000 C 
BRANCH   2   3
ATOM      3  C   UNL     1     182.332 187.246 199.840  1.00  0.00     0.000 C 
BRANCH   3   4
ATOM      4  C   UNL     1     183.296 188.205 200.556  1.00  0.00     0.000 C 
BRANCH   4   5
ATOM      5  C   UNL     1     184.753 187.713 200.516  1.00  0.00     0.000 C 
BRANCH   5   6
ATOM      6  C   UNL     1     185.649 188.564 199.597  1.00  0.00     0.000 C 
BRANCH   6   7
ATOM      7  C   UNL     1     185.985 187.924 198.238  1.00  0.00     0.000 C 
BRANCH   7   8
ATOM      8  C   UNL     1     185.835 186.394 198.240  1.00  0.00     0.000 C 
BRANCH   8   9
ATOM      9  C   UNL     1     185.205 185.904 196.928  1.00  0.00     0.000 C 
BRANCH   9  10
ATOM     10  C   UNL     1     184.879 187.053 195.957  1.00  0.00     0.006 C 
BRANCH  10  11
ATOM     11  C   UNL     1     184.217 186.602 194.645  1.00  0.00     0.053 C 
BRANCH  11  12
ATOM     12  C   UNL     1     185.211 186.027 193.683  1.00  0.00     0.041 C 
ATOM     13  O   UNL     1     185.275 184.782 193.506  1.00  0.00    -0.550 OA
ATOM     14  O   UNL     1     186.090 186.865 193.008  1.00  0.00    -0.550 OA
ENDBRANCH  11  12
ENDBRANCH  10  11
ENDBRANCH   9  10
ENDBRANCH   8   9
ENDBRANCH   7   8
ENDBRANCH   6   7
ENDBRANCH   5   6
ENDBRANCH   4   5
ENDBRANCH   3   4
ENDBRANCH   2   3
ENDBRANCH   1   2
BRANCH   1  15
ATOM     15  C   UNL     1     181.692 185.140 198.297  1.00  0.00     0.000 C 
BRANCH  15  16
ATOM     16  C   UNL     1     180.365 184.487 198.730  1.00  0.00     0.000 C 
BRANCH  16  17
ATOM     17  C   UNL     1     180.539 183.353 199.764  1.00  0.00     0.000 C 
BRANCH  17  18
ATOM     18  C   UNL     1     181.132 183.858 201.092  1.00  0.00    -0.000 C 
BRANCH  18  19
ATOM     19  C   UNL     1     182.062 182.816 201.749  1.00  0.00    -0.000 C 
BRANCH  19  20
ATOM     20  C   UNL     1     183.468 183.354 202.062  1.00  0.00    -0.000 C 
BRANCH  20  21
ATOM     21  C   UNL     1     184.103 184.095 200.874  1.00  0.00    -0.000 C 
BRANCH  21  22
ATOM     22  C   UNL     1     184.376 183.173 199.676  1.00  0.00    -0.000 C 
BRANCH  22  23
ATOM     23  C   UNL     1     185.745 182.480 199.762  1.00  0.00    -0.000 C 
BRANCH  23  24
ATOM     24  C   UNL     1     186.780 183.393 200.429  1.00  0.00    -0.000 C 
BRANCH  24  25
ATOM     25  C   UNL     1     187.648 182.607 201.420  1.00  0.00    -0.003 C 
ATOM     26  C   UNL     1     186.861 181.463 202.054  1.00  0.00     0.004 C 
ENDBRANCH  24  25
ENDBRANCH  23  24
ENDBRANCH  22  23
ENDBRANCH  21  22
ENDBRANCH  20  21
ENDBRANCH  19  20
ENDBRANCH  18  19
ENDBRANCH  17  18
ENDBRANCH  16  17
ENDBRANCH  15  16
ENDBRANCH   1  15
TORSDOF 22
ENDMDL
MODEL 7
REMARK VINA RESULT:    -3.670     11.119     14.207
REMARK INTER + INTRA:         -12.737
REMARK INTER:                  -8.804
REMARK INTRA:                  -3.933
REMARK UNBOUND:                -4.346
REMARK SMILES CCCCCCCCCCCCCCCCCCCCCCCC(=O)[O-]
REMARK SMILES IDX 13 1 14 2 15 3 16 4 17 5 18 6 19 7 20 8 21 9 22 10 23 11
REMARK SMILES IDX 24 12 25 13 26 14 12 15 11 16 10 17 9 18 8 19 7 20 6 21 5 22
REMARK SMILES IDX 4 23 3 24 2 25 1 26
REMARK H PARENT
REMARK Flexibility Score: inf
ROOT
ATOM      1  C   UNL     1     185.216 184.638 198.456  1.00  0.00     0.000 C 
ENDROOT
BRANCH   1   2
ATOM      2  C   UNL     1     186.365 185.634 198.666  1.00  0.00     0.000 C 
BRANCH   2   3
ATOM      3  C   UNL     1     185.956 186.741 199.650  1.00  0.00     0.000 C 
BRANCH   3   4
ATOM      4  C   UNL     1     184.564 186.509 200.260  1.00  0.00     0.000 C 
BRANCH   4   5
ATOM      5  C   UNL     1     183.592 187.664 199.967  1.00  0.00     0.000 C 
BRANCH   5   6
ATOM      6  C   UNL     1     184.210 188.756 199.075  1.00  0.00     0.000 C 
BRANCH   6   7
ATOM      7  C   UNL     1     183.612 188.860 197.660  1.00  0.00     0.000 C 
BRANCH   7   8
ATOM      8  C   UNL     1     184.492 188.204 196.585  1.00  0.00     0.000 C 
BRANCH   8   9
ATOM      9  C   UNL     1     183.798 186.971 195.987  1.00  0.00     0.000 C 
BRANCH   9  10
ATOM     10  C   UNL     1     184.618 186.311 194.864  1.00  0.00     0.006 C 
BRANCH  10  11
ATOM     11  C   UNL     1     183.875 186.194 193.524  1.00  0.00     0.053 C 
BRANCH  11  12
ATOM     12  C   UNL     1     184.613 185.333 192.546  1.00  0.00     0.041 C 
ATOM     13  O   UNL     1     184.849 184.126 192.816  1.00  0.00    -0.550 OA
ATOM     14  O   UNL     1     185.072 185.873 191.351  1.00  0.00    -0.550 OA
ENDBRANCH  11  12
ENDBRANCH  10  11
ENDBRANCH   9  10
ENDBRANCH   8   9
ENDBRANCH   7   8
ENDBRANCH   6   7
ENDBRANCH   5   6
ENDBRANCH   4   5
ENDBRANCH   3   4
ENDBRANCH   2   3
ENDBRANCH   1   2
BRANCH   1  15
ATOM     15  C   UNL     1     185.607 183.194 198.816  1.00  0.00     0.000 C 
BRANCH  15  16
ATOM     16  C   UNL     1     186.409 183.048 200.124  1.00  0.00     0.000 C 
BRANCH  16  17
ATOM     17  C   UNL     1     186.160 181.715 200.860  1.00  0.00     0.000 C 
BRANCH  17  18
ATOM     18  C   UNL     1     185.277 180.752 200.047  1.00  0.00    -0.000 C 
BRANCH  18  19
ATOM     19  C   UNL     1     184.130 180.157 200.891  1.00  0.00    -0.000 C 
BRANCH  19  20
ATOM     20  C   UNL     1     183.707 181.045 202.073  1.00  0.00    -0.000 C 
BRANCH  20  21
ATOM     21  C   UNL     1     182.462 181.894 201.768  1.00  0.00    -0.000 C 
BRANCH  21  22
ATOM     22  C   UNL     1     182.812 183.327 201.339  1.00  0.00    -0.000 C 
BRANCH  22  23
ATOM     23  C   UNL     1     181.713 184.339 201.698  1.00  0.00    -0.000 C 
BRANCH  23  24
ATOM     24  C   UNL     1     180.971 184.811 200.443  1.00  0.00    -0.000 C 
BRANCH  24  25
ATOM     25  C   UNL     1     181.722 184.398 199.171  1.00  0.00    -0.003 C 
ATOM     26  C   UNL     1     181.304 185.258 197.982  1.00  0.00     0.004 C 
ENDBRANCH  24  25
ENDBRANCH  23  24
ENDBRANCH  22  23
ENDBRANCH  21  22
ENDBRANCH  20  21
ENDBRANCH  19  20
ENDBRANCH  18  19
ENDBRANCH  17  18
ENDBRANCH  16  17
ENDBRANCH  15  16
ENDBRANCH   1  15
TORSDOF 22
ENDMDL
MODEL 8
REMARK VINA RESULT:    -3.664      1.963      6.237
REMARK INTER + INTRA:         -12.723
REMARK INTER:                  -9.136
REMARK INTRA:                  -3.587
REMARK UNBOUND:                -4.346
REMARK SMILES CCCCCCCCCCCCCCCCCCCCCCCC(=O)[O-]
REMARK SMILES IDX 13 1 14 2 15 3 16 4 17 5 18 6 19 7 20 8 21 9 22 10 23 11
REMARK SMILES IDX 24 12 25 13 26 14 12 15 11 16 10 17 9 18 8 19 7 20 6 21 5 22
REMARK SMILES IDX 4 23 3 24 2 25 1 26
REMARK H PARENT
REMARK Flexibility Score: inf
ROOT
ATOM      1  C   UNL     1     196.435 196.876 201.255  1.00  0.00     0.000 C 
ENDROOT
BRANCH   1   2
ATOM      2  C   UNL     1     196.148 195.593 202.048  1.00  0.00     0.000 C 
BRANCH   2   3
ATOM      3  C   UNL     1     195.882 194.412 201.101  1.00  0.00     0.000 C 
BRANCH   3   4
ATOM      4  C   UNL     1     196.479 194.628 199.701  1.00  0.00     0.000 C 
BRANCH   4   5
ATOM      5  C   UNL     1     196.892 193.309 199.027  1.00  0.00     0.000 C 
BRANCH   5   6
ATOM      6  C   UNL     1     196.257 193.121 197.637  1.00  0.00     0.000 C 
BRANCH   6   7
ATOM      7  C   UNL     1     195.962 191.662 197.245  1.00  0.00     0.000 C 
BRANCH   7   8
ATOM      8  C   UNL     1     195.745 191.476 195.736  1.00  0.00     0.000 C 
BRANCH   8   9
ATOM      9  C   UNL     1     194.583 192.349 195.238  1.00  0.00     0.000 C 
BRANCH   9  10
ATOM     10  C   UNL     1     194.572 192.511 193.708  1.00  0.00     0.006 C 
BRANCH  10  11
ATOM     11  C   UNL     1     193.170 192.682 193.101  1.00  0.00     0.053 C 
BRANCH  11  12
ATOM     12  C   UNL     1     192.715 194.109 193.134  1.00  0.00     0.041 C 
ATOM     13  O   UNL     1     192.086 194.551 194.131  1.00  0.00    -0.550 OA
ATOM     14  O   UNL     1     192.954 194.941 192.048  1.00  0.00    -0.550 OA
ENDBRANCH  11  12
ENDBRANCH  10  11
ENDBRANCH   9  10
ENDBRANCH   8   9
ENDBRANCH   7   8
ENDBRANCH   6   7
ENDBRANCH   5   6
ENDBRANCH   4   5
ENDBRANCH   3   4
ENDBRANCH   2   3
ENDBRANCH   1   2
BRANCH   1  15
ATOM     15  C   UNL     1     195.300 197.909 201.364  1.00  0.00     0.000 C 
BRANCH  15  16
ATOM     16  C   UNL     1     193.992 197.371 201.975  1.00  0.00     0.000 C 
BRANCH  16  17
ATOM     17  C   UNL     1     192.749 197.606 201.090  1.00  0.00     0.000 C 
BRANCH  17  18
ATOM     18  C   UNL     1     193.117 197.839 199.614  1.00  0.00    -0.000 C 
BRANCH  18  19
ATOM     19  C   UNL     1     192.428 196.828 198.673  1.00  0.00    -0.000 C 
BRANCH  19  20
ATOM     20  C   UNL     1     193.162 195.480 198.570  1.00  0.00    -0.000 C 
BRANCH  20  21
ATOM     21  C   UNL     1     192.541 194.391 199.461  1.00  0.00    -0.000 C 
BRANCH  21  22
ATOM     22  C   UNL     1     192.796 192.973 198.929  1.00  0.00    -0.000 C 
BRANCH  22  23
ATOM     23  C   UNL     1     193.066 191.959 200.052  1.00  0.00    -0.000 C 
BRANCH  23  24
ATOM     24  C   UNL     1     193.425 190.585 199.475  1.00  0.00    -0.000 C 
BRANCH  24  25
ATOM     25  C   UNL     1     194.282 189.781 200.462  1.00  0.00    -0.003 C 
ATOM     26  C   UNL     1     195.435 190.623 201.001  1.00  0.00     0.004 C 
ENDBRANCH  24  25
ENDBRANCH  23  24
ENDBRANCH  22  23
ENDBRANCH  21  22
ENDBRANCH  20  21
ENDBRANCH  19  20
ENDBRANCH  18  19
ENDBRANCH  17  18
ENDBRANCH  16  17
ENDBRANCH  15  16
ENDBRANCH   1  15
TORSDOF 22
ENDMDL
MODEL 9
REMARK VINA RESULT:    -3.628      2.862      6.241
REMARK INTER + INTRA:         -12.639
REMARK INTER:                  -8.886
REMARK INTRA:                  -3.753
REMARK UNBOUND:                -4.346
REMARK SMILES CCCCCCCCCCCCCCCCCCCCCCCC(=O)[O-]
REMARK SMILES IDX 13 1 14 2 15 3 16 4 17 5 18 6 19 7 20 8 21 9 22 10 23 11
REMARK SMILES IDX 24 12 25 13 26 14 12 15 11 16 10 17 9 18 8 19 7 20 6 21 5 22
REMARK SMILES IDX 4 23 3 24 2 25 1 26
REMARK H PARENT
REMARK Flexibility Score: inf
ROOT
ATOM      1  C   UNL     1     192.812 193.417 197.503  1.00  0.00     0.000 C 
ENDROOT
BRANCH   1   2
ATOM      2  C   UNL     1     193.128 191.915 197.467  1.00  0.00     0.000 C 
BRANCH   2   3
ATOM      3  C   UNL     1     194.122 191.592 196.340  1.00  0.00     0.000 C 
BRANCH   3   4
ATOM      4  C   UNL     1     195.119 190.487 196.726  1.00  0.00     0.000 C 
BRANCH   4   5
ATOM      5  C   UNL     1     194.489 189.416 197.632  1.00  0.00     0.000 C 
BRANCH   5   6
ATOM      6  C   UNL     1     195.343 189.104 198.875  1.00  0.00     0.000 C 
BRANCH   6   7
ATOM      7  C   UNL     1     195.821 190.336 199.665  1.00  0.00     0.000 C 
BRANCH   7   8
ATOM      8  C   UNL     1     194.761 190.875 200.638  1.00  0.00     0.000 C 
BRANCH   8   9
ATOM      9  C   UNL     1     194.455 189.847 201.738  1.00  0.00     0.000 C 
BRANCH   9  10
ATOM     10  C   UNL     1     192.998 189.353 201.704  1.00  0.00     0.006 C 
BRANCH  10  11
ATOM     11  C   UNL     1     192.148 189.967 200.579  1.00  0.00     0.053 C 
BRANCH  11  12
ATOM     12  C   UNL     1     191.533 188.918 199.705  1.00  0.00     0.041 C 
ATOM     13  O   UNL     1     190.893 189.249 198.672  1.00  0.00    -0.550 OA
ATOM     14  O   UNL     1     191.638 187.576 200.049  1.00  0.00    -0.550 OA
ENDBRANCH  11  12
ENDBRANCH  10  11
ENDBRANCH   9  10
ENDBRANCH   8   9
ENDBRANCH   7   8
ENDBRANCH   6   7
ENDBRANCH   5   6
ENDBRANCH   4   5
ENDBRANCH   3   4
ENDBRANCH   2   3
ENDBRANCH   1   2
BRANCH   1  15
ATOM     15  C   UNL     1     192.907 194.011 198.919  1.00  0.00     0.000 C 
BRANCH  15  16
ATOM     16  C   UNL     1     193.069 195.542 198.968  1.00  0.00     0.000 C 
BRANCH  16  17
ATOM     17  C   UNL     1     194.175 196.020 199.932  1.00  0.00     0.000 C 
BRANCH  17  18
ATOM     18  C   UNL     1     193.675 197.102 200.907  1.00  0.00    -0.000 C 
BRANCH  18  19
ATOM     19  C   UNL     1     194.828 197.959 201.471  1.00  0.00    -0.000 C 
BRANCH  19  20
ATOM     20  C   UNL     1     195.961 197.132 202.103  1.00  0.00    -0.000 C 
BRANCH  20  21
ATOM     21  C   UNL     1     197.293 197.267 201.346  1.00  0.00    -0.000 C 
BRANCH  21  22
ATOM     22  C   UNL     1     198.021 195.924 201.181  1.00  0.00    -0.000 C 
BRANCH  22  23
ATOM     23  C   UNL     1     197.193 194.735 201.693  1.00  0.00    -0.000 C 
BRANCH  23  24
ATOM     24  C   UNL     1     197.316 193.534 200.748  1.00  0.00    -0.000 C 
BRANCH  24  25
ATOM     25  C   UNL     1     197.695 193.985 199.331  1.00  0.00    -0.003 C 
ATOM     26  C   UNL     1     196.557 193.724 198.348  1.00  0.00     0.004 C 
ENDBRANCH  24  25
ENDBRANCH  23  24
ENDBRANCH  22  23
ENDBRANCH  21  22
ENDBRANCH  20  21
ENDBRANCH  19  20
ENDBRANCH  18  19
ENDBRANCH  17  18
ENDBRANCH  16  17
ENDBRANCH  15  16
ENDBRANCH   1  15
TORSDOF 22
ENDMDL
