MODEL 1
REMARK VINA RESULT:    -6.728      0.000      0.000
REMARK INTER + INTRA:         -13.166
REMARK INTER:                 -12.234
REMARK INTRA:                  -0.932
REMARK UNBOUND:                -0.932
REMARK SMILES CCCCCCCCCCCCCCCC(=O)[O-]
REMARK SMILES IDX 9 1 10 2 11 3 12 4 13 5 14 6 15 7 16 8 17 9 18 10 8 11 7 12
REMARK SMILES IDX 6 13 5 14 4 15 3 16 2 17 1 18
REMARK H PARENT
REMARK Flexibility Score: inf
ROOT
ATOM      1  C   UNL     1      12.647  -4.236 -24.292  1.00  0.00     0.000 C 
ENDROOT
BRANCH   1   2
ATOM      2  C   UNL     1      13.521  -3.441 -23.311  1.00  0.00     0.000 C 
BRANCH   2   3
ATOM      3  C   UNL     1      12.871  -2.120 -22.871  1.00  0.00     0.000 C 
BRANCH   3   4
ATOM      4  C   UNL     1      11.367  -2.263 -22.588  1.00  0.00     0.000 C 
BRANCH   4   5
ATOM      5  C   UNL     1      10.973  -1.678 -21.214  1.00  0.00     0.000 C 
BRANCH   5   6
ATOM      6  C   UNL     1      12.112  -0.899 -20.531  1.00  0.00     0.006 C 
BRANCH   6   7
ATOM      7  C   UNL     1      12.037  -0.900 -18.998  1.00  0.00     0.053 C 
BRANCH   7   8
ATOM      8  C   UNL     1      13.350  -0.538 -18.372  1.00  0.00     0.041 C 
ATOM      9  O   UNL     1      14.407  -1.110 -18.746  1.00  0.00    -0.550 OA
ATOM     10  O   UNL     1      13.409   0.440 -17.387  1.00  0.00    -0.550 OA
ENDBRANCH   7   8
ENDBRANCH   6   7
ENDBRANCH   5   6
ENDBRANCH   4   5
ENDBRANCH   3   4
ENDBRANCH   2   3
ENDBRANCH   1   2
BRANCH   1  11
ATOM     11  C   UNL     1      13.502  -5.195 -25.134  1.00  0.00     0.000 C 
BRANCH  11  12
ATOM     12  C   UNL     1      15.008  -5.031 -24.875  1.00  0.00    -0.000 C 
BRANCH  12  13
ATOM     13  C   UNL     1      15.780  -4.581 -26.124  1.00  0.00    -0.000 C 
BRANCH  13  14
ATOM     14  C   UNL     1      17.017  -3.756 -25.738  1.00  0.00    -0.000 C 
BRANCH  14  15
ATOM     15  C   UNL     1      17.644  -4.225 -24.410  1.00  0.00    -0.000 C 
BRANCH  15  16
ATOM     16  C   UNL     1      19.125  -3.834 -24.241  1.00  0.00    -0.000 C 
BRANCH  16  17
ATOM     17  C   UNL     1      19.462  -2.411 -24.730  1.00  0.00    -0.003 C 
ATOM     18  C   UNL     1      20.579  -2.398 -25.773  1.00  0.00     0.004 C 
ENDBRANCH  16  17
ENDBRANCH  15  16
ENDBRANCH  14  15
ENDBRANCH  13  14
ENDBRANCH  12  13
ENDBRANCH  11  12
ENDBRANCH   1  11
TORSDOF 14
ENDMDL
MODEL 2
REMARK VINA RESULT:    -6.721      1.156      1.914
REMARK INTER + INTRA:         -13.153
REMARK INTER:                 -12.365
REMARK INTRA:                  -0.788
REMARK UNBOUND:                -0.932
REMARK SMILES CCCCCCCCCCCCCCCC(=O)[O-]
REMARK SMILES IDX 9 1 10 2 11 3 12 4 13 5 14 6 15 7 16 8 17 9 18 10 8 11 7 12
REMARK SMILES IDX 6 13 5 14 4 15 3 16 2 17 1 18
REMARK H PARENT
REMARK Flexibility Score: inf
ROOT
ATOM      1  C   UNL     1      12.948  -2.574 -23.281  1.00  0.00     0.000 C 
ENDROOT
BRANCH   1   2
ATOM      2  C   UNL     1      11.706  -2.298 -22.421  1.00  0.00     0.000 C 
BRANCH   2   3
ATOM      3  C   UNL     1      11.851  -1.036 -21.556  1.00  0.00     0.000 C 
BRANCH   3   4
ATOM      4  C   UNL     1      13.305  -0.765 -21.138  1.00  0.00     0.000 C 
BRANCH   4   5
ATOM      5  C   UNL     1      13.417  -0.342 -19.657  1.00  0.00     0.000 C 
BRANCH   5   6
ATOM      6  C   UNL     1      12.129  -0.590 -18.850  1.00  0.00     0.006 C 
BRANCH   6   7
ATOM      7  C   UNL     1      11.713   0.590 -17.961  1.00  0.00     0.053 C 
BRANCH   7   8
ATOM      8  C   UNL     1      12.868   1.131 -17.172  1.00  0.00     0.041 C 
ATOM      9  O   UNL     1      13.366   0.453 -16.236  1.00  0.00    -0.550 OA
ATOM     10  O   UNL     1      13.403   2.376 -17.479  1.00  0.00    -0.550 OA
ENDBRANCH   7   8
ENDBRANCH   6   7
ENDBRANCH   5   6
ENDBRANCH   4   5
ENDBRANCH   3   4
ENDBRANCH   2   3
ENDBRANCH   1   2
BRANCH   1  11
ATOM     11  C   UNL     1      12.883  -3.979 -23.900  1.00  0.00     0.000 C 
BRANCH  11  12
ATOM     12  C   UNL     1      14.254  -4.673 -23.944  1.00  0.00    -0.000 C 
BRANCH  12  13
ATOM     13  C   UNL     1      14.860  -4.702 -25.355  1.00  0.00    -0.000 C 
BRANCH  13  14
ATOM     14  C   UNL     1      16.238  -4.024 -25.374  1.00  0.00    -0.000 C 
BRANCH  14  15
ATOM     15  C   UNL     1      17.204  -4.627 -24.334  1.00  0.00    -0.000 C 
BRANCH  15  16
ATOM     16  C   UNL     1      18.694  -4.408 -24.658  1.00  0.00    -0.000 C 
BRANCH  16  17
ATOM     17  C   UNL     1      19.260  -3.067 -24.149  1.00  0.00    -0.003 C 
ATOM     18  C   UNL     1      19.749  -2.167 -25.284  1.00  0.00     0.004 C 
ENDBRANCH  16  17
ENDBRANCH  15  16
ENDBRANCH  14  15
ENDBRANCH  13  14
ENDBRANCH  12  13
ENDBRANCH  11  12
ENDBRANCH   1  11
TORSDOF 14
ENDMDL
MODEL 3
REMARK VINA RESULT:    -6.472      1.248      1.862
REMARK INTER + INTRA:         -12.700
REMARK INTER:                 -11.954
REMARK INTRA:                  -0.746
REMARK UNBOUND:                -0.932
REMARK SMILES CCCCCCCCCCCCCCCC(=O)[O-]
REMARK SMILES IDX 9 1 10 2 11 3 12 4 13 5 14 6 15 7 16 8 17 9 18 10 8 11 7 12
REMARK SMILES IDX 6 13 5 14 4 15 3 16 2 17 1 18
REMARK H PARENT
REMARK Flexibility Score: inf
ROOT
ATOM      1  C   UNL     1      13.390  -3.623 -23.259  1.00  0.00     0.000 C 
ENDROOT
BRANCH   1   2
ATOM      2  C   UNL     1      12.755  -2.225 -23.237  1.00  0.00     0.000 C 
BRANCH   2   3
ATOM      3  C   UNL     1      11.525  -2.144 -22.319  1.00  0.00     0.000 C 
BRANCH   3   4
ATOM      4  C   UNL     1      11.639  -1.030 -21.268  1.00  0.00     0.000 C 
BRANCH   4   5
ATOM      5  C   UNL     1      13.106  -0.748 -20.873  1.00  0.00     0.000 C 
BRANCH   5   6
ATOM      6  C   UNL     1      13.319  -0.629 -19.352  1.00  0.00     0.006 C 
BRANCH   6   7
ATOM      7  C   UNL     1      12.539   0.523 -18.703  1.00  0.00     0.053 C 
BRANCH   7   8
ATOM      8  C   UNL     1      11.583   0.033 -17.657  1.00  0.00     0.041 C 
ATOM      9  O   UNL     1      11.989  -0.193 -16.487  1.00  0.00    -0.550 OA
ATOM     10  O   UNL     1      10.243  -0.159 -17.969  1.00  0.00    -0.550 OA
ENDBRANCH   7   8
ENDBRANCH   6   7
ENDBRANCH   5   6
ENDBRANCH   4   5
ENDBRANCH   3   4
ENDBRANCH   2   3
ENDBRANCH   1   2
BRANCH   1  11
ATOM     11  C   UNL     1      12.947  -4.405 -24.505  1.00  0.00     0.000 C 
BRANCH  11  12
ATOM     12  C   UNL     1      14.041  -5.344 -25.038  1.00  0.00    -0.000 C 
BRANCH  12  13
ATOM     13  C   UNL     1      15.455  -4.894 -24.639  1.00  0.00    -0.000 C 
BRANCH  13  14
ATOM     14  C   UNL     1      16.256  -4.444 -25.870  1.00  0.00    -0.000 C 
BRANCH  14  15
ATOM     15  C   UNL     1      17.443  -3.532 -25.497  1.00  0.00    -0.000 C 
BRANCH  15  16
ATOM     16  C   UNL     1      18.513  -4.218 -24.627  1.00  0.00    -0.000 C 
BRANCH  16  17
ATOM     17  C   UNL     1      19.635  -3.276 -24.146  1.00  0.00    -0.003 C 
ATOM     18  C   UNL     1      20.952  -4.011 -23.894  1.00  0.00     0.004 C 
ENDBRANCH  16  17
ENDBRANCH  15  16
ENDBRANCH  14  15
ENDBRANCH  13  14
ENDBRANCH  12  13
ENDBRANCH  11  12
ENDBRANCH   1  11
TORSDOF 14
ENDMDL
MODEL 4
REMARK VINA RESULT:    -6.455      1.010      1.973
REMARK INTER + INTRA:         -12.671
REMARK INTER:                 -11.912
REMARK INTRA:                  -0.759
REMARK UNBOUND:                -0.932
REMARK SMILES CCCCCCCCCCCCCCCC(=O)[O-]
REMARK SMILES IDX 9 1 10 2 11 3 12 4 13 5 14 6 15 7 16 8 17 9 18 10 8 11 7 12
REMARK SMILES IDX 6 13 5 14 4 15 3 16 2 17 1 18
REMARK H PARENT
REMARK Flexibility Score: inf
ROOT
ATOM      1  C   UNL     1      12.468  -2.225 -22.892  1.00  0.00     0.000 C 
ENDROOT
BRANCH   1   2
ATOM      2  C   UNL     1      11.078  -2.877 -22.934  1.00  0.00     0.000 C 
BRANCH   2   3
ATOM      3  C   UNL     1      10.212  -2.509 -21.719  1.00  0.00     0.000 C 
BRANCH   3   4
ATOM      4  C   UNL     1      10.883  -1.475 -20.801  1.00  0.00     0.000 C 
BRANCH   4   5
ATOM      5  C   UNL     1      10.194  -1.385 -19.421  1.00  0.00     0.000 C 
BRANCH   5   6
ATOM      6  C   UNL     1      10.810  -0.317 -18.498  1.00  0.00     0.006 C 
BRANCH   6   7
ATOM      7  C   UNL     1      12.268   0.028 -18.830  1.00  0.00     0.053 C 
BRANCH   7   8
ATOM      8  C   UNL     1      13.230  -0.922 -18.181  1.00  0.00     0.041 C 
ATOM      9  O   UNL     1      14.398  -1.045 -18.632  1.00  0.00    -0.550 OA
ATOM     10  O   UNL     1      12.841  -1.659 -17.069  1.00  0.00    -0.550 OA
ENDBRANCH   7   8
ENDBRANCH   6   7
ENDBRANCH   5   6
ENDBRANCH   4   5
ENDBRANCH   3   4
ENDBRANCH   2   3
ENDBRANCH   1   2
BRANCH   1  11
ATOM     11  C   UNL     1      13.561  -3.244 -23.248  1.00  0.00     0.000 C 
BRANCH  11  12
ATOM     12  C   UNL     1      13.025  -4.431 -24.062  1.00  0.00    -0.000 C 
BRANCH  12  13
ATOM     13  C   UNL     1      14.110  -5.106 -24.914  1.00  0.00    -0.000 C 
BRANCH  13  14
ATOM     14  C   UNL     1      15.296  -4.157 -25.145  1.00  0.00    -0.000 C 
BRANCH  14  15
ATOM     15  C   UNL     1      16.614  -4.714 -24.571  1.00  0.00    -0.000 C 
BRANCH  15  16
ATOM     16  C   UNL     1      17.878  -4.196 -25.283  1.00  0.00    -0.000 C 
BRANCH  16  17
ATOM     17  C   UNL     1      19.075  -3.947 -24.344  1.00  0.00    -0.003 C 
ATOM     18  C   UNL     1      19.824  -2.656 -24.676  1.00  0.00     0.004 C 
ENDBRANCH  16  17
ENDBRANCH  15  16
ENDBRANCH  14  15
ENDBRANCH  13  14
ENDBRANCH  12  13
ENDBRANCH  11  12
ENDBRANCH   1  11
TORSDOF 14
ENDMDL
MODEL 5
REMARK VINA RESULT:    -6.442      1.516      2.939
REMARK INTER + INTRA:         -12.647
REMARK INTER:                 -11.926
REMARK INTRA:                  -0.721
REMARK UNBOUND:                -0.932
REMARK SMILES CCCCCCCCCCCCCCCC(=O)[O-]
REMARK SMILES IDX 9 1 10 2 11 3 12 4 13 5 14 6 15 7 16 8 17 9 18 10 8 11 7 12
REMARK SMILES IDX 6 13 5 14 4 15 3 16 2 17 1 18
REMARK H PARENT
REMARK Flexibility Score: inf
ROOT
ATOM      1  C   UNL     1      11.775  -1.978 -22.549  1.00  0.00     0.000 C 
ENDROOT
BRANCH   1   2
ATOM      2  C   UNL     1      12.274  -0.760 -21.758  1.00  0.00     0.000 C 
BRANCH   2   3
ATOM      3  C   UNL     1      12.171  -0.955 -20.237  1.00  0.00     0.000 C 
BRANCH   3   4
ATOM      4  C   UNL     1      10.725  -1.167 -19.762  1.00  0.00     0.000 C 
BRANCH   4   5
ATOM      5  C   UNL     1      10.492  -0.614 -18.338  1.00  0.00     0.000 C 
BRANCH   5   6
ATOM      6  C   UNL     1      11.283   0.675 -18.045  1.00  0.00     0.006 C 
BRANCH   6   7
ATOM      7  C   UNL     1      12.192   0.581 -16.811  1.00  0.00     0.053 C 
BRANCH   7   8
ATOM      8  C   UNL     1      13.371   1.501 -16.913  1.00  0.00     0.041 C 
ATOM      9  O   UNL     1      14.393   1.299 -16.206  1.00  0.00    -0.550 OA
ATOM     10  O   UNL     1      13.348   2.571 -17.798  1.00  0.00    -0.550 OA
ENDBRANCH   7   8
ENDBRANCH   6   7
ENDBRANCH   5   6
ENDBRANCH   4   5
ENDBRANCH   3   4
ENDBRANCH   2   3
ENDBRANCH   1   2
BRANCH   1  11
ATOM     11  C   UNL     1      12.945  -2.897 -22.934  1.00  0.00     0.000 C 
BRANCH  11  12
ATOM     12  C   UNL     1      12.569  -3.912 -24.026  1.00  0.00    -0.000 C 
BRANCH  12  13
ATOM     13  C   UNL     1      13.654  -4.976 -24.246  1.00  0.00    -0.000 C 
BRANCH  13  14
ATOM     14  C   UNL     1      14.112  -5.000 -25.712  1.00  0.00    -0.000 C 
BRANCH  14  15
ATOM     15  C   UNL     1      15.592  -4.598 -25.871  1.00  0.00    -0.000 C 
BRANCH  15  16
ATOM     16  C   UNL     1      16.328  -4.369 -24.537  1.00  0.00    -0.000 C 
BRANCH  16  17
ATOM     17  C   UNL     1      17.743  -4.979 -24.484  1.00  0.00    -0.003 C 
ATOM     18  C   UNL     1      18.841  -3.914 -24.470  1.00  0.00     0.004 C 
ENDBRANCH  16  17
ENDBRANCH  15  16
ENDBRANCH  14  15
ENDBRANCH  13  14
ENDBRANCH  12  13
ENDBRANCH  11  12
ENDBRANCH   1  11
TORSDOF 14
ENDMDL
MODEL 6
REMARK VINA RESULT:    -6.382      3.494      7.941
REMARK INTER + INTRA:         -12.538
REMARK INTER:                 -11.718
REMARK INTRA:                  -0.820
REMARK UNBOUND:                -0.932
REMARK SMILES CCCCCCCCCCCCCCCC(=O)[O-]
REMARK SMILES IDX 9 1 10 2 11 3 12 4 13 5 14 6 15 7 16 8 17 9 18 10 8 11 7 12
REMARK SMILES IDX 6 13 5 14 4 15 3 16 2 17 1 18
REMARK H PARENT
REMARK Flexibility Score: inf
ROOT
ATOM      1  C   UNL     1      12.693  -3.839 -23.861  1.00  0.00     0.000 C 
ENDROOT
BRANCH   1   2
ATOM      2  C   UNL     1      13.860  -4.819 -23.663  1.00  0.00     0.000 C 
BRANCH   2   3
ATOM      3  C   UNL     1      15.224  -4.192 -23.990  1.00  0.00     0.000 C 
BRANCH   3   4
ATOM      4  C   UNL     1      15.649  -4.421 -25.450  1.00  0.00     0.000 C 
BRANCH   4   5
ATOM      5  C   UNL     1      17.134  -4.067 -25.687  1.00  0.00     0.000 C 
BRANCH   5   6
ATOM      6  C   UNL     1      18.040  -4.391 -24.485  1.00  0.00     0.006 C 
BRANCH   6   7
ATOM      7  C   UNL     1      19.032  -3.273 -24.133  1.00  0.00     0.053 C 
BRANCH   7   8
ATOM      8  C   UNL     1      20.095  -3.117 -25.179  1.00  0.00     0.041 C 
ATOM      9  O   UNL     1      20.727  -4.125 -25.592  1.00  0.00    -0.550 OA
ATOM     10  O   UNL     1      20.377  -1.864 -25.708  1.00  0.00    -0.550 OA
ENDBRANCH   7   8
ENDBRANCH   6   7
ENDBRANCH   5   6
ENDBRANCH   4   5
ENDBRANCH   3   4
ENDBRANCH   2   3
ENDBRANCH   1   2
BRANCH   1  11
ATOM     11  C   UNL     1      12.813  -2.645 -22.902  1.00  0.00     0.000 C 
BRANCH  11  12
ATOM     12  C   UNL     1      11.446  -2.119 -22.435  1.00  0.00    -0.000 C 
BRANCH  12  13
ATOM     13  C   UNL     1      11.566  -1.023 -21.365  1.00  0.00    -0.000 C 
BRANCH  13  14
ATOM     14  C   UNL     1      13.038  -0.745 -21.027  1.00  0.00    -0.000 C 
BRANCH  14  15
ATOM     15  C   UNL     1      13.259  -0.500 -19.521  1.00  0.00    -0.000 C 
BRANCH  15  16
ATOM     16  C   UNL     1      12.009  -0.748 -18.654  1.00  0.00    -0.000 C 
BRANCH  16  17
ATOM     17  C   UNL     1      11.538   0.484 -17.857  1.00  0.00    -0.003 C 
ATOM     18  C   UNL     1      12.445   0.796 -16.667  1.00  0.00     0.004 C 
ENDBRANCH  16  17
ENDBRANCH  15  16
ENDBRANCH  14  15
ENDBRANCH  13  14
ENDBRANCH  12  13
ENDBRANCH  11  12
ENDBRANCH   1  11
TORSDOF 14
ENDMDL
MODEL 7
REMARK VINA RESULT:    -5.755      3.261      7.986
REMARK INTER + INTRA:         -11.396
REMARK INTER:                 -10.691
REMARK INTRA:                  -0.706
REMARK UNBOUND:                -0.932
REMARK SMILES CCCCCCCCCCCCCCCC(=O)[O-]
REMARK SMILES IDX 9 1 10 2 11 3 12 4 13 5 14 6 15 7 16 8 17 9 18 10 8 11 7 12
REMARK SMILES IDX 6 13 5 14 4 15 3 16 2 17 1 18
REMARK H PARENT
REMARK Flexibility Score: inf
ROOT
ATOM      1  C   UNL     1      12.031  -2.258 -23.229  1.00  0.00     0.000 C 
ENDROOT
BRANCH   1   2
ATOM      2  C   UNL     1      13.292  -3.132 -23.303  1.00  0.00     0.000 C 
BRANCH   2   3
ATOM      3  C   UNL     1      13.188  -4.235 -24.368  1.00  0.00     0.000 C 
BRANCH   3   4
ATOM      4  C   UNL     1      14.402  -5.179 -24.366  1.00  0.00     0.000 C 
BRANCH   4   5
ATOM      5  C   UNL     1      15.712  -4.444 -24.006  1.00  0.00     0.000 C 
BRANCH   5   6
ATOM      6  C   UNL     1      16.523  -3.999 -25.238  1.00  0.00     0.006 C 
BRANCH   6   7
ATOM      7  C   UNL     1      17.897  -4.672 -25.355  1.00  0.00     0.053 C 
BRANCH   7   8
ATOM      8  C   UNL     1      19.004  -3.767 -24.905  1.00  0.00     0.041 C 
ATOM      9  O   UNL     1      19.797  -4.140 -24.000  1.00  0.00    -0.550 OA
ATOM     10  O   UNL     1      19.171  -2.520 -25.492  1.00  0.00    -0.550 OA
ENDBRANCH   7   8
ENDBRANCH   6   7
ENDBRANCH   5   6
ENDBRANCH   4   5
ENDBRANCH   3   4
ENDBRANCH   2   3
ENDBRANCH   1   2
BRANCH   1  11
ATOM     11  C   UNL     1      11.817  -1.726 -21.804  1.00  0.00     0.000 C 
BRANCH  11  12
ATOM     12  C   UNL     1      13.017  -0.919 -21.284  1.00  0.00    -0.000 C 
BRANCH  12  13
ATOM     13  C   UNL     1      12.951  -0.666 -19.770  1.00  0.00    -0.000 C 
BRANCH  13  14
ATOM     14  C   UNL     1      11.508  -0.781 -19.256  1.00  0.00    -0.000 C 
BRANCH  14  15
ATOM     15  C   UNL     1      11.243   0.131 -18.041  1.00  0.00    -0.000 C 
BRANCH  15  16
ATOM     16  C   UNL     1      12.353   0.093 -16.973  1.00  0.00    -0.000 C 
BRANCH  16  17
ATOM     17  C   UNL     1      13.161   1.401 -16.856  1.00  0.00    -0.003 C 
ATOM     18  C   UNL     1      12.875   2.372 -18.002  1.00  0.00     0.004 C 
ENDBRANCH  16  17
ENDBRANCH  15  16
ENDBRANCH  14  15
ENDBRANCH  13  14
ENDBRANCH  12  13
ENDBRANCH  11  12
ENDBRANCH   1  11
TORSDOF 14
ENDMDL
MODEL 8
REMARK VINA RESULT:    -5.629      1.152      2.221
REMARK INTER + INTRA:         -11.168
REMARK INTER:                 -10.531
REMARK INTRA:                  -0.638
REMARK UNBOUND:                -0.932
REMARK SMILES CCCCCCCCCCCCCCCC(=O)[O-]
REMARK SMILES IDX 9 1 10 2 11 3 12 4 13 5 14 6 15 7 16 8 17 9 18 10 8 11 7 12
REMARK SMILES IDX 6 13 5 14 4 15 3 16 2 17 1 18
REMARK H PARENT
REMARK Flexibility Score: inf
ROOT
ATOM      1  C   UNL     1      14.749  -5.109 -24.539  1.00  0.00     0.000 C 
ENDROOT
BRANCH   1   2
ATOM      2  C   UNL     1      13.326  -4.766 -25.007  1.00  0.00     0.000 C 
BRANCH   2   3
ATOM      3  C   UNL     1      12.505  -4.040 -23.930  1.00  0.00     0.000 C 
BRANCH   3   4
ATOM      4  C   UNL     1      13.318  -2.971 -23.183  1.00  0.00     0.000 C 
BRANCH   4   5
ATOM      5  C   UNL     1      12.428  -2.084 -22.284  1.00  0.00     0.000 C 
BRANCH   5   6
ATOM      6  C   UNL     1      13.230  -1.131 -21.378  1.00  0.00     0.006 C 
BRANCH   6   7
ATOM      7  C   UNL     1      12.362  -0.313 -20.411  1.00  0.00     0.053 C 
BRANCH   7   8
ATOM      8  C   UNL     1      12.595  -0.704 -18.983  1.00  0.00     0.041 C 
ATOM      9  O   UNL     1      13.723  -0.522 -18.454  1.00  0.00    -0.550 OA
ATOM     10  O   UNL     1      11.565  -1.254 -18.231  1.00  0.00    -0.550 OA
ENDBRANCH   7   8
ENDBRANCH   6   7
ENDBRANCH   5   6
ENDBRANCH   4   5
ENDBRANCH   3   4
ENDBRANCH   2   3
ENDBRANCH   1   2
BRANCH   1  11
ATOM     11  C   UNL     1      15.793  -4.600 -25.545  1.00  0.00     0.000 C 
BRANCH  11  12
ATOM     12  C   UNL     1      17.235  -4.767 -25.040  1.00  0.00    -0.000 C 
BRANCH  12  13
ATOM     13  C   UNL     1      17.752  -3.524 -24.299  1.00  0.00    -0.000 C 
BRANCH  13  14
ATOM     14  C   UNL     1      19.264  -3.624 -24.048  1.00  0.00    -0.000 C 
BRANCH  14  15
ATOM     15  C   UNL     1      20.071  -3.731 -25.358  1.00  0.00    -0.000 C 
BRANCH  15  16
ATOM     16  C   UNL     1      20.966  -2.510 -25.646  1.00  0.00    -0.000 C 
BRANCH  16  17
ATOM     17  C   UNL     1      20.351  -1.494 -26.628  1.00  0.00    -0.003 C 
ATOM     18  C   UNL     1      21.124  -0.175 -26.669  1.00  0.00     0.004 C 
ENDBRANCH  16  17
ENDBRANCH  15  16
ENDBRANCH  14  15
ENDBRANCH  13  14
ENDBRANCH  12  13
ENDBRANCH  11  12
ENDBRANCH   1  11
TORSDOF 14
ENDMDL
MODEL 9
REMARK VINA RESULT:    -5.247      3.319      8.115
REMARK INTER + INTRA:         -10.473
REMARK INTER:                  -9.192
REMARK INTRA:                  -1.281
REMARK UNBOUND:                -0.932
REMARK SMILES CCCCCCCCCCCCCCCC(=O)[O-]
REMARK SMILES IDX 9 1 10 2 11 3 12 4 13 5 14 6 15 7 16 8 17 9 18 10 8 11 7 12
REMARK SMILES IDX 6 13 5 14 4 15 3 16 2 17 1 18
REMARK H PARENT
REMARK Flexibility Score: inf
ROOT
ATOM      1  C   UNL     1      12.773  -1.415 -21.515  1.00  0.00     0.000 C 
ENDROOT
BRANCH   1   2
ATOM      2  C   UNL     1      11.871  -1.778 -22.704  1.00  0.00     0.000 C 
BRANCH   2   3
ATOM      3  C   UNL     1      12.085  -3.219 -23.194  1.00  0.00     0.000 C 
BRANCH   3   4
ATOM      4  C   UNL     1      13.508  -3.464 -23.720  1.00  0.00     0.000 C 
BRANCH   4   5
ATOM      5  C   UNL     1      13.616  -4.780 -24.522  1.00  0.00     0.000 C 
BRANCH   5   6
ATOM      6  C   UNL     1      14.953  -4.933 -25.270  1.00  0.00     0.006 C 
BRANCH   6   7
ATOM      7  C   UNL     1      16.189  -4.814 -24.367  1.00  0.00     0.053 C 
BRANCH   7   8
ATOM      8  C   UNL     1      17.338  -4.160 -25.074  1.00  0.00     0.041 C 
ATOM      9  O   UNL     1      17.143  -3.144 -25.791  1.00  0.00    -0.550 OA
ATOM     10  O   UNL     1      18.625  -4.662 -24.930  1.00  0.00    -0.550 OA
ENDBRANCH   7   8
ENDBRANCH   6   7
ENDBRANCH   5   6
ENDBRANCH   4   5
ENDBRANCH   3   4
ENDBRANCH   2   3
ENDBRANCH   1   2
BRANCH   1  11
ATOM     11  C   UNL     1      12.863   0.109 -21.341  1.00  0.00     0.000 C 
BRANCH  11  12
ATOM     12  C   UNL     1      13.269   0.522 -19.917  1.00  0.00    -0.000 C 
BRANCH  12  13
ATOM     13  C   UNL     1      13.615  -0.681 -19.026  1.00  0.00    -0.000 C 
BRANCH  13  14
ATOM     14  C   UNL     1      12.734  -0.703 -17.768  1.00  0.00    -0.000 C 
BRANCH  14  15
ATOM     15  C   UNL     1      11.697   0.438 -17.757  1.00  0.00    -0.000 C 
BRANCH  15  16
ATOM     16  C   UNL     1      10.288   0.010 -18.210  1.00  0.00    -0.000 C 
BRANCH  16  17
ATOM     17  C   UNL     1      10.197  -1.450 -18.698  1.00  0.00    -0.003 C 
ATOM     18  C   UNL     1       9.468  -1.578 -20.036  1.00  0.00     0.004 C 
ENDBRANCH  16  17
ENDBRANCH  15  16
ENDBRANCH  14  15
ENDBRANCH  13  14
ENDBRANCH  12  13
ENDBRANCH  11  12
ENDBRANCH   1  11
TORSDOF 14
ENDMDL
