MODEL 1
REMARK VINA RESULT:    -3.709      0.000      0.000
REMARK INTER + INTRA:          -7.060
REMARK INTER:                  -5.877
REMARK INTRA:                  -1.183
REMARK UNBOUND:                -1.183
REMARK SMILES CCCCCCCCCCCC(=O)[O-]
REMARK SMILES IDX 7 1 8 2 9 3 10 4 11 5 12 6 13 7 14 8 6 9 5 10 4 11 3 12 2 13
REMARK SMILES IDX 1 14
REMARK H PARENT
REMARK Flexibility Score: inf
ROOT
ATOM      1  C   UNL     1       6.335  -4.482   2.088  1.00  0.00     0.000 C 
ENDROOT
BRANCH   1   2
ATOM      2  C   UNL     1       6.655  -3.611   0.866  1.00  0.00     0.000 C 
BRANCH   2   3
ATOM      3  C   UNL     1       6.522  -2.118   1.203  1.00  0.00     0.000 C 
BRANCH   3   4
ATOM      4  C   UNL     1       5.317  -1.449   0.516  1.00  0.00     0.006 C 
BRANCH   4   5
ATOM      5  C   UNL     1       5.282  -1.643  -1.011  1.00  0.00     0.053 C 
BRANCH   5   6
ATOM      6  C   UNL     1       5.661  -0.402  -1.761  1.00  0.00     0.041 C 
ATOM      7  O   UNL     1       4.938   0.017  -2.703  1.00  0.00    -0.550 OA
ATOM      8  O   UNL     1       6.830   0.275  -1.438  1.00  0.00    -0.550 OA
ENDBRANCH   5   6
ENDBRANCH   4   5
ENDBRANCH   3   4
ENDBRANCH   2   3
ENDBRANCH   1   2
BRANCH   1   9
ATOM      9  C   UNL     1       5.121  -5.383   1.818  1.00  0.00     0.000 C 
BRANCH   9  10
ATOM     10  C   UNL     1       4.447  -5.083   0.469  1.00  0.00    -0.000 C 
BRANCH  10  11
ATOM     11  C   UNL     1       3.075  -4.407   0.631  1.00  0.00    -0.000 C 
BRANCH  11  12
ATOM     12  C   UNL     1       2.724  -4.128   2.101  1.00  0.00    -0.000 C 
BRANCH  12  13
ATOM     13  C   UNL     1       1.417  -4.804   2.537  1.00  0.00    -0.003 C 
ATOM     14  C   UNL     1       1.086  -5.993   1.639  1.00  0.00     0.004 C 
ENDBRANCH  12  13
ENDBRANCH  11  12
ENDBRANCH  10  11
ENDBRANCH   9  10
ENDBRANCH   1   9
TORSDOF 10
ENDMDL
MODEL 2
REMARK VINA RESULT:    -3.624      1.482      2.196
REMARK INTER + INTRA:          -6.926
REMARK INTER:                  -6.054
REMARK INTRA:                  -0.871
REMARK UNBOUND:                -1.183
REMARK SMILES CCCCCCCCCCCC(=O)[O-]
REMARK SMILES IDX 7 1 8 2 9 3 10 4 11 5 12 6 13 7 14 8 6 9 5 10 4 11 3 12 2 13
REMARK SMILES IDX 1 14
REMARK H PARENT
REMARK Flexibility Score: inf
ROOT
ATOM      1  C   UNL     1       4.185  -3.401   0.989  1.00  0.00     0.000 C 
ENDROOT
BRANCH   1   2
ATOM      2  C   UNL     1       5.348  -2.636   0.344  1.00  0.00     0.000 C 
BRANCH   2   3
ATOM      3  C   UNL     1       5.713  -3.236  -1.022  1.00  0.00     0.000 C 
BRANCH   3   4
ATOM      4  C   UNL     1       5.801  -2.182  -2.141  1.00  0.00     0.006 C 
BRANCH   4   5
ATOM      5  C   UNL     1       5.334  -0.778  -1.714  1.00  0.00     0.053 C 
BRANCH   5   6
ATOM      6  C   UNL     1       6.450   0.221  -1.690  1.00  0.00     0.041 C 
ATOM      7  O   UNL     1       6.438   1.208  -2.472  1.00  0.00    -0.550 OA
ATOM      8  O   UNL     1       7.523   0.044  -0.824  1.00  0.00    -0.550 OA
ENDBRANCH   5   6
ENDBRANCH   4   5
ENDBRANCH   3   4
ENDBRANCH   2   3
ENDBRANCH   1   2
BRANCH   1   9
ATOM      9  C   UNL     1       3.495  -4.316  -0.034  1.00  0.00     0.000 C 
BRANCH   9  10
ATOM     10  C   UNL     1       2.121  -4.813   0.445  1.00  0.00    -0.000 C 
BRANCH  10  11
ATOM     11  C   UNL     1       1.813  -4.396   1.893  1.00  0.00    -0.000 C 
BRANCH  11  12
ATOM     12  C   UNL     1       1.255  -5.553   2.735  1.00  0.00    -0.000 C 
BRANCH  12  13
ATOM     13  C   UNL     1       2.348  -6.303   3.510  1.00  0.00    -0.003 C 
ATOM     14  C   UNL     1       3.441  -5.347   3.982  1.00  0.00     0.004 C 
ENDBRANCH  12  13
ENDBRANCH  11  12
ENDBRANCH  10  11
ENDBRANCH   9  10
ENDBRANCH   1   9
TORSDOF 10
ENDMDL
MODEL 3
REMARK VINA RESULT:    -3.605      3.288      5.511
REMARK INTER + INTRA:          -6.895
REMARK INTER:                  -5.429
REMARK INTRA:                  -1.466
REMARK UNBOUND:                -1.183
REMARK SMILES CCCCCCCCCCCC(=O)[O-]
REMARK SMILES IDX 7 1 8 2 9 3 10 4 11 5 12 6 13 7 14 8 6 9 5 10 4 11 3 12 2 13
REMARK SMILES IDX 1 14
REMARK H PARENT
REMARK Flexibility Score: inf
ROOT
ATOM      1  C   UNL     1       6.939  -2.620   1.409  1.00  0.00     0.000 C 
ENDROOT
BRANCH   1   2
ATOM      2  C   UNL     1       5.976  -3.801   1.236  1.00  0.00     0.000 C 
BRANCH   2   3
ATOM      3  C   UNL     1       4.546  -3.312   0.963  1.00  0.00     0.000 C 
BRANCH   3   4
ATOM      4  C   UNL     1       3.814  -4.151  -0.100  1.00  0.00     0.006 C 
BRANCH   4   5
ATOM      5  C   UNL     1       2.365  -4.512   0.278  1.00  0.00     0.053 C 
BRANCH   5   6
ATOM      6  C   UNL     1       2.232  -4.956   1.702  1.00  0.00     0.041 C 
ATOM      7  O   UNL     1       1.700  -4.199   2.557  1.00  0.00    -0.550 OA
ATOM      8  O   UNL     1       2.724  -6.195   2.094  1.00  0.00    -0.550 OA
ENDBRANCH   5   6
ENDBRANCH   4   5
ENDBRANCH   3   4
ENDBRANCH   2   3
ENDBRANCH   1   2
BRANCH   1   9
ATOM      9  C   UNL     1       6.260  -1.296   1.027  1.00  0.00     0.000 C 
BRANCH   9  10
ATOM     10  C   UNL     1       6.810  -0.701  -0.279  1.00  0.00    -0.000 C 
BRANCH  10  11
ATOM     11  C   UNL     1       5.725  -0.537  -1.357  1.00  0.00    -0.000 C 
BRANCH  11  12
ATOM     12  C   UNL     1       5.666  -1.733  -2.321  1.00  0.00    -0.000 C 
BRANCH  12  13
ATOM     13  C   UNL     1       6.955  -2.568  -2.309  1.00  0.00    -0.003 C 
ATOM     14  C   UNL     1       6.651  -4.050  -2.512  1.00  0.00     0.004 C 
ENDBRANCH  12  13
ENDBRANCH  11  12
ENDBRANCH  10  11
ENDBRANCH   9  10
ENDBRANCH   1   9
TORSDOF 10
ENDMDL
MODEL 4
REMARK VINA RESULT:    -3.584      3.175      5.448
REMARK INTER + INTRA:          -6.863
REMARK INTER:                  -5.525
REMARK INTRA:                  -1.338
REMARK UNBOUND:                -1.183
REMARK SMILES CCCCCCCCCCCC(=O)[O-]
REMARK SMILES IDX 7 1 8 2 9 3 10 4 11 5 12 6 13 7 14 8 6 9 5 10 4 11 3 12 2 13
REMARK SMILES IDX 1 14
REMARK H PARENT
REMARK Flexibility Score: inf
ROOT
ATOM      1  C   UNL     1       5.700  -3.968   1.513  1.00  0.00     0.000 C 
ENDROOT
BRANCH   1   2
ATOM      2  C   UNL     1       5.775  -5.033   0.412  1.00  0.00     0.000 C 
BRANCH   2   3
ATOM      3  C   UNL     1       4.371  -5.505   0.004  1.00  0.00     0.000 C 
BRANCH   3   4
ATOM      4  C   UNL     1       3.345  -4.359  -0.067  1.00  0.00     0.006 C 
BRANCH   4   5
ATOM      5  C   UNL     1       1.900  -4.795   0.237  1.00  0.00     0.053 C 
BRANCH   5   6
ATOM      6  C   UNL     1       1.613  -4.862   1.706  1.00  0.00     0.041 C 
ATOM      7  O   UNL     1       2.137  -4.033   2.496  1.00  0.00    -0.550 OA
ATOM      8  O   UNL     1       0.790  -5.863   2.208  1.00  0.00    -0.550 OA
ENDBRANCH   5   6
ENDBRANCH   4   5
ENDBRANCH   3   4
ENDBRANCH   2   3
ENDBRANCH   1   2
BRANCH   1   9
ATOM      9  C   UNL     1       6.980  -3.119   1.544  1.00  0.00     0.000 C 
BRANCH   9  10
ATOM     10  C   UNL     1       6.744  -1.671   1.083  1.00  0.00    -0.000 C 
BRANCH  10  11
ATOM     11  C   UNL     1       5.319  -1.445   0.551  1.00  0.00    -0.000 C 
BRANCH  11  12
ATOM     12  C   UNL     1       5.300  -1.046  -0.933  1.00  0.00    -0.000 C 
BRANCH  12  13
ATOM     13  C   UNL     1       6.497  -1.607  -1.713  1.00  0.00    -0.003 C 
ATOM     14  C   UNL     1       6.105  -2.855  -2.500  1.00  0.00     0.004 C 
ENDBRANCH  12  13
ENDBRANCH  11  12
ENDBRANCH  10  11
ENDBRANCH   9  10
ENDBRANCH   1   9
TORSDOF 10
ENDMDL
MODEL 5
REMARK VINA RESULT:    -3.568      3.037      5.927
REMARK INTER + INTRA:          -6.837
REMARK INTER:                  -5.609
REMARK INTRA:                  -1.228
REMARK UNBOUND:                -1.183
REMARK SMILES CCCCCCCCCCCC(=O)[O-]
REMARK SMILES IDX 7 1 8 2 9 3 10 4 11 5 12 6 13 7 14 8 6 9 5 10 4 11 3 12 2 13
REMARK SMILES IDX 1 14
REMARK H PARENT
REMARK Flexibility Score: inf
ROOT
ATOM      1  C   UNL     1       5.451  -0.467  -1.887  1.00  0.00     0.000 C 
ENDROOT
BRANCH   1   2
ATOM      2  C   UNL     1       5.504  -1.872  -1.275  1.00  0.00     0.000 C 
BRANCH   2   3
ATOM      3  C   UNL     1       4.812  -1.903   0.097  1.00  0.00     0.000 C 
BRANCH   3   4
ATOM      4  C   UNL     1       4.767  -3.311   0.718  1.00  0.00     0.006 C 
BRANCH   4   5
ATOM      5  C   UNL     1       3.767  -4.263   0.036  1.00  0.00     0.053 C 
BRANCH   5   6
ATOM      6  C   UNL     1       2.492  -4.412   0.807  1.00  0.00     0.041 C 
ATOM      7  O   UNL     1       1.542  -5.095   0.340  1.00  0.00    -0.550 OA
ATOM      8  O   UNL     1       2.339  -3.771   2.030  1.00  0.00    -0.550 OA
ENDBRANCH   5   6
ENDBRANCH   4   5
ENDBRANCH   3   4
ENDBRANCH   2   3
ENDBRANCH   1   2
BRANCH   1   9
ATOM      9  C   UNL     1       6.797   0.254  -1.725  1.00  0.00     0.000 C 
BRANCH   9  10
ATOM     10  C   UNL     1       7.977  -0.719  -1.565  1.00  0.00    -0.000 C 
BRANCH  10  11
ATOM     11  C   UNL     1       8.691  -0.564  -0.212  1.00  0.00    -0.000 C 
BRANCH  11  12
ATOM     12  C   UNL     1       7.975   0.421   0.724  1.00  0.00    -0.000 C 
BRANCH  12  13
ATOM     13  C   UNL     1       7.461  -0.247   2.007  1.00  0.00    -0.003 C 
ATOM     14  C   UNL     1       7.967  -1.683   2.120  1.00  0.00     0.004 C 
ENDBRANCH  12  13
ENDBRANCH  11  12
ENDBRANCH  10  11
ENDBRANCH   9  10
ENDBRANCH   1   9
TORSDOF 10
ENDMDL
MODEL 6
REMARK VINA RESULT:    -3.554      1.276      2.169
REMARK INTER + INTRA:          -6.814
REMARK INTER:                  -5.425
REMARK INTRA:                  -1.390
REMARK UNBOUND:                -1.183
REMARK SMILES CCCCCCCCCCCC(=O)[O-]
REMARK SMILES IDX 7 1 8 2 9 3 10 4 11 5 12 6 13 7 14 8 6 9 5 10 4 11 3 12 2 13
REMARK SMILES IDX 1 14
REMARK H PARENT
REMARK Flexibility Score: inf
ROOT
ATOM      1  C   UNL     1       5.142  -5.437   2.394  1.00  0.00     0.000 C 
ENDROOT
BRANCH   1   2
ATOM      2  C   UNL     1       5.045  -5.647   0.878  1.00  0.00     0.000 C 
BRANCH   2   3
ATOM      3  C   UNL     1       5.536  -4.406   0.116  1.00  0.00     0.000 C 
BRANCH   3   4
ATOM      4  C   UNL     1       4.492  -3.276   0.066  1.00  0.00     0.006 C 
BRANCH   4   5
ATOM      5  C   UNL     1       5.030  -1.908   0.527  1.00  0.00     0.053 C 
BRANCH   5   6
ATOM      6  C   UNL     1       5.728  -1.162  -0.568  1.00  0.00     0.041 C 
ATOM      7  O   UNL     1       5.064  -0.557  -1.450  1.00  0.00    -0.550 OA
ATOM      8  O   UNL     1       7.117  -1.160  -0.633  1.00  0.00    -0.550 OA
ENDBRANCH   5   6
ENDBRANCH   4   5
ENDBRANCH   3   4
ENDBRANCH   2   3
ENDBRANCH   1   2
BRANCH   1   9
ATOM      9  C   UNL     1       3.818  -5.798   3.084  1.00  0.00     0.000 C 
BRANCH   9  10
ATOM     10  C   UNL     1       2.896  -4.583   3.275  1.00  0.00    -0.000 C 
BRANCH  10  11
ATOM     11  C   UNL     1       1.716  -4.575   2.289  1.00  0.00    -0.000 C 
BRANCH  11  12
ATOM     12  C   UNL     1       1.171  -5.985   2.011  1.00  0.00    -0.000 C 
BRANCH  12  13
ATOM     13  C   UNL     1       1.248  -6.367   0.525  1.00  0.00    -0.003 C 
ATOM     14  C   UNL     1       1.510  -5.141  -0.345  1.00  0.00     0.004 C 
ENDBRANCH  12  13
ENDBRANCH  11  12
ENDBRANCH  10  11
ENDBRANCH   9  10
ENDBRANCH   1   9
TORSDOF 10
ENDMDL
MODEL 7
REMARK VINA RESULT:    -3.524      1.335      2.660
REMARK INTER + INTRA:          -6.767
REMARK INTER:                  -5.900
REMARK INTRA:                  -0.867
REMARK UNBOUND:                -1.183
REMARK SMILES CCCCCCCCCCCC(=O)[O-]
REMARK SMILES IDX 7 1 8 2 9 3 10 4 11 5 12 6 13 7 14 8 6 9 5 10 4 11 3 12 2 13
REMARK SMILES IDX 1 14
REMARK H PARENT
REMARK Flexibility Score: inf
ROOT
ATOM      1  C   UNL     1       3.414  -4.485   0.099  1.00  0.00     0.000 C 
ENDROOT
BRANCH   1   2
ATOM      2  C   UNL     1       3.951  -3.485   1.130  1.00  0.00     0.000 C 
BRANCH   2   3
ATOM      3  C   UNL     1       5.352  -2.989   0.740  1.00  0.00     0.000 C 
BRANCH   3   4
ATOM      4  C   UNL     1       5.339  -1.593   0.091  1.00  0.00     0.006 C 
BRANCH   4   5
ATOM      5  C   UNL     1       6.243  -1.473  -1.150  1.00  0.00     0.053 C 
BRANCH   5   6
ATOM      6  C   UNL     1       6.034  -0.192  -1.897  1.00  0.00     0.041 C 
ATOM      7  O   UNL     1       6.891   0.729  -1.834  1.00  0.00    -0.550 OA
ATOM      8  O   UNL     1       4.876  -0.001  -2.641  1.00  0.00    -0.550 OA
ENDBRANCH   5   6
ENDBRANCH   4   5
ENDBRANCH   3   4
ENDBRANCH   2   3
ENDBRANCH   1   2
BRANCH   1   9
ATOM      9  C   UNL     1       1.955  -4.856   0.402  1.00  0.00     0.000 C 
BRANCH   9  10
ATOM     10  C   UNL     1       1.554  -4.554   1.855  1.00  0.00    -0.000 C 
BRANCH  10  11
ATOM     11  C   UNL     1       1.186  -5.823   2.643  1.00  0.00    -0.000 C 
BRANCH  11  12
ATOM     12  C   UNL     1       2.403  -6.468   3.323  1.00  0.00    -0.000 C 
BRANCH  12  13
ATOM     13  C   UNL     1       3.269  -5.449   4.079  1.00  0.00    -0.003 C 
ATOM     14  C   UNL     1       4.740  -5.858   4.062  1.00  0.00     0.004 C 
ENDBRANCH  12  13
ENDBRANCH  11  12
ENDBRANCH  10  11
ENDBRANCH   9  10
ENDBRANCH   1   9
TORSDOF 10
ENDMDL
MODEL 8
REMARK VINA RESULT:    -3.523      3.932      6.560
REMARK INTER + INTRA:          -6.765
REMARK INTER:                  -5.983
REMARK INTRA:                  -0.783
REMARK UNBOUND:                -1.183
REMARK SMILES CCCCCCCCCCCC(=O)[O-]
REMARK SMILES IDX 7 1 8 2 9 3 10 4 11 5 12 6 13 7 14 8 6 9 5 10 4 11 3 12 2 13
REMARK SMILES IDX 1 14
REMARK H PARENT
REMARK Flexibility Score: inf
ROOT
ATOM      1  C   UNL     1       4.414  -4.081   1.269  1.00  0.00     0.000 C 
ENDROOT
BRANCH   1   2
ATOM      2  C   UNL     1       3.536  -4.681   0.165  1.00  0.00     0.000 C 
BRANCH   2   3
ATOM      3  C   UNL     1       2.050  -4.636   0.555  1.00  0.00     0.000 C 
BRANCH   3   4
ATOM      4  C   UNL     1       1.828  -4.565   2.077  1.00  0.00     0.006 C 
BRANCH   4   5
ATOM      5  C   UNL     1       1.067  -5.772   2.654  1.00  0.00     0.053 C 
BRANCH   5   6
ATOM      6  C   UNL     1       1.949  -6.686   3.449  1.00  0.00     0.041 C 
ATOM      7  O   UNL     1       3.177  -6.775   3.184  1.00  0.00    -0.550 OA
ATOM      8  O   UNL     1       1.408  -7.464   4.465  1.00  0.00    -0.550 OA
ENDBRANCH   5   6
ENDBRANCH   4   5
ENDBRANCH   3   4
ENDBRANCH   2   3
ENDBRANCH   1   2
BRANCH   1   9
ATOM      9  C   UNL     1       5.781  -3.653   0.713  1.00  0.00     0.000 C 
BRANCH   9  10
ATOM     10  C   UNL     1       6.084  -2.166   0.962  1.00  0.00    -0.000 C 
BRANCH  10  11
ATOM     11  C   UNL     1       5.257  -1.235   0.061  1.00  0.00    -0.000 C 
BRANCH  11  12
ATOM     12  C   UNL     1       5.277  -1.669  -1.413  1.00  0.00    -0.000 C 
BRANCH  12  13
ATOM     13  C   UNL     1       5.369  -0.480  -2.380  1.00  0.00    -0.003 C 
ATOM     14  C   UNL     1       6.502   0.464  -1.985  1.00  0.00     0.004 C 
ENDBRANCH  12  13
ENDBRANCH  11  12
ENDBRANCH  10  11
ENDBRANCH   9  10
ENDBRANCH   1   9
TORSDOF 10
ENDMDL
MODEL 9
REMARK VINA RESULT:    -3.486      1.458      2.109
REMARK INTER + INTRA:          -6.707
REMARK INTER:                  -5.282
REMARK INTRA:                  -1.425
REMARK UNBOUND:                -1.183
REMARK SMILES CCCCCCCCCCCC(=O)[O-]
REMARK SMILES IDX 7 1 8 2 9 3 10 4 11 5 12 6 13 7 14 8 6 9 5 10 4 11 3 12 2 13
REMARK SMILES IDX 1 14
REMARK H PARENT
REMARK Flexibility Score: inf
ROOT
ATOM      1  C   UNL     1       4.640  -6.030  -0.363  1.00  0.00     0.000 C 
ENDROOT
BRANCH   1   2
ATOM      2  C   UNL     1       5.474  -5.371   0.741  1.00  0.00     0.000 C 
BRANCH   2   3
ATOM      3  C   UNL     1       5.170  -3.868   0.841  1.00  0.00     0.000 C 
BRANCH   3   4
ATOM      4  C   UNL     1       4.533  -3.295  -0.438  1.00  0.00     0.006 C 
BRANCH   4   5
ATOM      5  C   UNL     1       5.542  -2.635  -1.396  1.00  0.00     0.053 C 
BRANCH   5   6
ATOM      6  C   UNL     1       5.625  -1.150  -1.216  1.00  0.00     0.041 C 
ATOM      7  O   UNL     1       5.001  -0.379  -1.992  1.00  0.00    -0.550 OA
ATOM      8  O   UNL     1       6.419  -0.615  -0.209  1.00  0.00    -0.550 OA
ENDBRANCH   5   6
ENDBRANCH   4   5
ENDBRANCH   3   4
ENDBRANCH   2   3
ENDBRANCH   1   2
BRANCH   1   9
ATOM      9  C   UNL     1       3.445  -6.791   0.230  1.00  0.00     0.000 C 
BRANCH   9  10
ATOM     10  C   UNL     1       2.100  -6.344  -0.367  1.00  0.00    -0.000 C 
BRANCH  10  11
ATOM     11  C   UNL     1       1.485  -5.153   0.387  1.00  0.00    -0.000 C 
BRANCH  11  12
ATOM     12  C   UNL     1       1.298  -5.436   1.886  1.00  0.00    -0.000 C 
BRANCH  12  13
ATOM     13  C   UNL     1       2.105  -4.479   2.775  1.00  0.00    -0.003 C 
ATOM     14  C   UNL     1       3.097  -5.243   3.648  1.00  0.00     0.004 C 
ENDBRANCH  12  13
ENDBRANCH  11  12
ENDBRANCH  10  11
ENDBRANCH   9  10
ENDBRANCH   1   9
TORSDOF 10
ENDMDL
