MODEL 1
REMARK VINA RESULT:    -4.903      0.000      0.000
REMARK INTER + INTRA:          -9.920
REMARK INTER:                  -8.915
REMARK INTRA:                  -1.004
REMARK UNBOUND:                -1.004
REMARK SMILES CCCCCCCCCCCCCCCC(=O)[O-]
REMARK SMILES IDX 9 1 10 2 11 3 12 4 13 5 14 6 15 7 16 8 17 9 18 10 8 11 7 12
REMARK SMILES IDX 6 13 5 14 4 15 3 16 2 17 1 18
REMARK H PARENT
REMARK Flexibility Score: inf
ROOT
ATOM      1  C   UNL     1      -5.304  36.265  20.172  1.00  0.00     0.000 C 
ENDROOT
BRANCH   1   2
ATOM      2  C   UNL     1      -6.118  36.395  21.469  1.00  0.00     0.000 C 
BRANCH   2   3
ATOM      3  C   UNL     1      -5.265  36.161  22.728  1.00  0.00     0.000 C 
BRANCH   3   4
ATOM      4  C   UNL     1      -5.973  36.615  24.014  1.00  0.00     0.000 C 
BRANCH   4   5
ATOM      5  C   UNL     1      -4.996  37.191  25.055  1.00  0.00     0.000 C 
BRANCH   5   6
ATOM      6  C   UNL     1      -4.627  38.656  24.770  1.00  0.00     0.006 C 
BRANCH   6   7
ATOM      7  C   UNL     1      -5.671  39.372  23.903  1.00  0.00     0.053 C 
BRANCH   7   8
ATOM      8  C   UNL     1      -5.028  39.947  22.681  1.00  0.00     0.041 C 
ATOM      9  O   UNL     1      -3.789  39.823  22.498  1.00  0.00    -0.550 OA
ATOM     10  O   UNL     1      -5.807  40.578  21.718  1.00  0.00    -0.550 OA
ENDBRANCH   7   8
ENDBRANCH   6   7
ENDBRANCH   5   6
ENDBRANCH   4   5
ENDBRANCH   3   4
ENDBRANCH   2   3
ENDBRANCH   1   2
BRANCH   1  11
ATOM     11  C   UNL     1      -4.518  37.545  19.834  1.00  0.00     0.000 C 
BRANCH  11  12
ATOM     12  C   UNL     1      -3.140  37.251  19.220  1.00  0.00    -0.000 C 
BRANCH  12  13
ATOM     13  C   UNL     1      -2.796  38.203  18.061  1.00  0.00    -0.000 C 
BRANCH  13  14
ATOM     14  C   UNL     1      -1.538  37.768  17.285  1.00  0.00    -0.000 C 
BRANCH  14  15
ATOM     15  C   UNL     1      -1.784  36.758  16.146  1.00  0.00    -0.000 C 
BRANCH  15  16
ATOM     16  C   UNL     1      -1.964  37.379  14.749  1.00  0.00    -0.000 C 
BRANCH  16  17
ATOM     17  C   UNL     1      -3.438  37.600  14.382  1.00  0.00    -0.003 C 
ATOM     18  C   UNL     1      -3.784  39.086  14.365  1.00  0.00     0.004 C 
ENDBRANCH  16  17
ENDBRANCH  15  16
ENDBRANCH  14  15
ENDBRANCH  13  14
ENDBRANCH  12  13
ENDBRANCH  11  12
ENDBRANCH   1  11
TORSDOF 14
ENDMDL
MODEL 2
REMARK VINA RESULT:    -4.692      2.746      6.932
REMARK INTER + INTRA:          -9.536
REMARK INTER:                  -7.786
REMARK INTRA:                  -1.750
REMARK UNBOUND:                -1.004
REMARK SMILES CCCCCCCCCCCCCCCC(=O)[O-]
REMARK SMILES IDX 9 1 10 2 11 3 12 4 13 5 14 6 15 7 16 8 17 9 18 10 8 11 7 12
REMARK SMILES IDX 6 13 5 14 4 15 3 16 2 17 1 18
REMARK H PARENT
REMARK Flexibility Score: inf
ROOT
ATOM      1  C   UNL     1      -5.260  36.126  22.469  1.00  0.00     0.000 C 
ENDROOT
BRANCH   1   2
ATOM      2  C   UNL     1      -6.115  36.293  21.203  1.00  0.00     0.000 C 
BRANCH   2   3
ATOM      3  C   UNL     1      -5.323  36.899  20.032  1.00  0.00     0.000 C 
BRANCH   3   4
ATOM      4  C   UNL     1      -3.870  36.399  19.980  1.00  0.00     0.000 C 
BRANCH   4   5
ATOM      5  C   UNL     1      -2.894  37.473  19.469  1.00  0.00     0.000 C 
BRANCH   5   6
ATOM      6  C   UNL     1      -3.221  37.936  18.039  1.00  0.00     0.006 C 
BRANCH   6   7
ATOM      7  C   UNL     1      -2.753  36.937  16.973  1.00  0.00     0.053 C 
BRANCH   7   8
ATOM      8  C   UNL     1      -2.605  37.619  15.650  1.00  0.00     0.041 C 
ATOM      9  O   UNL     1      -3.322  38.614  15.364  1.00  0.00    -0.550 OA
ATOM     10  O   UNL     1      -1.638  37.187  14.749  1.00  0.00    -0.550 OA
ENDBRANCH   7   8
ENDBRANCH   6   7
ENDBRANCH   5   6
ENDBRANCH   4   5
ENDBRANCH   3   4
ENDBRANCH   2   3
ENDBRANCH   1   2
BRANCH   1  11
ATOM     11  C   UNL     1      -6.029  35.451  23.620  1.00  0.00     0.000 C 
BRANCH  11  12
ATOM     12  C   UNL     1      -6.125  36.339  24.871  1.00  0.00    -0.000 C 
BRANCH  12  13
ATOM     13  C   UNL     1      -4.828  37.122  25.139  1.00  0.00    -0.000 C 
BRANCH  13  14
ATOM     14  C   UNL     1      -5.087  38.588  25.535  1.00  0.00    -0.000 C 
BRANCH  14  15
ATOM     15  C   UNL     1      -5.183  39.580  24.359  1.00  0.00    -0.000 C 
BRANCH  15  16
ATOM     16  C   UNL     1      -3.950  39.626  23.439  1.00  0.00    -0.000 C 
BRANCH  16  17
ATOM     17  C   UNL     1      -4.318  39.786  21.957  1.00  0.00    -0.003 C 
ATOM     18  C   UNL     1      -5.774  40.210  21.795  1.00  0.00     0.004 C 
ENDBRANCH  16  17
ENDBRANCH  15  16
ENDBRANCH  14  15
ENDBRANCH  13  14
ENDBRANCH  12  13
ENDBRANCH  11  12
ENDBRANCH   1  11
TORSDOF 14
ENDMDL
MODEL 3
REMARK VINA RESULT:    -4.386      2.636      6.563
REMARK INTER + INTRA:          -8.979
REMARK INTER:                  -7.206
REMARK INTRA:                  -1.774
REMARK UNBOUND:                -1.004
REMARK SMILES CCCCCCCCCCCCCCCC(=O)[O-]
REMARK SMILES IDX 9 1 10 2 11 3 12 4 13 5 14 6 15 7 16 8 17 9 18 10 8 11 7 12
REMARK SMILES IDX 6 13 5 14 4 15 3 16 2 17 1 18
REMARK H PARENT
REMARK Flexibility Score: inf
ROOT
ATOM      1  C   UNL     1      -4.549  36.222  21.793  1.00  0.00     0.000 C 
ENDROOT
BRANCH   1   2
ATOM      2  C   UNL     1      -5.875  36.311  21.021  1.00  0.00     0.000 C 
BRANCH   2   3
ATOM      3  C   UNL     1      -5.713  35.979  19.528  1.00  0.00     0.000 C 
BRANCH   3   4
ATOM      4  C   UNL     1      -4.257  35.668  19.146  1.00  0.00     0.000 C 
BRANCH   4   5
ATOM      5  C   UNL     1      -3.876  36.227  17.764  1.00  0.00     0.000 C 
BRANCH   5   6
ATOM      6  C   UNL     1      -3.447  37.702  17.821  1.00  0.00     0.006 C 
BRANCH   6   7
ATOM      7  C   UNL     1      -2.480  37.993  18.977  1.00  0.00     0.053 C 
BRANCH   7   8
ATOM      8  C   UNL     1      -1.074  38.071  18.473  1.00  0.00     0.041 C 
ATOM      9  O   UNL     1      -0.131  38.341  19.262  1.00  0.00    -0.550 OA
ATOM     10  O   UNL     1      -0.798  37.797  17.138  1.00  0.00    -0.550 OA
ENDBRANCH   7   8
ENDBRANCH   6   7
ENDBRANCH   5   6
ENDBRANCH   4   5
ENDBRANCH   3   4
ENDBRANCH   2   3
ENDBRANCH   1   2
BRANCH   1  11
ATOM     11  C   UNL     1      -4.738  35.745  23.245  1.00  0.00     0.000 C 
BRANCH  11  12
ATOM     12  C   UNL     1      -6.125  36.094  23.808  1.00  0.00    -0.000 C 
BRANCH  12  13
ATOM     13  C   UNL     1      -6.045  36.933  25.095  1.00  0.00    -0.000 C 
BRANCH  13  14
ATOM     14  C   UNL     1      -4.745  37.752  25.194  1.00  0.00    -0.000 C 
BRANCH  14  15
ATOM     15  C   UNL     1      -4.832  39.194  24.656  1.00  0.00    -0.000 C 
BRANCH  15  16
ATOM     16  C   UNL     1      -4.356  39.380  23.204  1.00  0.00    -0.000 C 
BRANCH  16  17
ATOM     17  C   UNL     1      -5.181  40.422  22.436  1.00  0.00    -0.003 C 
ATOM     18  C   UNL     1      -5.666  39.863  21.101  1.00  0.00     0.004 C 
ENDBRANCH  16  17
ENDBRANCH  15  16
ENDBRANCH  14  15
ENDBRANCH  13  14
ENDBRANCH  12  13
ENDBRANCH  11  12
ENDBRANCH   1  11
TORSDOF 14
ENDMDL
MODEL 4
REMARK VINA RESULT:    -4.342      1.864      2.665
REMARK INTER + INTRA:          -8.900
REMARK INTER:                  -7.608
REMARK INTRA:                  -1.292
REMARK UNBOUND:                -1.004
REMARK SMILES CCCCCCCCCCCCCCCC(=O)[O-]
REMARK SMILES IDX 9 1 10 2 11 3 12 4 13 5 14 6 15 7 16 8 17 9 18 10 8 11 7 12
REMARK SMILES IDX 6 13 5 14 4 15 3 16 2 17 1 18
REMARK H PARENT
REMARK Flexibility Score: inf
ROOT
ATOM      1  C   UNL     1      -4.100  36.648  21.242  1.00  0.00     0.000 C 
ENDROOT
BRANCH   1   2
ATOM      2  C   UNL     1      -5.400  37.349  20.817  1.00  0.00     0.000 C 
BRANCH   2   3
ATOM      3  C   UNL     1      -5.187  38.837  20.488  1.00  0.00     0.000 C 
BRANCH   3   4
ATOM      4  C   UNL     1      -5.506  39.757  21.678  1.00  0.00     0.000 C 
BRANCH   4   5
ATOM      5  C   UNL     1      -4.283  40.004  22.578  1.00  0.00     0.000 C 
BRANCH   5   6
ATOM      6  C   UNL     1      -4.561  39.679  24.055  1.00  0.00     0.006 C 
BRANCH   6   7
ATOM      7  C   UNL     1      -5.686  38.652  24.233  1.00  0.00     0.053 C 
BRANCH   7   8
ATOM      8  C   UNL     1      -5.169  37.424  24.912  1.00  0.00     0.041 C 
ATOM      9  O   UNL     1      -5.513  36.282  24.508  1.00  0.00    -0.550 OA
ATOM     10  O   UNL     1      -4.264  37.538  25.961  1.00  0.00    -0.550 OA
ENDBRANCH   7   8
ENDBRANCH   6   7
ENDBRANCH   5   6
ENDBRANCH   4   5
ENDBRANCH   3   4
ENDBRANCH   2   3
ENDBRANCH   1   2
BRANCH   1  11
ATOM     11  C   UNL     1      -3.457  35.845  20.095  1.00  0.00     0.000 C 
BRANCH  11  12
ATOM     12  C   UNL     1      -4.370  35.735  18.864  1.00  0.00    -0.000 C 
BRANCH  12  13
ATOM     13  C   UNL     1      -3.700  36.263  17.584  1.00  0.00    -0.000 C 
BRANCH  13  14
ATOM     14  C   UNL     1      -3.062  37.652  17.773  1.00  0.00    -0.000 C 
BRANCH  14  15
ATOM     15  C   UNL     1      -2.070  38.076  16.671  1.00  0.00    -0.000 C 
BRANCH  15  16
ATOM     16  C   UNL     1      -2.022  37.151  15.443  1.00  0.00    -0.000 C 
BRANCH  16  17
ATOM     17  C   UNL     1      -3.097  37.490  14.400  1.00  0.00    -0.003 C 
ATOM     18  C   UNL     1      -3.561  38.937  14.540  1.00  0.00     0.004 C 
ENDBRANCH  16  17
ENDBRANCH  15  16
ENDBRANCH  14  15
ENDBRANCH  13  14
ENDBRANCH  12  13
ENDBRANCH  11  12
ENDBRANCH   1  11
TORSDOF 14
ENDMDL
MODEL 5
REMARK VINA RESULT:    -4.276      2.984      7.453
REMARK INTER + INTRA:          -8.780
REMARK INTER:                  -7.451
REMARK INTRA:                  -1.328
REMARK UNBOUND:                -1.004
REMARK SMILES CCCCCCCCCCCCCCCC(=O)[O-]
REMARK SMILES IDX 9 1 10 2 11 3 12 4 13 5 14 6 15 7 16 8 17 9 18 10 8 11 7 12
REMARK SMILES IDX 6 13 5 14 4 15 3 16 2 17 1 18
REMARK H PARENT
REMARK Flexibility Score: inf
ROOT
ATOM      1  C   UNL     1      -4.305  38.606  20.816  1.00  0.00     0.000 C 
ENDROOT
BRANCH   1   2
ATOM      2  C   UNL     1      -4.820  37.526  19.851  1.00  0.00     0.000 C 
BRANCH   2   3
ATOM      3  C   UNL     1      -4.023  36.214  19.953  1.00  0.00     0.000 C 
BRANCH   3   4
ATOM      4  C   UNL     1      -4.132  35.357  18.681  1.00  0.00     0.000 C 
BRANCH   4   5
ATOM      5  C   UNL     1      -4.080  36.198  17.394  1.00  0.00     0.000 C 
BRANCH   5   6
ATOM      6  C   UNL     1      -2.683  36.782  17.127  1.00  0.00     0.006 C 
BRANCH   6   7
ATOM      7  C   UNL     1      -2.734  38.219  16.593  1.00  0.00     0.053 C 
BRANCH   7   8
ATOM      8  C   UNL     1      -3.074  38.223  15.136  1.00  0.00     0.041 C 
ATOM      9  O   UNL     1      -3.639  39.221  14.619  1.00  0.00    -0.550 OA
ATOM     10  O   UNL     1      -2.720  37.141  14.337  1.00  0.00    -0.550 OA
ENDBRANCH   7   8
ENDBRANCH   6   7
ENDBRANCH   5   6
ENDBRANCH   4   5
ENDBRANCH   3   4
ENDBRANCH   2   3
ENDBRANCH   1   2
BRANCH   1  11
ATOM     11  C   UNL     1      -5.444  39.409  21.469  1.00  0.00     0.000 C 
BRANCH  11  12
ATOM     12  C   UNL     1      -4.954  40.310  22.615  1.00  0.00    -0.000 C 
BRANCH  12  13
ATOM     13  C   UNL     1      -4.126  39.540  23.658  1.00  0.00    -0.000 C 
BRANCH  13  14
ATOM     14  C   UNL     1      -4.859  39.381  25.003  1.00  0.00    -0.000 C 
BRANCH  14  15
ATOM     15  C   UNL     1      -5.067  37.926  25.471  1.00  0.00    -0.000 C 
BRANCH  15  16
ATOM     16  C   UNL     1      -6.118  37.129  24.677  1.00  0.00    -0.000 C 
BRANCH  16  17
ATOM     17  C   UNL     1      -5.499  36.270  23.565  1.00  0.00    -0.003 C 
ATOM     18  C   UNL     1      -6.034  34.842  23.612  1.00  0.00     0.004 C 
ENDBRANCH  16  17
ENDBRANCH  15  16
ENDBRANCH  14  15
ENDBRANCH  13  14
ENDBRANCH  12  13
ENDBRANCH  11  12
ENDBRANCH   1  11
TORSDOF 14
ENDMDL
MODEL 6
REMARK VINA RESULT:    -4.265      3.057      7.306
REMARK INTER + INTRA:          -8.760
REMARK INTER:                  -7.319
REMARK INTRA:                  -1.441
REMARK UNBOUND:                -1.004
REMARK SMILES CCCCCCCCCCCCCCCC(=O)[O-]
REMARK SMILES IDX 9 1 10 2 11 3 12 4 13 5 14 6 15 7 16 8 17 9 18 10 8 11 7 12
REMARK SMILES IDX 6 13 5 14 4 15 3 16 2 17 1 18
REMARK H PARENT
REMARK Flexibility Score: inf
ROOT
ATOM      1  C   UNL     1      -4.504  36.713  20.722  1.00  0.00     0.000 C 
ENDROOT
BRANCH   1   2
ATOM      2  C   UNL     1      -5.843  36.323  20.078  1.00  0.00     0.000 C 
BRANCH   2   3
ATOM      3  C   UNL     1      -5.662  35.464  18.815  1.00  0.00     0.000 C 
BRANCH   3   4
ATOM      4  C   UNL     1      -4.190  35.339  18.391  1.00  0.00     0.000 C 
BRANCH   4   5
ATOM      5  C   UNL     1      -3.848  36.222  17.177  1.00  0.00     0.000 C 
BRANCH   5   6
ATOM      6  C   UNL     1      -2.566  37.045  17.388  1.00  0.00     0.006 C 
BRANCH   6   7
ATOM      7  C   UNL     1      -2.519  38.302  16.511  1.00  0.00     0.053 C 
BRANCH   7   8
ATOM      8  C   UNL     1      -2.660  37.936  15.068  1.00  0.00     0.041 C 
ATOM      9  O   UNL     1      -1.824  37.169  14.523  1.00  0.00    -0.550 OA
ATOM     10  O   UNL     1      -3.745  38.403  14.334  1.00  0.00    -0.550 OA
ENDBRANCH   7   8
ENDBRANCH   6   7
ENDBRANCH   5   6
ENDBRANCH   4   5
ENDBRANCH   3   4
ENDBRANCH   2   3
ENDBRANCH   1   2
BRANCH   1  11
ATOM     11  C   UNL     1      -4.159  38.200  20.520  1.00  0.00     0.000 C 
BRANCH  11  12
ATOM     12  C   UNL     1      -5.375  39.122  20.704  1.00  0.00    -0.000 C 
BRANCH  12  13
ATOM     13  C   UNL     1      -5.461  39.709  22.124  1.00  0.00    -0.000 C 
BRANCH  13  14
ATOM     14  C   UNL     1      -4.371  39.161  23.063  1.00  0.00    -0.000 C 
BRANCH  14  15
ATOM     15  C   UNL     1      -4.803  38.964  24.530  1.00  0.00    -0.000 C 
BRANCH  15  16
ATOM     16  C   UNL     1      -6.125  38.200  24.725  1.00  0.00    -0.000 C 
BRANCH  16  17
ATOM     17  C   UNL     1      -5.911  36.713  25.044  1.00  0.00    -0.003 C 
ATOM     18  C   UNL     1      -6.115  35.849  23.803  1.00  0.00     0.004 C 
ENDBRANCH  16  17
ENDBRANCH  15  16
ENDBRANCH  14  15
ENDBRANCH  13  14
ENDBRANCH  12  13
ENDBRANCH  11  12
ENDBRANCH   1  11
TORSDOF 14
ENDMDL
MODEL 7
REMARK VINA RESULT:    -4.259      1.436      2.241
REMARK INTER + INTRA:          -8.749
REMARK INTER:                  -7.900
REMARK INTRA:                  -0.849
REMARK UNBOUND:                -1.004
REMARK SMILES CCCCCCCCCCCCCCCC(=O)[O-]
REMARK SMILES IDX 9 1 10 2 11 3 12 4 13 5 14 6 15 7 16 8 17 9 18 10 8 11 7 12
REMARK SMILES IDX 6 13 5 14 4 15 3 16 2 17 1 18
REMARK H PARENT
REMARK Flexibility Score: inf
ROOT
ATOM      1  C   UNL     1      -3.815  38.828  20.189  1.00  0.00     0.000 C 
ENDROOT
BRANCH   1   2
ATOM      2  C   UNL     1      -5.128  38.397  20.861  1.00  0.00     0.000 C 
BRANCH   2   3
ATOM      3  C   UNL     1      -5.300  36.868  20.896  1.00  0.00     0.000 C 
BRANCH   3   4
ATOM      4  C   UNL     1      -4.652  36.230  22.135  1.00  0.00     0.000 C 
BRANCH   4   5
ATOM      5  C   UNL     1      -5.683  35.578  23.072  1.00  0.00     0.000 C 
BRANCH   5   6
ATOM      6  C   UNL     1      -5.886  36.373  24.372  1.00  0.00     0.006 C 
BRANCH   6   7
ATOM      7  C   UNL     1      -6.125  37.868  24.121  1.00  0.00     0.053 C 
BRANCH   7   8
ATOM      8  C   UNL     1      -5.155  38.691  24.907  1.00  0.00     0.041 C 
ATOM      9  O   UNL     1      -4.218  39.297  24.324  1.00  0.00    -0.550 OA
ATOM     10  O   UNL     1      -5.314  38.830  26.281  1.00  0.00    -0.550 OA
ENDBRANCH   7   8
ENDBRANCH   6   7
ENDBRANCH   5   6
ENDBRANCH   4   5
ENDBRANCH   3   4
ENDBRANCH   2   3
ENDBRANCH   1   2
BRANCH   1  11
ATOM     11  C   UNL     1      -3.457  37.954  18.972  1.00  0.00     0.000 C 
BRANCH  11  12
ATOM     12  C   UNL     1      -1.940  37.796  18.781  1.00  0.00    -0.000 C 
BRANCH  12  13
ATOM     13  C   UNL     1      -1.545  37.633  17.304  1.00  0.00    -0.000 C 
BRANCH  13  14
ATOM     14  C   UNL     1      -2.316  36.500  16.601  1.00  0.00    -0.000 C 
BRANCH  14  15
ATOM     15  C   UNL     1      -2.816  36.828  15.179  1.00  0.00    -0.000 C 
BRANCH  15  16
ATOM     16  C   UNL     1      -2.797  38.321  14.808  1.00  0.00    -0.000 C 
BRANCH  16  17
ATOM     17  C   UNL     1      -3.959  38.720  13.885  1.00  0.00    -0.003 C 
ATOM     18  C   UNL     1      -4.376  40.168  14.123  1.00  0.00     0.004 C 
ENDBRANCH  16  17
ENDBRANCH  15  16
ENDBRANCH  14  15
ENDBRANCH  13  14
ENDBRANCH  12  13
ENDBRANCH  11  12
ENDBRANCH   1  11
TORSDOF 14
ENDMDL
MODEL 8
REMARK VINA RESULT:    -4.213      2.031      2.906
REMARK INTER + INTRA:          -8.666
REMARK INTER:                  -8.076
REMARK INTRA:                  -0.590
REMARK UNBOUND:                -1.004
REMARK SMILES CCCCCCCCCCCCCCCC(=O)[O-]
REMARK SMILES IDX 9 1 10 2 11 3 12 4 13 5 14 6 15 7 16 8 17 9 18 10 8 11 7 12
REMARK SMILES IDX 6 13 5 14 4 15 3 16 2 17 1 18
REMARK H PARENT
REMARK Flexibility Score: inf
ROOT
ATOM      1  C   UNL     1      -4.382  38.422  21.252  1.00  0.00     0.000 C 
ENDROOT
BRANCH   1   2
ATOM      2  C   UNL     1      -5.522  39.443  21.398  1.00  0.00     0.000 C 
BRANCH   2   3
ATOM      3  C   UNL     1      -5.411  40.271  22.690  1.00  0.00     0.000 C 
BRANCH   3   4
ATOM      4  C   UNL     1      -4.333  39.734  23.645  1.00  0.00     0.000 C 
BRANCH   4   5
ATOM      5  C   UNL     1      -4.930  38.977  24.845  1.00  0.00     0.000 C 
BRANCH   5   6
ATOM      6  C   UNL     1      -6.049  38.006  24.433  1.00  0.00     0.006 C 
BRANCH   6   7
ATOM      7  C   UNL     1      -5.748  36.554  24.826  1.00  0.00     0.053 C 
BRANCH   7   8
ATOM      8  C   UNL     1      -5.992  35.639  23.669  1.00  0.00     0.041 C 
ATOM      9  O   UNL     1      -6.125  34.401  23.856  1.00  0.00    -0.550 OA
ATOM     10  O   UNL     1      -6.124  36.159  22.387  1.00  0.00    -0.550 OA
ENDBRANCH   7   8
ENDBRANCH   6   7
ENDBRANCH   5   6
ENDBRANCH   4   5
ENDBRANCH   3   4
ENDBRANCH   2   3
ENDBRANCH   1   2
BRANCH   1  11
ATOM     11  C   UNL     1      -4.034  38.128  19.781  1.00  0.00     0.000 C 
BRANCH  11  12
ATOM     12  C   UNL     1      -4.588  36.777  19.300  1.00  0.00    -0.000 C 
BRANCH  12  13
ATOM     13  C   UNL     1      -3.565  35.983  18.470  1.00  0.00    -0.000 C 
BRANCH  13  14
ATOM     14  C   UNL     1      -3.439  36.498  17.024  1.00  0.00    -0.000 C 
BRANCH  14  15
ATOM     15  C   UNL     1      -1.997  36.741  16.534  1.00  0.00    -0.000 C 
BRANCH  15  16
ATOM     16  C   UNL     1      -1.880  37.459  15.178  1.00  0.00    -0.000 C 
BRANCH  16  17
ATOM     17  C   UNL     1      -3.193  37.443  14.380  1.00  0.00    -0.003 C 
ATOM     18  C   UNL     1      -3.775  38.848  14.253  1.00  0.00     0.004 C 
ENDBRANCH  16  17
ENDBRANCH  15  16
ENDBRANCH  14  15
ENDBRANCH  13  14
ENDBRANCH  12  13
ENDBRANCH  11  12
ENDBRANCH   1  11
TORSDOF 14
ENDMDL
