MODEL 1
REMARK VINA RESULT:    -5.521      0.000      0.000
REMARK INTER + INTRA:          -9.207
REMARK INTER:                  -7.619
REMARK INTRA:                  -1.589
REMARK UNBOUND:                -1.589
REMARK SMILES CC[C@@H](CC[C@@H](C)[C@H]1CC[C@@H]2[C@@H]3CC=C4C[C@H](O)CC[C@@]4(C)[C@H]3CC[C@@]21C)C(C)C
REMARK SMILES IDX 5 1 4 2 3 3 2 4 1 5 28 6 29 7 30 8 6 9 7 10 8 11 9 12 26 13
REMARK SMILES IDX 10 14 11 15 25 16 27 17 12 18 24 19 23 20 13 21 21 22 14 23
REMARK SMILES IDX 15 24 20 25 22 26 16 27 19 28 17 29 18 30
REMARK H PARENT 18 31
REMARK Flexibility Score: inf
ROOT
ATOM      1  C   UNL     1      -8.653  -6.418 -34.096  1.00  0.00     0.004 C 
ENDROOT
BRANCH   1   2
ATOM      2  C   UNL     1      -9.316  -6.107 -32.721  1.00  0.00     0.004 C 
BRANCH   2   3
ATOM      3  C   UNL     1      -8.691  -4.871 -32.012  1.00  0.00    -0.009 C 
BRANCH   3   4
ATOM      4  C   UNL     1      -8.018  -5.312 -30.678  1.00  0.00     0.000 C 
ATOM      5  C   UNL     1      -6.541  -4.963 -30.600  1.00  0.00     0.004 C 
ENDBRANCH   3   4
BRANCH   3   6
ATOM      6  C   UNL     1      -9.717  -3.695 -31.836  1.00  0.00    -0.014 C 
ATOM      7  C   UNL     1     -10.728  -3.972 -30.700  1.00  0.00     0.007 C 
ATOM      8  C   UNL     1      -9.037  -2.331 -31.639  1.00  0.00     0.007 C 
ENDBRANCH   3   6
ENDBRANCH   2   3
ENDBRANCH   1   2
BRANCH   1   9
ATOM      9  C   UNL     1      -7.645  -5.306 -34.533  1.00  0.00    -0.011 C 
ATOM     10  C   UNL     1      -6.187  -5.799 -34.261  1.00  0.00     0.008 C 
BRANCH   9  11
ATOM     11  C   UNL     1      -7.765  -4.805 -36.020  1.00  0.00    -0.002 C 
ATOM     12  C   UNL     1      -7.759  -5.971 -37.029  1.00  0.00     0.005 C 
ATOM     13  C   UNL     1      -8.943  -3.840 -36.445  1.00  0.00    -0.026 C 
ATOM     14  C   UNL     1      -8.767  -5.608 -38.116  1.00  0.00     0.005 C 
ATOM     15  C   UNL     1      -9.785  -4.740 -37.377  1.00  0.00    -0.001 C 
ATOM     16  C   UNL     1      -8.333  -2.652 -37.272  1.00  0.00     0.007 C 
ATOM     17  C   UNL     1      -9.806  -3.285 -35.278  1.00  0.00     0.012 C 
ATOM     18  C   UNL     1     -10.809  -3.965 -38.259  1.00  0.00     0.000 C 
ATOM     19  C   UNL     1      -9.365  -1.850 -38.067  1.00  0.00     0.005 C 
ATOM     20  C   UNL     1     -10.233  -2.732 -39.000  1.00  0.00     0.003 C 
ATOM     21  C   UNL     1     -11.410  -4.901 -39.322  1.00  0.00     0.031 C 
ATOM     22  C   UNL     1     -11.358  -1.955 -39.818  1.00  0.00    -0.008 C 
ATOM     23  C   UNL     1     -12.515  -4.209 -40.043  1.00  0.00    -0.027 C 
ATOM     24  C   UNL     1     -12.473  -2.897 -40.360  1.00  0.00    -0.065 C 
ATOM     25  C   UNL     1     -12.050  -0.866 -38.906  1.00  0.00     0.014 C 
ATOM     26  C   UNL     1     -10.676  -1.220 -41.004  1.00  0.00     0.016 C 
ATOM     27  C   UNL     1     -13.739  -2.276 -40.922  1.00  0.00     0.063 C 
ATOM     28  C   UNL     1     -13.316  -0.247 -39.518  1.00  0.00     0.033 C 
ATOM     29  C   UNL     1     -14.350  -1.317 -39.889  1.00  0.00     0.118 C 
BRANCH  29  30
ATOM     30  O   UNL     1     -15.504  -0.740 -40.453  1.00  0.00    -0.393 OA
ATOM     31  H   UNL     1     -16.056  -0.372 -39.717  1.00  0.00     0.210 HD
ENDBRANCH  29  30
ENDBRANCH   9  11
ENDBRANCH   1   9
TORSDOF 7
ENDMDL
MODEL 2
REMARK VINA RESULT:    -5.422      8.814     12.700
REMARK INTER + INTRA:          -9.072
REMARK INTER:                  -6.709
REMARK INTRA:                  -2.362
REMARK UNBOUND:                -1.589
REMARK SMILES CC[C@@H](CC[C@@H](C)[C@H]1CC[C@@H]2[C@@H]3CC=C4C[C@H](O)CC[C@@]4(C)[C@H]3CC[C@@]21C)C(C)C
REMARK SMILES IDX 5 1 4 2 3 3 2 4 1 5 28 6 29 7 30 8 6 9 7 10 8 11 9 12 26 13
REMARK SMILES IDX 10 14 11 15 25 16 27 17 12 18 24 19 23 20 13 21 21 22 14 23
REMARK SMILES IDX 15 24 20 25 22 26 16 27 19 28 17 29 18 30
REMARK H PARENT 18 31
REMARK Flexibility Score: inf
ROOT
ATOM      1  C   UNL     1     -21.326   3.604 -36.668  1.00  0.00     0.004 C 
ENDROOT
BRANCH   1   2
ATOM      2  C   UNL     1     -21.931   4.778 -35.842  1.00  0.00     0.004 C 
BRANCH   2   3
ATOM      3  C   UNL     1     -20.981   5.280 -34.716  1.00  0.00    -0.009 C 
BRANCH   3   4
ATOM      4  C   UNL     1     -21.720   5.245 -33.346  1.00  0.00     0.000 C 
ATOM      5  C   UNL     1     -21.077   4.314 -32.334  1.00  0.00     0.004 C 
ENDBRANCH   3   4
BRANCH   3   6
ATOM      6  C   UNL     1     -20.341   6.676 -35.047  1.00  0.00    -0.014 C 
ATOM      7  C   UNL     1     -21.299   7.845 -34.726  1.00  0.00     0.007 C 
ATOM      8  C   UNL     1     -18.979   6.886 -34.368  1.00  0.00     0.007 C 
ENDBRANCH   3   6
ENDBRANCH   2   3
ENDBRANCH   1   2
BRANCH   1   9
ATOM      9  C   UNL     1     -20.264   2.793 -35.857  1.00  0.00    -0.011 C 
ATOM     10  C   UNL     1     -20.789   1.338 -35.634  1.00  0.00     0.008 C 
BRANCH   9  11
ATOM     11  C   UNL     1     -18.814   2.745 -36.466  1.00  0.00    -0.002 C 
ATOM     12  C   UNL     1     -18.725   3.484 -37.816  1.00  0.00     0.005 C 
ATOM     13  C   UNL     1     -17.571   3.210 -35.607  1.00  0.00    -0.026 C 
ATOM     14  C   UNL     1     -17.381   4.208 -37.825  1.00  0.00     0.005 C 
ATOM     15  C   UNL     1     -17.124   4.492 -36.346  1.00  0.00    -0.001 C 
ATOM     16  C   UNL     1     -16.451   2.116 -35.728  1.00  0.00     0.007 C 
ATOM     17  C   UNL     1     -17.866   3.504 -34.110  1.00  0.00     0.012 C 
ATOM     18  C   UNL     1     -15.692   4.978 -35.970  1.00  0.00     0.000 C 
ATOM     19  C   UNL     1     -15.067   2.586 -35.276  1.00  0.00     0.005 C 
ATOM     20  C   UNL     1     -14.600   3.880 -35.992  1.00  0.00     0.003 C 
ATOM     21  C   UNL     1     -15.242   6.094 -36.929  1.00  0.00     0.031 C 
ATOM     22  C   UNL     1     -13.184   4.442 -35.525  1.00  0.00    -0.008 C 
ATOM     23  C   UNL     1     -13.954   6.680 -36.459  1.00  0.00    -0.027 C 
ATOM     24  C   UNL     1     -12.972   5.937 -35.905  1.00  0.00    -0.065 C 
ATOM     25  C   UNL     1     -13.033   4.318 -33.957  1.00  0.00     0.014 C 
ATOM     26  C   UNL     1     -12.077   3.575 -36.182  1.00  0.00     0.016 C 
ATOM     27  C   UNL     1     -11.796   6.680 -35.297  1.00  0.00     0.063 C 
ATOM     28  C   UNL     1     -11.819   5.067 -33.383  1.00  0.00     0.033 C 
ATOM     29  C   UNL     1     -11.835   6.552 -33.767  1.00  0.00     0.118 C 
BRANCH  29  30
ATOM     30  O   UNL     1     -10.718   7.228 -33.240  1.00  0.00    -0.393 OA
ATOM     31  H   UNL     1     -10.900   8.201 -33.277  1.00  0.00     0.210 HD
ENDBRANCH  29  30
ENDBRANCH   9  11
ENDBRANCH   1   9
TORSDOF 7
ENDMDL
MODEL 3
REMARK VINA RESULT:    -5.318      2.926      7.785
REMARK INTER + INTRA:          -8.927
REMARK INTER:                  -6.086
REMARK INTRA:                  -2.841
REMARK UNBOUND:                -1.589
REMARK SMILES CC[C@@H](CC[C@@H](C)[C@H]1CC[C@@H]2[C@@H]3CC=C4C[C@H](O)CC[C@@]4(C)[C@H]3CC[C@@]21C)C(C)C
REMARK SMILES IDX 5 1 4 2 3 3 2 4 1 5 28 6 29 7 30 8 6 9 7 10 8 11 9 12 26 13
REMARK SMILES IDX 10 14 11 15 25 16 27 17 12 18 24 19 23 20 13 21 21 22 14 23
REMARK SMILES IDX 15 24 20 25 22 26 16 27 19 28 17 29 18 30
REMARK H PARENT 18 31
REMARK Flexibility Score: inf
ROOT
ATOM      1  C   UNL     1     -12.257   0.731 -40.728  1.00  0.00     0.004 C 
ENDROOT
BRANCH   1   2
ATOM      2  C   UNL     1     -12.148   1.838 -39.638  1.00  0.00     0.004 C 
BRANCH   2   3
ATOM      3  C   UNL     1     -12.298   1.281 -38.192  1.00  0.00    -0.009 C 
BRANCH   3   4
ATOM      4  C   UNL     1     -13.627   1.794 -37.563  1.00  0.00     0.000 C 
ATOM      5  C   UNL     1     -14.668   0.703 -37.374  1.00  0.00     0.004 C 
ENDBRANCH   3   4
BRANCH   3   6
ATOM      6  C   UNL     1     -11.034   1.567 -37.303  1.00  0.00    -0.014 C 
ATOM      7  C   UNL     1     -10.928   0.587 -36.113  1.00  0.00     0.007 C 
ATOM      8  C   UNL     1      -9.727   1.587 -38.110  1.00  0.00     0.007 C 
ENDBRANCH   3   6
ENDBRANCH   2   3
ENDBRANCH   1   2
BRANCH   1   9
ATOM      9  C   UNL     1     -12.640  -0.659 -40.126  1.00  0.00    -0.011 C 
ATOM     10  C   UNL     1     -13.902  -1.209 -40.868  1.00  0.00     0.008 C 
BRANCH   9  11
ATOM     11  C   UNL     1     -11.508  -1.752 -40.127  1.00  0.00    -0.002 C 
ATOM     12  C   UNL     1     -10.150  -1.183 -40.584  1.00  0.00     0.005 C 
ATOM     13  C   UNL     1     -11.230  -2.615 -38.832  1.00  0.00    -0.026 C 
ATOM     14  C   UNL     1      -9.088  -1.839 -39.705  1.00  0.00     0.005 C 
ATOM     15  C   UNL     1      -9.832  -2.116 -38.399  1.00  0.00    -0.001 C 
ATOM     16  C   UNL     1     -11.141  -4.125 -39.255  1.00  0.00     0.007 C 
ATOM     17  C   UNL     1     -12.262  -2.446 -37.683  1.00  0.00     0.012 C 
ATOM     18  C   UNL     1      -9.114  -3.041 -37.372  1.00  0.00     0.000 C 
ATOM     19  C   UNL     1     -10.508  -5.033 -38.199  1.00  0.00     0.005 C 
ATOM     20  C   UNL     1      -9.111  -4.547 -37.737  1.00  0.00     0.003 C 
ATOM     21  C   UNL     1      -7.649  -2.606 -37.200  1.00  0.00     0.031 C 
ATOM     22  C   UNL     1      -8.424  -5.430 -36.602  1.00  0.00    -0.008 C 
ATOM     23  C   UNL     1      -7.018  -3.374 -36.089  1.00  0.00    -0.027 C 
ATOM     24  C   UNL     1      -7.284  -4.677 -35.857  1.00  0.00    -0.065 C 
ATOM     25  C   UNL     1      -9.493  -5.871 -35.526  1.00  0.00     0.014 C 
ATOM     26  C   UNL     1      -7.854  -6.714 -37.264  1.00  0.00     0.016 C 
ATOM     27  C   UNL     1      -6.723  -5.285 -34.584  1.00  0.00     0.063 C 
ATOM     28  C   UNL     1      -8.888  -6.501 -34.262  1.00  0.00     0.033 C 
ATOM     29  C   UNL     1      -7.866  -5.570 -33.597  1.00  0.00     0.118 C 
BRANCH  29  30
ATOM     30  O   UNL     1      -7.313  -6.158 -32.443  1.00  0.00    -0.393 OA
ATOM     31  H   UNL     1      -6.335  -6.240 -32.575  1.00  0.00     0.210 HD
ENDBRANCH  29  30
ENDBRANCH   9  11
ENDBRANCH   1   9
TORSDOF 7
ENDMDL
MODEL 4
REMARK VINA RESULT:    -5.297      4.817      8.732
REMARK INTER + INTRA:          -8.899
REMARK INTER:                  -6.147
REMARK INTRA:                  -2.752
REMARK UNBOUND:                -1.589
REMARK SMILES CC[C@@H](CC[C@@H](C)[C@H]1CC[C@@H]2[C@@H]3CC=C4C[C@H](O)CC[C@@]4(C)[C@H]3CC[C@@]21C)C(C)C
REMARK SMILES IDX 5 1 4 2 3 3 2 4 1 5 28 6 29 7 30 8 6 9 7 10 8 11 9 12 26 13
REMARK SMILES IDX 10 14 11 15 25 16 27 17 12 18 24 19 23 20 13 21 21 22 14 23
REMARK SMILES IDX 15 24 20 25 22 26 16 27 19 28 17 29 18 30
REMARK H PARENT 18 31
REMARK Flexibility Score: inf
ROOT
ATOM      1  C   UNL     1     -11.968   6.733 -36.349  1.00  0.00     0.004 C 
ENDROOT
BRANCH   1   2
ATOM      2  C   UNL     1     -12.839   6.243 -35.154  1.00  0.00     0.004 C 
BRANCH   2   3
ATOM      3  C   UNL     1     -13.754   5.040 -35.523  1.00  0.00    -0.009 C 
BRANCH   3   4
ATOM      4  C   UNL     1     -15.246   5.483 -35.497  1.00  0.00     0.000 C 
ATOM      5  C   UNL     1     -15.894   5.513 -36.870  1.00  0.00     0.004 C 
ENDBRANCH   3   4
BRANCH   3   6
ATOM      6  C   UNL     1     -13.462   3.770 -34.644  1.00  0.00    -0.014 C 
ATOM      7  C   UNL     1     -14.058   2.486 -35.264  1.00  0.00     0.007 C 
ATOM      8  C   UNL     1     -11.968   3.585 -34.337  1.00  0.00     0.007 C 
ENDBRANCH   3   6
ENDBRANCH   2   3
ENDBRANCH   1   2
BRANCH   1   9
ATOM      9  C   UNL     1     -12.421   6.108 -37.708  1.00  0.00    -0.011 C 
ATOM     10  C   UNL     1     -12.731   7.255 -38.723  1.00  0.00     0.008 C 
BRANCH   9  11
ATOM     11  C   UNL     1     -11.429   5.076 -38.362  1.00  0.00    -0.002 C 
ATOM     12  C   UNL     1     -10.150   4.885 -37.522  1.00  0.00     0.005 C 
ATOM     13  C   UNL     1     -11.930   3.633 -38.767  1.00  0.00    -0.026 C 
ATOM     14  C   UNL     1      -9.806   3.399 -37.591  1.00  0.00     0.005 C 
ATOM     15  C   UNL     1     -11.167   2.729 -37.771  1.00  0.00    -0.001 C 
ATOM     16  C   UNL     1     -11.442   3.333 -40.229  1.00  0.00     0.007 C 
ATOM     17  C   UNL     1     -13.464   3.405 -38.663  1.00  0.00     0.012 C 
ATOM     18  C   UNL     1     -11.154   1.221 -38.160  1.00  0.00     0.000 C 
ATOM     19  C   UNL     1     -11.514   1.856 -40.622  1.00  0.00     0.005 C 
ATOM     20  C   UNL     1     -10.768   0.926 -39.630  1.00  0.00     0.003 C 
ATOM     21  C   UNL     1     -10.170   0.450 -37.263  1.00  0.00     0.031 C 
ATOM     22  C   UNL     1     -10.851  -0.630 -39.965  1.00  0.00    -0.008 C 
ATOM     23  C   UNL     1     -10.293  -1.014 -37.513  1.00  0.00    -0.027 C 
ATOM     24  C   UNL     1     -10.508  -1.530 -38.742  1.00  0.00    -0.065 C 
ATOM     25  C   UNL     1     -12.305  -1.012 -40.451  1.00  0.00     0.014 C 
ATOM     26  C   UNL     1      -9.864  -0.931 -41.125  1.00  0.00     0.016 C 
ATOM     27  C   UNL     1     -10.803  -3.017 -38.829  1.00  0.00     0.063 C 
ATOM     28  C   UNL     1     -12.557  -2.525 -40.547  1.00  0.00     0.033 C 
ATOM     29  C   UNL     1     -12.274  -3.233 -39.216  1.00  0.00     0.118 C 
BRANCH  29  30
ATOM     30  O   UNL     1     -12.504  -4.619 -39.315  1.00  0.00    -0.393 OA
ATOM     31  H   UNL     1     -11.699  -5.090 -38.981  1.00  0.00     0.210 HD
ENDBRANCH  29  30
ENDBRANCH   9  11
ENDBRANCH   1   9
TORSDOF 7
ENDMDL
MODEL 5
REMARK VINA RESULT:    -5.291     11.891     13.956
REMARK INTER + INTRA:          -8.890
REMARK INTER:                  -6.637
REMARK INTRA:                  -2.253
REMARK UNBOUND:                -1.589
REMARK SMILES CC[C@@H](CC[C@@H](C)[C@H]1CC[C@@H]2[C@@H]3CC=C4C[C@H](O)CC[C@@]4(C)[C@H]3CC[C@@]21C)C(C)C
REMARK SMILES IDX 5 1 4 2 3 3 2 4 1 5 28 6 29 7 30 8 6 9 7 10 8 11 9 12 26 13
REMARK SMILES IDX 10 14 11 15 25 16 27 17 12 18 24 19 23 20 13 21 21 22 14 23
REMARK SMILES IDX 15 24 20 25 22 26 16 27 19 28 17 29 18 30
REMARK H PARENT 18 31
REMARK Flexibility Score: inf
ROOT
ATOM      1  C   UNL     1      -3.900   4.364 -25.825  1.00  0.00     0.004 C 
ENDROOT
BRANCH   1   2
ATOM      2  C   UNL     1      -3.453   5.630 -26.614  1.00  0.00     0.004 C 
BRANCH   2   3
ATOM      3  C   UNL     1      -4.222   5.813 -27.954  1.00  0.00    -0.009 C 
BRANCH   3   4
ATOM      4  C   UNL     1      -3.241   5.654 -29.153  1.00  0.00     0.000 C 
ATOM      5  C   UNL     1      -3.614   4.522 -30.096  1.00  0.00     0.004 C 
ENDBRANCH   3   4
BRANCH   3   6
ATOM      6  C   UNL     1      -5.050   7.148 -27.996  1.00  0.00    -0.014 C 
ATOM      7  C   UNL     1      -5.854   7.373 -26.695  1.00  0.00     0.007 C 
ATOM      8  C   UNL     1      -4.187   8.377 -28.322  1.00  0.00     0.007 C 
ENDBRANCH   3   6
ENDBRANCH   2   3
ENDBRANCH   1   2
BRANCH   1   9
ATOM      9  C   UNL     1      -4.817   3.427 -26.677  1.00  0.00    -0.011 C 
ATOM     10  C   UNL     1      -4.044   2.107 -26.998  1.00  0.00     0.008 C 
BRANCH   9  11
ATOM     11  C   UNL     1      -6.221   3.081 -26.058  1.00  0.00    -0.002 C 
ATOM     12  C   UNL     1      -6.335   3.526 -24.586  1.00  0.00     0.005 C 
ATOM     13  C   UNL     1      -7.548   3.545 -26.780  1.00  0.00    -0.026 C 
ATOM     14  C   UNL     1      -7.753   4.060 -24.404  1.00  0.00     0.005 C 
ATOM     15  C   UNL     1      -8.110   4.593 -25.792  1.00  0.00    -0.001 C 
ATOM     16  C   UNL     1      -8.525   2.318 -26.855  1.00  0.00     0.007 C 
ATOM     17  C   UNL     1      -7.359   4.159 -28.195  1.00  0.00     0.012 C 
ATOM     18  C   UNL     1      -9.605   4.960 -26.033  1.00  0.00     0.000 C 
ATOM     19  C   UNL     1      -9.974   2.690 -27.175  1.00  0.00     0.005 C 
ATOM     20  C   UNL     1     -10.557   3.751 -26.206  1.00  0.00     0.003 C 
ATOM     21  C   UNL     1     -10.140   5.802 -24.861  1.00  0.00     0.031 C 
ATOM     22  C   UNL     1     -12.049   4.212 -26.522  1.00  0.00    -0.008 C 
ATOM     23  C   UNL     1     -11.508   6.303 -25.177  1.00  0.00    -0.027 C 
ATOM     24  C   UNL     1     -12.420   5.566 -25.846  1.00  0.00    -0.065 C 
ATOM     25  C   UNL     1     -12.257   4.378 -28.079  1.00  0.00     0.014 C 
ATOM     26  C   UNL     1     -13.016   3.102 -26.026  1.00  0.00     0.016 C 
ATOM     27  C   UNL     1     -13.702   6.260 -26.269  1.00  0.00     0.063 C 
ATOM     28  C   UNL     1     -13.575   5.067 -28.466  1.00  0.00     0.033 C 
ATOM     29  C   UNL     1     -13.718   6.439 -27.794  1.00  0.00     0.118 C 
BRANCH  29  30
ATOM     30  O   UNL     1     -14.930   7.060 -28.152  1.00  0.00    -0.393 OA
ATOM     31  H   UNL     1     -14.717   7.912 -28.610  1.00  0.00     0.210 HD
ENDBRANCH  29  30
ENDBRANCH   9  11
ENDBRANCH   1   9
TORSDOF 7
ENDMDL
MODEL 6
REMARK VINA RESULT:    -5.277      8.230     11.157
REMARK INTER + INTRA:          -8.870
REMARK INTER:                  -6.612
REMARK INTRA:                  -2.258
REMARK UNBOUND:                -1.589
REMARK SMILES CC[C@@H](CC[C@@H](C)[C@H]1CC[C@@H]2[C@@H]3CC=C4C[C@H](O)CC[C@@]4(C)[C@H]3CC[C@@]21C)C(C)C
REMARK SMILES IDX 5 1 4 2 3 3 2 4 1 5 28 6 29 7 30 8 6 9 7 10 8 11 9 12 26 13
REMARK SMILES IDX 10 14 11 15 25 16 27 17 12 18 24 19 23 20 13 21 21 22 14 23
REMARK SMILES IDX 15 24 20 25 22 26 16 27 19 28 17 29 18 30
REMARK H PARENT 18 31
REMARK Flexibility Score: inf
ROOT
ATOM      1  C   UNL     1     -15.963   2.801 -34.374  1.00  0.00     0.004 C 
ENDROOT
BRANCH   1   2
ATOM      2  C   UNL     1     -16.891   3.958 -33.902  1.00  0.00     0.004 C 
BRANCH   2   3
ATOM      3  C   UNL     1     -17.700   4.601 -35.066  1.00  0.00    -0.009 C 
BRANCH   3   4
ATOM      4  C   UNL     1     -17.342   3.899 -36.408  1.00  0.00     0.000 C 
ATOM      5  C   UNL     1     -18.552   3.361 -37.153  1.00  0.00     0.004 C 
ENDBRANCH   3   4
BRANCH   3   6
ATOM      6  C   UNL     1     -17.544   6.164 -35.116  1.00  0.00    -0.014 C 
ATOM      7  C   UNL     1     -16.718   6.626 -36.337  1.00  0.00     0.007 C 
ATOM      8  C   UNL     1     -18.891   6.902 -35.059  1.00  0.00     0.007 C 
ENDBRANCH   3   6
ENDBRANCH   2   3
ENDBRANCH   1   2
BRANCH   1   9
ATOM      9  C   UNL     1     -14.456   3.089 -34.074  1.00  0.00    -0.011 C 
ATOM     10  C   UNL     1     -13.909   1.997 -33.099  1.00  0.00     0.008 C 
BRANCH   9  11
ATOM     11  C   UNL     1     -13.509   3.205 -35.325  1.00  0.00    -0.002 C 
ATOM     12  C   UNL     1     -14.072   2.461 -36.553  1.00  0.00     0.005 C 
ATOM     13  C   UNL     1     -13.023   4.621 -35.832  1.00  0.00    -0.026 C 
ATOM     14  C   UNL     1     -13.756   3.330 -37.767  1.00  0.00     0.005 C 
ATOM     15  C   UNL     1     -13.743   4.746 -37.194  1.00  0.00    -0.001 C 
ATOM     16  C   UNL     1     -11.471   4.558 -36.061  1.00  0.00     0.007 C 
ATOM     17  C   UNL     1     -13.373   5.818 -34.904  1.00  0.00     0.012 C 
ATOM     18  C   UNL     1     -13.172   5.865 -38.116  1.00  0.00     0.000 C 
ATOM     19  C   UNL     1     -10.916   5.710 -36.900  1.00  0.00     0.005 C 
ATOM     20  C   UNL     1     -11.631   5.867 -38.267  1.00  0.00     0.003 C 
ATOM     21  C   UNL     1     -13.772   5.746 -39.528  1.00  0.00     0.031 C 
ATOM     22  C   UNL     1     -11.124   7.083 -39.163  1.00  0.00    -0.008 C 
ATOM     23  C   UNL     1     -13.367   6.918 -40.354  1.00  0.00    -0.027 C 
ATOM     24  C   UNL     1     -12.142   7.482 -40.272  1.00  0.00    -0.065 C 
ATOM     25  C   UNL     1     -10.865   8.358 -38.267  1.00  0.00     0.014 C 
ATOM     26  C   UNL     1      -9.776   6.676 -39.817  1.00  0.00     0.016 C 
ATOM     27  C   UNL     1     -11.923   8.782 -41.025  1.00  0.00     0.063 C 
ATOM     28  C   UNL     1     -10.627   9.649 -39.066  1.00  0.00     0.033 C 
ATOM     29  C   UNL     1     -11.785   9.942 -40.028  1.00  0.00     0.118 C 
BRANCH  29  30
ATOM     30  O   UNL     1     -11.556  11.125 -40.758  1.00  0.00    -0.393 OA
ATOM     31  H   UNL     1     -11.698  11.895 -40.151  1.00  0.00     0.210 HD
ENDBRANCH  29  30
ENDBRANCH   9  11
ENDBRANCH   1   9
TORSDOF 7
ENDMDL
MODEL 7
REMARK VINA RESULT:    -5.264      4.709      9.240
REMARK INTER + INTRA:          -8.853
REMARK INTER:                  -6.469
REMARK INTRA:                  -2.384
REMARK UNBOUND:                -1.589
REMARK SMILES CC[C@@H](CC[C@@H](C)[C@H]1CC[C@@H]2[C@@H]3CC=C4C[C@H](O)CC[C@@]4(C)[C@H]3CC[C@@]21C)C(C)C
REMARK SMILES IDX 5 1 4 2 3 3 2 4 1 5 28 6 29 7 30 8 6 9 7 10 8 11 9 12 26 13
REMARK SMILES IDX 10 14 11 15 25 16 27 17 12 18 24 19 23 20 13 21 21 22 14 23
REMARK SMILES IDX 15 24 20 25 22 26 16 27 19 28 17 29 18 30
REMARK H PARENT 18 31
REMARK Flexibility Score: inf
ROOT
ATOM      1  C   UNL     1     -14.007   6.304 -37.140  1.00  0.00     0.004 C 
ENDROOT
BRANCH   1   2
ATOM      2  C   UNL     1     -15.022   5.630 -38.109  1.00  0.00     0.004 C 
BRANCH   2   3
ATOM      3  C   UNL     1     -16.344   5.207 -37.405  1.00  0.00    -0.009 C 
BRANCH   3   4
ATOM      4  C   UNL     1     -16.311   5.646 -35.912  1.00  0.00     0.000 C 
ATOM      5  C   UNL     1     -17.563   6.385 -35.469  1.00  0.00     0.004 C 
ENDBRANCH   3   4
BRANCH   3   6
ATOM      6  C   UNL     1     -16.670   3.683 -37.602  1.00  0.00    -0.014 C 
ATOM      7  C   UNL     1     -16.815   2.941 -36.254  1.00  0.00     0.007 C 
ATOM      8  C   UNL     1     -17.901   3.444 -38.490  1.00  0.00     0.007 C 
ENDBRANCH   3   6
ENDBRANCH   2   3
ENDBRANCH   1   2
BRANCH   1   9
ATOM      9  C   UNL     1     -12.537   5.846 -37.408  1.00  0.00    -0.011 C 
ATOM     10  C   UNL     1     -11.553   6.911 -36.825  1.00  0.00     0.008 C 
BRANCH   9  11
ATOM     11  C   UNL     1     -12.147   4.418 -36.875  1.00  0.00    -0.002 C 
ATOM     12  C   UNL     1     -12.959   4.020 -35.625  1.00  0.00     0.005 C 
ATOM     13  C   UNL     1     -12.163   3.171 -37.846  1.00  0.00    -0.026 C 
ATOM     14  C   UNL     1     -13.278   2.535 -35.771  1.00  0.00     0.005 C 
ATOM     15  C   UNL     1     -13.335   2.333 -37.285  1.00  0.00    -0.001 C 
ATOM     16  C   UNL     1     -10.818   2.382 -37.659  1.00  0.00     0.007 C 
ATOM     17  C   UNL     1     -12.381   3.498 -39.349  1.00  0.00     0.012 C 
ATOM     18  C   UNL     1     -13.365   0.860 -37.790  1.00  0.00     0.000 C 
ATOM     19  C   UNL     1     -10.839   0.965 -38.235  1.00  0.00     0.005 C 
ATOM     20  C   UNL     1     -12.014   0.108 -37.699  1.00  0.00     0.003 C 
ATOM     21  C   UNL     1     -14.399   0.047 -36.992  1.00  0.00     0.031 C 
ATOM     22  C   UNL     1     -12.113  -1.363 -38.303  1.00  0.00    -0.008 C 
ATOM     23  C   UNL     1     -14.556  -1.308 -37.593  1.00  0.00    -0.027 C 
ATOM     24  C   UNL     1     -13.519  -2.003 -38.109  1.00  0.00    -0.065 C 
ATOM     25  C   UNL     1     -11.801  -1.346 -39.851  1.00  0.00     0.014 C 
ATOM     26  C   UNL     1     -11.040  -2.246 -37.609  1.00  0.00     0.016 C 
ATOM     27  C   UNL     1     -13.845  -3.282 -38.860  1.00  0.00     0.063 C 
ATOM     28  C   UNL     1     -12.125  -2.665 -40.571  1.00  0.00     0.033 C 
ATOM     29  C   UNL     1     -13.585  -3.083 -40.361  1.00  0.00     0.118 C 
BRANCH  29  30
ATOM     30  O   UNL     1     -13.870  -4.294 -41.021  1.00  0.00    -0.393 OA
ATOM     31  H   UNL     1     -13.669  -4.176 -41.984  1.00  0.00     0.210 HD
ENDBRANCH  29  30
ENDBRANCH   9  11
ENDBRANCH   1   9
TORSDOF 7
ENDMDL
MODEL 8
REMARK VINA RESULT:    -5.241     12.483     14.930
REMARK INTER + INTRA:          -8.821
REMARK INTER:                  -6.331
REMARK INTRA:                  -2.490
REMARK UNBOUND:                -1.589
REMARK SMILES CC[C@@H](CC[C@@H](C)[C@H]1CC[C@@H]2[C@@H]3CC=C4C[C@H](O)CC[C@@]4(C)[C@H]3CC[C@@]21C)C(C)C
REMARK SMILES IDX 5 1 4 2 3 3 2 4 1 5 28 6 29 7 30 8 6 9 7 10 8 11 9 12 26 13
REMARK SMILES IDX 10 14 11 15 25 16 27 17 12 18 24 19 23 20 13 21 21 22 14 23
REMARK SMILES IDX 15 24 20 25 22 26 16 27 19 28 17 29 18 30
REMARK H PARENT 18 31
REMARK Flexibility Score: inf
ROOT
ATOM      1  C   UNL     1     -10.650   6.007 -25.177  1.00  0.00     0.004 C 
ENDROOT
BRANCH   1   2
ATOM      2  C   UNL     1      -9.654   5.473 -24.106  1.00  0.00     0.004 C 
BRANCH   2   3
ATOM      3  C   UNL     1      -8.363   4.866 -24.726  1.00  0.00    -0.009 C 
BRANCH   3   4
ATOM      4  C   UNL     1      -8.254   5.275 -26.225  1.00  0.00     0.000 C 
ATOM      5  C   UNL     1      -7.104   6.226 -26.512  1.00  0.00     0.004 C 
ENDBRANCH   3   4
BRANCH   3   6
ATOM      6  C   UNL     1      -8.253   3.317 -24.491  1.00  0.00    -0.014 C 
ATOM      7  C   UNL     1      -7.539   2.601 -25.661  1.00  0.00     0.007 C 
ATOM      8  C   UNL     1      -7.592   2.960 -23.151  1.00  0.00     0.007 C 
ENDBRANCH   3   6
ENDBRANCH   2   3
ENDBRANCH   1   2
BRANCH   1   9
ATOM      9  C   UNL     1     -12.107   5.490 -24.943  1.00  0.00    -0.011 C 
ATOM     10  C   UNL     1     -13.119   6.520 -25.542  1.00  0.00     0.008 C 
BRANCH   9  11
ATOM     11  C   UNL     1     -12.430   4.051 -25.492  1.00  0.00    -0.002 C 
ATOM     12  C   UNL     1     -11.497   3.647 -26.651  1.00  0.00     0.005 C 
ATOM     13  C   UNL     1     -12.494   2.817 -24.506  1.00  0.00    -0.026 C 
ATOM     14  C   UNL     1     -11.178   2.167 -26.455  1.00  0.00     0.005 C 
ATOM     15  C   UNL     1     -11.265   1.986 -24.940  1.00  0.00    -0.001 C 
ATOM     16  C   UNL     1     -13.807   2.011 -24.811  1.00  0.00     0.007 C 
ATOM     17  C   UNL     1     -12.426   3.165 -22.994  1.00  0.00     0.012 C 
ATOM     18  C   UNL     1     -11.269   0.519 -24.414  1.00  0.00     0.000 C 
ATOM     19  C   UNL     1     -13.828   0.601 -24.216  1.00  0.00     0.005 C 
ATOM     20  C   UNL     1     -12.598  -0.249 -24.624  1.00  0.00     0.003 C 
ATOM     21  C   UNL     1     -10.156  -0.293 -25.098  1.00  0.00     0.031 C 
ATOM     22  C   UNL     1     -12.543  -1.711 -23.994  1.00  0.00    -0.008 C 
ATOM     23  C   UNL     1     -10.044  -1.638 -24.465  1.00  0.00    -0.027 C 
ATOM     24  C   UNL     1     -11.118  -2.338 -24.043  1.00  0.00    -0.065 C 
ATOM     25  C   UNL     1     -13.003  -1.678 -22.483  1.00  0.00     0.014 C 
ATOM     26  C   UNL     1     -13.535  -2.615 -24.776  1.00  0.00     0.016 C 
ATOM     27  C   UNL     1     -10.854  -3.603 -23.246  1.00  0.00     0.063 C 
ATOM     28  C   UNL     1     -12.737  -2.983 -21.717  1.00  0.00     0.033 C 
ATOM     29  C   UNL     1     -11.259  -3.388 -21.780  1.00  0.00     0.118 C 
BRANCH  29  30
ATOM     30  O   UNL     1     -11.027  -4.588 -21.079  1.00  0.00    -0.393 OA
ATOM     31  H   UNL     1     -11.653  -4.623 -20.312  1.00  0.00     0.210 HD
ENDBRANCH  29  30
ENDBRANCH   9  11
ENDBRANCH   1   9
TORSDOF 7
ENDMDL
MODEL 9
REMARK VINA RESULT:    -5.158      7.841     10.580
REMARK INTER + INTRA:          -8.706
REMARK INTER:                  -5.881
REMARK INTRA:                  -2.826
REMARK UNBOUND:                -1.589
REMARK SMILES CC[C@@H](CC[C@@H](C)[C@H]1CC[C@@H]2[C@@H]3CC=C4C[C@H](O)CC[C@@]4(C)[C@H]3CC[C@@]21C)C(C)C
REMARK SMILES IDX 5 1 4 2 3 3 2 4 1 5 28 6 29 7 30 8 6 9 7 10 8 11 9 12 26 13
REMARK SMILES IDX 10 14 11 15 25 16 27 17 12 18 24 19 23 20 13 21 21 22 14 23
REMARK SMILES IDX 15 24 20 25 22 26 16 27 19 28 17 29 18 30
REMARK H PARENT 18 31
REMARK Flexibility Score: inf
ROOT
ATOM      1  C   UNL     1     -15.639   0.971 -34.579  1.00  0.00     0.004 C 
ENDROOT
BRANCH   1   2
ATOM      2  C   UNL     1     -16.941   1.090 -35.425  1.00  0.00     0.004 C 
BRANCH   2   3
ATOM      3  C   UNL     1     -17.199   2.536 -35.940  1.00  0.00    -0.009 C 
BRANCH   3   4
ATOM      4  C   UNL     1     -18.531   3.079 -35.344  1.00  0.00     0.000 C 
ATOM      5  C   UNL     1     -18.337   3.915 -34.090  1.00  0.00     0.004 C 
ENDBRANCH   3   4
BRANCH   3   6
ATOM      6  C   UNL     1     -17.127   2.638 -37.506  1.00  0.00    -0.014 C 
ATOM      7  C   UNL     1     -16.872   4.087 -37.982  1.00  0.00     0.007 C 
ATOM      8  C   UNL     1     -16.102   1.675 -38.123  1.00  0.00     0.007 C 
ENDBRANCH   3   6
ENDBRANCH   2   3
ENDBRANCH   1   2
BRANCH   1   9
ATOM      9  C   UNL     1     -15.106   2.363 -34.111  1.00  0.00    -0.011 C 
ATOM     10  C   UNL     1     -14.985   2.370 -32.553  1.00  0.00     0.008 C 
BRANCH   9  11
ATOM     11  C   UNL     1     -13.747   2.836 -34.749  1.00  0.00    -0.002 C 
ATOM     12  C   UNL     1     -13.236   1.856 -35.824  1.00  0.00     0.005 C 
ATOM     13  C   UNL     1     -13.613   4.290 -35.356  1.00  0.00    -0.026 C 
ATOM     14  C   UNL     1     -12.647   2.710 -36.943  1.00  0.00     0.005 C 
ATOM     15  C   UNL     1     -13.459   4.002 -36.867  1.00  0.00    -0.001 C 
ATOM     16  C   UNL     1     -12.290   4.934 -34.806  1.00  0.00     0.007 C 
ATOM     17  C   UNL     1     -14.815   5.238 -35.089  1.00  0.00     0.012 C 
ATOM     18  C   UNL     1     -12.926   5.209 -37.695  1.00  0.00     0.000 C 
ATOM     19  C   UNL     1     -11.826   6.168 -35.582  1.00  0.00     0.005 C 
ATOM     20  C   UNL     1     -11.678   5.910 -37.103  1.00  0.00     0.003 C 
ATOM     21  C   UNL     1     -12.567   4.757 -39.121  1.00  0.00     0.031 C 
ATOM     22  C   UNL     1     -11.243   7.175 -37.968  1.00  0.00    -0.008 C 
ATOM     23  C   UNL     1     -12.231   5.941 -39.961  1.00  0.00    -0.027 C 
ATOM     24  C   UNL     1     -11.551   7.007 -39.485  1.00  0.00    -0.065 C 
ATOM     25  C   UNL     1     -11.994   8.471 -37.465  1.00  0.00     0.014 C 
ATOM     26  C   UNL     1      -9.719   7.399 -37.769  1.00  0.00     0.016 C 
ATOM     27  C   UNL     1     -11.443   8.222 -40.387  1.00  0.00     0.063 C 
ATOM     28  C   UNL     1     -11.843   9.685 -38.396  1.00  0.00     0.033 C 
ATOM     29  C   UNL     1     -12.300   9.366 -39.824  1.00  0.00     0.118 C 
BRANCH  29  30
ATOM     30  O   UNL     1     -12.153  10.483 -40.669  1.00  0.00    -0.393 OA
ATOM     31  H   UNL     1     -11.779  11.228 -40.134  1.00  0.00     0.210 HD
ENDBRANCH  29  30
ENDBRANCH   9  11
ENDBRANCH   1   9
TORSDOF 7
ENDMDL
