MODEL 1
REMARK VINA RESULT:    -6.095      0.000      0.000
REMARK INTER + INTRA:          -7.531
REMARK INTER:                  -7.342
REMARK INTRA:                  -0.188
REMARK UNBOUND:                -0.188
REMARK SMILES O=c1c(O)c(-c2ccc(O)cc2O)oc2cc(O)cc(O)c12
REMARK SMILES IDX 5 1 3 2 2 3 1 4 22 5 20 6 19 7 17 8 16 9 15 10 14 11 6 12
REMARK SMILES IDX 8 13 7 14 9 15 11 16 12 17 10 18 13 20 4 22 21 24 18 26
REMARK H PARENT 10 19 13 21 4 23 21 25 18 27
REMARK Flexibility Score: inf
ROOT
ATOM      1  C   UNL     1      15.573  -7.640 -31.122  1.00  0.00     0.184 A 
ATOM      2  C   UNL     1      14.396  -6.916 -30.879  1.00  0.00     0.208 A 
ATOM      3  C   UNL     1      13.582  -7.285 -29.798  1.00  0.00     0.238 A 
ATOM      4  O   UNL     1      12.491  -6.680 -29.630  1.00  0.00    -0.285 OA
ATOM      5  C   UNL     1      13.982  -8.340 -28.942  1.00  0.00     0.111 A 
ATOM      6  C   UNL     1      13.257  -8.771 -27.789  1.00  0.00     0.134 A 
ATOM      7  C   UNL     1      13.697  -9.895 -27.078  1.00  0.00     0.093 A 
ATOM      8  C   UNL     1      14.869 -10.563 -27.438  1.00  0.00     0.123 A 
ATOM      9  C   UNL     1      15.613 -10.117 -28.526  1.00  0.00     0.094 A 
ATOM     10  C   UNL     1      15.181  -9.023 -29.280  1.00  0.00     0.146 A 
ATOM     11  O   UNL     1      15.910  -8.644 -30.323  1.00  0.00    -0.451 OA
ENDROOT
BRANCH   1  12
ATOM     12  C   UNL     1      16.472  -7.308 -32.248  1.00  0.00     0.063 A 
ATOM     13  C   UNL     1      16.743  -6.829 -34.616  1.00  0.00     0.047 A 
ATOM     14  C   UNL     1      15.924  -7.148 -33.531  1.00  0.00     0.020 A 
ATOM     15  C   UNL     1      18.120  -6.650 -34.430  1.00  0.00     0.119 A 
ATOM     16  C   UNL     1      18.670  -6.785 -33.151  1.00  0.00     0.093 A 
ATOM     17  C   UNL     1      17.853  -7.100 -32.055  1.00  0.00     0.130 A 
BRANCH  15  18
ATOM     18  O   UNL     1      18.948  -6.335 -35.505  1.00  0.00    -0.508 OA
ATOM     19  H   UNL     1      19.730  -6.927 -35.761  1.00  0.00     0.293 HD
ENDBRANCH  15  18
BRANCH  17  20
ATOM     20  O   UNL     1      18.407  -7.183 -30.778  1.00  0.00    -0.507 OA
ATOM     21  H   UNL     1      17.835  -7.109 -29.945  1.00  0.00     0.293 HD
ENDBRANCH  17  20
ENDBRANCH   1  12
BRANCH   2  22
ATOM     22  O   UNL     1      14.060  -5.834 -31.698  1.00  0.00    -0.502 OA
ATOM     23  H   UNL     1      13.690  -5.955 -32.634  1.00  0.00     0.293 HD
ENDBRANCH   2  22
BRANCH   6  24
ATOM     24  O   UNL     1      12.123  -8.124 -27.290  1.00  0.00    -0.507 OA
ATOM     25  H   UNL     1      11.688  -8.323 -26.402  1.00  0.00     0.293 HD
ENDBRANCH   6  24
BRANCH   8  26
ATOM     26  O   UNL     1      15.307 -11.669 -26.713  1.00  0.00    -0.508 OA
ATOM     27  H   UNL     1      15.580 -12.530 -27.171  1.00  0.00     0.293 HD
ENDBRANCH   8  26
TORSDOF 6
ENDMDL
MODEL 2
REMARK VINA RESULT:    -5.971      1.501      6.688
REMARK INTER + INTRA:          -7.381
REMARK INTER:                  -7.078
REMARK INTRA:                  -0.303
REMARK UNBOUND:                -0.188
REMARK SMILES O=c1c(O)c(-c2ccc(O)cc2O)oc2cc(O)cc(O)c12
REMARK SMILES IDX 5 1 3 2 2 3 1 4 22 5 20 6 19 7 17 8 16 9 15 10 14 11 6 12
REMARK SMILES IDX 8 13 7 14 9 15 11 16 12 17 10 18 13 20 4 22 21 24 18 26
REMARK H PARENT 10 19 13 21 4 23 21 25 18 27
REMARK Flexibility Score: inf
ROOT
ATOM      1  C   UNL     1      15.521  -7.499 -31.781  1.00  0.00     0.184 A 
ATOM      2  C   UNL     1      14.838  -6.970 -32.886  1.00  0.00     0.208 A 
ATOM      3  C   UNL     1      15.575  -6.562 -34.009  1.00  0.00     0.238 A 
ATOM      4  O   UNL     1      14.964  -6.020 -34.967  1.00  0.00    -0.285 OA
ATOM      5  C   UNL     1      16.979  -6.738 -34.033  1.00  0.00     0.111 A 
ATOM      6  C   UNL     1      17.823  -6.402 -35.135  1.00  0.00     0.134 A 
ATOM      7  C   UNL     1      19.212  -6.524 -35.004  1.00  0.00     0.093 A 
ATOM      8  C   UNL     1      19.785  -7.029 -33.835  1.00  0.00     0.123 A 
ATOM      9  C   UNL     1      18.967  -7.413 -32.775  1.00  0.00     0.094 A 
ATOM     10  C   UNL     1      17.581  -7.268 -32.860  1.00  0.00     0.146 A 
ATOM     11  O   UNL     1      16.841  -7.626 -31.817  1.00  0.00    -0.451 OA
ENDROOT
BRANCH   1  12
ATOM     12  C   UNL     1      14.807  -7.941 -30.565  1.00  0.00     0.063 A 
ATOM     13  C   UNL     1      14.174  -9.752 -29.071  1.00  0.00     0.047 A 
ATOM     14  C   UNL     1      14.834  -9.301 -30.217  1.00  0.00     0.020 A 
ATOM     15  C   UNL     1      13.491  -8.846 -28.250  1.00  0.00     0.119 A 
ATOM     16  C   UNL     1      13.479  -7.487 -28.577  1.00  0.00     0.093 A 
ATOM     17  C   UNL     1      14.143  -7.025 -29.723  1.00  0.00     0.130 A 
BRANCH  15  18
ATOM     18  O   UNL     1      12.826  -9.284 -27.107  1.00  0.00    -0.508 OA
ATOM     19  H   UNL     1      12.809  -8.729 -26.260  1.00  0.00     0.293 HD
ENDBRANCH  15  18
BRANCH  17  20
ATOM     20  O   UNL     1      14.164  -5.660 -30.010  1.00  0.00    -0.507 OA
ATOM     21  H   UNL     1      13.368  -5.064 -29.817  1.00  0.00     0.293 HD
ENDBRANCH  17  20
ENDBRANCH   1  12
BRANCH   2  22
ATOM     22  O   UNL     1      13.444  -6.872 -32.865  1.00  0.00    -0.502 OA
ATOM     23  H   UNL     1      12.957  -6.168 -32.323  1.00  0.00     0.293 HD
ENDBRANCH   2  22
BRANCH   6  24
ATOM     24  O   UNL     1      17.351  -5.970 -36.379  1.00  0.00    -0.507 OA
ATOM     25  H   UNL     1      16.639  -5.269 -36.516  1.00  0.00     0.293 HD
ENDBRANCH   6  24
BRANCH   8  26
ATOM     26  O   UNL     1      21.167  -7.163 -33.722  1.00  0.00    -0.508 OA
ATOM     27  H   UNL     1      21.599  -7.500 -32.871  1.00  0.00     0.293 HD
ENDBRANCH   8  26
TORSDOF 6
ENDMDL
MODEL 3
REMARK VINA RESULT:    -5.925      1.631      6.581
REMARK INTER + INTRA:          -7.326
REMARK INTER:                  -7.098
REMARK INTRA:                  -0.228
REMARK UNBOUND:                -0.188
REMARK SMILES O=c1c(O)c(-c2ccc(O)cc2O)oc2cc(O)cc(O)c12
REMARK SMILES IDX 5 1 3 2 2 3 1 4 22 5 20 6 19 7 17 8 16 9 15 10 14 11 6 12
REMARK SMILES IDX 8 13 7 14 9 15 11 16 12 17 10 18 13 20 4 22 21 24 18 26
REMARK H PARENT 10 19 13 21 4 23 21 25 18 27
REMARK Flexibility Score: inf
ROOT
ATOM      1  C   UNL     1      15.238  -7.101 -31.579  1.00  0.00     0.184 A 
ATOM      2  C   UNL     1      14.645  -6.678 -32.778  1.00  0.00     0.208 A 
ATOM      3  C   UNL     1      15.457  -6.479 -33.905  1.00  0.00     0.238 A 
ATOM      4  O   UNL     1      14.930  -6.029 -34.956  1.00  0.00    -0.285 OA
ATOM      5  C   UNL     1      16.844  -6.757 -33.833  1.00  0.00     0.111 A 
ATOM      6  C   UNL     1      17.756  -6.634 -34.925  1.00  0.00     0.134 A 
ATOM      7  C   UNL     1      19.124  -6.836 -34.708  1.00  0.00     0.093 A 
ATOM      8  C   UNL     1      19.607  -7.219 -33.454  1.00  0.00     0.123 A 
ATOM      9  C   UNL     1      18.719  -7.396 -32.396  1.00  0.00     0.094 A 
ATOM     10  C   UNL     1      17.353  -7.165 -32.571  1.00  0.00     0.146 A 
ATOM     11  O   UNL     1      16.545  -7.325 -31.530  1.00  0.00    -0.451 OA
ENDROOT
BRANCH   1  12
ATOM     12  C   UNL     1      14.442  -7.322 -30.353  1.00  0.00     0.063 A 
ATOM     13  C   UNL     1      12.818  -6.480 -28.752  1.00  0.00     0.047 A 
ATOM     14  C   UNL     1      13.589  -6.302 -29.904  1.00  0.00     0.020 A 
ATOM     15  C   UNL     1      12.878  -7.687 -28.045  1.00  0.00     0.119 A 
ATOM     16  C   UNL     1      13.708  -8.716 -28.499  1.00  0.00     0.093 A 
ATOM     17  C   UNL     1      14.481  -8.548 -29.657  1.00  0.00     0.130 A 
BRANCH  15  18
ATOM     18  O   UNL     1      12.117  -7.874 -26.893  1.00  0.00    -0.508 OA
ATOM     19  H   UNL     1      11.745  -8.784 -26.647  1.00  0.00     0.293 HD
ENDBRANCH  15  18
BRANCH  17  20
ATOM     20  O   UNL     1      15.266  -9.601 -30.127  1.00  0.00    -0.507 OA
ATOM     21  H   UNL     1      15.739 -10.235 -29.494  1.00  0.00     0.293 HD
ENDBRANCH  17  20
ENDBRANCH   1  12
BRANCH   2  22
ATOM     22  O   UNL     1      13.263  -6.479 -32.842  1.00  0.00    -0.502 OA
ATOM     23  H   UNL     1      12.829  -5.909 -33.559  1.00  0.00     0.293 HD
ENDBRANCH   2  22
BRANCH   6  24
ATOM     24  O   UNL     1      17.371  -6.342 -36.238  1.00  0.00    -0.507 OA
ATOM     25  H   UNL     1      16.428  -6.403 -36.591  1.00  0.00     0.293 HD
ENDBRANCH   6  24
BRANCH   8  26
ATOM     26  O   UNL     1      20.969  -7.434 -33.253  1.00  0.00    -0.508 OA
ATOM     27  H   UNL     1      21.345  -8.364 -33.120  1.00  0.00     0.293 HD
ENDBRANCH   8  26
TORSDOF 6
ENDMDL
MODEL 4
REMARK VINA RESULT:    -5.913      1.456      7.114
REMARK INTER + INTRA:          -7.311
REMARK INTER:                  -6.900
REMARK INTRA:                  -0.411
REMARK UNBOUND:                -0.188
REMARK SMILES O=c1c(O)c(-c2ccc(O)cc2O)oc2cc(O)cc(O)c12
REMARK SMILES IDX 5 1 3 2 2 3 1 4 22 5 20 6 19 7 17 8 16 9 15 10 14 11 6 12
REMARK SMILES IDX 8 13 7 14 9 15 11 16 12 17 10 18 13 20 4 22 21 24 18 26
REMARK H PARENT 10 19 13 21 4 23 21 25 18 27
REMARK Flexibility Score: inf
ROOT
ATOM      1  C   UNL     1      15.984  -7.642 -31.566  1.00  0.00     0.184 A 
ATOM      2  C   UNL     1      17.355  -7.392 -31.404  1.00  0.00     0.208 A 
ATOM      3  C   UNL     1      18.116  -7.020 -32.523  1.00  0.00     0.238 A 
ATOM      4  O   UNL     1      19.357  -6.870 -32.385  1.00  0.00    -0.285 OA
ATOM      5  C   UNL     1      17.485  -6.851 -33.779  1.00  0.00     0.111 A 
ATOM      6  C   UNL     1      18.148  -6.433 -34.973  1.00  0.00     0.134 A 
ATOM      7  C   UNL     1      17.441  -6.402 -36.181  1.00  0.00     0.093 A 
ATOM      8  C   UNL     1      16.080  -6.711 -36.229  1.00  0.00     0.123 A 
ATOM      9  C   UNL     1      15.410  -7.065 -35.060  1.00  0.00     0.094 A 
ATOM     10  C   UNL     1      16.096  -7.143 -33.846  1.00  0.00     0.146 A 
ATOM     11  O   UNL     1      15.423  -7.506 -32.760  1.00  0.00    -0.451 OA
ENDROOT
BRANCH   1  12
ATOM     12  C   UNL     1      15.127  -8.044 -30.430  1.00  0.00     0.063 A 
ATOM     13  C   UNL     1      14.420  -9.772 -28.873  1.00  0.00     0.047 A 
ATOM     14  C   UNL     1      15.211  -9.360 -29.949  1.00  0.00     0.020 A 
ATOM     15  C   UNL     1      13.546  -8.868 -28.256  1.00  0.00     0.119 A 
ATOM     16  C   UNL     1      13.474  -7.550 -28.715  1.00  0.00     0.093 A 
ATOM     17  C   UNL     1      14.269  -7.126 -29.790  1.00  0.00     0.130 A 
BRANCH  15  18
ATOM     18  O   UNL     1      12.749  -9.269 -27.186  1.00  0.00    -0.508 OA
ATOM     19  H   UNL     1      12.860 -10.179 -26.756  1.00  0.00     0.293 HD
ENDBRANCH  15  18
BRANCH  17  20
ATOM     20  O   UNL     1      14.224  -5.796 -30.205  1.00  0.00    -0.507 OA
ATOM     21  H   UNL     1      15.051  -5.210 -30.204  1.00  0.00     0.293 HD
ENDBRANCH  17  20
ENDBRANCH   1  12
BRANCH   2  22
ATOM     22  O   UNL     1      17.940  -7.498 -30.139  1.00  0.00    -0.502 OA
ATOM     23  H   UNL     1      18.611  -8.222 -29.909  1.00  0.00     0.293 HD
ENDBRANCH   2  22
BRANCH   6  24
ATOM     24  O   UNL     1      19.483  -6.019 -35.023  1.00  0.00    -0.507 OA
ATOM     25  H   UNL     1      20.014  -5.882 -35.869  1.00  0.00     0.293 HD
ENDBRANCH   6  24
BRANCH   8  26
ATOM     26  O   UNL     1      15.382  -6.660 -37.433  1.00  0.00    -0.508 OA
ATOM     27  H   UNL     1      15.100  -7.502 -37.919  1.00  0.00     0.293 HD
ENDBRANCH   8  26
TORSDOF 6
ENDMDL
MODEL 5
REMARK VINA RESULT:    -5.902      2.324      3.286
REMARK INTER + INTRA:          -7.297
REMARK INTER:                  -7.013
REMARK INTRA:                  -0.284
REMARK UNBOUND:                -0.188
REMARK SMILES O=c1c(O)c(-c2ccc(O)cc2O)oc2cc(O)cc(O)c12
REMARK SMILES IDX 5 1 3 2 2 3 1 4 22 5 20 6 19 7 17 8 16 9 15 10 14 11 6 12
REMARK SMILES IDX 8 13 7 14 9 15 11 16 12 17 10 18 13 20 4 22 21 24 18 26
REMARK H PARENT 10 19 13 21 4 23 21 25 18 27
REMARK Flexibility Score: inf
ROOT
ATOM      1  C   UNL     1      15.723  -6.106 -31.313  1.00  0.00     0.184 A 
ATOM      2  C   UNL     1      14.990  -5.039 -31.853  1.00  0.00     0.208 A 
ATOM      3  C   UNL     1      13.732  -4.734 -31.310  1.00  0.00     0.238 A 
ATOM      4  O   UNL     1      13.048  -3.824 -31.847  1.00  0.00    -0.285 OA
ATOM      5  C   UNL     1      13.248  -5.466 -30.199  1.00  0.00     0.111 A 
ATOM      6  C   UNL     1      12.007  -5.215 -29.539  1.00  0.00     0.134 A 
ATOM      7  C   UNL     1      11.584  -6.072 -28.515  1.00  0.00     0.093 A 
ATOM      8  C   UNL     1      12.385  -7.132 -28.084  1.00  0.00     0.123 A 
ATOM      9  C   UNL     1      13.623  -7.351 -28.684  1.00  0.00     0.094 A 
ATOM     10  C   UNL     1      14.056  -6.537 -29.733  1.00  0.00     0.146 A 
ATOM     11  O   UNL     1      15.233  -6.796 -30.291  1.00  0.00    -0.451 OA
ENDROOT
BRANCH   1  12
ATOM     12  C   UNL     1      17.051  -6.484 -31.843  1.00  0.00     0.063 A 
ATOM     13  C   UNL     1      19.440  -6.738 -31.470  1.00  0.00     0.047 A 
ATOM     14  C   UNL     1      18.171  -6.383 -31.003  1.00  0.00     0.020 A 
ATOM     15  C   UNL     1      19.600  -7.212 -32.778  1.00  0.00     0.119 A 
ATOM     16  C   UNL     1      18.486  -7.338 -33.613  1.00  0.00     0.093 A 
ATOM     17  C   UNL     1      17.208  -6.989 -33.150  1.00  0.00     0.130 A 
BRANCH  15  18
ATOM     18  O   UNL     1      20.861  -7.565 -33.256  1.00  0.00    -0.508 OA
ATOM     19  H   UNL     1      21.262  -7.115 -34.070  1.00  0.00     0.293 HD
ENDBRANCH  15  18
BRANCH  17  20
ATOM     20  O   UNL     1      16.099  -7.167 -33.976  1.00  0.00    -0.507 OA
ATOM     21  H   UNL     1      15.413  -6.433 -34.111  1.00  0.00     0.293 HD
ENDBRANCH  17  20
ENDBRANCH   1  12
BRANCH   2  22
ATOM     22  O   UNL     1      15.522  -4.287 -32.905  1.00  0.00    -0.502 OA
ATOM     23  H   UNL     1      14.976  -4.029 -33.719  1.00  0.00     0.293 HD
ENDBRANCH   2  22
BRANCH   6  24
ATOM     24  O   UNL     1      11.169  -4.133 -29.829  1.00  0.00    -0.507 OA
ATOM     25  H   UNL     1      10.163  -4.179 -29.879  1.00  0.00     0.293 HD
ENDBRANCH   6  24
BRANCH   8  26
ATOM     26  O   UNL     1      11.963  -7.968 -27.053  1.00  0.00    -0.508 OA
ATOM     27  H   UNL     1      12.501  -8.780 -26.774  1.00  0.00     0.293 HD
ENDBRANCH   8  26
TORSDOF 6
ENDMDL
MODEL 6
REMARK VINA RESULT:    -5.880      2.027      4.024
REMARK INTER + INTRA:          -7.271
REMARK INTER:                  -6.860
REMARK INTRA:                  -0.411
REMARK UNBOUND:                -0.188
REMARK SMILES O=c1c(O)c(-c2ccc(O)cc2O)oc2cc(O)cc(O)c12
REMARK SMILES IDX 5 1 3 2 2 3 1 4 22 5 20 6 19 7 17 8 16 9 15 10 14 11 6 12
REMARK SMILES IDX 8 13 7 14 9 15 11 16 12 17 10 18 13 20 4 22 21 24 18 26
REMARK H PARENT 10 19 13 21 4 23 21 25 18 27
REMARK Flexibility Score: inf
ROOT
ATOM      1  C   UNL     1      15.620  -6.801 -30.670  1.00  0.00     0.184 A 
ATOM      2  C   UNL     1      15.185  -7.870 -29.871  1.00  0.00     0.208 A 
ATOM      3  C   UNL     1      14.005  -7.725 -29.126  1.00  0.00     0.238 A 
ATOM      4  O   UNL     1      13.660  -8.659 -28.355  1.00  0.00    -0.285 OA
ATOM      5  C   UNL     1      13.247  -6.534 -29.229  1.00  0.00     0.111 A 
ATOM      6  C   UNL     1      12.012  -6.294 -28.554  1.00  0.00     0.134 A 
ATOM      7  C   UNL     1      11.405  -5.036 -28.651  1.00  0.00     0.093 A 
ATOM      8  C   UNL     1      11.953  -4.029 -29.449  1.00  0.00     0.123 A 
ATOM      9  C   UNL     1      13.128  -4.272 -30.157  1.00  0.00     0.094 A 
ATOM     10  C   UNL     1      13.778  -5.503 -30.051  1.00  0.00     0.146 A 
ATOM     11  O   UNL     1      14.907  -5.684 -30.726  1.00  0.00    -0.451 OA
ENDROOT
BRANCH   1  12
ATOM     12  C   UNL     1      16.857  -6.886 -31.474  1.00  0.00     0.063 A 
ATOM     13  C   UNL     1      19.287  -6.869 -31.553  1.00  0.00     0.047 A 
ATOM     14  C   UNL     1      18.098  -6.788 -30.824  1.00  0.00     0.020 A 
ATOM     15  C   UNL     1      19.250  -7.064 -32.940  1.00  0.00     0.119 A 
ATOM     16  C   UNL     1      18.019  -7.185 -33.591  1.00  0.00     0.093 A 
ATOM     17  C   UNL     1      16.821  -7.110 -32.866  1.00  0.00     0.130 A 
BRANCH  15  18
ATOM     18  O   UNL     1      20.429  -7.142 -33.678  1.00  0.00    -0.508 OA
ATOM     19  H   UNL     1      21.009  -6.327 -33.836  1.00  0.00     0.293 HD
ENDBRANCH  15  18
BRANCH  17  20
ATOM     20  O   UNL     1      15.601  -7.282 -33.520  1.00  0.00    -0.507 OA
ATOM     21  H   UNL     1      15.519  -7.863 -34.347  1.00  0.00     0.293 HD
ENDBRANCH  17  20
ENDBRANCH   1  12
BRANCH   2  22
ATOM     22  O   UNL     1      15.914  -9.062 -29.841  1.00  0.00    -0.502 OA
ATOM     23  H   UNL     1      15.902  -9.686 -29.043  1.00  0.00     0.293 HD
ENDBRANCH   2  22
BRANCH   6  24
ATOM     24  O   UNL     1      11.331  -7.256 -27.800  1.00  0.00    -0.507 OA
ATOM     25  H   UNL     1      11.657  -7.642 -26.927  1.00  0.00     0.293 HD
ENDBRANCH   6  24
BRANCH   8  26
ATOM     26  O   UNL     1      11.332  -2.787 -29.553  1.00  0.00    -0.508 OA
ATOM     27  H   UNL     1      11.044  -2.410 -30.447  1.00  0.00     0.293 HD
ENDBRANCH   8  26
TORSDOF 6
ENDMDL
MODEL 7
REMARK VINA RESULT:    -5.807      1.869      6.880
REMARK INTER + INTRA:          -7.183
REMARK INTER:                  -6.751
REMARK INTRA:                  -0.433
REMARK UNBOUND:                -0.188
REMARK SMILES O=c1c(O)c(-c2ccc(O)cc2O)oc2cc(O)cc(O)c12
REMARK SMILES IDX 5 1 3 2 2 3 1 4 22 5 20 6 19 7 17 8 16 9 15 10 14 11 6 12
REMARK SMILES IDX 8 13 7 14 9 15 11 16 12 17 10 18 13 20 4 22 21 24 18 26
REMARK H PARENT 10 19 13 21 4 23 21 25 18 27
REMARK Flexibility Score: inf
ROOT
ATOM      1  C   UNL     1      15.909  -7.148 -31.239  1.00  0.00     0.184 A 
ATOM      2  C   UNL     1      15.694  -7.465 -32.589  1.00  0.00     0.208 A 
ATOM      3  C   UNL     1      16.523  -6.887 -33.563  1.00  0.00     0.238 A 
ATOM      4  O   UNL     1      16.278  -7.117 -34.776  1.00  0.00    -0.285 OA
ATOM      5  C   UNL     1      17.589  -6.042 -33.170  1.00  0.00     0.111 A 
ATOM      6  C   UNL     1      18.519  -5.436 -34.068  1.00  0.00     0.134 A 
ATOM      7  C   UNL     1      19.470  -4.534 -33.573  1.00  0.00     0.093 A 
ATOM      8  C   UNL     1      19.565  -4.265 -32.206  1.00  0.00     0.123 A 
ATOM      9  C   UNL     1      18.699  -4.894 -31.315  1.00  0.00     0.094 A 
ATOM     10  C   UNL     1      17.715  -5.769 -31.782  1.00  0.00     0.146 A 
ATOM     11  O   UNL     1      16.896  -6.330 -30.900  1.00  0.00    -0.451 OA
ENDROOT
BRANCH   1  12
ATOM     12  C   UNL     1      15.068  -7.717 -30.164  1.00  0.00     0.063 A 
ATOM     13  C   UNL     1      14.493  -9.620 -28.765  1.00  0.00     0.047 A 
ATOM     14  C   UNL     1      15.266  -9.053 -29.781  1.00  0.00     0.020 A 
ATOM     15  C   UNL     1      13.521  -8.853 -28.109  1.00  0.00     0.119 A 
ATOM     16  C   UNL     1      13.333  -7.516 -28.470  1.00  0.00     0.093 A 
ATOM     17  C   UNL     1      14.109  -6.937 -29.485  1.00  0.00     0.130 A 
BRANCH  15  18
ATOM     18  O   UNL     1      12.741  -9.409 -27.097  1.00  0.00    -0.508 OA
ATOM     19  H   UNL     1      12.974 -10.303 -26.681  1.00  0.00     0.293 HD
ENDBRANCH  15  18
BRANCH  17  20
ATOM     20  O   UNL     1      13.946  -5.588 -29.800  1.00  0.00    -0.507 OA
ATOM     21  H   UNL     1      13.076  -5.101 -29.617  1.00  0.00     0.293 HD
ENDBRANCH  17  20
ENDBRANCH   1  12
BRANCH   2  22
ATOM     22  O   UNL     1      14.679  -8.358 -32.945  1.00  0.00    -0.502 OA
ATOM     23  H   UNL     1      14.645  -9.308 -32.595  1.00  0.00     0.293 HD
ENDBRANCH   2  22
BRANCH   6  24
ATOM     24  O   UNL     1      18.570  -5.701 -35.441  1.00  0.00    -0.507 OA
ATOM     25  H   UNL     1      17.768  -5.891 -36.022  1.00  0.00     0.293 HD
ENDBRANCH   6  24
BRANCH   8  26
ATOM     26  O   UNL     1      20.525  -3.380 -31.722  1.00  0.00    -0.508 OA
ATOM     27  H   UNL     1      20.282  -2.441 -31.428  1.00  0.00     0.293 HD
ENDBRANCH   8  26
TORSDOF 6
ENDMDL
MODEL 8
REMARK VINA RESULT:    -5.601      1.664      2.072
REMARK INTER + INTRA:          -6.935
REMARK INTER:                  -6.528
REMARK INTRA:                  -0.408
REMARK UNBOUND:                -0.188
REMARK SMILES O=c1c(O)c(-c2ccc(O)cc2O)oc2cc(O)cc(O)c12
REMARK SMILES IDX 5 1 3 2 2 3 1 4 22 5 20 6 19 7 17 8 16 9 15 10 14 11 6 12
REMARK SMILES IDX 8 13 7 14 9 15 11 16 12 17 10 18 13 20 4 22 21 24 18 26
REMARK H PARENT 10 19 13 21 4 23 21 25 18 27
REMARK Flexibility Score: inf
ROOT
ATOM      1  C   UNL     1      16.770  -6.749 -31.363  1.00  0.00     0.184 A 
ATOM      2  C   UNL     1      16.246  -5.520 -30.934  1.00  0.00     0.208 A 
ATOM      3  C   UNL     1      15.175  -5.517 -30.027  1.00  0.00     0.238 A 
ATOM      4  O   UNL     1      14.661  -4.414 -29.705  1.00  0.00    -0.285 OA
ATOM      5  C   UNL     1      14.677  -6.742 -29.520  1.00  0.00     0.111 A 
ATOM      6  C   UNL     1      13.624  -6.858 -28.563  1.00  0.00     0.134 A 
ATOM      7  C   UNL     1      13.145  -8.126 -28.213  1.00  0.00     0.093 A 
ATOM      8  C   UNL     1      13.723  -9.285 -28.737  1.00  0.00     0.123 A 
ATOM      9  C   UNL     1      14.788  -9.184 -29.628  1.00  0.00     0.094 A 
ATOM     10  C   UNL     1      15.263  -7.933 -30.026  1.00  0.00     0.146 A 
ATOM     11  O   UNL     1      16.266  -7.883 -30.896  1.00  0.00    -0.451 OA
ENDROOT
BRANCH   1  12
ATOM     12  C   UNL     1      17.893  -6.823 -32.322  1.00  0.00     0.063 A 
ATOM     13  C   UNL     1      18.648  -6.932 -34.630  1.00  0.00     0.047 A 
ATOM     14  C   UNL     1      17.611  -6.868 -33.696  1.00  0.00     0.020 A 
ATOM     15  C   UNL     1      19.982  -6.937 -34.201  1.00  0.00     0.119 A 
ATOM     16  C   UNL     1      20.271  -6.869 -32.835  1.00  0.00     0.093 A 
ATOM     17  C   UNL     1      19.236  -6.799 -31.891  1.00  0.00     0.130 A 
BRANCH  15  18
ATOM     18  O   UNL     1      21.024  -7.005 -35.123  1.00  0.00    -0.508 OA
ATOM     19  H   UNL     1      21.763  -7.692 -35.035  1.00  0.00     0.293 HD
ENDBRANCH  15  18
BRANCH  17  20
ATOM     20  O   UNL     1      19.540  -6.681 -30.535  1.00  0.00    -0.507 OA
ATOM     21  H   UNL     1      19.808  -5.795 -30.126  1.00  0.00     0.293 HD
ENDBRANCH  17  20
ENDBRANCH   1  12
BRANCH   2  22
ATOM     22  O   UNL     1      16.802  -4.324 -31.396  1.00  0.00    -0.502 OA
ATOM     23  H   UNL     1      16.235  -3.518 -31.636  1.00  0.00     0.293 HD
ENDBRANCH   2  22
BRANCH   6  24
ATOM     24  O   UNL     1      13.034  -5.769 -27.912  1.00  0.00    -0.507 OA
ATOM     25  H   UNL     1      12.542  -5.019 -28.371  1.00  0.00     0.293 HD
ENDBRANCH   6  24
BRANCH   8  26
ATOM     26  O   UNL     1      13.250 -10.543 -28.369  1.00  0.00    -0.508 OA
ATOM     27  H   UNL     1      12.295 -10.682 -28.061  1.00  0.00     0.293 HD
ENDBRANCH   8  26
TORSDOF 6
ENDMDL
MODEL 9
REMARK VINA RESULT:    -5.350      3.167      3.817
REMARK INTER + INTRA:          -6.632
REMARK INTER:                  -6.217
REMARK INTRA:                  -0.415
REMARK UNBOUND:                -0.188
REMARK SMILES O=c1c(O)c(-c2ccc(O)cc2O)oc2cc(O)cc(O)c12
REMARK SMILES IDX 5 1 3 2 2 3 1 4 22 5 20 6 19 7 17 8 16 9 15 10 14 11 6 12
REMARK SMILES IDX 8 13 7 14 9 15 11 16 12 17 10 18 13 20 4 22 21 24 18 26
REMARK H PARENT 10 19 13 21 4 23 21 25 18 27
REMARK Flexibility Score: inf
ROOT
ATOM      1  C   UNL     1      16.981  -5.821 -31.237  1.00  0.00     0.184 A 
ATOM      2  C   UNL     1      17.142  -5.030 -30.090  1.00  0.00     0.208 A 
ATOM      3  C   UNL     1      16.041  -4.824 -29.245  1.00  0.00     0.238 A 
ATOM      4  O   UNL     1      16.173  -4.053 -28.259  1.00  0.00    -0.285 OA
ATOM      5  C   UNL     1      14.807  -5.457 -29.529  1.00  0.00     0.111 A 
ATOM      6  C   UNL     1      13.636  -5.356 -28.719  1.00  0.00     0.134 A 
ATOM      7  C   UNL     1      12.441  -5.941 -29.156  1.00  0.00     0.093 A 
ATOM      8  C   UNL     1      12.389  -6.678 -30.341  1.00  0.00     0.123 A 
ATOM      9  C   UNL     1      13.540  -6.829 -31.111  1.00  0.00     0.094 A 
ATOM     10  C   UNL     1      14.738  -6.226 -30.722  1.00  0.00     0.146 A 
ATOM     11  O   UNL     1      15.805  -6.378 -31.497  1.00  0.00    -0.451 OA
ENDROOT
BRANCH   1  12
ATOM     12  C   UNL     1      18.098  -6.072 -32.172  1.00  0.00     0.063 A 
ATOM     13  C   UNL     1      19.975  -7.466 -32.840  1.00  0.00     0.047 A 
ATOM     14  C   UNL     1      18.914  -7.196 -31.971  1.00  0.00     0.020 A 
ATOM     15  C   UNL     1      20.224  -6.622 -33.929  1.00  0.00     0.119 A 
ATOM     16  C   UNL     1      19.402  -5.513 -34.149  1.00  0.00     0.093 A 
ATOM     17  C   UNL     1      18.331  -5.238 -33.286  1.00  0.00     0.130 A 
BRANCH  15  18
ATOM     18  O   UNL     1      21.281  -6.878 -34.799  1.00  0.00    -0.508 OA
ATOM     19  H   UNL     1      21.326  -6.450 -35.716  1.00  0.00     0.293 HD
ENDBRANCH  15  18
BRANCH  17  20
ATOM     20  O   UNL     1      17.489  -4.157 -33.546  1.00  0.00    -0.507 OA
ATOM     21  H   UNL     1      16.549  -4.113 -33.171  1.00  0.00     0.293 HD
ENDBRANCH  17  20
ENDBRANCH   1  12
BRANCH   2  22
ATOM     22  O   UNL     1      18.391  -4.474 -29.794  1.00  0.00    -0.502 OA
ATOM     23  H   UNL     1      18.575  -3.480 -29.870  1.00  0.00     0.293 HD
ENDBRANCH   2  22
BRANCH   6  24
ATOM     24  O   UNL     1      13.597  -4.718 -27.474  1.00  0.00    -0.507 OA
ATOM     25  H   UNL     1      12.804  -4.213 -27.108  1.00  0.00     0.293 HD
ENDBRANCH   6  24
BRANCH   8  26
ATOM     26  O   UNL     1      11.200  -7.270 -30.758  1.00  0.00    -0.508 OA
ATOM     27  H   UNL     1      10.905  -7.244 -31.727  1.00  0.00     0.293 HD
ENDBRANCH   8  26
TORSDOF 6
ENDMDL
