MODEL 1
REMARK VINA RESULT:    -8.022      0.000      0.000
REMARK INTER + INTRA:          -9.941
REMARK INTER:                  -9.664
REMARK INTRA:                  -0.277
REMARK UNBOUND:                -0.277
REMARK SMILES O=c1c(O)c(-c2ccc(O)c(O)c2)oc2cc(O)cc(O)c12
REMARK SMILES IDX 5 1 3 2 2 3 1 4 22 5 20 6 19 7 17 8 16 9 15 10 14 11 6 12
REMARK SMILES IDX 7 13 8 14 9 15 13 16 11 17 10 18 12 20 4 22 21 24 18 26
REMARK H PARENT 10 19 12 21 4 23 21 25 18 27
REMARK Flexibility Score: inf
ROOT
ATOM      1  C   UNL     1     -30.338 -10.583   1.743  1.00  0.00     0.180 A 
ATOM      2  C   UNL     1     -29.757 -11.689   2.386  1.00  0.00     0.208 A 
ATOM      3  C   UNL     1     -28.418 -12.014   2.109  1.00  0.00     0.238 A 
ATOM      4  O   UNL     1     -27.888 -12.972   2.729  1.00  0.00    -0.285 OA
ATOM      5  C   UNL     1     -27.683 -11.237   1.181  1.00  0.00     0.111 A 
ATOM      6  C   UNL     1     -26.334 -11.498   0.794  1.00  0.00     0.134 A 
ATOM      7  C   UNL     1     -25.665 -10.588  -0.032  1.00  0.00     0.093 A 
ATOM      8  C   UNL     1     -26.313  -9.463  -0.539  1.00  0.00     0.123 A 
ATOM      9  C   UNL     1     -27.651  -9.229  -0.215  1.00  0.00     0.094 A 
ATOM     10  C   UNL     1     -28.335 -10.100   0.637  1.00  0.00     0.146 A 
ATOM     11  O   UNL     1     -29.603  -9.835   0.929  1.00  0.00    -0.452 OA
ENDROOT
BRANCH   1  12
ATOM     12  C   UNL     1     -31.750 -10.195   1.966  1.00  0.00     0.025 A 
ATOM     13  C   UNL     1     -32.807 -10.928   1.402  1.00  0.00     0.016 A 
ATOM     14  C   UNL     1     -34.131 -10.528   1.605  1.00  0.00     0.051 A 
ATOM     15  C   UNL     1     -34.416  -9.385   2.362  1.00  0.00     0.157 A 
ATOM     16  C   UNL     1     -32.039  -9.038   2.707  1.00  0.00     0.062 A 
ATOM     17  C   UNL     1     -33.364  -8.634   2.914  1.00  0.00     0.158 A 
BRANCH  15  18
ATOM     18  O   UNL     1     -35.737  -8.990   2.566  1.00  0.00    -0.504 OA
ATOM     19  H   UNL     1     -36.180  -9.066   3.476  1.00  0.00     0.293 HD
ENDBRANCH  15  18
BRANCH  17  20
ATOM     20  O   UNL     1     -33.613  -7.488   3.667  1.00  0.00    -0.504 OA
ATOM     21  H   UNL     1     -33.895  -7.534   4.640  1.00  0.00     0.293 HD
ENDBRANCH  17  20
ENDBRANCH   1  12
BRANCH   2  22
ATOM     22  O   UNL     1     -30.493 -12.429   3.316  1.00  0.00    -0.502 OA
ATOM     23  H   UNL     1     -30.373 -12.321   4.316  1.00  0.00     0.293 HD
ENDBRANCH   2  22
BRANCH   6  24
ATOM     24  O   UNL     1     -25.623 -12.641   1.169  1.00  0.00    -0.507 OA
ATOM     25  H   UNL     1     -24.835 -12.648   1.799  1.00  0.00     0.293 HD
ENDBRANCH   6  24
BRANCH   8  26
ATOM     26  O   UNL     1     -25.621  -8.586  -1.372  1.00  0.00    -0.508 OA
ATOM     27  H   UNL     1     -24.702  -8.814  -1.734  1.00  0.00     0.293 HD
ENDBRANCH   8  26
TORSDOF 6
ENDMDL
MODEL 2
REMARK VINA RESULT:    -7.831      4.673      5.863
REMARK INTER + INTRA:          -9.710
REMARK INTER:                  -9.525
REMARK INTRA:                  -0.185
REMARK UNBOUND:                -0.277
REMARK SMILES O=c1c(O)c(-c2ccc(O)c(O)c2)oc2cc(O)cc(O)c12
REMARK SMILES IDX 5 1 3 2 2 3 1 4 22 5 20 6 19 7 17 8 16 9 15 10 14 11 6 12
REMARK SMILES IDX 7 13 8 14 9 15 13 16 11 17 10 18 12 20 4 22 21 24 18 26
REMARK H PARENT 10 19 12 21 4 23 21 25 18 27
REMARK Flexibility Score: inf
ROOT
ATOM      1  C   UNL     1     -27.963 -14.269   1.592  1.00  0.00     0.180 A 
ATOM      2  C   UNL     1     -28.061 -14.739   0.271  1.00  0.00     0.208 A 
ATOM      3  C   UNL     1     -27.426 -14.021  -0.756  1.00  0.00     0.238 A 
ATOM      4  O   UNL     1     -27.473 -14.476  -1.928  1.00  0.00    -0.285 OA
ATOM      5  C   UNL     1     -26.714 -12.836  -0.452  1.00  0.00     0.111 A 
ATOM      6  C   UNL     1     -26.067 -12.008  -1.418  1.00  0.00     0.134 A 
ATOM      7  C   UNL     1     -25.283 -10.931  -0.989  1.00  0.00     0.093 A 
ATOM      8  C   UNL     1     -25.175 -10.611   0.363  1.00  0.00     0.123 A 
ATOM      9  C   UNL     1     -25.852 -11.378   1.313  1.00  0.00     0.094 A 
ATOM     10  C   UNL     1     -26.614 -12.481   0.919  1.00  0.00     0.146 A 
ATOM     11  O   UNL     1     -27.233 -13.191   1.855  1.00  0.00    -0.452 OA
ENDROOT
BRANCH   1  12
ATOM     12  C   UNL     1     -28.625 -14.957   2.724  1.00  0.00     0.025 A 
ATOM     13  C   UNL     1     -29.675 -14.351   3.435  1.00  0.00     0.016 A 
ATOM     14  C   UNL     1     -30.268 -15.010   4.516  1.00  0.00     0.051 A 
ATOM     15  C   UNL     1     -29.814 -16.276   4.909  1.00  0.00     0.157 A 
ATOM     16  C   UNL     1     -28.160 -16.217   3.134  1.00  0.00     0.062 A 
ATOM     17  C   UNL     1     -28.752 -16.881   4.215  1.00  0.00     0.158 A 
BRANCH  15  18
ATOM     18  O   UNL     1     -30.410 -16.931   5.984  1.00  0.00    -0.504 OA
ATOM     19  H   UNL     1     -31.269 -17.460   5.875  1.00  0.00     0.293 HD
ENDBRANCH  15  18
BRANCH  17  20
ATOM     20  O   UNL     1     -28.273 -18.137   4.585  1.00  0.00    -0.504 OA
ATOM     21  H   UNL     1     -28.870 -18.954   4.614  1.00  0.00     0.293 HD
ENDBRANCH  17  20
ENDBRANCH   1  12
BRANCH   2  22
ATOM     22  O   UNL     1     -28.750 -15.923  -0.005  1.00  0.00    -0.502 OA
ATOM     23  H   UNL     1     -29.480 -16.282   0.600  1.00  0.00     0.293 HD
ENDBRANCH   2  22
BRANCH   6  24
ATOM     24  O   UNL     1     -26.185 -12.184  -2.800  1.00  0.00    -0.507 OA
ATOM     25  H   UNL     1     -26.230 -13.079  -3.264  1.00  0.00     0.293 HD
ENDBRANCH   6  24
BRANCH   8  26
ATOM     26  O   UNL     1     -24.399  -9.522   0.754  1.00  0.00    -0.508 OA
ATOM     27  H   UNL     1     -24.326  -8.690   0.179  1.00  0.00     0.293 HD
ENDBRANCH   8  26
TORSDOF 6
ENDMDL
MODEL 3
REMARK VINA RESULT:    -7.778      4.407      7.076
REMARK INTER + INTRA:          -9.646
REMARK INTER:                  -9.397
REMARK INTRA:                  -0.250
REMARK UNBOUND:                -0.277
REMARK SMILES O=c1c(O)c(-c2ccc(O)c(O)c2)oc2cc(O)cc(O)c12
REMARK SMILES IDX 5 1 3 2 2 3 1 4 22 5 20 6 19 7 17 8 16 9 15 10 14 11 6 12
REMARK SMILES IDX 7 13 8 14 9 15 13 16 11 17 10 18 12 20 4 22 21 24 18 26
REMARK H PARENT 10 19 12 21 4 23 21 25 18 27
REMARK Flexibility Score: inf
ROOT
ATOM      1  C   UNL     1     -26.668 -11.930   2.963  1.00  0.00     0.180 A 
ATOM      2  C   UNL     1     -26.423 -11.471   4.269  1.00  0.00     0.208 A 
ATOM      3  C   UNL     1     -26.642 -12.342   5.349  1.00  0.00     0.238 A 
ATOM      4  O   UNL     1     -26.369 -11.942   6.511  1.00  0.00    -0.285 OA
ATOM      5  C   UNL     1     -27.115 -13.655   5.112  1.00  0.00     0.111 A 
ATOM      6  C   UNL     1     -27.409 -14.608   6.133  1.00  0.00     0.134 A 
ATOM      7  C   UNL     1     -27.748 -15.918   5.777  1.00  0.00     0.093 A 
ATOM      8  C   UNL     1     -27.868 -16.294   4.439  1.00  0.00     0.123 A 
ATOM      9  C   UNL     1     -27.640 -15.354   3.433  1.00  0.00     0.094 A 
ATOM     10  C   UNL     1     -27.266 -14.047   3.756  1.00  0.00     0.146 A 
ATOM     11  O   UNL     1     -27.048 -13.187   2.768  1.00  0.00    -0.452 OA
ENDROOT
BRANCH   1  12
ATOM     12  C   UNL     1     -26.485 -11.063   1.776  1.00  0.00     0.025 A 
ATOM     13  C   UNL     1     -27.584 -10.557   1.064  1.00  0.00     0.016 A 
ATOM     14  C   UNL     1     -27.387  -9.761  -0.068  1.00  0.00     0.051 A 
ATOM     15  C   UNL     1     -26.090  -9.470  -0.511  1.00  0.00     0.157 A 
ATOM     16  C   UNL     1     -25.186 -10.787   1.317  1.00  0.00     0.062 A 
ATOM     17  C   UNL     1     -24.984  -9.989   0.184  1.00  0.00     0.158 A 
BRANCH  15  18
ATOM     18  O   UNL     1     -25.896  -8.674  -1.638  1.00  0.00    -0.504 OA
ATOM     19  H   UNL     1     -25.581  -9.068  -2.518  1.00  0.00     0.293 HD
ENDBRANCH  15  18
BRANCH  17  20
ATOM     20  O   UNL     1     -23.681  -9.724  -0.234  1.00  0.00    -0.504 OA
ATOM     21  H   UNL     1     -22.881  -9.874   0.369  1.00  0.00     0.293 HD
ENDBRANCH  17  20
ENDBRANCH   1  12
BRANCH   2  22
ATOM     22  O   UNL     1     -25.934 -10.179   4.480  1.00  0.00    -0.502 OA
ATOM     23  H   UNL     1     -25.110  -9.993   5.039  1.00  0.00     0.293 HD
ENDBRANCH   2  22
BRANCH   6  24
ATOM     24  O   UNL     1     -27.410 -14.312   7.499  1.00  0.00    -0.507 OA
ATOM     25  H   UNL     1     -27.313 -14.994   8.235  1.00  0.00     0.293 HD
ENDBRANCH   6  24
BRANCH   8  26
ATOM     26  O   UNL     1     -28.222 -17.603   4.121  1.00  0.00    -0.508 OA
ATOM     27  H   UNL     1     -28.804 -18.159   4.737  1.00  0.00     0.293 HD
ENDBRANCH   8  26
TORSDOF 6
ENDMDL
MODEL 4
REMARK VINA RESULT:    -7.774      4.343      7.707
REMARK INTER + INTRA:          -9.641
REMARK INTER:                  -9.320
REMARK INTRA:                  -0.321
REMARK UNBOUND:                -0.277
REMARK SMILES O=c1c(O)c(-c2ccc(O)c(O)c2)oc2cc(O)cc(O)c12
REMARK SMILES IDX 5 1 3 2 2 3 1 4 22 5 20 6 19 7 17 8 16 9 15 10 14 11 6 12
REMARK SMILES IDX 7 13 8 14 9 15 13 16 11 17 10 18 12 20 4 22 21 24 18 26
REMARK H PARENT 10 19 12 21 4 23 21 25 18 27
REMARK Flexibility Score: inf
ROOT
ATOM      1  C   UNL     1     -26.761 -13.844   2.237  1.00  0.00     0.180 A 
ATOM      2  C   UNL     1     -26.313 -15.176   2.227  1.00  0.00     0.208 A 
ATOM      3  C   UNL     1     -27.058 -16.151   2.909  1.00  0.00     0.238 A 
ATOM      4  O   UNL     1     -26.681 -17.350   2.851  1.00  0.00    -0.285 OA
ATOM      5  C   UNL     1     -28.235 -15.780   3.604  1.00  0.00     0.111 A 
ATOM      6  C   UNL     1     -29.046 -16.678   4.362  1.00  0.00     0.134 A 
ATOM      7  C   UNL     1     -30.256 -16.227   4.901  1.00  0.00     0.093 A 
ATOM      8  C   UNL     1     -30.654 -14.897   4.766  1.00  0.00     0.123 A 
ATOM      9  C   UNL     1     -29.840 -13.997   4.078  1.00  0.00     0.094 A 
ATOM     10  C   UNL     1     -28.643 -14.425   3.498  1.00  0.00     0.146 A 
ATOM     11  O   UNL     1     -27.903 -13.539   2.843  1.00  0.00    -0.452 OA
ENDROOT
BRANCH   1  12
ATOM     12  C   UNL     1     -26.015 -12.756   1.563  1.00  0.00     0.025 A 
ATOM     13  C   UNL     1     -26.287 -12.400   0.231  1.00  0.00     0.016 A 
ATOM     14  C   UNL     1     -25.553 -11.387  -0.393  1.00  0.00     0.051 A 
ATOM     15  C   UNL     1     -24.530 -10.726   0.299  1.00  0.00     0.157 A 
ATOM     16  C   UNL     1     -24.975 -12.105   2.246  1.00  0.00     0.062 A 
ATOM     17  C   UNL     1     -24.238 -11.090   1.625  1.00  0.00     0.158 A 
BRANCH  15  18
ATOM     18  O   UNL     1     -23.802  -9.715  -0.324  1.00  0.00    -0.504 OA
ATOM     19  H   UNL     1     -23.992  -9.436  -1.281  1.00  0.00     0.293 HD
ENDBRANCH  15  18
BRANCH  17  20
ATOM     20  O   UNL     1     -23.222 -10.456   2.339  1.00  0.00    -0.504 OA
ATOM     21  H   UNL     1     -23.376 -10.064   3.260  1.00  0.00     0.293 HD
ENDBRANCH  17  20
ENDBRANCH   1  12
BRANCH   2  22
ATOM     22  O   UNL     1     -25.161 -15.524   1.516  1.00  0.00    -0.502 OA
ATOM     23  H   UNL     1     -24.670 -16.398   1.668  1.00  0.00     0.293 HD
ENDBRANCH   2  22
BRANCH   6  24
ATOM     24  O   UNL     1     -28.696 -18.003   4.636  1.00  0.00    -0.507 OA
ATOM     25  H   UNL     1     -29.186 -18.606   5.280  1.00  0.00     0.293 HD
ENDBRANCH   6  24
BRANCH   8  26
ATOM     26  O   UNL     1     -31.859 -14.479   5.329  1.00  0.00    -0.508 OA
ATOM     27  H   UNL     1     -31.889 -14.002   6.222  1.00  0.00     0.293 HD
ENDBRANCH   8  26
TORSDOF 6
ENDMDL
MODEL 5
REMARK VINA RESULT:    -7.740      4.094      6.259
REMARK INTER + INTRA:          -9.601
REMARK INTER:                  -9.343
REMARK INTRA:                  -0.258
REMARK UNBOUND:                -0.277
REMARK SMILES O=c1c(O)c(-c2ccc(O)c(O)c2)oc2cc(O)cc(O)c12
REMARK SMILES IDX 5 1 3 2 2 3 1 4 22 5 20 6 19 7 17 8 16 9 15 10 14 11 6 12
REMARK SMILES IDX 7 13 8 14 9 15 13 16 11 17 10 18 12 20 4 22 21 24 18 26
REMARK H PARENT 10 19 12 21 4 23 21 25 18 27
REMARK Flexibility Score: inf
ROOT
ATOM      1  C   UNL     1     -26.182 -12.347   3.384  1.00  0.00     0.180 A 
ATOM      2  C   UNL     1     -24.811 -12.087   3.216  1.00  0.00     0.208 A 
ATOM      3  C   UNL     1     -24.399 -11.259   2.159  1.00  0.00     0.238 A 
ATOM      4  O   UNL     1     -23.176 -10.986   2.047  1.00  0.00    -0.285 OA
ATOM      5  C   UNL     1     -25.361 -10.714   1.275  1.00  0.00     0.111 A 
ATOM      6  C   UNL     1     -25.053  -9.895   0.147  1.00  0.00     0.134 A 
ATOM      7  C   UNL     1     -26.093  -9.306  -0.582  1.00  0.00     0.093 A 
ATOM      8  C   UNL     1     -27.427  -9.556  -0.266  1.00  0.00     0.123 A 
ATOM      9  C   UNL     1     -27.740 -10.403   0.799  1.00  0.00     0.094 A 
ATOM     10  C   UNL     1     -26.724 -10.978   1.567  1.00  0.00     0.146 A 
ATOM     11  O   UNL     1     -27.065 -11.769   2.578  1.00  0.00    -0.452 OA
ENDROOT
BRANCH   1  12
ATOM     12  C   UNL     1     -26.690 -13.230   4.459  1.00  0.00     0.025 A 
ATOM     13  C   UNL     1     -26.734 -12.802   5.797  1.00  0.00     0.016 A 
ATOM     14  C   UNL     1     -27.194 -13.662   6.799  1.00  0.00     0.051 A 
ATOM     15  C   UNL     1     -27.604 -14.963   6.480  1.00  0.00     0.157 A 
ATOM     16  C   UNL     1     -27.082 -14.542   4.148  1.00  0.00     0.062 A 
ATOM     17  C   UNL     1     -27.545 -15.406   5.148  1.00  0.00     0.158 A 
BRANCH  15  18
ATOM     18  O   UNL     1     -28.065 -15.817   7.480  1.00  0.00    -0.504 OA
ATOM     19  H   UNL     1     -27.429 -16.266   8.131  1.00  0.00     0.293 HD
ENDBRANCH  15  18
BRANCH  17  20
ATOM     20  O   UNL     1     -27.939 -16.697   4.799  1.00  0.00    -0.504 OA
ATOM     21  H   UNL     1     -27.724 -17.099   3.894  1.00  0.00     0.293 HD
ENDBRANCH  17  20
ENDBRANCH   1  12
BRANCH   2  22
ATOM     22  O   UNL     1     -23.880 -12.616   4.114  1.00  0.00    -0.502 OA
ATOM     23  H   UNL     1     -23.924 -12.441   5.111  1.00  0.00     0.293 HD
ENDBRANCH   2  22
BRANCH   6  24
ATOM     24  O   UNL     1     -23.755  -9.655  -0.312  1.00  0.00    -0.507 OA
ATOM     25  H   UNL     1     -23.166 -10.343  -0.757  1.00  0.00     0.293 HD
ENDBRANCH   6  24
BRANCH   8  26
ATOM     26  O   UNL     1     -28.437  -8.965  -1.023  1.00  0.00    -0.508 OA
ATOM     27  H   UNL     1     -28.877  -8.099  -0.735  1.00  0.00     0.293 HD
ENDBRANCH   8  26
TORSDOF 6
ENDMDL
MODEL 6
REMARK VINA RESULT:    -7.737      2.455      4.714
REMARK INTER + INTRA:          -9.598
REMARK INTER:                  -9.325
REMARK INTRA:                  -0.273
REMARK UNBOUND:                -0.277
REMARK SMILES O=c1c(O)c(-c2ccc(O)c(O)c2)oc2cc(O)cc(O)c12
REMARK SMILES IDX 5 1 3 2 2 3 1 4 22 5 20 6 19 7 17 8 16 9 15 10 14 11 6 12
REMARK SMILES IDX 7 13 8 14 9 15 13 16 11 17 10 18 12 20 4 22 21 24 18 26
REMARK H PARENT 10 19 12 21 4 23 21 25 18 27
REMARK Flexibility Score: inf
ROOT
ATOM      1  C   UNL     1     -30.896 -12.077   2.459  1.00  0.00     0.180 A 
ATOM      2  C   UNL     1     -29.673 -11.941   1.781  1.00  0.00     0.208 A 
ATOM      3  C   UNL     1     -28.652 -12.874   2.023  1.00  0.00     0.238 A 
ATOM      4  O   UNL     1     -27.579 -12.778   1.371  1.00  0.00    -0.285 OA
ATOM      5  C   UNL     1     -28.861 -13.923   2.951  1.00  0.00     0.111 A 
ATOM      6  C   UNL     1     -27.883 -14.901   3.303  1.00  0.00     0.134 A 
ATOM      7  C   UNL     1     -28.242 -15.968   4.135  1.00  0.00     0.093 A 
ATOM      8  C   UNL     1     -29.522 -16.058   4.679  1.00  0.00     0.123 A 
ATOM      9  C   UNL     1     -30.469 -15.075   4.388  1.00  0.00     0.094 A 
ATOM     10  C   UNL     1     -30.152 -14.017   3.533  1.00  0.00     0.146 A 
ATOM     11  O   UNL     1     -31.085 -13.109   3.274  1.00  0.00    -0.452 OA
ENDROOT
BRANCH   1  12
ATOM     12  C   UNL     1     -32.010 -11.118   2.275  1.00  0.00     0.025 A 
ATOM     13  C   UNL     1     -31.966  -9.830   2.834  1.00  0.00     0.016 A 
ATOM     14  C   UNL     1     -33.040  -8.951   2.669  1.00  0.00     0.051 A 
ATOM     15  C   UNL     1     -34.177  -9.351   1.954  1.00  0.00     0.157 A 
ATOM     16  C   UNL     1     -33.160 -11.522   1.577  1.00  0.00     0.062 A 
ATOM     17  C   UNL     1     -34.238 -10.644   1.408  1.00  0.00     0.158 A 
BRANCH  15  18
ATOM     18  O   UNL     1     -35.245  -8.471   1.787  1.00  0.00    -0.504 OA
ATOM     19  H   UNL     1     -35.354  -7.923   0.941  1.00  0.00     0.293 HD
ENDBRANCH  15  18
BRANCH  17  20
ATOM     20  O   UNL     1     -35.357 -11.075   0.697  1.00  0.00    -0.504 OA
ATOM     21  H   UNL     1     -35.721 -10.560  -0.097  1.00  0.00     0.293 HD
ENDBRANCH  17  20
ENDBRANCH   1  12
BRANCH   2  22
ATOM     22  O   UNL     1     -29.495 -10.912   0.852  1.00  0.00    -0.502 OA
ATOM     23  H   UNL     1     -28.580 -10.633   0.516  1.00  0.00     0.293 HD
ENDBRANCH   2  22
BRANCH   6  24
ATOM     24  O   UNL     1     -26.548 -14.854   2.889  1.00  0.00    -0.507 OA
ATOM     25  H   UNL     1     -25.985 -14.017   2.857  1.00  0.00     0.293 HD
ENDBRANCH   6  24
BRANCH   8  26
ATOM     26  O   UNL     1     -29.841 -17.126   5.515  1.00  0.00    -0.508 OA
ATOM     27  H   UNL     1     -30.499 -17.843   5.233  1.00  0.00     0.293 HD
ENDBRANCH   8  26
TORSDOF 6
ENDMDL
MODEL 7
REMARK VINA RESULT:    -7.710      3.039      5.799
REMARK INTER + INTRA:          -9.565
REMARK INTER:                  -9.938
REMARK INTRA:                   0.373
REMARK UNBOUND:                -0.277
REMARK SMILES O=c1c(O)c(-c2ccc(O)c(O)c2)oc2cc(O)cc(O)c12
REMARK SMILES IDX 5 1 3 2 2 3 1 4 22 5 20 6 19 7 17 8 16 9 15 10 14 11 6 12
REMARK SMILES IDX 7 13 8 14 9 15 13 16 11 17 10 18 12 20 4 22 21 24 18 26
REMARK H PARENT 10 19 12 21 4 23 21 25 18 27
REMARK Flexibility Score: inf
ROOT
ATOM      1  C   UNL     1     -28.037  -8.148  -0.414  1.00  0.00     0.180 A 
ATOM      2  C   UNL     1     -26.912  -8.757  -0.997  1.00  0.00     0.208 A 
ATOM      3  C   UNL     1     -26.541 -10.046  -0.579  1.00  0.00     0.238 A 
ATOM      4  O   UNL     1     -25.566 -10.606  -1.144  1.00  0.00    -0.285 OA
ATOM      5  C   UNL     1     -27.290 -10.703   0.426  1.00  0.00     0.111 A 
ATOM      6  C   UNL     1     -26.982 -11.993   0.954  1.00  0.00     0.134 A 
ATOM      7  C   UNL     1     -27.866 -12.600   1.852  1.00  0.00     0.093 A 
ATOM      8  C   UNL     1     -29.013 -11.940   2.292  1.00  0.00     0.123 A 
ATOM      9  C   UNL     1     -29.293 -10.655   1.828  1.00  0.00     0.094 A 
ATOM     10  C   UNL     1     -28.448 -10.036   0.903  1.00  0.00     0.146 A 
ATOM     11  O   UNL     1     -28.757  -8.817   0.478  1.00  0.00    -0.452 OA
ENDROOT
BRANCH   1  12
ATOM     12  C   UNL     1     -28.474  -6.783  -0.785  1.00  0.00     0.025 A 
ATOM     13  C   UNL     1     -29.217  -5.986   0.102  1.00  0.00     0.016 A 
ATOM     14  C   UNL     1     -29.640  -4.710  -0.279  1.00  0.00     0.051 A 
ATOM     15  C   UNL     1     -29.339  -4.217  -1.555  1.00  0.00     0.157 A 
ATOM     16  C   UNL     1     -28.192  -6.293  -2.071  1.00  0.00     0.062 A 
ATOM     17  C   UNL     1     -28.613  -5.014  -2.456  1.00  0.00     0.158 A 
BRANCH  15  18
ATOM     18  O   UNL     1     -29.759  -2.943  -1.932  1.00  0.00    -0.504 OA
ATOM     19  H   UNL     1     -30.438  -2.424  -1.385  1.00  0.00     0.293 HD
ENDBRANCH  15  18
BRANCH  17  20
ATOM     20  O   UNL     1     -28.303  -4.556  -3.736  1.00  0.00    -0.504 OA
ATOM     21  H   UNL     1     -29.013  -4.415  -4.444  1.00  0.00     0.293 HD
ENDBRANCH  17  20
ENDBRANCH   1  12
BRANCH   2  22
ATOM     22  O   UNL     1     -26.199  -8.099  -2.004  1.00  0.00    -0.502 OA
ATOM     23  H   UNL     1     -25.382  -8.504  -2.446  1.00  0.00     0.293 HD
ENDBRANCH   2  22
BRANCH   6  24
ATOM     24  O   UNL     1     -25.815 -12.701   0.651  1.00  0.00    -0.507 OA
ATOM     25  H   UNL     1     -24.883 -12.317   0.691  1.00  0.00     0.293 HD
ENDBRANCH   6  24
BRANCH   8  26
ATOM     26  O   UNL     1     -29.863 -12.569   3.200  1.00  0.00    -0.508 OA
ATOM     27  H   UNL     1     -29.575 -13.394   3.712  1.00  0.00     0.293 HD
ENDBRANCH   8  26
TORSDOF 6
ENDMDL
MODEL 8
REMARK VINA RESULT:    -7.684      4.278      5.868
REMARK INTER + INTRA:          -9.534
REMARK INTER:                  -9.435
REMARK INTRA:                  -0.098
REMARK UNBOUND:                -0.277
REMARK SMILES O=c1c(O)c(-c2ccc(O)c(O)c2)oc2cc(O)cc(O)c12
REMARK SMILES IDX 5 1 3 2 2 3 1 4 22 5 20 6 19 7 17 8 16 9 15 10 14 11 6 12
REMARK SMILES IDX 7 13 8 14 9 15 13 16 11 17 10 18 12 20 4 22 21 24 18 26
REMARK H PARENT 10 19 12 21 4 23 21 25 18 27
REMARK Flexibility Score: inf
ROOT
ATOM      1  C   UNL     1     -28.014 -13.774   1.808  1.00  0.00     0.180 A 
ATOM      2  C   UNL     1     -27.516 -12.489   2.084  1.00  0.00     0.208 A 
ATOM      3  C   UNL     1     -26.888 -11.767   1.057  1.00  0.00     0.238 A 
ATOM      4  O   UNL     1     -26.493 -10.596   1.296  1.00  0.00    -0.285 OA
ATOM      5  C   UNL     1     -26.753 -12.343  -0.229  1.00  0.00     0.111 A 
ATOM      6  C   UNL     1     -26.099 -11.718  -1.334  1.00  0.00     0.134 A 
ATOM      7  C   UNL     1     -26.140 -12.326  -2.594  1.00  0.00     0.093 A 
ATOM      8  C   UNL     1     -26.751 -13.566  -2.777  1.00  0.00     0.123 A 
ATOM      9  C   UNL     1     -27.342 -14.214  -1.691  1.00  0.00     0.094 A 
ATOM     10  C   UNL     1     -27.349 -13.616  -0.428  1.00  0.00     0.146 A 
ATOM     11  O   UNL     1     -27.932 -14.261   0.576  1.00  0.00    -0.452 OA
ENDROOT
BRANCH   1  12
ATOM     12  C   UNL     1     -28.666 -14.606   2.846  1.00  0.00     0.025 A 
ATOM     13  C   UNL     1     -29.815 -14.164   3.522  1.00  0.00     0.016 A 
ATOM     14  C   UNL     1     -30.399 -14.955   4.516  1.00  0.00     0.051 A 
ATOM     15  C   UNL     1     -29.834 -16.192   4.857  1.00  0.00     0.157 A 
ATOM     16  C   UNL     1     -28.092 -15.836   3.205  1.00  0.00     0.062 A 
ATOM     17  C   UNL     1     -28.674 -16.633   4.200  1.00  0.00     0.158 A 
BRANCH  15  18
ATOM     18  O   UNL     1     -30.419 -16.980   5.846  1.00  0.00    -0.504 OA
ATOM     19  H   UNL     1     -29.930 -17.203   6.706  1.00  0.00     0.293 HD
ENDBRANCH  15  18
BRANCH  17  20
ATOM     20  O   UNL     1     -28.084 -17.855   4.520  1.00  0.00    -0.504 OA
ATOM     21  H   UNL     1     -28.628 -18.648   4.837  1.00  0.00     0.293 HD
ENDBRANCH  17  20
ENDBRANCH   1  12
BRANCH   2  22
ATOM     22  O   UNL     1     -27.680 -11.929   3.355  1.00  0.00    -0.502 OA
ATOM     23  H   UNL     1     -28.458 -11.323   3.586  1.00  0.00     0.293 HD
ENDBRANCH   2  22
BRANCH   6  24
ATOM     24  O   UNL     1     -25.380 -10.524  -1.240  1.00  0.00    -0.507 OA
ATOM     25  H   UNL     1     -24.656 -10.340  -0.561  1.00  0.00     0.293 HD
ENDBRANCH   6  24
BRANCH   8  26
ATOM     26  O   UNL     1     -26.758 -14.150  -4.042  1.00  0.00    -0.508 OA
ATOM     27  H   UNL     1     -27.129 -15.080  -4.194  1.00  0.00     0.293 HD
ENDBRANCH   8  26
TORSDOF 6
ENDMDL
MODEL 9
REMARK VINA RESULT:    -7.669      1.868      6.854
REMARK INTER + INTRA:          -9.515
REMARK INTER:                  -9.260
REMARK INTRA:                  -0.255
REMARK UNBOUND:                -0.277
REMARK SMILES O=c1c(O)c(-c2ccc(O)c(O)c2)oc2cc(O)cc(O)c12
REMARK SMILES IDX 5 1 3 2 2 3 1 4 22 5 20 6 19 7 17 8 16 9 15 10 14 11 6 12
REMARK SMILES IDX 7 13 8 14 9 15 13 16 11 17 10 18 12 20 4 22 21 24 18 26
REMARK H PARENT 10 19 12 21 4 23 21 25 18 27
REMARK Flexibility Score: inf
ROOT
ATOM      1  C   UNL     1     -28.745 -10.946   1.787  1.00  0.00     0.180 A 
ATOM      2  C   UNL     1     -29.391 -12.040   1.186  1.00  0.00     0.208 A 
ATOM      3  C   UNL     1     -30.794 -12.066   1.146  1.00  0.00     0.238 A 
ATOM      4  O   UNL     1     -31.364 -13.022   0.558  1.00  0.00    -0.285 OA
ATOM      5  C   UNL     1     -31.535 -11.005   1.721  1.00  0.00     0.111 A 
ATOM      6  C   UNL     1     -32.960 -10.947   1.773  1.00  0.00     0.134 A 
ATOM      7  C   UNL     1     -33.587  -9.789   2.249  1.00  0.00     0.093 A 
ATOM      8  C   UNL     1     -32.842  -8.715   2.736  1.00  0.00     0.123 A 
ATOM      9  C   UNL     1     -31.449  -8.786   2.744  1.00  0.00     0.094 A 
ATOM     10  C   UNL     1     -30.794  -9.913   2.242  1.00  0.00     0.146 A 
ATOM     11  O   UNL     1     -29.466  -9.935   2.259  1.00  0.00    -0.452 OA
ENDROOT
BRANCH   1  12
ATOM     12  C   UNL     1     -27.270 -10.860   1.890  1.00  0.00     0.025 A 
ATOM     13  C   UNL     1     -26.609 -11.053   3.114  1.00  0.00     0.016 A 
ATOM     14  C   UNL     1     -25.218 -10.943   3.192  1.00  0.00     0.051 A 
ATOM     15  C   UNL     1     -24.470 -10.625   2.051  1.00  0.00     0.157 A 
ATOM     16  C   UNL     1     -26.518 -10.521   0.753  1.00  0.00     0.062 A 
ATOM     17  C   UNL     1     -25.124 -10.411   0.826  1.00  0.00     0.158 A 
BRANCH  15  18
ATOM     18  O   UNL     1     -23.083 -10.518   2.129  1.00  0.00    -0.504 OA
ATOM     19  H   UNL     1     -22.472 -11.158   1.632  1.00  0.00     0.293 HD
ENDBRANCH  15  18
BRANCH  17  20
ATOM     20  O   UNL     1     -24.409 -10.087  -0.327  1.00  0.00    -0.504 OA
ATOM     21  H   UNL     1     -24.855  -9.678  -1.139  1.00  0.00     0.293 HD
ENDBRANCH  17  20
ENDBRANCH   1  12
BRANCH   2  22
ATOM     22  O   UNL     1     -28.640 -13.066   0.604  1.00  0.00    -0.502 OA
ATOM     23  H   UNL     1     -27.999 -13.642   1.138  1.00  0.00     0.293 HD
ENDBRANCH   2  22
BRANCH   6  24
ATOM     24  O   UNL     1     -33.798 -12.001   1.399  1.00  0.00    -0.507 OA
ATOM     25  H   UNL     1     -33.590 -12.979   1.537  1.00  0.00     0.293 HD
ENDBRANCH   6  24
BRANCH   8  26
ATOM     26  O   UNL     1     -33.500  -7.584   3.217  1.00  0.00    -0.508 OA
ATOM     27  H   UNL     1     -34.037  -6.983   2.604  1.00  0.00     0.293 HD
ENDBRANCH   8  26
TORSDOF 6
ENDMDL
