MODEL 1
REMARK VINA RESULT:    -3.444      0.000      0.000
REMARK INTER + INTRA:          -8.990
REMARK INTER:                  -6.665
REMARK INTRA:                  -2.325
REMARK UNBOUND:                -2.325
REMARK SMILES CCCCCCCCCCCCCCCCCC(=O)[O-]
REMARK SMILES IDX 10 1 11 2 12 3 13 4 14 5 15 6 16 7 17 8 18 9 19 10 20 11
REMARK SMILES IDX 9 12 8 13 7 14 6 15 5 16 4 17 3 18 2 19 1 20
REMARK H PARENT
REMARK Flexibility Score: inf
ROOT
ATOM      1  C   UNL     1      58.110  29.694  50.131  1.00  0.00     0.000 C 
ENDROOT
BRANCH   1   2
ATOM      2  C   UNL     1      58.936  29.006  49.034  1.00  0.00     0.000 C 
BRANCH   2   3
ATOM      3  C   UNL     1      60.096  28.206  49.643  1.00  0.00     0.000 C 
BRANCH   3   4
ATOM      4  C   UNL     1      59.917  26.684  49.463  1.00  0.00     0.000 C 
BRANCH   4   5
ATOM      5  C   UNL     1      60.655  25.848  50.522  1.00  0.00     0.000 C 
BRANCH   5   6
ATOM      6  C   UNL     1      60.160  24.394  50.586  1.00  0.00     0.000 C 
BRANCH   6   7
ATOM      7  C   UNL     1      61.247  23.382  50.191  1.00  0.00     0.006 C 
BRANCH   7   8
ATOM      8  C   UNL     1      60.742  22.335  49.191  1.00  0.00     0.053 C 
BRANCH   8   9
ATOM      9  C   UNL     1      61.616  21.120  49.222  1.00  0.00     0.041 C 
ATOM     10  O   UNL     1      61.160  20.003  48.865  1.00  0.00    -0.550 OA
ATOM     11  O   UNL     1      62.922  21.214  49.686  1.00  0.00    -0.550 OA
ENDBRANCH   8   9
ENDBRANCH   7   8
ENDBRANCH   6   7
ENDBRANCH   5   6
ENDBRANCH   4   5
ENDBRANCH   3   4
ENDBRANCH   2   3
ENDBRANCH   1   2
BRANCH   1  12
ATOM     12  C   UNL     1      58.780  29.625  51.514  1.00  0.00     0.000 C 
BRANCH  12  13
ATOM     13  C   UNL     1      57.893  29.055  52.637  1.00  0.00    -0.000 C 
BRANCH  13  14
ATOM     14  C   UNL     1      57.949  27.516  52.754  1.00  0.00    -0.000 C 
BRANCH  14  15
ATOM     15  C   UNL     1      56.636  26.850  52.300  1.00  0.00    -0.000 C 
BRANCH  15  16
ATOM     16  C   UNL     1      56.814  25.985  51.044  1.00  0.00    -0.000 C 
BRANCH  16  17
ATOM     17  C   UNL     1      55.882  26.415  49.898  1.00  0.00    -0.000 C 
BRANCH  17  18
ATOM     18  C   UNL     1      55.047  27.655  50.255  1.00  0.00    -0.000 C 
BRANCH  18  19
ATOM     19  C   UNL     1      53.615  27.580  49.703  1.00  0.00    -0.003 C 
ATOM     20  C   UNL     1      53.300  26.180  49.183  1.00  0.00     0.004 C 
ENDBRANCH  18  19
ENDBRANCH  17  18
ENDBRANCH  16  17
ENDBRANCH  15  16
ENDBRANCH  14  15
ENDBRANCH  13  14
ENDBRANCH  12  13
ENDBRANCH   1  12
TORSDOF 16
ENDMDL
MODEL 2
REMARK VINA RESULT:    -3.379      4.389      8.218
REMARK INTER + INTRA:          -8.865
REMARK INTER:                  -8.040
REMARK INTRA:                  -0.825
REMARK UNBOUND:                -2.325
REMARK SMILES CCCCCCCCCCCCCCCCCC(=O)[O-]
REMARK SMILES IDX 10 1 11 2 12 3 13 4 14 5 15 6 16 7 17 8 18 9 19 10 20 11
REMARK SMILES IDX 9 12 8 13 7 14 6 15 5 16 4 17 3 18 2 19 1 20
REMARK H PARENT
REMARK Flexibility Score: inf
ROOT
ATOM      1  C   UNL     1      61.152  23.461  49.896  1.00  0.00     0.000 C 
ENDROOT
BRANCH   1   2
ATOM      2  C   UNL     1      59.931  24.247  50.398  1.00  0.00     0.000 C 
BRANCH   2   3
ATOM      3  C   UNL     1      60.180  25.760  50.306  1.00  0.00     0.000 C 
BRANCH   3   4
ATOM      4  C   UNL     1      59.110  26.479  49.458  1.00  0.00     0.000 C 
BRANCH   4   5
ATOM      5  C   UNL     1      59.298  28.004  49.394  1.00  0.00     0.000 C 
BRANCH   5   6
ATOM      6  C   UNL     1      58.172  28.774  50.103  1.00  0.00     0.000 C 
BRANCH   6   7
ATOM      7  C   UNL     1      56.935  27.901  50.368  1.00  0.00     0.006 C 
BRANCH   7   8
ATOM      8  C   UNL     1      55.635  28.714  50.400  1.00  0.00     0.053 C 
BRANCH   8   9
ATOM      9  C   UNL     1      54.470  27.850  50.032  1.00  0.00     0.041 C 
ATOM     10  O   UNL     1      53.369  28.372  49.717  1.00  0.00    -0.550 OA
ATOM     11  O   UNL     1      54.588  26.466  50.078  1.00  0.00    -0.550 OA
ENDBRANCH   8   9
ENDBRANCH   7   8
ENDBRANCH   6   7
ENDBRANCH   5   6
ENDBRANCH   4   5
ENDBRANCH   3   4
ENDBRANCH   2   3
ENDBRANCH   1   2
BRANCH   1  12
ATOM     12  C   UNL     1      60.786  22.404  48.840  1.00  0.00     0.000 C 
BRANCH  12  13
ATOM     13  C   UNL     1      60.915  20.943  49.312  1.00  0.00    -0.000 C 
BRANCH  13  14
ATOM     14  C   UNL     1      60.096  19.942  48.467  1.00  0.00    -0.000 C 
BRANCH  14  15
ATOM     15  C   UNL     1      60.118  18.523  49.065  1.00  0.00    -0.000 C 
BRANCH  15  16
ATOM     16  C   UNL     1      59.237  17.537  48.283  1.00  0.00    -0.000 C 
BRANCH  16  17
ATOM     17  C   UNL     1      58.010  17.078  49.090  1.00  0.00    -0.000 C 
BRANCH  17  18
ATOM     18  C   UNL     1      58.319  16.921  50.588  1.00  0.00    -0.000 C 
BRANCH  18  19
ATOM     19  C   UNL     1      57.525  17.904  51.460  1.00  0.00    -0.003 C 
ATOM     20  C   UNL     1      56.470  18.639  50.637  1.00  0.00     0.004 C 
ENDBRANCH  18  19
ENDBRANCH  17  18
ENDBRANCH  16  17
ENDBRANCH  15  16
ENDBRANCH  14  15
ENDBRANCH  13  14
ENDBRANCH  12  13
ENDBRANCH   1  12
TORSDOF 16
ENDMDL
MODEL 3
REMARK VINA RESULT:    -3.339      1.622      2.964
REMARK INTER + INTRA:          -8.788
REMARK INTER:                  -7.389
REMARK INTRA:                  -1.399
REMARK UNBOUND:                -2.325
REMARK SMILES CCCCCCCCCCCCCCCCCC(=O)[O-]
REMARK SMILES IDX 10 1 11 2 12 3 13 4 14 5 15 6 16 7 17 8 18 9 19 10 20 11
REMARK SMILES IDX 9 12 8 13 7 14 6 15 5 16 4 17 3 18 2 19 1 20
REMARK H PARENT
REMARK Flexibility Score: inf
ROOT
ATOM      1  C   UNL     1      59.964  26.738  49.527  1.00  0.00     0.000 C 
ENDROOT
BRANCH   1   2
ATOM      2  C   UNL     1      60.115  25.961  50.843  1.00  0.00     0.000 C 
BRANCH   2   3
ATOM      3  C   UNL     1      59.271  24.678  50.821  1.00  0.00     0.000 C 
BRANCH   3   4
ATOM      4  C   UNL     1      60.136  23.406  50.946  1.00  0.00     0.000 C 
BRANCH   4   5
ATOM      5  C   UNL     1      61.235  23.301  49.875  1.00  0.00     0.000 C 
BRANCH   5   6
ATOM      6  C   UNL     1      60.970  22.180  48.857  1.00  0.00     0.000 C 
BRANCH   6   7
ATOM      7  C   UNL     1      60.323  20.942  49.497  1.00  0.00     0.006 C 
BRANCH   7   8
ATOM      8  C   UNL     1      59.800  19.945  48.456  1.00  0.00     0.053 C 
BRANCH   8   9
ATOM      9  C   UNL     1      59.369  18.675  49.119  1.00  0.00     0.041 C 
ATOM     10  O   UNL     1      59.839  17.571  48.740  1.00  0.00    -0.550 OA
ATOM     11  O   UNL     1      58.415  18.707  50.129  1.00  0.00    -0.550 OA
ENDBRANCH   8   9
ENDBRANCH   7   8
ENDBRANCH   6   7
ENDBRANCH   5   6
ENDBRANCH   4   5
ENDBRANCH   3   4
ENDBRANCH   2   3
ENDBRANCH   1   2
BRANCH   1  12
ATOM     12  C   UNL     1      60.124  28.257  49.710  1.00  0.00     0.000 C 
BRANCH  12  13
ATOM     13  C   UNL     1      58.935  29.100  49.208  1.00  0.00    -0.000 C 
BRANCH  13  14
ATOM     14  C   UNL     1      58.090  29.721  50.342  1.00  0.00    -0.000 C 
BRANCH  14  15
ATOM     15  C   UNL     1      57.270  28.662  51.101  1.00  0.00    -0.000 C 
BRANCH  15  16
ATOM     16  C   UNL     1      56.176  28.024  50.231  1.00  0.00    -0.000 C 
BRANCH  16  17
ATOM     17  C   UNL     1      56.155  26.490  50.347  1.00  0.00    -0.000 C 
BRANCH  17  18
ATOM     18  C   UNL     1      54.808  25.960  50.865  1.00  0.00    -0.000 C 
BRANCH  18  19
ATOM     19  C   UNL     1      53.612  26.544  50.099  1.00  0.00    -0.003 C 
ATOM     20  C   UNL     1      53.336  25.751  48.824  1.00  0.00     0.004 C 
ENDBRANCH  18  19
ENDBRANCH  17  18
ENDBRANCH  16  17
ENDBRANCH  15  16
ENDBRANCH  14  15
ENDBRANCH  13  14
ENDBRANCH  12  13
ENDBRANCH   1  12
TORSDOF 16
ENDMDL
MODEL 4
REMARK VINA RESULT:    -3.260      2.365      4.709
REMARK INTER + INTRA:          -8.633
REMARK INTER:                  -7.151
REMARK INTRA:                  -1.482
REMARK UNBOUND:                -2.325
REMARK SMILES CCCCCCCCCCCCCCCCCC(=O)[O-]
REMARK SMILES IDX 10 1 11 2 12 3 13 4 14 5 15 6 16 7 17 8 18 9 19 10 20 11
REMARK SMILES IDX 9 12 8 13 7 14 6 15 5 16 4 17 3 18 2 19 1 20
REMARK H PARENT
REMARK Flexibility Score: inf
ROOT
ATOM      1  C   UNL     1      59.947  23.197  51.451  1.00  0.00     0.000 C 
ENDROOT
BRANCH   1   2
ATOM      2  C   UNL     1      61.248  22.427  51.727  1.00  0.00     0.000 C 
BRANCH   2   3
ATOM      3  C   UNL     1      62.144  22.403  50.481  1.00  0.00     0.000 C 
BRANCH   3   4
ATOM      4  C   UNL     1      62.040  21.070  49.710  1.00  0.00     0.000 C 
BRANCH   4   5
ATOM      5  C   UNL     1      61.143  21.150  48.462  1.00  0.00     0.000 C 
BRANCH   5   6
ATOM      6  C   UNL     1      59.908  20.239  48.556  1.00  0.00     0.000 C 
BRANCH   6   7
ATOM      7  C   UNL     1      59.947  19.316  49.784  1.00  0.00     0.006 C 
BRANCH   7   8
ATOM      8  C   UNL     1      58.702  19.458  50.667  1.00  0.00     0.053 C 
BRANCH   8   9
ATOM      9  C   UNL     1      57.631  18.514  50.216  1.00  0.00     0.041 C 
ATOM     10  O   UNL     1      57.936  17.456  49.605  1.00  0.00    -0.550 OA
ATOM     11  O   UNL     1      56.294  18.823  50.431  1.00  0.00    -0.550 OA
ENDBRANCH   8   9
ENDBRANCH   7   8
ENDBRANCH   6   7
ENDBRANCH   5   6
ENDBRANCH   4   5
ENDBRANCH   3   4
ENDBRANCH   2   3
ENDBRANCH   1   2
BRANCH   1  12
ATOM     12  C   UNL     1      60.081  24.195  50.288  1.00  0.00     0.000 C 
BRANCH  12  13
ATOM     13  C   UNL     1      59.744  25.656  50.646  1.00  0.00    -0.000 C 
BRANCH  13  14
ATOM     14  C   UNL     1      58.770  26.329  49.654  1.00  0.00    -0.000 C 
BRANCH  14  15
ATOM     15  C   UNL     1      59.020  27.844  49.533  1.00  0.00    -0.000 C 
BRANCH  15  16
ATOM     16  C   UNL     1      57.920  28.680  50.205  1.00  0.00    -0.000 C 
BRANCH  16  17
ATOM     17  C   UNL     1      56.621  27.883  50.415  1.00  0.00    -0.000 C 
BRANCH  17  18
ATOM     18  C   UNL     1      55.373  28.779  50.392  1.00  0.00    -0.000 C 
BRANCH  18  19
ATOM     19  C   UNL     1      54.083  27.985  50.138  1.00  0.00    -0.003 C 
ATOM     20  C   UNL     1      54.389  26.621  49.525  1.00  0.00     0.004 C 
ENDBRANCH  18  19
ENDBRANCH  17  18
ENDBRANCH  16  17
ENDBRANCH  15  16
ENDBRANCH  14  15
ENDBRANCH  13  14
ENDBRANCH  12  13
ENDBRANCH   1  12
TORSDOF 16
ENDMDL
MODEL 5
REMARK VINA RESULT:    -3.234      2.176      4.112
REMARK INTER + INTRA:          -8.584
REMARK INTER:                  -5.447
REMARK INTRA:                  -3.138
REMARK UNBOUND:                -2.325
REMARK SMILES CCCCCCCCCCCCCCCCCC(=O)[O-]
REMARK SMILES IDX 10 1 11 2 12 3 13 4 14 5 15 6 16 7 17 8 18 9 19 10 20 11
REMARK SMILES IDX 9 12 8 13 7 14 6 15 5 16 4 17 3 18 2 19 1 20
REMARK H PARENT
REMARK Flexibility Score: inf
ROOT
ATOM      1  C   UNL     1      58.218  27.524  52.648  1.00  0.00     0.000 C 
ENDROOT
BRANCH   1   2
ATOM      2  C   UNL     1      58.048  28.943  53.211  1.00  0.00     0.000 C 
BRANCH   2   3
ATOM      3  C   UNL     1      57.966  29.975  52.077  1.00  0.00     0.000 C 
BRANCH   3   4
ATOM      4  C   UNL     1      59.233  29.978  51.195  1.00  0.00     0.000 C 
BRANCH   4   5
ATOM      5  C   UNL     1      58.933  30.034  49.688  1.00  0.00     0.000 C 
BRANCH   5   6
ATOM      6  C   UNL     1      58.918  28.644  49.031  1.00  0.00     0.000 C 
BRANCH   6   7
ATOM      7  C   UNL     1      60.214  27.857  49.285  1.00  0.00     0.006 C 
BRANCH   7   8
ATOM      8  C   UNL     1      59.953  26.384  49.622  1.00  0.00     0.053 C 
BRANCH   8   9
ATOM      9  C   UNL     1      61.002  25.868  50.556  1.00  0.00     0.041 C 
ATOM     10  O   UNL     1      61.433  26.596  51.488  1.00  0.00    -0.550 OA
ATOM     11  O   UNL     1      61.534  24.598  50.372  1.00  0.00    -0.550 OA
ENDBRANCH   8   9
ENDBRANCH   7   8
ENDBRANCH   6   7
ENDBRANCH   5   6
ENDBRANCH   4   5
ENDBRANCH   3   4
ENDBRANCH   2   3
ENDBRANCH   1   2
BRANCH   1  12
ATOM     12  C   UNL     1      57.054  26.591  53.022  1.00  0.00     0.000 C 
BRANCH  12  13
ATOM     13  C   UNL     1      56.519  25.725  51.865  1.00  0.00    -0.000 C 
BRANCH  13  14
ATOM     14  C   UNL     1      56.486  26.456  50.505  1.00  0.00    -0.000 C 
BRANCH  14  15
ATOM     15  C   UNL     1      55.132  26.292  49.789  1.00  0.00    -0.000 C 
BRANCH  15  16
ATOM     16  C   UNL     1      54.245  27.540  49.906  1.00  0.00    -0.000 C 
BRANCH  16  17
ATOM     17  C   UNL     1      55.038  28.785  50.342  1.00  0.00    -0.000 C 
BRANCH  17  18
ATOM     18  C   UNL     1      54.341  29.557  51.474  1.00  0.00    -0.000 C 
BRANCH  18  19
ATOM     19  C   UNL     1      53.873  28.638  52.613  1.00  0.00    -0.003 C 
ATOM     20  C   UNL     1      54.495  29.053  53.943  1.00  0.00     0.004 C 
ENDBRANCH  18  19
ENDBRANCH  17  18
ENDBRANCH  16  17
ENDBRANCH  15  16
ENDBRANCH  14  15
ENDBRANCH  13  14
ENDBRANCH  12  13
ENDBRANCH   1  12
TORSDOF 16
ENDMDL
MODEL 6
REMARK VINA RESULT:    -3.194      2.027      3.666
REMARK INTER + INTRA:          -8.506
REMARK INTER:                  -6.011
REMARK INTRA:                  -2.495
REMARK UNBOUND:                -2.325
REMARK SMILES CCCCCCCCCCCCCCCCCC(=O)[O-]
REMARK SMILES IDX 10 1 11 2 12 3 13 4 14 5 15 6 16 7 17 8 18 9 19 10 20 11
REMARK SMILES IDX 9 12 8 13 7 14 6 15 5 16 4 17 3 18 2 19 1 20
REMARK H PARENT
REMARK Flexibility Score: inf
ROOT
ATOM      1  C   UNL     1      56.659  27.749  51.805  1.00  0.00     0.000 C 
ENDROOT
BRANCH   1   2
ATOM      2  C   UNL     1      57.027  28.078  50.350  1.00  0.00     0.000 C 
BRANCH   2   3
ATOM      3  C   UNL     1      57.571  29.509  50.234  1.00  0.00     0.000 C 
BRANCH   3   4
ATOM      4  C   UNL     1      58.962  29.555  49.566  1.00  0.00     0.000 C 
BRANCH   4   5
ATOM      5  C   UNL     1      59.478  28.175  49.124  1.00  0.00     0.000 C 
BRANCH   5   6
ATOM      6  C   UNL     1      60.936  27.921  49.540  1.00  0.00     0.000 C 
BRANCH   6   7
ATOM      7  C   UNL     1      61.128  26.556  50.217  1.00  0.00     0.006 C 
BRANCH   7   8
ATOM      8  C   UNL     1      59.852  25.705  50.201  1.00  0.00     0.053 C 
BRANCH   8   9
ATOM      9  C   UNL     1      60.187  24.257  50.380  1.00  0.00     0.041 C 
ATOM     10  O   UNL     1      60.986  23.690  49.591  1.00  0.00    -0.550 OA
ATOM     11  O   UNL     1      59.583  23.524  51.394  1.00  0.00    -0.550 OA
ENDBRANCH   8   9
ENDBRANCH   7   8
ENDBRANCH   6   7
ENDBRANCH   5   6
ENDBRANCH   4   5
ENDBRANCH   3   4
ENDBRANCH   2   3
ENDBRANCH   1   2
BRANCH   1  12
ATOM     12  C   UNL     1      56.740  26.245  52.114  1.00  0.00     0.000 C 
BRANCH  12  13
ATOM     13  C   UNL     1      55.385  25.511  52.131  1.00  0.00    -0.000 C 
BRANCH  13  14
ATOM     14  C   UNL     1      54.181  26.422  51.803  1.00  0.00    -0.000 C 
BRANCH  14  15
ATOM     15  C   UNL     1      53.696  26.243  50.352  1.00  0.00    -0.000 C 
BRANCH  15  16
ATOM     16  C   UNL     1      53.338  27.577  49.679  1.00  0.00    -0.000 C 
BRANCH  16  17
ATOM     17  C   UNL     1      53.051  28.691  50.700  1.00  0.00    -0.000 C 
BRANCH  17  18
ATOM     18  C   UNL     1      53.874  29.961  50.429  1.00  0.00    -0.000 C 
BRANCH  18  19
ATOM     19  C   UNL     1      54.330  30.655  51.721  1.00  0.00    -0.003 C 
ATOM     20  C   UNL     1      53.896  29.863  52.952  1.00  0.00     0.004 C 
ENDBRANCH  18  19
ENDBRANCH  17  18
ENDBRANCH  16  17
ENDBRANCH  15  16
ENDBRANCH  14  15
ENDBRANCH  13  14
ENDBRANCH  12  13
ENDBRANCH   1  12
TORSDOF 16
ENDMDL
MODEL 7
REMARK VINA RESULT:    -3.183      3.469      5.974
REMARK INTER + INTRA:          -8.484
REMARK INTER:                  -6.092
REMARK INTRA:                  -2.392
REMARK UNBOUND:                -2.325
REMARK SMILES CCCCCCCCCCCCCCCCCC(=O)[O-]
REMARK SMILES IDX 10 1 11 2 12 3 13 4 14 5 15 6 16 7 17 8 18 9 19 10 20 11
REMARK SMILES IDX 9 12 8 13 7 14 6 15 5 16 4 17 3 18 2 19 1 20
REMARK H PARENT
REMARK Flexibility Score: inf
ROOT
ATOM      1  C   UNL     1      54.178  25.882  49.488  1.00  0.00     0.000 C 
ENDROOT
BRANCH   1   2
ATOM      2  C   UNL     1      55.658  26.249  49.677  1.00  0.00     0.000 C 
BRANCH   2   3
ATOM      3  C   UNL     1      56.018  26.320  51.168  1.00  0.00     0.000 C 
BRANCH   3   4
ATOM      4  C   UNL     1      56.722  27.642  51.538  1.00  0.00     0.000 C 
BRANCH   4   5
ATOM      5  C   UNL     1      56.725  28.677  50.401  1.00  0.00     0.000 C 
BRANCH   5   6
ATOM      6  C   UNL     1      57.954  29.600  50.436  1.00  0.00     0.000 C 
BRANCH   6   7
ATOM      7  C   UNL     1      58.869  29.411  49.215  1.00  0.00     0.006 C 
BRANCH   7   8
ATOM      8  C   UNL     1      59.586  28.056  49.220  1.00  0.00     0.053 C 
BRANCH   8   9
ATOM      9  C   UNL     1      61.023  28.227  49.602  1.00  0.00     0.041 C 
ATOM     10  O   UNL     1      61.793  27.232  49.633  1.00  0.00    -0.550 OA
ATOM     11  O   UNL     1      61.502  29.480  49.965  1.00  0.00    -0.550 OA
ENDBRANCH   8   9
ENDBRANCH   7   8
ENDBRANCH   6   7
ENDBRANCH   5   6
ENDBRANCH   4   5
ENDBRANCH   3   4
ENDBRANCH   2   3
ENDBRANCH   1   2
BRANCH   1  12
ATOM     12  C   UNL     1      53.230  26.810  50.266  1.00  0.00     0.000 C 
BRANCH  12  13
ATOM     13  C   UNL     1      52.973  28.178  49.605  1.00  0.00    -0.000 C 
BRANCH  13  14
ATOM     14  C   UNL     1      53.127  29.373  50.570  1.00  0.00    -0.000 C 
BRANCH  14  15
ATOM     15  C   UNL     1      53.107  28.935  52.046  1.00  0.00    -0.000 C 
BRANCH  15  16
ATOM     16  C   UNL     1      54.076  29.748  52.918  1.00  0.00    -0.000 C 
BRANCH  16  17
ATOM     17  C   UNL     1      54.595  31.007  52.202  1.00  0.00    -0.000 C 
BRANCH  17  18
ATOM     18  C   UNL     1      54.424  32.277  53.052  1.00  0.00    -0.000 C 
BRANCH  18  19
ATOM     19  C   UNL     1      55.595  32.500  54.019  1.00  0.00    -0.003 C 
ATOM     20  C   UNL     1      56.933  32.243  53.331  1.00  0.00     0.004 C 
ENDBRANCH  18  19
ENDBRANCH  17  18
ENDBRANCH  16  17
ENDBRANCH  15  16
ENDBRANCH  14  15
ENDBRANCH  13  14
ENDBRANCH  12  13
ENDBRANCH   1  12
TORSDOF 16
ENDMDL
MODEL 8
REMARK VINA RESULT:    -3.126      4.743      8.393
REMARK INTER + INTRA:          -8.374
REMARK INTER:                  -5.316
REMARK INTRA:                  -3.058
REMARK UNBOUND:                -2.325
REMARK SMILES CCCCCCCCCCCCCCCCCC(=O)[O-]
REMARK SMILES IDX 10 1 11 2 12 3 13 4 14 5 15 6 16 7 17 8 18 9 19 10 20 11
REMARK SMILES IDX 9 12 8 13 7 14 6 15 5 16 4 17 3 18 2 19 1 20
REMARK H PARENT
REMARK Flexibility Score: inf
ROOT
ATOM      1  C   UNL     1      59.820  17.013  49.839  1.00  0.00     0.000 C 
ENDROOT
BRANCH   1   2
ATOM      2  C   UNL     1      60.641  18.167  49.244  1.00  0.00     0.000 C 
BRANCH   2   3
ATOM      3  C   UNL     1      59.720  19.284  48.730  1.00  0.00     0.000 C 
BRANCH   3   4
ATOM      4  C   UNL     1      60.486  20.596  48.459  1.00  0.00     0.000 C 
BRANCH   4   5
ATOM      5  C   UNL     1      61.800  20.715  49.249  1.00  0.00     0.000 C 
BRANCH   5   6
ATOM      6  C   UNL     1      61.929  22.054  49.994  1.00  0.00     0.000 C 
BRANCH   6   7
ATOM      7  C   UNL     1      60.866  23.075  49.561  1.00  0.00     0.006 C 
BRANCH   7   8
ATOM      8  C   UNL     1      60.920  24.368  50.384  1.00  0.00     0.053 C 
BRANCH   8   9
ATOM      9  C   UNL     1      60.297  24.157  51.729  1.00  0.00     0.041 C 
ATOM     10  O   UNL     1      61.021  24.054  52.753  1.00  0.00    -0.550 OA
ATOM     11  O   UNL     1      58.918  24.033  51.845  1.00  0.00    -0.550 OA
ENDBRANCH   8   9
ENDBRANCH   7   8
ENDBRANCH   6   7
ENDBRANCH   5   6
ENDBRANCH   4   5
ENDBRANCH   3   4
ENDBRANCH   2   3
ENDBRANCH   1   2
BRANCH   1  12
ATOM     12  C   UNL     1      58.320  17.123  49.522  1.00  0.00     0.000 C 
BRANCH  12  13
ATOM     13  C   UNL     1      57.406  17.274  50.754  1.00  0.00    -0.000 C 
BRANCH  13  14
ATOM     14  C   UNL     1      56.765  18.673  50.885  1.00  0.00    -0.000 C 
BRANCH  14  15
ATOM     15  C   UNL     1      56.404  19.013  52.343  1.00  0.00    -0.000 C 
BRANCH  15  16
ATOM     16  C   UNL     1      57.461  19.895  53.025  1.00  0.00    -0.000 C 
BRANCH  16  17
ATOM     17  C   UNL     1      58.443  20.519  52.018  1.00  0.00    -0.000 C 
BRANCH  17  18
ATOM     18  C   UNL     1      59.903  20.424  52.487  1.00  0.00    -0.000 C 
BRANCH  18  19
ATOM     19  C   UNL     1      60.302  18.995  52.885  1.00  0.00    -0.003 C 
ATOM     20  C   UNL     1      61.802  18.774  52.709  1.00  0.00     0.004 C 
ENDBRANCH  18  19
ENDBRANCH  17  18
ENDBRANCH  16  17
ENDBRANCH  15  16
ENDBRANCH  14  15
ENDBRANCH  13  14
ENDBRANCH  12  13
ENDBRANCH   1  12
TORSDOF 16
ENDMDL
MODEL 9
REMARK VINA RESULT:    -3.103      3.953      5.843
REMARK INTER + INTRA:          -8.330
REMARK INTER:                  -5.440
REMARK INTRA:                  -2.890
REMARK UNBOUND:                -2.325
REMARK SMILES CCCCCCCCCCCCCCCCCC(=O)[O-]
REMARK SMILES IDX 10 1 11 2 12 3 13 4 14 5 15 6 16 7 17 8 18 9 19 10 20 11
REMARK SMILES IDX 9 12 8 13 7 14 6 15 5 16 4 17 3 18 2 19 1 20
REMARK H PARENT
REMARK Flexibility Score: inf
ROOT
ATOM      1  C   UNL     1      56.033  26.075  53.492  1.00  0.00     0.000 C 
ENDROOT
BRANCH   1   2
ATOM      2  C   UNL     1      57.054  26.636  52.489  1.00  0.00     0.000 C 
BRANCH   2   3
ATOM      3  C   UNL     1      58.151  25.604  52.190  1.00  0.00     0.000 C 
BRANCH   3   4
ATOM      4  C   UNL     1      58.456  25.495  50.682  1.00  0.00     0.000 C 
BRANCH   4   5
ATOM      5  C   UNL     1      58.106  26.765  49.889  1.00  0.00     0.000 C 
BRANCH   5   6
ATOM      6  C   UNL     1      59.339  27.437  49.263  1.00  0.00     0.000 C 
BRANCH   6   7
ATOM      7  C   UNL     1      59.557  28.868  49.777  1.00  0.00     0.006 C 
BRANCH   7   8
ATOM      8  C   UNL     1      58.281  29.485  50.363  1.00  0.00     0.053 C 
BRANCH   8   9
ATOM      9  C   UNL     1      58.603  30.296  51.579  1.00  0.00     0.041 C 
ATOM     10  O   UNL     1      57.679  30.722  52.319  1.00  0.00    -0.550 OA
ATOM     11  O   UNL     1      59.923  30.616  51.871  1.00  0.00    -0.550 OA
ENDBRANCH   8   9
ENDBRANCH   7   8
ENDBRANCH   6   7
ENDBRANCH   5   6
ENDBRANCH   4   5
ENDBRANCH   3   4
ENDBRANCH   2   3
ENDBRANCH   1   2
BRANCH   1  12
ATOM     12  C   UNL     1      55.058  25.073  52.851  1.00  0.00     0.000 C 
BRANCH  12  13
ATOM     13  C   UNL     1      53.620  25.595  52.666  1.00  0.00    -0.000 C 
BRANCH  13  14
ATOM     14  C   UNL     1      53.046  25.351  51.253  1.00  0.00    -0.000 C 
BRANCH  14  15
ATOM     15  C   UNL     1      54.141  25.371  50.170  1.00  0.00    -0.000 C 
BRANCH  15  16
ATOM     16  C   UNL     1      54.409  26.782  49.626  1.00  0.00    -0.000 C 
BRANCH  16  17
ATOM     17  C   UNL     1      53.145  27.660  49.620  1.00  0.00    -0.000 C 
BRANCH  17  18
ATOM     18  C   UNL     1      53.412  29.076  50.154  1.00  0.00    -0.000 C 
BRANCH  18  19
ATOM     19  C   UNL     1      54.721  29.167  50.954  1.00  0.00    -0.003 C 
ATOM     20  C   UNL     1      54.442  29.300  52.449  1.00  0.00     0.004 C 
ENDBRANCH  18  19
ENDBRANCH  17  18
ENDBRANCH  16  17
ENDBRANCH  15  16
ENDBRANCH  14  15
ENDBRANCH  13  14
ENDBRANCH  12  13
ENDBRANCH   1  12
TORSDOF 16
ENDMDL
