MODEL 1
REMARK VINA RESULT:    -5.267      0.000      0.000
REMARK INTER + INTRA:          -6.874
REMARK INTER:                  -6.499
REMARK INTRA:                  -0.375
REMARK UNBOUND:                -0.375
REMARK SMILES Oc1cc(O)c2cc(O)c(-c3cc(O)c(O)c(O)c3)[o+]c2c1
REMARK SMILES IDX 10 1 20 2 21 3 22 4 2 5 3 6 4 7 6 8 7 9 8 10 11 11 12 12
REMARK SMILES IDX 13 13 19 14 15 15 17 16 14 17 16 19 18 21 9 23 1 25 5 27
REMARK H PARENT 14 18 16 20 18 22 9 24 1 26 5 28
REMARK Flexibility Score: inf
ROOT
ATOM      1  C   UNL     1      44.912  32.956  48.736  1.00  0.00     0.402 A 
ATOM      2  O   UNL     1      44.831  31.703  49.175  1.00  0.00    -0.202 OA
ATOM      3  C   UNL     1      45.862  31.044  49.693  1.00  0.00     0.368 A 
ATOM      4  C   UNL     1      45.679  29.727  50.126  1.00  0.00     0.162 A 
ATOM      5  C   UNL     1      46.744  29.010  50.670  1.00  0.00     0.128 A 
ATOM      6  C   UNL     1      48.004  29.610  50.785  1.00  0.00     0.093 A 
ATOM      7  C   UNL     1      48.212  30.927  50.359  1.00  0.00     0.136 A 
ATOM      8  C   UNL     1      47.130  31.662  49.807  1.00  0.00     0.125 A 
ATOM      9  C   UNL     1      47.244  32.991  49.366  1.00  0.00     0.078 A 
ATOM     10  C   UNL     1      46.131  33.651  48.837  1.00  0.00     0.223 A 
ENDROOT
BRANCH   1  11
ATOM     11  C   UNL     1      43.694  33.580  48.169  1.00  0.00     0.091 A 
ATOM     12  C   UNL     1      42.840  34.312  49.008  1.00  0.00     0.068 A 
ATOM     13  C   UNL     1      41.670  34.898  48.511  1.00  0.00     0.162 A 
ATOM     14  C   UNL     1      43.344  33.409  46.822  1.00  0.00     0.068 A 
ATOM     15  C   UNL     1      41.336  34.740  47.145  1.00  0.00     0.200 A 
ATOM     16  C   UNL     1      42.177  33.989  46.311  1.00  0.00     0.162 A 
BRANCH  13  17
ATOM     17  O   UNL     1      40.876  35.622  49.404  1.00  0.00    -0.504 OA
ATOM     18  H   UNL     1      41.177  36.464  49.872  1.00  0.00     0.293 HD
ENDBRANCH  13  17
BRANCH  15  19
ATOM     19  O   UNL     1      40.187  35.303  46.583  1.00  0.00    -0.502 OA
ATOM     20  H   UNL     1      39.467  34.773  46.117  1.00  0.00     0.293 HD
ENDBRANCH  15  19
BRANCH  16  21
ATOM     21  O   UNL     1      41.840  33.820  44.968  1.00  0.00    -0.504 OA
ATOM     22  H   UNL     1      40.874  33.807  44.662  1.00  0.00     0.293 HD
ENDBRANCH  16  21
ENDBRANCH   1  11
BRANCH  10  23
ATOM     23  O   UNL     1      46.231  34.987  48.445  1.00  0.00    -0.500 OA
ATOM     24  H   UNL     1      47.012  35.323  47.895  1.00  0.00     0.294 HD
ENDBRANCH  10  23
BRANCH   5  25
ATOM     25  O   UNL     1      46.542  27.698  51.096  1.00  0.00    -0.507 OA
ATOM     26  H   UNL     1      45.631  27.259  51.045  1.00  0.00     0.293 HD
ENDBRANCH   5  25
BRANCH   7  27
ATOM     27  O   UNL     1      49.499  31.455  50.504  1.00  0.00    -0.507 OA
ATOM     28  H   UNL     1      50.303  30.923  50.805  1.00  0.00     0.293 HD
ENDBRANCH   7  27
TORSDOF 7
ENDMDL
MODEL 2
REMARK VINA RESULT:    -5.254      0.101      1.802
REMARK INTER + INTRA:          -6.858
REMARK INTER:                  -6.485
REMARK INTRA:                  -0.374
REMARK UNBOUND:                -0.375
REMARK SMILES Oc1cc(O)c2cc(O)c(-c3cc(O)c(O)c(O)c3)[o+]c2c1
REMARK SMILES IDX 10 1 20 2 21 3 22 4 2 5 3 6 4 7 6 8 7 9 8 10 11 11 12 12
REMARK SMILES IDX 13 13 19 14 15 15 17 16 14 17 16 19 18 21 9 23 1 25 5 27
REMARK H PARENT 14 18 16 20 18 22 9 24 1 26 5 28
REMARK Flexibility Score: inf
ROOT
ATOM      1  C   UNL     1      44.917  32.877  48.799  1.00  0.00     0.402 A 
ATOM      2  O   UNL     1      44.848  31.619  49.226  1.00  0.00    -0.202 OA
ATOM      3  C   UNL     1      45.892  30.957  49.715  1.00  0.00     0.368 A 
ATOM      4  C   UNL     1      45.722  29.635  50.137  1.00  0.00     0.162 A 
ATOM      5  C   UNL     1      46.800  28.915  50.651  1.00  0.00     0.128 A 
ATOM      6  C   UNL     1      48.060  29.518  50.746  1.00  0.00     0.093 A 
ATOM      7  C   UNL     1      48.256  30.841  50.330  1.00  0.00     0.136 A 
ATOM      8  C   UNL     1      47.160  31.577  49.808  1.00  0.00     0.125 A 
ATOM      9  C   UNL     1      47.262  32.912  49.380  1.00  0.00     0.078 A 
ATOM     10  C   UNL     1      46.136  33.574  48.881  1.00  0.00     0.223 A 
ENDROOT
BRANCH   1  11
ATOM     11  C   UNL     1      43.685  33.503  48.264  1.00  0.00     0.091 A 
ATOM     12  C   UNL     1      43.380  33.371  46.902  1.00  0.00     0.068 A 
ATOM     13  C   UNL     1      42.236  33.966  46.358  1.00  0.00     0.162 A 
ATOM     14  C   UNL     1      42.843  34.274  49.080  1.00  0.00     0.068 A 
ATOM     15  C   UNL     1      41.379  34.723  47.192  1.00  0.00     0.200 A 
ATOM     16  C   UNL     1      41.695  34.874  48.551  1.00  0.00     0.162 A 
BRANCH  13  17
ATOM     17  O   UNL     1      41.992  33.781  44.995  1.00  0.00    -0.504 OA
ATOM     18  H   UNL     1      41.527  34.458  44.407  1.00  0.00     0.293 HD
ENDBRANCH  13  17
BRANCH  15  19
ATOM     19  O   UNL     1      40.218  35.338  46.716  1.00  0.00    -0.502 OA
ATOM     20  H   UNL     1      39.290  35.130  47.052  1.00  0.00     0.293 HD
ENDBRANCH  15  19
BRANCH  16  21
ATOM     21  O   UNL     1      40.860  35.633  49.369  1.00  0.00    -0.504 OA
ATOM     22  H   UNL     1      39.900  35.831  49.110  1.00  0.00     0.293 HD
ENDBRANCH  16  21
ENDBRANCH   1  11
BRANCH  10  23
ATOM     23  O   UNL     1      46.223  34.914  48.503  1.00  0.00    -0.500 OA
ATOM     24  H   UNL     1      46.171  35.198  47.531  1.00  0.00     0.294 HD
ENDBRANCH  10  23
BRANCH   5  25
ATOM     25  O   UNL     1      46.611  27.598  51.067  1.00  0.00    -0.507 OA
ATOM     26  H   UNL     1      46.748  27.323  52.032  1.00  0.00     0.293 HD
ENDBRANCH   5  25
BRANCH   7  27
ATOM     27  O   UNL     1      49.544  31.370  50.454  1.00  0.00    -0.507 OA
ATOM     28  H   UNL     1      49.753  32.357  50.500  1.00  0.00     0.293 HD
ENDBRANCH   7  27
TORSDOF 7
ENDMDL
MODEL 3
REMARK VINA RESULT:    -4.916      1.907      6.656
REMARK INTER + INTRA:          -6.440
REMARK INTER:                  -6.185
REMARK INTRA:                  -0.255
REMARK UNBOUND:                -0.375
REMARK SMILES Oc1cc(O)c2cc(O)c(-c3cc(O)c(O)c(O)c3)[o+]c2c1
REMARK SMILES IDX 10 1 20 2 21 3 22 4 2 5 3 6 4 7 6 8 7 9 8 10 11 11 12 12
REMARK SMILES IDX 13 13 19 14 15 15 17 16 14 17 16 19 18 21 9 23 1 25 5 27
REMARK H PARENT 14 18 16 20 18 22 9 24 1 26 5 28
REMARK Flexibility Score: inf
ROOT
ATOM      1  C   UNL     1      45.349  31.670  49.025  1.00  0.00     0.402 A 
ATOM      2  O   UNL     1      44.140  32.222  48.968  1.00  0.00    -0.202 OA
ATOM      3  C   UNL     1      43.938  33.535  48.959  1.00  0.00     0.368 A 
ATOM      4  C   UNL     1      42.628  34.021  48.899  1.00  0.00     0.162 A 
ATOM      5  C   UNL     1      42.386  35.394  48.891  1.00  0.00     0.128 A 
ATOM      6  C   UNL     1      43.458  36.292  48.944  1.00  0.00     0.093 A 
ATOM      7  C   UNL     1      44.779  35.831  49.004  1.00  0.00     0.136 A 
ATOM      8  C   UNL     1      45.030  34.434  49.009  1.00  0.00     0.125 A 
ATOM      9  C   UNL     1      46.321  33.882  49.055  1.00  0.00     0.078 A 
ATOM     10  C   UNL     1      46.489  32.494  49.052  1.00  0.00     0.223 A 
ENDROOT
BRANCH   1  11
ATOM     11  C   UNL     1      45.445  30.192  49.040  1.00  0.00     0.091 A 
ATOM     12  C   UNL     1      44.959  29.459  47.948  1.00  0.00     0.068 A 
ATOM     13  C   UNL     1      45.014  28.060  47.936  1.00  0.00     0.162 A 
ATOM     14  C   UNL     1      45.960  29.503  50.149  1.00  0.00     0.068 A 
ATOM     15  C   UNL     1      45.556  27.374  49.048  1.00  0.00     0.200 A 
ATOM     16  C   UNL     1      46.021  28.105  50.151  1.00  0.00     0.162 A 
BRANCH  13  17
ATOM     17  O   UNL     1      44.522  27.400  46.808  1.00  0.00    -0.504 OA
ATOM     18  H   UNL     1      44.342  26.406  46.768  1.00  0.00     0.293 HD
ENDBRANCH  13  17
BRANCH  15  19
ATOM     19  O   UNL     1      45.647  25.980  49.099  1.00  0.00    -0.502 OA
ATOM     20  H   UNL     1      45.568  25.439  49.947  1.00  0.00     0.293 HD
ENDBRANCH  15  19
BRANCH  16  21
ATOM     21  O   UNL     1      46.541  27.428  51.254  1.00  0.00    -0.504 OA
ATOM     22  H   UNL     1      47.049  26.557  51.151  1.00  0.00     0.293 HD
ENDBRANCH  16  21
ENDBRANCH   1  11
BRANCH  10  23
ATOM     23  O   UNL     1      47.772  31.945  49.046  1.00  0.00    -0.500 OA
ATOM     24  H   UNL     1      47.936  30.979  48.788  1.00  0.00     0.294 HD
ENDBRANCH  10  23
BRANCH   5  25
ATOM     25  O   UNL     1      41.073  35.860  48.831  1.00  0.00    -0.507 OA
ATOM     26  H   UNL     1      40.860  36.807  48.543  1.00  0.00     0.293 HD
ENDBRANCH   5  25
BRANCH   7  27
ATOM     27  O   UNL     1      45.794  36.791  49.057  1.00  0.00    -0.507 OA
ATOM     28  H   UNL     1      46.627  36.710  49.621  1.00  0.00     0.293 HD
ENDBRANCH   7  27
TORSDOF 7
ENDMDL
MODEL 4
REMARK VINA RESULT:    -4.913      2.426      3.762
REMARK INTER + INTRA:          -6.437
REMARK INTER:                  -6.150
REMARK INTRA:                  -0.287
REMARK UNBOUND:                -0.375
REMARK SMILES Oc1cc(O)c2cc(O)c(-c3cc(O)c(O)c(O)c3)[o+]c2c1
REMARK SMILES IDX 10 1 20 2 21 3 22 4 2 5 3 6 4 7 6 8 7 9 8 10 11 11 12 12
REMARK SMILES IDX 13 13 19 14 15 15 17 16 14 17 16 19 18 21 9 23 1 25 5 27
REMARK H PARENT 14 18 16 20 18 22 9 24 1 26 5 28
REMARK Flexibility Score: inf
ROOT
ATOM      1  C   UNL     1      45.005  32.091  48.608  1.00  0.00     0.402 A 
ATOM      2  O   UNL     1      45.345  31.219  49.553  1.00  0.00    -0.202 OA
ATOM      3  C   UNL     1      45.583  29.934  49.307  1.00  0.00     0.368 A 
ATOM      4  C   UNL     1      45.932  29.093  50.368  1.00  0.00     0.162 A 
ATOM      5  C   UNL     1      46.185  27.741  50.140  1.00  0.00     0.128 A 
ATOM      6  C   UNL     1      46.089  27.221  48.844  1.00  0.00     0.093 A 
ATOM      7  C   UNL     1      45.740  28.043  47.766  1.00  0.00     0.136 A 
ATOM      8  C   UNL     1      45.485  29.421  47.993  1.00  0.00     0.125 A 
ATOM      9  C   UNL     1      45.143  30.321  46.969  1.00  0.00     0.078 A 
ATOM     10  C   UNL     1      44.911  31.667  47.270  1.00  0.00     0.223 A 
ENDROOT
BRANCH   1  11
ATOM     11  C   UNL     1      44.754  33.495  49.008  1.00  0.00     0.091 A 
ATOM     12  C   UNL     1      45.701  34.481  48.694  1.00  0.00     0.068 A 
ATOM     13  C   UNL     1      45.507  35.814  49.075  1.00  0.00     0.162 A 
ATOM     14  C   UNL     1      43.615  33.853  49.746  1.00  0.00     0.068 A 
ATOM     15  C   UNL     1      44.344  36.172  49.798  1.00  0.00     0.200 A 
ATOM     16  C   UNL     1      43.408  35.182  50.133  1.00  0.00     0.162 A 
BRANCH  13  17
ATOM     17  O   UNL     1      46.487  36.742  48.716  1.00  0.00    -0.504 OA
ATOM     18  H   UNL     1      46.431  37.339  47.903  1.00  0.00     0.293 HD
ENDBRANCH  13  17
BRANCH  15  19
ATOM     19  O   UNL     1      44.086  37.484  50.203  1.00  0.00    -0.502 OA
ATOM     20  H   UNL     1      43.235  37.778  50.659  1.00  0.00     0.293 HD
ENDBRANCH  15  19
BRANCH  16  21
ATOM     21  O   UNL     1      42.270  35.531  50.859  1.00  0.00    -0.504 OA
ATOM     22  H   UNL     1      41.341  35.281  50.542  1.00  0.00     0.293 HD
ENDBRANCH  16  21
ENDBRANCH   1  11
BRANCH  10  23
ATOM     23  O   UNL     1      44.620  32.571  46.248  1.00  0.00    -0.500 OA
ATOM     24  H   UNL     1      45.325  33.197  45.876  1.00  0.00     0.294 HD
ENDBRANCH  10  23
BRANCH   5  25
ATOM     25  O   UNL     1      46.532  26.917  51.211  1.00  0.00    -0.507 OA
ATOM     26  H   UNL     1      46.125  25.996  51.324  1.00  0.00     0.293 HD
ENDBRANCH   5  25
BRANCH   7  27
ATOM     27  O   UNL     1      45.662  27.448  46.502  1.00  0.00    -0.507 OA
ATOM     28  H   UNL     1      46.287  26.728  46.171  1.00  0.00     0.293 HD
ENDBRANCH   7  27
TORSDOF 7
ENDMDL
MODEL 5
REMARK VINA RESULT:    -4.859      1.250      7.173
REMARK INTER + INTRA:          -6.370
REMARK INTER:                  -6.002
REMARK INTRA:                  -0.369
REMARK UNBOUND:                -0.375
REMARK SMILES Oc1cc(O)c2cc(O)c(-c3cc(O)c(O)c(O)c3)[o+]c2c1
REMARK SMILES IDX 10 1 20 2 21 3 22 4 2 5 3 6 4 7 6 8 7 9 8 10 11 11 12 12
REMARK SMILES IDX 13 13 19 14 15 15 17 16 14 17 16 19 18 21 9 23 1 25 5 27
REMARK H PARENT 14 18 16 20 18 22 9 24 1 26 5 28
REMARK Flexibility Score: inf
ROOT
ATOM      1  C   UNL     1      45.617  32.484  48.473  1.00  0.00     0.402 A 
ATOM      2  O   UNL     1      44.641  33.196  49.029  1.00  0.00    -0.202 OA
ATOM      3  C   UNL     1      43.597  33.659  48.349  1.00  0.00     0.368 A 
ATOM      4  C   UNL     1      42.622  34.400  49.022  1.00  0.00     0.162 A 
ATOM      5  C   UNL     1      41.517  34.900  48.333  1.00  0.00     0.128 A 
ATOM      6  C   UNL     1      41.382  34.659  46.961  1.00  0.00     0.093 A 
ATOM      7  C   UNL     1      42.345  33.919  46.265  1.00  0.00     0.136 A 
ATOM      8  C   UNL     1      43.470  33.406  46.963  1.00  0.00     0.125 A 
ATOM      9  C   UNL     1      44.477  32.642  46.349  1.00  0.00     0.078 A 
ATOM     10  C   UNL     1      45.554  32.167  47.104  1.00  0.00     0.223 A 
ENDROOT
BRANCH   1  11
ATOM     11  C   UNL     1      46.735  32.034  49.335  1.00  0.00     0.091 A 
ATOM     12  C   UNL     1      46.681  30.764  49.927  1.00  0.00     0.068 A 
ATOM     13  C   UNL     1      47.709  30.314  50.764  1.00  0.00     0.162 A 
ATOM     14  C   UNL     1      47.823  32.873  49.618  1.00  0.00     0.068 A 
ATOM     15  C   UNL     1      48.814  31.157  51.026  1.00  0.00     0.200 A 
ATOM     16  C   UNL     1      48.859  32.436  50.453  1.00  0.00     0.162 A 
BRANCH  13  17
ATOM     17  O   UNL     1      47.590  29.033  51.308  1.00  0.00    -0.504 OA
ATOM     18  H   UNL     1      46.792  28.717  51.841  1.00  0.00     0.293 HD
ENDBRANCH  13  17
BRANCH  15  19
ATOM     19  O   UNL     1      49.877  30.768  51.846  1.00  0.00    -0.502 OA
ATOM     20  H   UNL     1      50.542  31.409  52.252  1.00  0.00     0.293 HD
ENDBRANCH  15  19
BRANCH  16  21
ATOM     21  O   UNL     1      49.941  33.273  50.724  1.00  0.00    -0.504 OA
ATOM     22  H   UNL     1      50.482  33.181  51.576  1.00  0.00     0.293 HD
ENDBRANCH  16  21
ENDBRANCH   1  11
BRANCH  10  23
ATOM     23  O   UNL     1      46.528  31.367  46.506  1.00  0.00    -0.500 OA
ATOM     24  H   UNL     1      46.413  30.998  45.569  1.00  0.00     0.294 HD
ENDBRANCH  10  23
BRANCH   5  25
ATOM     25  O   UNL     1      40.555  35.638  49.021  1.00  0.00    -0.507 OA
ATOM     26  H   UNL     1      40.805  36.449  49.575  1.00  0.00     0.293 HD
ENDBRANCH   5  25
BRANCH   7  27
ATOM     27  O   UNL     1      42.141  33.723  44.895  1.00  0.00    -0.507 OA
ATOM     28  H   UNL     1      42.769  34.043  44.173  1.00  0.00     0.293 HD
ENDBRANCH   7  27
TORSDOF 7
ENDMDL
MODEL 6
REMARK VINA RESULT:    -4.854      1.921      7.067
REMARK INTER + INTRA:          -6.364
REMARK INTER:                  -6.091
REMARK INTRA:                  -0.273
REMARK UNBOUND:                -0.375
REMARK SMILES Oc1cc(O)c2cc(O)c(-c3cc(O)c(O)c(O)c3)[o+]c2c1
REMARK SMILES IDX 10 1 20 2 21 3 22 4 2 5 3 6 4 7 6 8 7 9 8 10 11 11 12 12
REMARK SMILES IDX 13 13 19 14 15 15 17 16 14 17 16 19 18 21 9 23 1 25 5 27
REMARK H PARENT 14 18 16 20 18 22 9 24 1 26 5 28
REMARK Flexibility Score: inf
ROOT
ATOM      1  C   UNL     1      45.286  31.033  48.493  1.00  0.00     0.402 A 
ATOM      2  O   UNL     1      44.730  31.821  49.409  1.00  0.00    -0.202 OA
ATOM      3  C   UNL     1      44.111  32.959  49.112  1.00  0.00     0.368 A 
ATOM      4  C   UNL     1      43.558  33.722  50.145  1.00  0.00     0.162 A 
ATOM      5  C   UNL     1      42.905  34.921  49.864  1.00  0.00     0.128 A 
ATOM      6  C   UNL     1      42.802  35.365  48.540  1.00  0.00     0.093 A 
ATOM      7  C   UNL     1      43.347  34.620  47.488  1.00  0.00     0.136 A 
ATOM      8  C   UNL     1      44.010  33.396  47.771  1.00  0.00     0.125 A 
ATOM      9  C   UNL     1      44.574  32.578  46.778  1.00  0.00     0.078 A 
ATOM     10  C   UNL     1      45.208  31.383  47.133  1.00  0.00     0.223 A 
ENDROOT
BRANCH   1  11
ATOM     11  C   UNL     1      45.958  29.794  48.951  1.00  0.00     0.091 A 
ATOM     12  C   UNL     1      47.190  29.883  49.614  1.00  0.00     0.068 A 
ATOM     13  C   UNL     1      47.863  28.733  50.043  1.00  0.00     0.162 A 
ATOM     14  C   UNL     1      45.417  28.527  48.685  1.00  0.00     0.068 A 
ATOM     15  C   UNL     1      47.299  27.460  49.792  1.00  0.00     0.200 A 
ATOM     16  C   UNL     1      46.078  27.369  49.107  1.00  0.00     0.162 A 
BRANCH  13  17
ATOM     17  O   UNL     1      49.080  28.902  50.708  1.00  0.00    -0.504 OA
ATOM     18  H   UNL     1      49.238  29.588  51.432  1.00  0.00     0.293 HD
ENDBRANCH  13  17
BRANCH  15  19
ATOM     19  O   UNL     1      47.915  26.273  50.197  1.00  0.00    -0.502 OA
ATOM     20  H   UNL     1      47.643  25.745  51.013  1.00  0.00     0.293 HD
ENDBRANCH  15  19
BRANCH  16  21
ATOM     21  O   UNL     1      45.530  26.113  48.846  1.00  0.00    -0.504 OA
ATOM     22  H   UNL     1      45.971  25.263  49.177  1.00  0.00     0.293 HD
ENDBRANCH  16  21
ENDBRANCH   1  11
BRANCH  10  23
ATOM     23  O   UNL     1      45.724  30.545  46.145  1.00  0.00    -0.500 OA
ATOM     24  H   UNL     1      45.234  30.385  45.273  1.00  0.00     0.294 HD
ENDBRANCH  10  23
BRANCH   5  25
ATOM     25  O   UNL     1      42.361  35.668  50.907  1.00  0.00    -0.507 OA
ATOM     26  H   UNL     1      42.760  36.556  51.188  1.00  0.00     0.293 HD
ENDBRANCH   5  25
BRANCH   7  27
ATOM     27  O   UNL     1      43.204  35.132  46.195  1.00  0.00    -0.507 OA
ATOM     28  H   UNL     1      43.306  34.587  45.351  1.00  0.00     0.293 HD
ENDBRANCH   7  27
TORSDOF 7
ENDMDL
MODEL 7
REMARK VINA RESULT:    -4.746      1.615      3.503
REMARK INTER + INTRA:          -6.231
REMARK INTER:                  -5.952
REMARK INTRA:                  -0.279
REMARK UNBOUND:                -0.375
REMARK SMILES Oc1cc(O)c2cc(O)c(-c3cc(O)c(O)c(O)c3)[o+]c2c1
REMARK SMILES IDX 10 1 20 2 21 3 22 4 2 5 3 6 4 7 6 8 7 9 8 10 11 11 12 12
REMARK SMILES IDX 13 13 19 14 15 15 17 16 14 17 16 19 18 21 9 23 1 25 5 27
REMARK H PARENT 14 18 16 20 18 22 9 24 1 26 5 28
REMARK Flexibility Score: inf
ROOT
ATOM      1  C   UNL     1      45.830  32.188  49.333  1.00  0.00     0.402 A 
ATOM      2  O   UNL     1      46.934  32.873  49.619  1.00  0.00    -0.202 OA
ATOM      3  C   UNL     1      48.053  32.303  50.055  1.00  0.00     0.368 A 
ATOM      4  C   UNL     1      49.162  33.107  50.331  1.00  0.00     0.162 A 
ATOM      5  C   UNL     1      50.349  32.537  50.793  1.00  0.00     0.128 A 
ATOM      6  C   UNL     1      50.430  31.152  50.981  1.00  0.00     0.093 A 
ATOM      7  C   UNL     1      49.333  30.326  50.712  1.00  0.00     0.136 A 
ATOM      8  C   UNL     1      48.125  30.902  50.239  1.00  0.00     0.125 A 
ATOM      9  C   UNL     1      46.980  30.149  49.930  1.00  0.00     0.078 A 
ATOM     10  C   UNL     1      45.826  30.787  49.465  1.00  0.00     0.223 A 
ENDROOT
BRANCH   1  11
ATOM     11  C   UNL     1      44.642  32.939  48.864  1.00  0.00     0.091 A 
ATOM     12  C   UNL     1      44.263  32.860  47.516  1.00  0.00     0.068 A 
ATOM     13  C   UNL     1      43.159  33.571  47.035  1.00  0.00     0.162 A 
ATOM     14  C   UNL     1      43.918  33.775  49.728  1.00  0.00     0.068 A 
ATOM     15  C   UNL     1      42.419  34.393  47.917  1.00  0.00     0.200 A 
ATOM     16  C   UNL     1      42.811  34.492  49.260  1.00  0.00     0.162 A 
BRANCH  13  17
ATOM     17  O   UNL     1      42.836  33.433  45.683  1.00  0.00    -0.504 OA
ATOM     18  H   UNL     1      41.999  33.808  45.260  1.00  0.00     0.293 HD
ENDBRANCH  13  17
BRANCH  15  19
ATOM     19  O   UNL     1      41.303  35.126  47.503  1.00  0.00    -0.502 OA
ATOM     20  H   UNL     1      40.688  34.845  46.754  1.00  0.00     0.293 HD
ENDBRANCH  15  19
BRANCH  16  21
ATOM     21  O   UNL     1      42.091  35.315  50.127  1.00  0.00    -0.504 OA
ATOM     22  H   UNL     1      42.530  35.751  50.929  1.00  0.00     0.293 HD
ENDBRANCH  16  21
ENDBRANCH   1  11
BRANCH  10  23
ATOM     23  O   UNL     1      44.705  30.036  49.110  1.00  0.00    -0.500 OA
ATOM     24  H   UNL     1      43.772  30.303  49.401  1.00  0.00     0.294 HD
ENDBRANCH  10  23
BRANCH   5  25
ATOM     25  O   UNL     1      51.444  33.356  51.063  1.00  0.00    -0.507 OA
ATOM     26  H   UNL     1      51.584  33.769  51.978  1.00  0.00     0.293 HD
ENDBRANCH   5  25
BRANCH   7  27
ATOM     27  O   UNL     1      49.492  28.953  50.928  1.00  0.00    -0.507 OA
ATOM     28  H   UNL     1      49.223  28.237  50.269  1.00  0.00     0.293 HD
ENDBRANCH   7  27
TORSDOF 7
ENDMDL
MODEL 8
REMARK VINA RESULT:    -4.608     10.749     13.720
REMARK INTER + INTRA:          -6.060
REMARK INTER:                  -5.688
REMARK INTRA:                  -0.373
REMARK UNBOUND:                -0.375
REMARK SMILES Oc1cc(O)c2cc(O)c(-c3cc(O)c(O)c(O)c3)[o+]c2c1
REMARK SMILES IDX 10 1 20 2 21 3 22 4 2 5 3 6 4 7 6 8 7 9 8 10 11 11 12 12
REMARK SMILES IDX 13 13 19 14 15 15 17 16 14 17 16 19 18 21 9 23 1 25 5 27
REMARK H PARENT 14 18 16 20 18 22 9 24 1 26 5 28
REMARK Flexibility Score: inf
ROOT
ATOM      1  C   UNL     1      43.207  43.042  54.703  1.00  0.00     0.402 A 
ATOM      2  O   UNL     1      42.249  43.558  53.938  1.00  0.00    -0.202 OA
ATOM      3  C   UNL     1      42.006  43.149  52.697  1.00  0.00     0.368 A 
ATOM      4  C   UNL     1      40.977  43.754  51.970  1.00  0.00     0.162 A 
ATOM      5  C   UNL     1      40.703  43.347  50.665  1.00  0.00     0.128 A 
ATOM      6  C   UNL     1      41.461  42.326  50.078  1.00  0.00     0.093 A 
ATOM      7  C   UNL     1      42.496  41.705  50.786  1.00  0.00     0.136 A 
ATOM      8  C   UNL     1      42.777  42.114  52.116  1.00  0.00     0.125 A 
ATOM      9  C   UNL     1      43.787  41.538  52.904  1.00  0.00     0.078 A 
ATOM     10  C   UNL     1      44.002  41.992  54.209  1.00  0.00     0.223 A 
ENDROOT
BRANCH   1  11
ATOM     11  C   UNL     1      43.386  43.591  56.067  1.00  0.00     0.091 A 
ATOM     12  C   UNL     1      44.365  44.569  56.293  1.00  0.00     0.068 A 
ATOM     13  C   UNL     1      44.576  45.096  57.573  1.00  0.00     0.162 A 
ATOM     14  C   UNL     1      42.635  43.114  57.152  1.00  0.00     0.068 A 
ATOM     15  C   UNL     1      43.799  44.627  58.658  1.00  0.00     0.200 A 
ATOM     16  C   UNL     1      42.835  43.632  58.437  1.00  0.00     0.162 A 
BRANCH  13  17
ATOM     17  O   UNL     1      45.561  46.076  57.718  1.00  0.00    -0.504 OA
ATOM     18  H   UNL     1      46.493  46.002  57.337  1.00  0.00     0.293 HD
ENDBRANCH  13  17
BRANCH  15  19
ATOM     19  O   UNL     1      43.953  45.114  59.959  1.00  0.00    -0.502 OA
ATOM     20  H   UNL     1      43.792  44.566  60.790  1.00  0.00     0.293 HD
ENDBRANCH  15  19
BRANCH  16  21
ATOM     21  O   UNL     1      42.080  43.157  59.509  1.00  0.00    -0.504 OA
ATOM     22  H   UNL     1      42.104  43.609  60.416  1.00  0.00     0.293 HD
ENDBRANCH  16  21
ENDBRANCH   1  11
BRANCH  10  23
ATOM     23  O   UNL     1      44.971  41.387  55.009  1.00  0.00    -0.500 OA
ATOM     24  H   UNL     1      45.766  41.904  55.366  1.00  0.00     0.294 HD
ENDBRANCH  10  23
BRANCH   5  25
ATOM     25  O   UNL     1      39.673  43.963  49.956  1.00  0.00    -0.507 OA
ATOM     26  H   UNL     1      38.792  44.198  50.398  1.00  0.00     0.293 HD
ENDBRANCH   5  25
BRANCH   7  27
ATOM     27  O   UNL     1      43.209  40.696  50.130  1.00  0.00    -0.507 OA
ATOM     28  H   UNL     1      43.766  40.838  49.300  1.00  0.00     0.293 HD
ENDBRANCH   7  27
TORSDOF 7
ENDMDL
MODEL 9
REMARK VINA RESULT:    -4.597      9.616     13.378
REMARK INTER + INTRA:          -6.047
REMARK INTER:                  -5.674
REMARK INTRA:                  -0.373
REMARK UNBOUND:                -0.375
REMARK SMILES Oc1cc(O)c2cc(O)c(-c3cc(O)c(O)c(O)c3)[o+]c2c1
REMARK SMILES IDX 10 1 20 2 21 3 22 4 2 5 3 6 4 7 6 8 7 9 8 10 11 11 12 12
REMARK SMILES IDX 13 13 19 14 15 15 17 16 14 17 16 19 18 21 9 23 1 25 5 27
REMARK H PARENT 14 18 16 20 18 22 9 24 1 26 5 28
REMARK Flexibility Score: inf
ROOT
ATOM      1  C   UNL     1      42.663  42.845  53.761  1.00  0.00     0.402 A 
ATOM      2  O   UNL     1      41.915  42.937  52.665  1.00  0.00    -0.202 OA
ATOM      3  C   UNL     1      40.668  43.396  52.670  1.00  0.00     0.368 A 
ATOM      4  C   UNL     1      39.960  43.453  51.466  1.00  0.00     0.162 A 
ATOM      5  C   UNL     1      38.649  43.927  51.441  1.00  0.00     0.128 A 
ATOM      6  C   UNL     1      38.037  44.348  52.628  1.00  0.00     0.093 A 
ATOM      7  C   UNL     1      38.725  44.301  53.846  1.00  0.00     0.136 A 
ATOM      8  C   UNL     1      40.061  43.822  53.875  1.00  0.00     0.125 A 
ATOM      9  C   UNL     1      40.830  43.752  55.048  1.00  0.00     0.078 A 
ATOM     10  C   UNL     1      42.143  43.272  54.997  1.00  0.00     0.223 A 
ENDROOT
BRANCH   1  11
ATOM     11  C   UNL     1      44.037  42.307  53.629  1.00  0.00     0.091 A 
ATOM     12  C   UNL     1      45.107  43.190  53.427  1.00  0.00     0.068 A 
ATOM     13  C   UNL     1      46.415  42.716  53.278  1.00  0.00     0.162 A 
ATOM     14  C   UNL     1      44.286  40.926  53.644  1.00  0.00     0.068 A 
ATOM     15  C   UNL     1      46.662  41.323  53.317  1.00  0.00     0.200 A 
ATOM     16  C   UNL     1      45.589  40.437  53.496  1.00  0.00     0.162 A 
BRANCH  13  17
ATOM     17  O   UNL     1      47.431  43.657  53.093  1.00  0.00    -0.504 OA
ATOM     18  H   UNL     1      47.457  44.558  53.549  1.00  0.00     0.293 HD
ENDBRANCH  13  17
BRANCH  15  19
ATOM     19  O   UNL     1      47.943  40.783  53.181  1.00  0.00    -0.502 OA
ATOM     20  H   UNL     1      48.421  40.270  53.907  1.00  0.00     0.293 HD
ENDBRANCH  15  19
BRANCH  16  21
ATOM     21  O   UNL     1      45.829  39.063  53.519  1.00  0.00    -0.504 OA
ATOM     22  H   UNL     1      45.071  38.392  53.490  1.00  0.00     0.293 HD
ENDBRANCH  16  21
ENDBRANCH   1  11
BRANCH  10  23
ATOM     23  O   UNL     1      42.925  43.249  56.152  1.00  0.00    -0.500 OA
ATOM     24  H   UNL     1      42.929  44.022  56.807  1.00  0.00     0.294 HD
ENDBRANCH  10  23
BRANCH   5  25
ATOM     25  O   UNL     1      37.958  43.976  50.231  1.00  0.00    -0.507 OA
ATOM     26  H   UNL     1      36.955  43.848  50.188  1.00  0.00     0.293 HD
ENDBRANCH   5  25
BRANCH   7  27
ATOM     27  O   UNL     1      38.044  44.737  54.987  1.00  0.00    -0.507 OA
ATOM     28  H   UNL     1      37.199  45.290  54.971  1.00  0.00     0.293 HD
ENDBRANCH   7  27
TORSDOF 7
ENDMDL
