MODEL 1
REMARK VINA RESULT:    -5.733      0.000      0.000
REMARK INTER + INTRA:          -8.242
REMARK INTER:                  -8.413
REMARK INTRA:                   0.172
REMARK UNBOUND:                 0.172
REMARK SMILES O=c1c(O[C@H]2O[C@@H](CO)[C@H](O)[C@@H](O)[C@H]2O)c(-c2ccc(O)c(O)c2)oc2cc(O)cc(O)c12
REMARK SMILES IDX 4 1 3 2 16 3 25 4 2 5 26 6 1 7 33 8 27 9 31 10 28 11 30 12
REMARK SMILES IDX 17 13 18 14 19 15 20 16 24 17 22 18 21 19 23 21 32 23 29 25
REMARK SMILES IDX 5 27 14 28 6 29 12 30 7 31 10 32 15 33 13 35 8 37 9 38 11 40
REMARK H PARENT 21 20 23 22 32 24 29 26 15 34 13 36 9 39 11 41
REMARK Flexibility Score: inf
ROOT
ATOM      1  O   UNL     1     -11.856   1.407  24.029  1.00  0.00    -0.454 OA
ENDROOT
BRANCH   1   2
ATOM      2  C   UNL     1     -10.717   2.244  24.093  1.00  0.00     0.214 A 
ATOM      3  C   UNL     1     -10.729   3.662  24.004  1.00  0.00     0.180 A 
ATOM      4  O   UNL     1      -9.585   4.341  24.041  1.00  0.00    -0.452 OA
ATOM      5  C   UNL     1      -9.476   1.610  24.256  1.00  0.00     0.239 A 
ATOM      6  C   UNL     1      -8.396   3.769  24.174  1.00  0.00     0.146 A 
ATOM      7  O   UNL     1      -9.443   0.352  24.352  1.00  0.00    -0.285 OA
ATOM      8  C   UNL     1      -8.286   2.368  24.287  1.00  0.00     0.111 A 
ATOM      9  C   UNL     1      -7.251   4.571  24.202  1.00  0.00     0.094 A 
ATOM     10  C   UNL     1      -7.002   1.786  24.412  1.00  0.00     0.134 A 
ATOM     11  C   UNL     1      -5.987   3.994  24.321  1.00  0.00     0.123 A 
ATOM     12  C   UNL     1      -5.864   2.605  24.424  1.00  0.00     0.093 A 
BRANCH   3  13
ATOM     13  C   UNL     1     -11.955   4.463  23.907  1.00  0.00     0.025 A 
ATOM     14  C   UNL     1     -12.175   5.521  24.795  1.00  0.00     0.016 A 
ATOM     15  C   UNL     1     -13.336   6.295  24.692  1.00  0.00     0.051 A 
ATOM     16  C   UNL     1     -14.301   5.995  23.720  1.00  0.00     0.157 A 
ATOM     17  C   UNL     1     -12.929   4.144  22.948  1.00  0.00     0.062 A 
ATOM     18  C   UNL     1     -14.097   4.912  22.848  1.00  0.00     0.158 A 
BRANCH  16  19
ATOM     19  O   UNL     1     -15.459   6.769  23.617  1.00  0.00    -0.504 OA
ATOM     20  H   UNL     1     -15.462   7.753  23.844  1.00  0.00     0.293 HD
ENDBRANCH  16  19
BRANCH  18  21
ATOM     21  O   UNL     1     -15.043   4.580  21.879  1.00  0.00    -0.504 OA
ATOM     22  H   UNL     1     -15.743   3.864  22.036  1.00  0.00     0.293 HD
ENDBRANCH  18  21
ENDBRANCH   3  13
BRANCH  10  23
ATOM     23  O   UNL     1      -6.848   0.407  24.519  1.00  0.00    -0.507 OA
ATOM     24  H   UNL     1      -6.164  -0.011  25.143  1.00  0.00     0.293 HD
ENDBRANCH  10  23
BRANCH  11  25
ATOM     25  O   UNL     1      -4.859   4.812  24.332  1.00  0.00    -0.508 OA
ATOM     26  H   UNL     1      -3.965   4.494  23.976  1.00  0.00     0.293 HD
ENDBRANCH  11  25
ENDBRANCH   1   2
BRANCH   1  27
ATOM     27  C   UNL     1     -12.662   0.930  25.111  1.00  0.00     0.339 C 
ATOM     28  C   UNL     1     -12.738  -0.601  25.104  1.00  0.00     0.214 C 
ATOM     29  O   UNL     1     -13.948   1.534  25.125  1.00  0.00    -0.332 OA
ATOM     30  C   UNL     1     -13.539  -1.105  23.887  1.00  0.00     0.180 C 
ATOM     31  C   UNL     1     -14.815   1.129  24.067  1.00  0.00     0.179 C 
ATOM     32  C   UNL     1     -14.913  -0.419  23.871  1.00  0.00     0.177 C 
BRANCH  28  33
ATOM     33  O   UNL     1     -11.442  -1.145  25.125  1.00  0.00    -0.384 OA
ATOM     34  H   UNL     1     -11.356  -1.714  24.315  1.00  0.00     0.211 HD
ENDBRANCH  28  33
BRANCH  30  35
ATOM     35  O   UNL     1     -12.887  -0.867  22.659  1.00  0.00    -0.387 OA
ATOM     36  H   UNL     1     -11.906  -1.052  22.776  1.00  0.00     0.211 HD
ENDBRANCH  30  35
BRANCH  31  37
ATOM     37  C   UNL     1     -14.534   1.904  22.761  1.00  0.00     0.191 C 
BRANCH  37  38
ATOM     38  O   UNL     1     -15.430   1.509  21.753  1.00  0.00    -0.394 OA
ATOM     39  H   UNL     1     -15.851   0.665  22.060  1.00  0.00     0.210 HD
ENDBRANCH  37  38
ENDBRANCH  31  37
BRANCH  32  40
ATOM     40  O   UNL     1     -15.753  -1.006  24.839  1.00  0.00    -0.387 OA
ATOM     41  H   UNL     1     -16.691  -0.931  24.526  1.00  0.00     0.211 HD
ENDBRANCH  32  40
ENDBRANCH   1  27
TORSDOF 12
ENDMDL
MODEL 2
REMARK VINA RESULT:    -5.603      2.363      6.129
REMARK INTER + INTRA:          -8.051
REMARK INTER:                  -8.007
REMARK INTRA:                  -0.044
REMARK UNBOUND:                 0.172
REMARK SMILES O=c1c(O[C@H]2O[C@@H](CO)[C@H](O)[C@@H](O)[C@H]2O)c(-c2ccc(O)c(O)c2)oc2cc(O)cc(O)c12
REMARK SMILES IDX 4 1 3 2 16 3 25 4 2 5 26 6 1 7 33 8 27 9 31 10 28 11 30 12
REMARK SMILES IDX 17 13 18 14 19 15 20 16 24 17 22 18 21 19 23 21 32 23 29 25
REMARK SMILES IDX 5 27 14 28 6 29 12 30 7 31 10 32 15 33 13 35 8 37 9 38 11 40
REMARK H PARENT 21 20 23 22 32 24 29 26 15 34 13 36 9 39 11 41
REMARK Flexibility Score: inf
ROOT
ATOM      1  O   UNL     1     -10.443   2.912  24.347  1.00  0.00    -0.454 OA
ENDROOT
BRANCH   1   2
ATOM      2  C   UNL     1      -9.985   4.243  24.483  1.00  0.00     0.214 A 
ATOM      3  C   UNL     1      -8.634   4.634  24.686  1.00  0.00     0.180 A 
ATOM      4  O   UNL     1      -8.329   5.921  24.836  1.00  0.00    -0.452 OA
ATOM      5  C   UNL     1     -10.954   5.255  24.411  1.00  0.00     0.239 A 
ATOM      6  C   UNL     1      -9.225   6.897  24.793  1.00  0.00     0.146 A 
ATOM      7  O   UNL     1     -12.158   4.931  24.215  1.00  0.00    -0.285 OA
ATOM      8  C   UNL     1     -10.588   6.607  24.577  1.00  0.00     0.111 A 
ATOM      9  C   UNL     1      -8.803   8.219  24.961  1.00  0.00     0.094 A 
ATOM     10  C   UNL     1     -11.522   7.670  24.552  1.00  0.00     0.134 A 
ATOM     11  C   UNL     1      -9.727   9.263  24.940  1.00  0.00     0.123 A 
ATOM     12  C   UNL     1     -11.083   8.988  24.737  1.00  0.00     0.093 A 
BRANCH   3  13
ATOM     13  C   UNL     1      -7.508   3.694  24.709  1.00  0.00     0.025 A 
ATOM     14  C   UNL     1      -7.705   2.371  25.119  1.00  0.00     0.016 A 
ATOM     15  C   UNL     1      -6.635   1.470  25.125  1.00  0.00     0.051 A 
ATOM     16  C   UNL     1      -5.351   1.894  24.752  1.00  0.00     0.157 A 
ATOM     17  C   UNL     1      -6.220   4.130  24.357  1.00  0.00     0.062 A 
ATOM     18  C   UNL     1      -5.144   3.231  24.370  1.00  0.00     0.158 A 
BRANCH  16  19
ATOM     19  O   UNL     1      -4.284   0.994  24.756  1.00  0.00    -0.504 OA
ATOM     20  H   UNL     1      -3.757   0.799  25.596  1.00  0.00     0.293 HD
ENDBRANCH  16  19
BRANCH  18  21
ATOM     21  O   UNL     1      -3.879   3.688  24.005  1.00  0.00    -0.504 OA
ATOM     22  H   UNL     1      -3.748   4.385  23.280  1.00  0.00     0.293 HD
ENDBRANCH  18  21
ENDBRANCH   3  13
BRANCH  10  23
ATOM     23  O   UNL     1     -12.877   7.427  24.350  1.00  0.00    -0.507 OA
ATOM     24  H   UNL     1     -13.265   7.285  23.422  1.00  0.00     0.293 HD
ENDBRANCH  10  23
BRANCH  11  25
ATOM     25  O   UNL     1      -9.285  10.572  25.125  1.00  0.00    -0.508 OA
ATOM     26  H   UNL     1      -8.659  11.023  24.468  1.00  0.00     0.293 HD
ENDBRANCH  11  25
ENDBRANCH   1   2
BRANCH   1  27
ATOM     27  C   UNL     1      -9.991   1.911  23.429  1.00  0.00     0.339 C 
ATOM     28  C   UNL     1     -10.509   2.190  22.014  1.00  0.00     0.214 C 
ATOM     29  O   UNL     1     -10.308   0.599  23.871  1.00  0.00    -0.332 OA
ATOM     30  C   UNL     1     -12.037   1.997  21.942  1.00  0.00     0.180 C 
ATOM     31  C   UNL     1     -11.695   0.266  23.824  1.00  0.00     0.179 C 
ATOM     32  C   UNL     1     -12.390   0.595  22.462  1.00  0.00     0.177 C 
BRANCH  28  33
ATOM     33  O   UNL     1     -10.139   3.487  21.615  1.00  0.00    -0.384 OA
ATOM     34  H   UNL     1     -10.762   4.115  22.067  1.00  0.00     0.211 HD
ENDBRANCH  28  33
BRANCH  30  35
ATOM     35  O   UNL     1     -12.752   2.961  22.681  1.00  0.00    -0.387 OA
ATOM     36  H   UNL     1     -12.375   3.869  22.474  1.00  0.00     0.211 HD
ENDBRANCH  30  35
BRANCH  31  37
ATOM     37  C   UNL     1     -12.459   0.799  25.056  1.00  0.00     0.191 C 
BRANCH  37  38
ATOM     38  O   UNL     1     -13.817   0.988  24.748  1.00  0.00    -0.394 OA
ATOM     39  H   UNL     1     -14.330   0.750  25.564  1.00  0.00     0.210 HD
ENDBRANCH  37  38
ENDBRANCH  31  37
BRANCH  32  40
ATOM     40  O   UNL     1     -12.084  -0.371  21.483  1.00  0.00    -0.387 OA
ATOM     41  H   UNL     1     -11.550   0.064  20.771  1.00  0.00     0.211 HD
ENDBRANCH  32  40
ENDBRANCH   1  27
TORSDOF 12
ENDMDL
MODEL 3
REMARK VINA RESULT:    -5.305      2.928      5.542
REMARK INTER + INTRA:          -7.614
REMARK INTER:                  -6.215
REMARK INTRA:                  -1.400
REMARK UNBOUND:                 0.172
REMARK SMILES O=c1c(O[C@H]2O[C@@H](CO)[C@H](O)[C@@H](O)[C@H]2O)c(-c2ccc(O)c(O)c2)oc2cc(O)cc(O)c12
REMARK SMILES IDX 4 1 3 2 16 3 25 4 2 5 26 6 1 7 33 8 27 9 31 10 28 11 30 12
REMARK SMILES IDX 17 13 18 14 19 15 20 16 24 17 22 18 21 19 23 21 32 23 29 25
REMARK SMILES IDX 5 27 14 28 6 29 12 30 7 31 10 32 15 33 13 35 8 37 9 38 11 40
REMARK H PARENT 21 20 23 22 32 24 29 26 15 34 13 36 9 39 11 41
REMARK Flexibility Score: inf
ROOT
ATOM      1  O   UNL     1     -13.841   2.627  22.577  1.00  0.00    -0.454 OA
ENDROOT
BRANCH   1   2
ATOM      2  C   UNL     1     -12.793   3.544  22.823  1.00  0.00     0.214 A 
ATOM      3  C   UNL     1     -11.447   3.394  22.391  1.00  0.00     0.180 A 
ATOM      4  O   UNL     1     -10.539   4.311  22.716  1.00  0.00    -0.452 OA
ATOM      5  C   UNL     1     -13.120   4.695  23.556  1.00  0.00     0.239 A 
ATOM      6  C   UNL     1     -10.813   5.397  23.425  1.00  0.00     0.146 A 
ATOM      7  O   UNL     1     -14.312   4.856  23.936  1.00  0.00    -0.285 OA
ATOM      8  C   UNL     1     -12.124   5.641  23.881  1.00  0.00     0.111 A 
ATOM      9  C   UNL     1      -9.786   6.301  23.713  1.00  0.00     0.094 A 
ATOM     10  C   UNL     1     -12.382   6.802  24.648  1.00  0.00     0.134 A 
ATOM     11  C   UNL     1     -10.043   7.442  24.472  1.00  0.00     0.123 A 
ATOM     12  C   UNL     1     -11.338   7.690  24.939  1.00  0.00     0.093 A 
BRANCH   3  13
ATOM     13  C   UNL     1     -10.978   2.283  21.556  1.00  0.00     0.025 A 
ATOM     14  C   UNL     1     -10.038   2.511  20.546  1.00  0.00     0.016 A 
ATOM     15  C   UNL     1      -9.578   1.449  19.761  1.00  0.00     0.051 A 
ATOM     16  C   UNL     1     -10.079   0.154  19.959  1.00  0.00     0.157 A 
ATOM     17  C   UNL     1     -11.500   0.993  21.743  1.00  0.00     0.062 A 
ATOM     18  C   UNL     1     -11.047  -0.072  20.952  1.00  0.00     0.158 A 
BRANCH  16  19
ATOM     19  O   UNL     1      -9.618  -0.906  19.176  1.00  0.00    -0.504 OA
ATOM     20  H   UNL     1      -8.687  -1.281  19.285  1.00  0.00     0.293 HD
ENDBRANCH  16  19
BRANCH  18  21
ATOM     21  O   UNL     1     -11.575  -1.344  21.167  1.00  0.00    -0.504 OA
ATOM     22  H   UNL     1     -12.379  -1.498  21.765  1.00  0.00     0.293 HD
ENDBRANCH  18  21
ENDBRANCH   3  13
BRANCH  10  23
ATOM     23  O   UNL     1     -13.660   7.076  25.124  1.00  0.00    -0.507 OA
ATOM     24  H   UNL     1     -14.493   6.727  24.660  1.00  0.00     0.293 HD
ENDBRANCH  10  23
BRANCH  11  25
ATOM     25  O   UNL     1      -9.001   8.323  24.760  1.00  0.00    -0.508 OA
ATOM     26  H   UNL     1      -9.126   9.114  25.380  1.00  0.00     0.293 HD
ENDBRANCH  11  25
ENDBRANCH   1   2
BRANCH   1  27
ATOM     27  C   UNL     1     -14.561   2.414  21.359  1.00  0.00     0.339 C 
ATOM     28  C   UNL     1     -15.951   3.056  21.423  1.00  0.00     0.214 C 
ATOM     29  O   UNL     1     -14.617   1.039  21.006  1.00  0.00    -0.332 OA
ATOM     30  C   UNL     1     -16.850   2.318  22.436  1.00  0.00     0.180 C 
ATOM     31  C   UNL     1     -15.448   0.236  21.843  1.00  0.00     0.179 C 
ATOM     32  C   UNL     1     -16.877   0.823  22.086  1.00  0.00     0.177 C 
BRANCH  28  33
ATOM     33  O   UNL     1     -15.834   4.421  21.742  1.00  0.00    -0.384 OA
ATOM     34  H   UNL     1     -16.407   4.915  21.099  1.00  0.00     0.211 HD
ENDBRANCH  28  33
BRANCH  30  35
ATOM     35  O   UNL     1     -16.423   2.476  23.770  1.00  0.00    -0.387 OA
ATOM     36  H   UNL     1     -15.718   1.786  23.964  1.00  0.00     0.211 HD
ENDBRANCH  30  35
BRANCH  31  37
ATOM     37  C   UNL     1     -14.723  -0.190  23.138  1.00  0.00     0.191 C 
BRANCH  37  38
ATOM     38  O   UNL     1     -13.970  -1.356  22.919  1.00  0.00    -0.394 OA
ATOM     39  H   UNL     1     -13.038  -1.066  22.742  1.00  0.00     0.210 HD
ENDBRANCH  37  38
ENDBRANCH  31  37
BRANCH  32  40
ATOM     40  O   UNL     1     -17.716   0.605  20.976  1.00  0.00    -0.387 OA
ATOM     41  H   UNL     1     -17.613  -0.337  20.685  1.00  0.00     0.211 HD
ENDBRANCH  32  40
ENDBRANCH   1  27
TORSDOF 12
ENDMDL
MODEL 4
REMARK VINA RESULT:    -5.099      2.112      5.366
REMARK INTER + INTRA:          -7.312
REMARK INTER:                  -8.247
REMARK INTRA:                   0.934
REMARK UNBOUND:                 0.172
REMARK SMILES O=c1c(O[C@H]2O[C@@H](CO)[C@H](O)[C@@H](O)[C@H]2O)c(-c2ccc(O)c(O)c2)oc2cc(O)cc(O)c12
REMARK SMILES IDX 4 1 3 2 16 3 25 4 2 5 26 6 1 7 33 8 27 9 31 10 28 11 30 12
REMARK SMILES IDX 17 13 18 14 19 15 20 16 24 17 22 18 21 19 23 21 32 23 29 25
REMARK SMILES IDX 5 27 14 28 6 29 12 30 7 31 10 32 15 33 13 35 8 37 9 38 11 40
REMARK H PARENT 21 20 23 22 32 24 29 26 15 34 13 36 9 39 11 41
REMARK Flexibility Score: inf
ROOT
ATOM      1  O   UNL     1     -11.236   2.448  23.782  1.00  0.00    -0.454 OA
ENDROOT
BRANCH   1   2
ATOM      2  C   UNL     1     -10.613   3.690  24.051  1.00  0.00     0.214 A 
ATOM      3  C   UNL     1      -9.264   3.865  24.460  1.00  0.00     0.180 A 
ATOM      4  O   UNL     1      -8.800   5.085  24.719  1.00  0.00    -0.452 OA
ATOM      5  C   UNL     1     -11.405   4.838  23.900  1.00  0.00     0.239 A 
ATOM      6  C   UNL     1      -9.529   6.187  24.606  1.00  0.00     0.146 A 
ATOM      7  O   UNL     1     -12.602   4.708  23.523  1.00  0.00    -0.285 OA
ATOM      8  C   UNL     1     -10.874   6.114  24.189  1.00  0.00     0.111 A 
ATOM      9  C   UNL     1      -8.949   7.423  24.903  1.00  0.00     0.094 A 
ATOM     10  C   UNL     1     -11.630   7.306  24.092  1.00  0.00     0.134 A 
ATOM     11  C   UNL     1      -9.698   8.596  24.810  1.00  0.00     0.123 A 
ATOM     12  C   UNL     1     -11.036   8.535  24.407  1.00  0.00     0.093 A 
BRANCH   3  13
ATOM     13  C   UNL     1      -8.301   2.765  24.587  1.00  0.00     0.025 A 
ATOM     14  C   UNL     1      -6.929   3.016  24.480  1.00  0.00     0.016 A 
ATOM     15  C   UNL     1      -6.010   1.970  24.618  1.00  0.00     0.051 A 
ATOM     16  C   UNL     1      -6.459   0.659  24.831  1.00  0.00     0.157 A 
ATOM     17  C   UNL     1      -8.756   1.450  24.777  1.00  0.00     0.062 A 
ATOM     18  C   UNL     1      -7.838   0.399  24.907  1.00  0.00     0.158 A 
BRANCH  16  19
ATOM     19  O   UNL     1      -5.541  -0.384  24.971  1.00  0.00    -0.504 OA
ATOM     20  H   UNL     1      -4.599  -0.223  25.298  1.00  0.00     0.293 HD
ENDBRANCH  16  19
BRANCH  18  21
ATOM     21  O   UNL     1      -8.317  -0.895  25.106  1.00  0.00    -0.504 OA
ATOM     22  H   UNL     1      -7.790  -1.588  25.626  1.00  0.00     0.293 HD
ENDBRANCH  18  21
ENDBRANCH   3  13
BRANCH  10  23
ATOM     23  O   UNL     1     -12.963   7.278  23.692  1.00  0.00    -0.507 OA
ATOM     24  H   UNL     1     -13.433   8.103  23.331  1.00  0.00     0.293 HD
ENDBRANCH  10  23
BRANCH  11  25
ATOM     25  O   UNL     1      -9.103   9.816  25.125  1.00  0.00    -0.508 OA
ATOM     26  H   UNL     1      -8.840  10.053  26.075  1.00  0.00     0.293 HD
ENDBRANCH  11  25
ENDBRANCH   1   2
BRANCH   1  27
ATOM     27  C   UNL     1     -12.397   1.890  24.405  1.00  0.00     0.339 C 
ATOM     28  C   UNL     1     -12.341   0.358  24.399  1.00  0.00     0.214 C 
ATOM     29  O   UNL     1     -13.599   2.388  23.836  1.00  0.00    -0.332 OA
ATOM     30  C   UNL     1     -12.476  -0.189  22.964  1.00  0.00     0.180 C 
ATOM     31  C   UNL     1     -13.874   1.931  22.512  1.00  0.00     0.179 C 
ATOM     32  C   UNL     1     -13.751   0.383  22.327  1.00  0.00     0.177 C 
BRANCH  28  33
ATOM     33  O   UNL     1     -11.148  -0.080  25.003  1.00  0.00    -0.384 OA
ATOM     34  H   UNL     1     -10.453  -0.084  24.294  1.00  0.00     0.211 HD
ENDBRANCH  28  33
BRANCH  30  35
ATOM     35  O   UNL     1     -11.369   0.121  22.147  1.00  0.00    -0.387 OA
ATOM     36  H   UNL     1     -11.194  -0.658  21.536  1.00  0.00     0.211 HD
ENDBRANCH  30  35
BRANCH  31  37
ATOM     37  C   UNL     1     -13.106   2.746  21.449  1.00  0.00     0.191 C 
BRANCH  37  38
ATOM     38  O   UNL     1     -13.581   2.447  20.162  1.00  0.00    -0.394 OA
ATOM     39  H   UNL     1     -12.901   1.864  19.734  1.00  0.00     0.210 HD
ENDBRANCH  37  38
ENDBRANCH  31  37
BRANCH  32  40
ATOM     40  O   UNL     1     -14.883  -0.285  22.835  1.00  0.00    -0.387 OA
ATOM     41  H   UNL     1     -15.324   0.306  23.498  1.00  0.00     0.211 HD
ENDBRANCH  32  40
ENDBRANCH   1  27
TORSDOF 12
ENDMDL
MODEL 5
REMARK VINA RESULT:    -4.902      2.666      6.776
REMARK INTER + INTRA:          -7.022
REMARK INTER:                  -6.058
REMARK INTRA:                  -0.964
REMARK UNBOUND:                 0.172
REMARK SMILES O=c1c(O[C@H]2O[C@@H](CO)[C@H](O)[C@@H](O)[C@H]2O)c(-c2ccc(O)c(O)c2)oc2cc(O)cc(O)c12
REMARK SMILES IDX 4 1 3 2 16 3 25 4 2 5 26 6 1 7 33 8 27 9 31 10 28 11 30 12
REMARK SMILES IDX 17 13 18 14 19 15 20 16 24 17 22 18 21 19 23 21 32 23 29 25
REMARK SMILES IDX 5 27 14 28 6 29 12 30 7 31 10 32 15 33 13 35 8 37 9 38 11 40
REMARK H PARENT 21 20 23 22 32 24 29 26 15 34 13 36 9 39 11 41
REMARK Flexibility Score: inf
ROOT
ATOM      1  O   UNL     1     -11.873   2.407  22.529  1.00  0.00    -0.454 OA
ENDROOT
BRANCH   1   2
ATOM      2  C   UNL     1     -13.138   2.710  23.085  1.00  0.00     0.214 A 
ATOM      3  C   UNL     1     -13.436   3.841  23.893  1.00  0.00     0.180 A 
ATOM      4  O   UNL     1     -14.659   3.999  24.391  1.00  0.00    -0.452 OA
ATOM      5  C   UNL     1     -14.180   1.810  22.812  1.00  0.00     0.239 A 
ATOM      6  C   UNL     1     -15.658   3.156  24.167  1.00  0.00     0.146 A 
ATOM      7  O   UNL     1     -13.942   0.807  22.084  1.00  0.00    -0.285 OA
ATOM      8  C   UNL     1     -15.463   2.015  23.362  1.00  0.00     0.111 A 
ATOM      9  C   UNL     1     -16.908   3.413  24.736  1.00  0.00     0.094 A 
ATOM     10  C   UNL     1     -16.545   1.126  23.154  1.00  0.00     0.134 A 
ATOM     11  C   UNL     1     -17.971   2.532  24.533  1.00  0.00     0.123 A 
ATOM     12  C   UNL     1     -17.787   1.392  23.745  1.00  0.00     0.093 A 
BRANCH   3  13
ATOM     13  C   UNL     1     -12.468   4.900  24.200  1.00  0.00     0.025 A 
ATOM     14  C   UNL     1     -12.901   6.220  24.366  1.00  0.00     0.016 A 
ATOM     15  C   UNL     1     -11.981   7.228  24.675  1.00  0.00     0.051 A 
ATOM     16  C   UNL     1     -10.615   6.928  24.788  1.00  0.00     0.157 A 
ATOM     17  C   UNL     1     -11.100   4.599  24.288  1.00  0.00     0.062 A 
ATOM     18  C   UNL     1     -10.174   5.609  24.589  1.00  0.00     0.158 A 
BRANCH  16  19
ATOM     19  O   UNL     1      -9.698   7.934  25.098  1.00  0.00    -0.504 OA
ATOM     20  H   UNL     1      -8.757   7.927  24.731  1.00  0.00     0.293 HD
ENDBRANCH  16  19
BRANCH  18  21
ATOM     21  O   UNL     1      -8.823   5.280  24.682  1.00  0.00    -0.504 OA
ATOM     22  H   UNL     1      -8.436   4.825  25.502  1.00  0.00     0.293 HD
ENDBRANCH  18  21
ENDBRANCH   3  13
BRANCH  10  23
ATOM     23  O   UNL     1     -16.393  -0.015  22.374  1.00  0.00    -0.507 OA
ATOM     24  H   UNL     1     -15.480  -0.420  22.185  1.00  0.00     0.293 HD
ENDBRANCH  10  23
BRANCH  11  25
ATOM     25  O   UNL     1     -19.205   2.800  25.123  1.00  0.00    -0.508 OA
ATOM     26  H   UNL     1     -19.647   3.709  25.047  1.00  0.00     0.293 HD
ENDBRANCH  11  25
ENDBRANCH   1   2
BRANCH   1  27
ATOM     27  C   UNL     1     -11.245   3.003  21.389  1.00  0.00     0.339 C 
ATOM     28  C   UNL     1     -11.619   2.258  20.103  1.00  0.00     0.214 C 
ATOM     29  O   UNL     1      -9.839   3.120  21.556  1.00  0.00    -0.332 OA
ATOM     30  C   UNL     1     -10.998   0.847  20.087  1.00  0.00     0.180 C 
ATOM     31  C   UNL     1      -9.125   1.885  21.525  1.00  0.00     0.179 C 
ATOM     32  C   UNL     1      -9.483   0.964  20.313  1.00  0.00     0.177 C 
BRANCH  28  33
ATOM     33  O   UNL     1     -13.019   2.202  19.972  1.00  0.00    -0.384 OA
ATOM     34  H   UNL     1     -13.394   2.219  20.891  1.00  0.00     0.211 HD
ENDBRANCH  28  33
BRANCH  30  35
ATOM     35  O   UNL     1     -11.548  -0.011  21.061  1.00  0.00    -0.387 OA
ATOM     36  H   UNL     1     -10.973   0.029  21.884  1.00  0.00     0.211 HD
ENDBRANCH  30  35
BRANCH  31  37
ATOM     37  C   UNL     1      -9.163   1.161  22.888  1.00  0.00     0.191 C 
BRANCH  37  38
ATOM     38  O   UNL     1      -8.851   2.053  23.928  1.00  0.00    -0.394 OA
ATOM     39  H   UNL     1      -9.667   2.138  24.486  1.00  0.00     0.210 HD
ENDBRANCH  37  38
ENDBRANCH  31  37
BRANCH  32  40
ATOM     40  O   UNL     1      -8.854   1.403  19.131  1.00  0.00    -0.387 OA
ATOM     41  H   UNL     1      -7.873   1.369  19.267  1.00  0.00     0.211 HD
ENDBRANCH  32  40
ENDBRANCH   1  27
TORSDOF 12
ENDMDL
MODEL 6
REMARK VINA RESULT:    -4.781      2.343      3.872
REMARK INTER + INTRA:          -6.846
REMARK INTER:                  -8.008
REMARK INTRA:                   1.162
REMARK UNBOUND:                 0.172
REMARK SMILES O=c1c(O[C@H]2O[C@@H](CO)[C@H](O)[C@@H](O)[C@H]2O)c(-c2ccc(O)c(O)c2)oc2cc(O)cc(O)c12
REMARK SMILES IDX 4 1 3 2 16 3 25 4 2 5 26 6 1 7 33 8 27 9 31 10 28 11 30 12
REMARK SMILES IDX 17 13 18 14 19 15 20 16 24 17 22 18 21 19 23 21 32 23 29 25
REMARK SMILES IDX 5 27 14 28 6 29 12 30 7 31 10 32 15 33 13 35 8 37 9 38 11 40
REMARK H PARENT 21 20 23 22 32 24 29 26 15 34 13 36 9 39 11 41
REMARK Flexibility Score: inf
ROOT
ATOM      1  O   UNL     1     -11.779   4.005  24.290  1.00  0.00    -0.454 OA
ENDROOT
BRANCH   1   2
ATOM      2  C   UNL     1     -10.382   3.927  24.500  1.00  0.00     0.214 A 
ATOM      3  C   UNL     1      -9.516   5.034  24.710  1.00  0.00     0.180 A 
ATOM      4  O   UNL     1      -8.209   4.837  24.859  1.00  0.00    -0.452 OA
ATOM      5  C   UNL     1      -9.814   2.644  24.495  1.00  0.00     0.239 A 
ATOM      6  C   UNL     1      -7.640   3.639  24.840  1.00  0.00     0.146 A 
ATOM      7  O   UNL     1     -10.566   1.646  24.326  1.00  0.00    -0.285 OA
ATOM      8  C   UNL     1      -8.421   2.480  24.655  1.00  0.00     0.111 A 
ATOM      9  C   UNL     1      -6.256   3.538  25.007  1.00  0.00     0.094 A 
ATOM     10  C   UNL     1      -7.783   1.217  24.624  1.00  0.00     0.134 A 
ATOM     11  C   UNL     1      -5.630   2.292  24.971  1.00  0.00     0.123 A 
ATOM     12  C   UNL     1      -6.393   1.136  24.779  1.00  0.00     0.093 A 
BRANCH   3  13
ATOM     13  C   UNL     1      -9.978   6.423  24.812  1.00  0.00     0.025 A 
ATOM     14  C   UNL     1     -11.336   6.699  25.006  1.00  0.00     0.016 A 
ATOM     15  C   UNL     1     -11.774   8.023  25.120  1.00  0.00     0.051 A 
ATOM     16  C   UNL     1     -10.862   9.082  25.009  1.00  0.00     0.157 A 
ATOM     17  C   UNL     1      -9.065   7.480  24.676  1.00  0.00     0.062 A 
ATOM     18  C   UNL     1      -9.503   8.808  24.782  1.00  0.00     0.158 A 
BRANCH  16  19
ATOM     19  O   UNL     1     -11.301  10.402  25.125  1.00  0.00    -0.504 OA
ATOM     20  H   UNL     1     -11.620  10.929  24.324  1.00  0.00     0.293 HD
ENDBRANCH  16  19
BRANCH  18  21
ATOM     21  O   UNL     1      -8.572   9.838  24.654  1.00  0.00    -0.504 OA
ATOM     22  H   UNL     1      -8.214  10.341  25.458  1.00  0.00     0.293 HD
ENDBRANCH  18  21
ENDBRANCH   3  13
BRANCH  10  23
ATOM     23  O   UNL     1      -8.516   0.049  24.437  1.00  0.00    -0.507 OA
ATOM     24  H   UNL     1      -8.116  -0.770  23.989  1.00  0.00     0.293 HD
ENDBRANCH  10  23
BRANCH  11  25
ATOM     25  O   UNL     1      -4.246   2.216  25.125  1.00  0.00    -0.508 OA
ATOM     26  H   UNL     1      -3.762   1.327  25.173  1.00  0.00     0.293 HD
ENDBRANCH  11  25
ENDBRANCH   1   2
BRANCH   1  27
ATOM     27  C   UNL     1     -12.479   4.709  23.259  1.00  0.00     0.339 C 
ATOM     28  C   UNL     1     -13.975   4.803  23.576  1.00  0.00     0.214 C 
ATOM     29  O   UNL     1     -12.233   4.154  21.974  1.00  0.00    -0.332 OA
ATOM     30  C   UNL     1     -14.641   3.415  23.499  1.00  0.00     0.180 C 
ATOM     31  C   UNL     1     -12.825   2.875  21.747  1.00  0.00     0.179 C 
ATOM     32  C   UNL     1     -14.340   2.790  22.128  1.00  0.00     0.177 C 
BRANCH  28  33
ATOM     33  O   UNL     1     -14.160   5.389  24.841  1.00  0.00    -0.384 OA
ATOM     34  H   UNL     1     -15.044   5.840  24.821  1.00  0.00     0.211 HD
ENDBRANCH  28  33
BRANCH  30  35
ATOM     35  O   UNL     1     -14.209   2.537  24.514  1.00  0.00    -0.387 OA
ATOM     36  H   UNL     1     -14.738   1.685  24.448  1.00  0.00     0.211 HD
ENDBRANCH  30  35
BRANCH  31  37
ATOM     37  C   UNL     1     -11.972   1.731  22.336  1.00  0.00     0.191 C 
BRANCH  37  38
ATOM     38  O   UNL     1     -12.789   0.655  22.719  1.00  0.00    -0.394 OA
ATOM     39  H   UNL     1     -13.617   1.046  23.101  1.00  0.00     0.210 HD
ENDBRANCH  37  38
ENDBRANCH  31  37
BRANCH  32  40
ATOM     40  O   UNL     1     -15.151   3.385  21.141  1.00  0.00    -0.387 OA
ATOM     41  H   UNL     1     -15.520   2.668  20.565  1.00  0.00     0.211 HD
ENDBRANCH  32  40
ENDBRANCH   1  27
TORSDOF 12
ENDMDL
MODEL 7
REMARK VINA RESULT:    -4.708      2.588      4.470
REMARK INTER + INTRA:          -6.738
REMARK INTER:                  -6.895
REMARK INTRA:                   0.156
REMARK UNBOUND:                 0.172
REMARK SMILES O=c1c(O[C@H]2O[C@@H](CO)[C@H](O)[C@@H](O)[C@H]2O)c(-c2ccc(O)c(O)c2)oc2cc(O)cc(O)c12
REMARK SMILES IDX 4 1 3 2 16 3 25 4 2 5 26 6 1 7 33 8 27 9 31 10 28 11 30 12
REMARK SMILES IDX 17 13 18 14 19 15 20 16 24 17 22 18 21 19 23 21 32 23 29 25
REMARK SMILES IDX 5 27 14 28 6 29 12 30 7 31 10 32 15 33 13 35 8 37 9 38 11 40
REMARK H PARENT 21 20 23 22 32 24 29 26 15 34 13 36 9 39 11 41
REMARK Flexibility Score: inf
ROOT
ATOM      1  O   UNL     1     -11.294   2.897  24.139  1.00  0.00    -0.454 OA
ENDROOT
BRANCH   1   2
ATOM      2  C   UNL     1     -11.423   4.295  24.313  1.00  0.00     0.214 A 
ATOM      3  C   UNL     1     -12.636   5.030  24.220  1.00  0.00     0.180 A 
ATOM      4  O   UNL     1     -12.625   6.352  24.368  1.00  0.00    -0.452 OA
ATOM      5  C   UNL     1     -10.248   5.006  24.600  1.00  0.00     0.239 A 
ATOM      6  C   UNL     1     -11.529   7.054  24.619  1.00  0.00     0.146 A 
ATOM      7  O   UNL     1      -9.162   4.371  24.702  1.00  0.00    -0.285 OA
ATOM      8  C   UNL     1     -10.281   6.409  24.747  1.00  0.00     0.111 A 
ATOM      9  C   UNL     1     -11.623   8.441  24.758  1.00  0.00     0.094 A 
ATOM     10  C   UNL     1      -9.127   7.187  25.000  1.00  0.00     0.134 A 
ATOM     11  C   UNL     1     -10.483   9.206  25.003  1.00  0.00     0.123 A 
ATOM     12  C   UNL     1      -9.238   8.579  25.122  1.00  0.00     0.093 A 
BRANCH   3  13
ATOM     13  C   UNL     1     -13.949   4.412  24.000  1.00  0.00     0.025 A 
ATOM     14  C   UNL     1     -14.516   3.597  24.984  1.00  0.00     0.016 A 
ATOM     15  C   UNL     1     -15.774   3.021  24.781  1.00  0.00     0.051 A 
ATOM     16  C   UNL     1     -16.462   3.231  23.577  1.00  0.00     0.157 A 
ATOM     17  C   UNL     1     -14.622   4.606  22.783  1.00  0.00     0.062 A 
ATOM     18  C   UNL     1     -15.880   4.024  22.573  1.00  0.00     0.158 A 
BRANCH  16  19
ATOM     19  O   UNL     1     -17.719   2.658  23.376  1.00  0.00    -0.504 OA
ATOM     20  H   UNL     1     -17.905   1.691  23.604  1.00  0.00     0.293 HD
ENDBRANCH  16  19
BRANCH  18  21
ATOM     21  O   UNL     1     -16.531   4.242  21.361  1.00  0.00    -0.504 OA
ATOM     22  H   UNL     1     -17.430   4.710  21.310  1.00  0.00     0.293 HD
ENDBRANCH  18  21
ENDBRANCH   3  13
BRANCH  10  23
ATOM     23  O   UNL     1      -7.875   6.592  25.125  1.00  0.00    -0.507 OA
ATOM     24  H   UNL     1      -7.363   6.244  24.320  1.00  0.00     0.293 HD
ENDBRANCH  10  23
BRANCH  11  25
ATOM     25  O   UNL     1     -10.598  10.590  25.123  1.00  0.00    -0.508 OA
ATOM     26  H   UNL     1     -10.871  11.173  24.341  1.00  0.00     0.293 HD
ENDBRANCH  11  25
ENDBRANCH   1   2
BRANCH   1  27
ATOM     27  C   UNL     1     -10.218   2.179  23.526  1.00  0.00     0.339 C 
ATOM     28  C   UNL     1     -10.049   2.590  22.060  1.00  0.00     0.214 C 
ATOM     29  O   UNL     1     -10.359   0.773  23.679  1.00  0.00    -0.332 OA
ATOM     30  C   UNL     1     -11.248   2.115  21.215  1.00  0.00     0.180 C 
ATOM     31  C   UNL     1     -11.416   0.188  22.921  1.00  0.00     0.179 C 
ATOM     32  C   UNL     1     -11.434   0.603  21.413  1.00  0.00     0.177 C 
BRANCH  28  33
ATOM     33  O   UNL     1      -9.881   3.984  21.969  1.00  0.00    -0.384 OA
ATOM     34  H   UNL     1      -9.499   4.283  22.836  1.00  0.00     0.211 HD
ENDBRANCH  28  33
BRANCH  30  35
ATOM     35  O   UNL     1     -12.450   2.777  21.539  1.00  0.00    -0.387 OA
ATOM     36  H   UNL     1     -13.128   2.090  21.820  1.00  0.00     0.211 HD
ENDBRANCH  30  35
BRANCH  31  37
ATOM     37  C   UNL     1     -12.783   0.338  23.622  1.00  0.00     0.191 C 
BRANCH  37  38
ATOM     38  O   UNL     1     -13.823   0.347  22.677  1.00  0.00    -0.394 OA
ATOM     39  H   UNL     1     -13.556   0.984  21.964  1.00  0.00     0.210 HD
ENDBRANCH  37  38
ENDBRANCH  31  37
BRANCH  32  40
ATOM     40  O   UNL     1     -10.461  -0.100  20.676  1.00  0.00    -0.387 OA
ATOM     41  H   UNL     1     -10.605  -1.071  20.813  1.00  0.00     0.211 HD
ENDBRANCH  32  40
ENDBRANCH   1  27
TORSDOF 12
ENDMDL
MODEL 8
REMARK VINA RESULT:    -4.636      1.663      4.871
REMARK INTER + INTRA:          -6.632
REMARK INTER:                  -5.563
REMARK INTRA:                  -1.069
REMARK UNBOUND:                 0.172
REMARK SMILES O=c1c(O[C@H]2O[C@@H](CO)[C@H](O)[C@@H](O)[C@H]2O)c(-c2ccc(O)c(O)c2)oc2cc(O)cc(O)c12
REMARK SMILES IDX 4 1 3 2 16 3 25 4 2 5 26 6 1 7 33 8 27 9 31 10 28 11 30 12
REMARK SMILES IDX 17 13 18 14 19 15 20 16 24 17 22 18 21 19 23 21 32 23 29 25
REMARK SMILES IDX 5 27 14 28 6 29 12 30 7 31 10 32 15 33 13 35 8 37 9 38 11 40
REMARK H PARENT 21 20 23 22 32 24 29 26 15 34 13 36 9 39 11 41
REMARK Flexibility Score: inf
ROOT
ATOM      1  O   UNL     1     -13.286   3.387  23.559  1.00  0.00    -0.454 OA
ENDROOT
BRANCH   1   2
ATOM      2  C   UNL     1     -11.925   3.118  23.834  1.00  0.00     0.214 A 
ATOM      3  C   UNL     1     -11.373   1.835  24.097  1.00  0.00     0.180 A 
ATOM      4  O   UNL     1     -10.079   1.712  24.379  1.00  0.00    -0.452 OA
ATOM      5  C   UNL     1     -11.054   4.218  23.847  1.00  0.00     0.239 A 
ATOM      6  C   UNL     1      -9.236   2.735  24.420  1.00  0.00     0.146 A 
ATOM      7  O   UNL     1     -11.519   5.365  23.601  1.00  0.00    -0.285 OA
ATOM      8  C   UNL     1      -9.688   4.044  24.154  1.00  0.00     0.111 A 
ATOM      9  C   UNL     1      -7.892   2.501  24.726  1.00  0.00     0.094 A 
ATOM     10  C   UNL     1      -8.767   5.117  24.219  1.00  0.00     0.134 A 
ATOM     11  C   UNL     1      -6.989   3.561  24.793  1.00  0.00     0.123 A 
ATOM     12  C   UNL     1      -7.426   4.865  24.541  1.00  0.00     0.093 A 
BRANCH   3  13
ATOM     13  C   UNL     1     -12.147   0.589  24.045  1.00  0.00     0.025 A 
ATOM     14  C   UNL     1     -12.954   0.217  25.125  1.00  0.00     0.016 A 
ATOM     15  C   UNL     1     -13.704  -0.962  25.069  1.00  0.00     0.051 A 
ATOM     16  C   UNL     1     -13.627  -1.796  23.944  1.00  0.00     0.157 A 
ATOM     17  C   UNL     1     -12.048  -0.254  22.927  1.00  0.00     0.062 A 
ATOM     18  C   UNL     1     -12.792  -1.441  22.871  1.00  0.00     0.158 A 
BRANCH  16  19
ATOM     19  O   UNL     1     -14.378  -2.972  23.887  1.00  0.00    -0.504 OA
ATOM     20  H   UNL     1     -14.624  -3.486  24.721  1.00  0.00     0.293 HD
ENDBRANCH  16  19
BRANCH  18  21
ATOM     21  O   UNL     1     -12.683  -2.253  21.743  1.00  0.00    -0.504 OA
ATOM     22  H   UNL     1     -12.471  -1.874  20.827  1.00  0.00     0.293 HD
ENDBRANCH  18  21
ENDBRANCH   3  13
BRANCH  10  23
ATOM     23  O   UNL     1      -9.173   6.424  23.972  1.00  0.00    -0.507 OA
ATOM     24  H   UNL     1      -9.820   6.654  23.223  1.00  0.00     0.293 HD
ENDBRANCH  10  23
BRANCH  11  25
ATOM     25  O   UNL     1      -5.657   3.306  25.115  1.00  0.00    -0.508 OA
ATOM     26  H   UNL     1      -4.921   3.972  24.911  1.00  0.00     0.293 HD
ENDBRANCH  11  25
ENDBRANCH   1   2
BRANCH   1  27
ATOM     27  C   UNL     1     -13.834   4.164  22.489  1.00  0.00     0.339 C 
ATOM     28  C   UNL     1     -14.990   5.040  22.983  1.00  0.00     0.214 C 
ATOM     29  O   UNL     1     -14.204   3.357  21.379  1.00  0.00    -0.332 OA
ATOM     30  C   UNL     1     -16.203   4.175  23.379  1.00  0.00     0.180 C 
ATOM     31  C   UNL     1     -15.343   2.525  21.593  1.00  0.00     0.179 C 
ATOM     32  C   UNL     1     -16.579   3.267  22.198  1.00  0.00     0.177 C 
BRANCH  28  33
ATOM     33  O   UNL     1     -14.560   5.840  24.057  1.00  0.00    -0.384 OA
ATOM     34  H   UNL     1     -13.637   6.136  23.842  1.00  0.00     0.211 HD
ENDBRANCH  28  33
BRANCH  30  35
ATOM     35  O   UNL     1     -15.967   3.380  24.519  1.00  0.00    -0.387 OA
ATOM     36  H   UNL     1     -15.533   3.951  25.223  1.00  0.00     0.211 HD
ENDBRANCH  30  35
BRANCH  31  37
ATOM     37  C   UNL     1     -14.975   1.223  22.337  1.00  0.00     0.191 C 
BRANCH  37  38
ATOM     38  O   UNL     1     -16.092   0.714  23.021  1.00  0.00    -0.394 OA
ATOM     39  H   UNL     1     -15.762   0.365  23.889  1.00  0.00     0.210 HD
ENDBRANCH  37  38
ENDBRANCH  31  37
BRANCH  32  40
ATOM     40  O   UNL     1     -17.259   4.014  21.216  1.00  0.00    -0.387 OA
ATOM     41  H   UNL     1     -17.225   4.972  21.471  1.00  0.00     0.211 HD
ENDBRANCH  32  40
ENDBRANCH   1  27
TORSDOF 12
ENDMDL
