MODEL 1
REMARK VINA RESULT:    -7.818      0.000      0.000
REMARK INTER + INTRA:          -9.499
REMARK INTER:                  -9.189
REMARK INTRA:                  -0.310
REMARK UNBOUND:                -0.310
REMARK SMILES O=c1cc(-c2ccc(O)c(O)c2)oc2cc(O)cc(O)c12
REMARK SMILES IDX 4 1 3 2 2 3 1 4 21 5 19 6 18 7 16 8 15 9 14 10 13 11 5 12
REMARK SMILES IDX 6 13 7 14 8 15 12 16 10 17 9 18 11 20 20 22 17 24
REMARK H PARENT 9 19 11 21 20 23 17 25
REMARK Flexibility Score: inf
ROOT
ATOM      1  C   UNL     1     -38.785  12.651   8.531  1.00  0.00     0.138 A 
ATOM      2  C   UNL     1     -38.910  11.326   8.970  1.00  0.00     0.100 A 
ATOM      3  C   UNL     1     -39.996  10.962   9.768  1.00  0.00     0.197 A 
ATOM      4  O   UNL     1     -40.114   9.752  10.094  1.00  0.00    -0.289 OA
ATOM      5  C   UNL     1     -40.945  11.938  10.152  1.00  0.00     0.107 A 
ATOM      6  C   UNL     1     -42.070  11.691  10.995  1.00  0.00     0.134 A 
ATOM      7  C   UNL     1     -43.005  12.710  11.213  1.00  0.00     0.093 A 
ATOM      8  C   UNL     1     -42.826  13.983  10.667  1.00  0.00     0.123 A 
ATOM      9  C   UNL     1     -41.703  14.250   9.887  1.00  0.00     0.094 A 
ATOM     10  C   UNL     1     -40.769  13.245   9.622  1.00  0.00     0.146 A 
ATOM     11  O   UNL     1     -39.720  13.537   8.861  1.00  0.00    -0.456 OA
ENDROOT
BRANCH   1  12
ATOM     12  C   UNL     1     -37.650  13.092   7.683  1.00  0.00     0.021 A 
ATOM     13  C   UNL     1     -36.441  12.376   7.716  1.00  0.00     0.016 A 
ATOM     14  C   UNL     1     -35.361  12.767   6.921  1.00  0.00     0.051 A 
ATOM     15  C   UNL     1     -35.474  13.874   6.071  1.00  0.00     0.157 A 
ATOM     16  C   UNL     1     -37.760  14.197   6.815  1.00  0.00     0.062 A 
ATOM     17  C   UNL     1     -36.677  14.587   6.015  1.00  0.00     0.158 A 
BRANCH  15  18
ATOM     18  O   UNL     1     -34.398  14.267   5.277  1.00  0.00    -0.504 OA
ATOM     19  H   UNL     1     -33.442  14.175   5.597  1.00  0.00     0.293 HD
ENDBRANCH  15  18
BRANCH  17  20
ATOM     20  O   UNL     1     -36.789  15.682   5.159  1.00  0.00    -0.504 OA
ATOM     21  H   UNL     1     -36.331  15.697   4.255  1.00  0.00     0.293 HD
ENDBRANCH  17  20
ENDBRANCH   1  12
BRANCH   6  22
ATOM     22  O   UNL     1     -42.298  10.482  11.658  1.00  0.00    -0.507 OA
ATOM     23  H   UNL     1     -42.064   9.571  11.293  1.00  0.00     0.293 HD
ENDBRANCH   6  22
BRANCH   8  24
ATOM     24  O   UNL     1     -43.755  14.995  10.902  1.00  0.00    -0.508 OA
ATOM     25  H   UNL     1     -43.713  15.878  10.409  1.00  0.00     0.293 HD
ENDBRANCH   8  24
TORSDOF 5
ENDMDL
MODEL 2
REMARK VINA RESULT:    -7.705      5.355     11.521
REMARK INTER + INTRA:          -9.366
REMARK INTER:                  -9.060
REMARK INTRA:                  -0.306
REMARK UNBOUND:                -0.310
REMARK SMILES O=c1cc(-c2ccc(O)c(O)c2)oc2cc(O)cc(O)c12
REMARK SMILES IDX 4 1 3 2 2 3 1 4 21 5 19 6 18 7 16 8 15 9 14 10 13 11 5 12
REMARK SMILES IDX 6 13 7 14 8 15 12 16 10 17 9 18 11 20 20 22 17 24
REMARK H PARENT 9 19 11 21 20 23 17 25
REMARK Flexibility Score: inf
ROOT
ATOM      1  C   UNL     1     -33.212  14.680   2.998  1.00  0.00     0.138 A 
ATOM      2  C   UNL     1     -33.549  14.878   1.653  1.00  0.00     0.100 A 
ATOM      3  C   UNL     1     -32.537  15.020   0.701  1.00  0.00     0.197 A 
ATOM      4  O   UNL     1     -32.870  15.134  -0.507  1.00  0.00    -0.289 OA
ATOM      5  C   UNL     1     -31.182  14.993   1.107  1.00  0.00     0.107 A 
ATOM      6  C   UNL     1     -30.068  15.166   0.232  1.00  0.00     0.134 A 
ATOM      7  C   UNL     1     -28.769  15.004   0.728  1.00  0.00     0.093 A 
ATOM      8  C   UNL     1     -28.542  14.732   2.080  1.00  0.00     0.123 A 
ATOM      9  C   UNL     1     -29.620  14.615   2.953  1.00  0.00     0.094 A 
ATOM     10  C   UNL     1     -30.930  14.737   2.482  1.00  0.00     0.146 A 
ATOM     11  O   UNL     1     -31.931  14.603   3.345  1.00  0.00    -0.456 OA
ENDROOT
BRANCH   1  12
ATOM     12  C   UNL     1     -34.248  14.524   4.051  1.00  0.00     0.021 A 
ATOM     13  C   UNL     1     -35.495  15.153   3.894  1.00  0.00     0.016 A 
ATOM     14  C   UNL     1     -36.488  15.016   4.866  1.00  0.00     0.051 A 
ATOM     15  C   UNL     1     -36.257  14.238   6.007  1.00  0.00     0.157 A 
ATOM     16  C   UNL     1     -34.027  13.733   5.196  1.00  0.00     0.062 A 
ATOM     17  C   UNL     1     -35.025  13.593   6.170  1.00  0.00     0.158 A 
BRANCH  15  18
ATOM     18  O   UNL     1     -37.245  14.100   6.980  1.00  0.00    -0.504 OA
ATOM     19  H   UNL     1     -37.477  13.197   7.375  1.00  0.00     0.293 HD
ENDBRANCH  15  18
BRANCH  17  20
ATOM     20  O   UNL     1     -34.802  12.811   7.303  1.00  0.00    -0.504 OA
ATOM     21  H   UNL     1     -35.483  12.756   8.051  1.00  0.00     0.293 HD
ENDBRANCH  17  20
ENDBRANCH   1  12
BRANCH   6  22
ATOM     22  O   UNL     1     -30.182  15.521  -1.116  1.00  0.00    -0.507 OA
ATOM     23  H   UNL     1     -29.739  16.322  -1.541  1.00  0.00     0.293 HD
ENDBRANCH   6  22
BRANCH   8  24
ATOM     24  O   UNL     1     -27.244  14.587   2.567  1.00  0.00    -0.508 OA
ATOM     25  H   UNL     1     -26.730  15.372   2.949  1.00  0.00     0.293 HD
ENDBRANCH   8  24
TORSDOF 5
ENDMDL
MODEL 3
REMARK VINA RESULT:    -7.382      2.357      7.190
REMARK INTER + INTRA:          -8.986
REMARK INTER:                  -8.704
REMARK INTRA:                  -0.282
REMARK UNBOUND:                -0.310
REMARK SMILES O=c1cc(-c2ccc(O)c(O)c2)oc2cc(O)cc(O)c12
REMARK SMILES IDX 4 1 3 2 2 3 1 4 21 5 19 6 18 7 16 8 15 9 14 10 13 11 5 12
REMARK SMILES IDX 6 13 7 14 8 15 12 16 10 17 9 18 11 20 20 22 17 24
REMARK H PARENT 9 19 11 21 20 23 17 25
REMARK Flexibility Score: inf
ROOT
ATOM      1  C   UNL     1     -40.844  11.590   8.847  1.00  0.00     0.138 A 
ATOM      2  C   UNL     1     -41.258  10.712   7.837  1.00  0.00     0.100 A 
ATOM      3  C   UNL     1     -40.428  10.484   6.737  1.00  0.00     0.197 A 
ATOM      4  O   UNL     1     -40.799   9.643   5.878  1.00  0.00    -0.289 OA
ATOM      5  C   UNL     1     -39.192  11.166   6.636  1.00  0.00     0.107 A 
ATOM      6  C   UNL     1     -38.284  11.044   5.542  1.00  0.00     0.134 A 
ATOM      7  C   UNL     1     -37.038  11.678   5.607  1.00  0.00     0.093 A 
ATOM      8  C   UNL     1     -36.691  12.478   6.699  1.00  0.00     0.123 A 
ATOM      9  C   UNL     1     -37.592  12.647   7.746  1.00  0.00     0.094 A 
ATOM     10  C   UNL     1     -38.830  12.000   7.729  1.00  0.00     0.146 A 
ATOM     11  O   UNL     1     -39.655  12.176   8.755  1.00  0.00    -0.456 OA
ENDROOT
BRANCH   1  12
ATOM     12  C   UNL     1     -41.687  11.868  10.037  1.00  0.00     0.021 A 
ATOM     13  C   UNL     1     -41.743  13.173  10.557  1.00  0.00     0.016 A 
ATOM     14  C   UNL     1     -42.534  13.462  11.671  1.00  0.00     0.051 A 
ATOM     15  C   UNL     1     -43.292  12.454  12.279  1.00  0.00     0.157 A 
ATOM     16  C   UNL     1     -42.463  10.862  10.647  1.00  0.00     0.062 A 
ATOM     17  C   UNL     1     -43.259  11.153  11.764  1.00  0.00     0.158 A 
BRANCH  15  18
ATOM     18  O   UNL     1     -44.082  12.739  13.392  1.00  0.00    -0.504 OA
ATOM     19  H   UNL     1     -44.310  13.691  13.650  1.00  0.00     0.293 HD
ENDBRANCH  15  18
BRANCH  17  20
ATOM     20  O   UNL     1     -44.023  10.155  12.366  1.00  0.00    -0.504 OA
ATOM     21  H   UNL     1     -44.494   9.445  11.817  1.00  0.00     0.293 HD
ENDBRANCH  17  20
ENDBRANCH   1  12
BRANCH   6  22
ATOM     22  O   UNL     1     -38.566  10.339   4.368  1.00  0.00    -0.507 OA
ATOM     23  H   UNL     1     -39.031  10.725   3.560  1.00  0.00     0.293 HD
ENDBRANCH   6  22
BRANCH   8  24
ATOM     24  O   UNL     1     -35.453  13.117   6.746  1.00  0.00    -0.508 OA
ATOM     25  H   UNL     1     -35.219  13.867   6.107  1.00  0.00     0.293 HD
ENDBRANCH   8  24
TORSDOF 5
ENDMDL
MODEL 4
REMARK VINA RESULT:    -7.316      6.207      9.494
REMARK INTER + INTRA:          -8.908
REMARK INTER:                  -8.630
REMARK INTRA:                  -0.278
REMARK UNBOUND:                -0.310
REMARK SMILES O=c1cc(-c2ccc(O)c(O)c2)oc2cc(O)cc(O)c12
REMARK SMILES IDX 4 1 3 2 2 3 1 4 21 5 19 6 18 7 16 8 15 9 14 10 13 11 5 12
REMARK SMILES IDX 6 13 7 14 8 15 12 16 10 17 9 18 11 20 20 22 17 24
REMARK H PARENT 9 19 11 21 20 23 17 25
REMARK Flexibility Score: inf
ROOT
ATOM      1  C   UNL     1     -32.362  13.940   1.876  1.00  0.00     0.138 A 
ATOM      2  C   UNL     1     -32.903  13.015   0.974  1.00  0.00     0.100 A 
ATOM      3  C   UNL     1     -34.199  12.533   1.171  1.00  0.00     0.197 A 
ATOM      4  O   UNL     1     -34.680  11.752   0.310  1.00  0.00    -0.289 OA
ATOM      5  C   UNL     1     -34.943  12.959   2.297  1.00  0.00     0.107 A 
ATOM      6  C   UNL     1     -36.256  12.506   2.622  1.00  0.00     0.134 A 
ATOM      7  C   UNL     1     -36.939  13.086   3.699  1.00  0.00     0.093 A 
ATOM      8  C   UNL     1     -36.333  14.059   4.497  1.00  0.00     0.123 A 
ATOM      9  C   UNL     1     -35.032  14.470   4.221  1.00  0.00     0.094 A 
ATOM     10  C   UNL     1     -34.336  13.936   3.133  1.00  0.00     0.146 A 
ATOM     11  O   UNL     1     -33.102  14.366   2.895  1.00  0.00    -0.456 OA
ENDROOT
BRANCH   1  12
ATOM     12  C   UNL     1     -30.990  14.483   1.713  1.00  0.00     0.021 A 
ATOM     13  C   UNL     1     -30.147  14.582   2.834  1.00  0.00     0.016 A 
ATOM     14  C   UNL     1     -28.849  15.082   2.706  1.00  0.00     0.051 A 
ATOM     15  C   UNL     1     -28.367  15.483   1.454  1.00  0.00     0.157 A 
ATOM     16  C   UNL     1     -30.493  14.876   0.455  1.00  0.00     0.062 A 
ATOM     17  C   UNL     1     -29.189  15.376   0.326  1.00  0.00     0.158 A 
BRANCH  15  18
ATOM     18  O   UNL     1     -27.073  15.983   1.323  1.00  0.00    -0.504 OA
ATOM     19  H   UNL     1     -26.723  16.321   0.434  1.00  0.00     0.293 HD
ENDBRANCH  15  18
BRANCH  17  20
ATOM     20  O   UNL     1     -28.702  15.765  -0.921  1.00  0.00    -0.504 OA
ATOM     21  H   UNL     1     -29.225  15.592  -1.771  1.00  0.00     0.293 HD
ENDBRANCH  17  20
ENDBRANCH   1  12
BRANCH   6  22
ATOM     22  O   UNL     1     -36.918  11.480   1.942  1.00  0.00    -0.507 OA
ATOM     23  H   UNL     1     -37.852  11.158   2.150  1.00  0.00     0.293 HD
ENDBRANCH   6  22
BRANCH   8  24
ATOM     24  O   UNL     1     -37.016  14.619   5.575  1.00  0.00    -0.508 OA
ATOM     25  H   UNL     1     -37.648  15.401   5.454  1.00  0.00     0.293 HD
ENDBRANCH   8  24
TORSDOF 5
ENDMDL
MODEL 5
REMARK VINA RESULT:    -7.248      7.332     10.435
REMARK INTER + INTRA:          -8.829
REMARK INTER:                  -8.552
REMARK INTRA:                  -0.276
REMARK UNBOUND:                -0.310
REMARK SMILES O=c1cc(-c2ccc(O)c(O)c2)oc2cc(O)cc(O)c12
REMARK SMILES IDX 4 1 3 2 2 3 1 4 21 5 19 6 18 7 16 8 15 9 14 10 13 11 5 12
REMARK SMILES IDX 6 13 7 14 8 15 12 16 10 17 9 18 11 20 20 22 17 24
REMARK H PARENT 9 19 11 21 20 23 17 25
REMARK Flexibility Score: inf
ROOT
ATOM      1  C   UNL     1     -32.000  14.214   1.608  1.00  0.00     0.138 A 
ATOM      2  C   UNL     1     -32.521  14.786   2.776  1.00  0.00     0.100 A 
ATOM      3  C   UNL     1     -33.699  14.278   3.328  1.00  0.00     0.197 A 
ATOM      4  O   UNL     1     -34.108  14.771   4.411  1.00  0.00    -0.289 OA
ATOM      5  C   UNL     1     -34.372  13.210   2.688  1.00  0.00     0.107 A 
ATOM      6  C   UNL     1     -35.599  12.637   3.137  1.00  0.00     0.134 A 
ATOM      7  C   UNL     1     -36.112  11.508   2.487  1.00  0.00     0.093 A 
ATOM      8  C   UNL     1     -35.473  10.967   1.369  1.00  0.00     0.123 A 
ATOM      9  C   UNL     1     -34.303  11.551   0.890  1.00  0.00     0.094 A 
ATOM     10  C   UNL     1     -33.747  12.658   1.537  1.00  0.00     0.146 A 
ATOM     11  O   UNL     1     -32.622  13.176   1.057  1.00  0.00    -0.456 OA
ENDROOT
BRANCH   1  12
ATOM     12  C   UNL     1     -30.753  14.716   0.979  1.00  0.00     0.021 A 
ATOM     13  C   UNL     1     -30.714  14.925  -0.411  1.00  0.00     0.016 A 
ATOM     14  C   UNL     1     -29.555  15.403  -1.026  1.00  0.00     0.051 A 
ATOM     15  C   UNL     1     -28.417  15.692  -0.262  1.00  0.00     0.157 A 
ATOM     16  C   UNL     1     -29.608  15.020   1.742  1.00  0.00     0.062 A 
ATOM     17  C   UNL     1     -28.446  15.503   1.125  1.00  0.00     0.158 A 
BRANCH  15  18
ATOM     18  O   UNL     1     -27.259  16.169  -0.873  1.00  0.00    -0.504 OA
ATOM     19  H   UNL     1     -27.198  17.116  -1.226  1.00  0.00     0.293 HD
ENDBRANCH  15  18
BRANCH  17  20
ATOM     20  O   UNL     1     -27.315  15.801   1.883  1.00  0.00    -0.504 OA
ATOM     21  H   UNL     1     -26.569  16.382   1.517  1.00  0.00     0.293 HD
ENDBRANCH  17  20
ENDBRANCH   1  12
BRANCH   6  22
ATOM     22  O   UNL     1     -36.361  13.151   4.191  1.00  0.00    -0.507 OA
ATOM     23  H   UNL     1     -37.335  12.945   4.353  1.00  0.00     0.293 HD
ENDBRANCH   6  22
BRANCH   8  24
ATOM     24  O   UNL     1     -35.999   9.851   0.721  1.00  0.00    -0.508 OA
ATOM     25  H   UNL     1     -36.986   9.628   0.767  1.00  0.00     0.293 HD
ENDBRANCH   8  24
TORSDOF 5
ENDMDL
MODEL 6
REMARK VINA RESULT:    -7.155      1.805      3.322
REMARK INTER + INTRA:          -8.720
REMARK INTER:                  -8.452
REMARK INTRA:                  -0.268
REMARK UNBOUND:                -0.310
REMARK SMILES O=c1cc(-c2ccc(O)c(O)c2)oc2cc(O)cc(O)c12
REMARK SMILES IDX 4 1 3 2 2 3 1 4 21 5 19 6 18 7 16 8 15 9 14 10 13 11 5 12
REMARK SMILES IDX 6 13 7 14 8 15 12 16 10 17 9 18 11 20 20 22 17 24
REMARK H PARENT 9 19 11 21 20 23 17 25
REMARK Flexibility Score: inf
ROOT
ATOM      1  C   UNL     1     -37.577  12.998   7.479  1.00  0.00     0.138 A 
ATOM      2  C   UNL     1     -38.364  13.932   8.164  1.00  0.00     0.100 A 
ATOM      3  C   UNL     1     -39.392  13.490   8.999  1.00  0.00     0.197 A 
ATOM      4  O   UNL     1     -40.040  14.350   9.649  1.00  0.00    -0.289 OA
ATOM      5  C   UNL     1     -39.650  12.104   9.122  1.00  0.00     0.107 A 
ATOM      6  C   UNL     1     -40.696  11.539   9.912  1.00  0.00     0.134 A 
ATOM      7  C   UNL     1     -40.782  10.148  10.049  1.00  0.00     0.093 A 
ATOM      8  C   UNL     1     -39.897   9.301   9.377  1.00  0.00     0.123 A 
ATOM      9  C   UNL     1     -38.907   9.841   8.561  1.00  0.00     0.094 A 
ATOM     10  C   UNL     1     -38.772  11.225   8.431  1.00  0.00     0.146 A 
ATOM     11  O   UNL     1     -37.804  11.700   7.654  1.00  0.00    -0.456 OA
ENDROOT
BRANCH   1  12
ATOM     12  C   UNL     1     -36.472  13.414   6.578  1.00  0.00     0.021 A 
ATOM     13  C   UNL     1     -35.160  12.986   6.849  1.00  0.00     0.016 A 
ATOM     14  C   UNL     1     -34.104  13.358   6.012  1.00  0.00     0.051 A 
ATOM     15  C   UNL     1     -34.343  14.153   4.885  1.00  0.00     0.157 A 
ATOM     16  C   UNL     1     -36.706  14.203   5.435  1.00  0.00     0.062 A 
ATOM     17  C   UNL     1     -35.646  14.573   4.594  1.00  0.00     0.158 A 
BRANCH  15  18
ATOM     18  O   UNL     1     -33.292  14.526   4.049  1.00  0.00    -0.504 OA
ATOM     19  H   UNL     1     -32.573  13.868   3.776  1.00  0.00     0.293 HD
ENDBRANCH  15  18
BRANCH  17  20
ATOM     20  O   UNL     1     -35.881  15.357   3.465  1.00  0.00    -0.504 OA
ATOM     21  H   UNL     1     -36.769  15.329   2.976  1.00  0.00     0.293 HD
ENDBRANCH  17  20
ENDBRANCH   1  12
BRANCH   6  22
ATOM     22  O   UNL     1     -41.682  12.292  10.555  1.00  0.00    -0.507 OA
ATOM     23  H   UNL     1     -42.663  12.283  10.317  1.00  0.00     0.293 HD
ENDBRANCH   6  22
BRANCH   8  24
ATOM     24  O   UNL     1     -40.001   7.917   9.509  1.00  0.00    -0.508 OA
ATOM     25  H   UNL     1     -39.460   7.288   8.929  1.00  0.00     0.293 HD
ENDBRANCH   8  24
TORSDOF 5
ENDMDL
MODEL 7
REMARK VINA RESULT:    -7.114      7.034     10.304
REMARK INTER + INTRA:          -8.671
REMARK INTER:                  -8.401
REMARK INTRA:                  -0.271
REMARK UNBOUND:                -0.310
REMARK SMILES O=c1cc(-c2ccc(O)c(O)c2)oc2cc(O)cc(O)c12
REMARK SMILES IDX 4 1 3 2 2 3 1 4 21 5 19 6 18 7 16 8 15 9 14 10 13 11 5 12
REMARK SMILES IDX 6 13 7 14 8 15 12 16 10 17 9 18 11 20 20 22 17 24
REMARK H PARENT 9 19 11 21 20 23 17 25
REMARK Flexibility Score: inf
ROOT
ATOM      1  C   UNL     1     -31.802  13.384   1.322  1.00  0.00     0.138 A 
ATOM      2  C   UNL     1     -32.016  12.350   0.401  1.00  0.00     0.100 A 
ATOM      3  C   UNL     1     -33.225  11.653   0.414  1.00  0.00     0.197 A 
ATOM      4  O   UNL     1     -33.412  10.773  -0.466  1.00  0.00    -0.289 OA
ATOM      5  C   UNL     1     -34.212  11.974   1.375  1.00  0.00     0.107 A 
ATOM      6  C   UNL     1     -35.466  11.305   1.508  1.00  0.00     0.134 A 
ATOM      7  C   UNL     1     -36.411  11.787   2.422  1.00  0.00     0.093 A 
ATOM      8  C   UNL     1     -36.125  12.877   3.248  1.00  0.00     0.123 A 
ATOM      9  C   UNL     1     -34.884  13.503   3.164  1.00  0.00     0.094 A 
ATOM     10  C   UNL     1     -33.932  13.068   2.239  1.00  0.00     0.146 A 
ATOM     11  O   UNL     1     -32.766  13.703   2.180  1.00  0.00    -0.456 OA
ENDROOT
BRANCH   1  12
ATOM     12  C   UNL     1     -30.535  14.156   1.353  1.00  0.00     0.021 A 
ATOM     13  C   UNL     1     -29.810  14.250   2.554  1.00  0.00     0.016 A 
ATOM     14  C   UNL     1     -28.611  14.965   2.608  1.00  0.00     0.051 A 
ATOM     15  C   UNL     1     -28.109  15.589   1.460  1.00  0.00     0.157 A 
ATOM     16  C   UNL     1     -30.017  14.777   0.199  1.00  0.00     0.062 A 
ATOM     17  C   UNL     1     -28.812  15.493   0.253  1.00  0.00     0.158 A 
BRANCH  15  18
ATOM     18  O   UNL     1     -26.914  16.304   1.509  1.00  0.00    -0.504 OA
ATOM     19  H   UNL     1     -26.783  17.155   0.977  1.00  0.00     0.293 HD
ENDBRANCH  15  18
BRANCH  17  20
ATOM     20  O   UNL     1     -28.305  16.107  -0.891  1.00  0.00    -0.504 OA
ATOM     21  H   UNL     1     -27.341  16.419  -0.942  1.00  0.00     0.293 HD
ENDBRANCH  17  20
ENDBRANCH   1  12
BRANCH   6  22
ATOM     22  O   UNL     1     -35.818  10.158   0.792  1.00  0.00    -0.507 OA
ATOM     23  H   UNL     1     -36.612  10.084   0.174  1.00  0.00     0.293 HD
ENDBRANCH   6  22
BRANCH   8  24
ATOM     24  O   UNL     1     -37.067  13.340   4.165  1.00  0.00    -0.508 OA
ATOM     25  H   UNL     1     -36.808  13.592   5.111  1.00  0.00     0.293 HD
ENDBRANCH   8  24
TORSDOF 5
ENDMDL
MODEL 8
REMARK VINA RESULT:    -7.102      5.618      8.523
REMARK INTER + INTRA:          -8.657
REMARK INTER:                  -8.345
REMARK INTRA:                  -0.312
REMARK UNBOUND:                -0.310
REMARK SMILES O=c1cc(-c2ccc(O)c(O)c2)oc2cc(O)cc(O)c12
REMARK SMILES IDX 4 1 3 2 2 3 1 4 21 5 19 6 18 7 16 8 15 9 14 10 13 11 5 12
REMARK SMILES IDX 6 13 7 14 8 15 12 16 10 17 9 18 11 20 20 22 17 24
REMARK H PARENT 9 19 11 21 20 23 17 25
REMARK Flexibility Score: inf
ROOT
ATOM      1  C   UNL     1     -33.023  14.226   3.086  1.00  0.00     0.138 A 
ATOM      2  C   UNL     1     -33.124  14.424   4.469  1.00  0.00     0.100 A 
ATOM      3  C   UNL     1     -34.317  14.114   5.125  1.00  0.00     0.197 A 
ATOM      4  O   UNL     1     -34.357  14.243   6.376  1.00  0.00    -0.289 OA
ATOM      5  C   UNL     1     -35.422  13.632   4.385  1.00  0.00     0.107 A 
ATOM      6  C   UNL     1     -36.699  13.320   4.940  1.00  0.00     0.134 A 
ATOM      7  C   UNL     1     -37.682  12.740   4.128  1.00  0.00     0.093 A 
ATOM      8  C   UNL     1     -37.453  12.515   2.769  1.00  0.00     0.123 A 
ATOM      9  C   UNL     1     -36.229  12.866   2.205  1.00  0.00     0.094 A 
ATOM     10  C   UNL     1     -35.216  13.414   2.995  1.00  0.00     0.146 A 
ATOM     11  O   UNL     1     -34.057  13.720   2.422  1.00  0.00    -0.456 OA
ENDROOT
BRANCH   1  12
ATOM     12  C   UNL     1     -31.779  14.540   2.338  1.00  0.00     0.021 A 
ATOM     13  C   UNL     1     -30.558  14.627   3.030  1.00  0.00     0.016 A 
ATOM     14  C   UNL     1     -29.373  14.913   2.348  1.00  0.00     0.051 A 
ATOM     15  C   UNL     1     -29.385  15.107   0.962  1.00  0.00     0.157 A 
ATOM     16  C   UNL     1     -31.781  14.723   0.941  1.00  0.00     0.062 A 
ATOM     17  C   UNL     1     -30.590  15.008   0.257  1.00  0.00     0.158 A 
BRANCH  15  18
ATOM     18  O   UNL     1     -28.205  15.394   0.278  1.00  0.00    -0.504 OA
ATOM     19  H   UNL     1     -28.000  14.979  -0.622  1.00  0.00     0.293 HD
ENDBRANCH  15  18
BRANCH  17  20
ATOM     20  O   UNL     1     -30.597  15.191  -1.125  1.00  0.00    -0.504 OA
ATOM     21  H   UNL     1     -31.134  15.934  -1.558  1.00  0.00     0.293 HD
ENDBRANCH  17  20
ENDBRANCH   1  12
BRANCH   6  22
ATOM     22  O   UNL     1     -37.059  13.583   6.265  1.00  0.00    -0.507 OA
ATOM     23  H   UNL     1     -37.173  12.883   6.982  1.00  0.00     0.293 HD
ENDBRANCH   6  22
BRANCH   8  24
ATOM     24  O   UNL     1     -38.443  11.951   1.966  1.00  0.00    -0.508 OA
ATOM     25  H   UNL     1     -38.790  11.014   2.132  1.00  0.00     0.293 HD
ENDBRANCH   8  24
TORSDOF 5
ENDMDL
MODEL 9
REMARK VINA RESULT:    -7.090      2.789      7.119
REMARK INTER + INTRA:          -8.643
REMARK INTER:                  -8.370
REMARK INTRA:                  -0.273
REMARK UNBOUND:                -0.310
REMARK SMILES O=c1cc(-c2ccc(O)c(O)c2)oc2cc(O)cc(O)c12
REMARK SMILES IDX 4 1 3 2 2 3 1 4 21 5 19 6 18 7 16 8 15 9 14 10 13 11 5 12
REMARK SMILES IDX 6 13 7 14 8 15 12 16 10 17 9 18 11 20 20 22 17 24
REMARK H PARENT 9 19 11 21 20 23 17 25
REMARK Flexibility Score: inf
ROOT
ATOM      1  C   UNL     1     -40.527  11.834   8.899  1.00  0.00     0.138 A 
ATOM      2  C   UNL     1     -39.297  12.505   8.882  1.00  0.00     0.100 A 
ATOM      3  C   UNL     1     -38.445  12.357   7.786  1.00  0.00     0.197 A 
ATOM      4  O   UNL     1     -37.376  13.021   7.771  1.00  0.00    -0.289 OA
ATOM      5  C   UNL     1     -38.817  11.509   6.716  1.00  0.00     0.107 A 
ATOM      6  C   UNL     1     -38.011  11.251   5.566  1.00  0.00     0.134 A 
ATOM      7  C   UNL     1     -38.533  10.484   4.517  1.00  0.00     0.093 A 
ATOM      8  C   UNL     1     -39.807   9.918   4.602  1.00  0.00     0.123 A 
ATOM      9  C   UNL     1     -40.580  10.119   5.743  1.00  0.00     0.094 A 
ATOM     10  C   UNL     1     -40.102  10.907   6.793  1.00  0.00     0.146 A 
ATOM     11  O   UNL     1     -40.877  11.086   7.857  1.00  0.00    -0.456 OA
ENDROOT
BRANCH   1  12
ATOM     12  C   UNL     1     -41.470  11.955  10.039  1.00  0.00     0.021 A 
ATOM     13  C   UNL     1     -41.992  10.792  10.633  1.00  0.00     0.016 A 
ATOM     14  C   UNL     1     -42.875  10.879  11.712  1.00  0.00     0.051 A 
ATOM     15  C   UNL     1     -43.243  12.129  12.224  1.00  0.00     0.157 A 
ATOM     16  C   UNL     1     -41.836  13.209  10.569  1.00  0.00     0.062 A 
ATOM     17  C   UNL     1     -42.720  13.295  11.654  1.00  0.00     0.158 A 
BRANCH  15  18
ATOM     18  O   UNL     1     -44.125  12.219  13.300  1.00  0.00    -0.504 OA
ATOM     19  H   UNL     1     -43.835  11.991  14.243  1.00  0.00     0.293 HD
ENDBRANCH  15  18
BRANCH  17  20
ATOM     20  O   UNL     1     -43.081  14.538  12.173  1.00  0.00    -0.504 OA
ATOM     21  H   UNL     1     -42.536  14.987  12.899  1.00  0.00     0.293 HD
ENDBRANCH  17  20
ENDBRANCH   1  12
BRANCH   6  22
ATOM     22  O   UNL     1     -36.695  11.698   5.418  1.00  0.00    -0.507 OA
ATOM     23  H   UNL     1     -35.874  11.166   5.663  1.00  0.00     0.293 HD
ENDBRANCH   6  22
BRANCH   8  24
ATOM     24  O   UNL     1     -40.312   9.144   3.558  1.00  0.00    -0.508 OA
ATOM     25  H   UNL     1     -40.150   9.391   2.590  1.00  0.00     0.293 HD
ENDBRANCH   8  24
TORSDOF 5
ENDMDL
