MODEL 1
REMARK VINA RESULT:    -3.667      0.000      0.000
REMARK INTER + INTRA:          -6.918
REMARK INTER:                  -6.239
REMARK INTRA:                  -0.680
REMARK UNBOUND:                -0.680
REMARK SMILES CCCCCCCCCCCCCC(=O)[O-]
REMARK SMILES IDX 8 1 9 2 10 3 11 4 12 5 13 6 14 7 15 8 16 9 7 10 6 11 5 12
REMARK SMILES IDX 4 13 3 14 2 15 1 16
REMARK H PARENT
REMARK Flexibility Score: inf
ROOT
ATOM      1  C   UNL     1      -1.761  15.724  21.313  1.00  0.00     0.000 C 
ENDROOT
BRANCH   1   2
ATOM      2  C   UNL     1      -0.263  15.389  21.403  1.00  0.00     0.000 C 
BRANCH   2   3
ATOM      3  C   UNL     1       0.584  16.577  21.888  1.00  0.00     0.000 C 
BRANCH   3   4
ATOM      4  C   UNL     1       1.722  16.102  22.802  1.00  0.00     0.000 C 
BRANCH   4   5
ATOM      5  C   UNL     1       3.100  16.124  22.114  1.00  0.00     0.006 C 
BRANCH   5   6
ATOM      6  C   UNL     1       4.202  15.393  22.899  1.00  0.00     0.053 C 
BRANCH   6   7
ATOM      7  C   UNL     1       5.476  15.265  22.119  1.00  0.00     0.041 C 
ATOM      8  O   UNL     1       5.977  14.130  21.907  1.00  0.00    -0.550 OA
ATOM      9  O   UNL     1       6.090  16.395  21.593  1.00  0.00    -0.550 OA
ENDBRANCH   6   7
ENDBRANCH   5   6
ENDBRANCH   4   5
ENDBRANCH   3   4
ENDBRANCH   2   3
ENDBRANCH   1   2
BRANCH   1  10
ATOM     10  C   UNL     1      -2.057  17.198  21.640  1.00  0.00     0.000 C 
BRANCH  10  11
ATOM     11  C   UNL     1      -2.967  17.358  22.868  1.00  0.00    -0.000 C 
BRANCH  11  12
ATOM     12  C   UNL     1      -3.841  16.117  23.125  1.00  0.00    -0.000 C 
BRANCH  12  13
ATOM     13  C   UNL     1      -5.286  16.305  22.635  1.00  0.00    -0.000 C 
BRANCH  13  14
ATOM     14  C   UNL     1      -5.582  15.508  21.353  1.00  0.00    -0.000 C 
BRANCH  14  15
ATOM     15  C   UNL     1      -6.716  14.489  21.542  1.00  0.00    -0.003 C 
ATOM     16  C   UNL     1      -8.087  15.150  21.686  1.00  0.00     0.004 C 
ENDBRANCH  14  15
ENDBRANCH  13  14
ENDBRANCH  12  13
ENDBRANCH  11  12
ENDBRANCH  10  11
ENDBRANCH   1  10
TORSDOF 12
ENDMDL
MODEL 2
REMARK VINA RESULT:    -3.665      6.112      9.387
REMARK INTER + INTRA:          -6.916
REMARK INTER:                  -5.851
REMARK INTRA:                  -1.066
REMARK UNBOUND:                -0.680
REMARK SMILES CCCCCCCCCCCCCC(=O)[O-]
REMARK SMILES IDX 8 1 9 2 10 3 11 4 12 5 13 6 14 7 15 8 16 9 7 10 6 11 5 12
REMARK SMILES IDX 4 13 3 14 2 15 1 16
REMARK H PARENT
REMARK Flexibility Score: inf
ROOT
ATOM      1  C   UNL     1      -5.061  15.029  21.588  1.00  0.00     0.000 C 
ENDROOT
BRANCH   1   2
ATOM      2  C   UNL     1      -6.518  14.557  21.714  1.00  0.00     0.000 C 
BRANCH   2   3
ATOM      3  C   UNL     1      -7.493  15.407  20.883  1.00  0.00     0.000 C 
BRANCH   3   4
ATOM      4  C   UNL     1      -8.647  15.925  21.754  1.00  0.00     0.000 C 
BRANCH   4   5
ATOM      5  C   UNL     1      -9.020  17.389  21.453  1.00  0.00     0.006 C 
BRANCH   5   6
ATOM      6  C   UNL     1      -8.445  17.921  20.129  1.00  0.00     0.053 C 
BRANCH   6   7
ATOM      7  C   UNL     1      -8.748  19.373  19.913  1.00  0.00     0.041 C 
ATOM      8  O   UNL     1      -8.696  19.865  18.755  1.00  0.00    -0.550 OA
ATOM      9  O   UNL     1      -9.124  20.175  20.983  1.00  0.00    -0.550 OA
ENDBRANCH   6   7
ENDBRANCH   5   6
ENDBRANCH   4   5
ENDBRANCH   3   4
ENDBRANCH   2   3
ENDBRANCH   1   2
BRANCH   1  10
ATOM     10  C   UNL     1      -4.566  15.762  22.847  1.00  0.00     0.000 C 
BRANCH  10  11
ATOM     11  C   UNL     1      -5.133  17.187  22.960  1.00  0.00    -0.000 C 
BRANCH  11  12
ATOM     12  C   UNL     1      -4.036  18.267  22.922  1.00  0.00    -0.000 C 
BRANCH  12  13
ATOM     13  C   UNL     1      -2.628  17.680  23.113  1.00  0.00    -0.000 C 
BRANCH  13  14
ATOM     14  C   UNL     1      -1.848  17.576  21.791  1.00  0.00    -0.000 C 
BRANCH  14  15
ATOM     15  C   UNL     1      -0.863  16.398  21.781  1.00  0.00    -0.003 C 
ATOM     16  C   UNL     1      -1.342  15.234  20.914  1.00  0.00     0.004 C 
ENDBRANCH  14  15
ENDBRANCH  13  14
ENDBRANCH  12  13
ENDBRANCH  11  12
ENDBRANCH  10  11
ENDBRANCH   1  10
TORSDOF 12
ENDMDL
MODEL 3
REMARK VINA RESULT:    -3.656      3.201      5.349
REMARK INTER + INTRA:          -6.900
REMARK INTER:                  -5.738
REMARK INTRA:                  -1.163
REMARK UNBOUND:                -0.680
REMARK SMILES CCCCCCCCCCCCCC(=O)[O-]
REMARK SMILES IDX 8 1 9 2 10 3 11 4 12 5 13 6 14 7 15 8 16 9 7 10 6 11 5 12
REMARK SMILES IDX 4 13 3 14 2 15 1 16
REMARK H PARENT
REMARK Flexibility Score: inf
ROOT
ATOM      1  C   UNL     1      -5.408  15.405  21.274  1.00  0.00     0.000 C 
ENDROOT
BRANCH   1   2
ATOM      2  C   UNL     1      -5.157  15.577  22.781  1.00  0.00     0.000 C 
BRANCH   2   3
ATOM      3  C   UNL     1      -4.508  16.927  23.125  1.00  0.00     0.000 C 
BRANCH   3   4
ATOM      4  C   UNL     1      -3.762  17.502  21.912  1.00  0.00     0.000 C 
BRANCH   4   5
ATOM      5  C   UNL     1      -2.305  17.889  22.227  1.00  0.00     0.006 C 
BRANCH   5   6
ATOM      6  C   UNL     1      -1.290  17.411  21.174  1.00  0.00     0.053 C 
BRANCH   6   7
ATOM      7  C   UNL     1      -0.690  16.080  21.517  1.00  0.00     0.041 C 
ATOM      8  O   UNL     1      -1.151  15.027  21.003  1.00  0.00    -0.550 OA
ATOM      9  O   UNL     1       0.402  16.005  22.372  1.00  0.00    -0.550 OA
ENDBRANCH   6   7
ENDBRANCH   5   6
ENDBRANCH   4   5
ENDBRANCH   3   4
ENDBRANCH   2   3
ENDBRANCH   1   2
BRANCH   1  10
ATOM     10  C   UNL     1      -6.820  14.874  20.968  1.00  0.00     0.000 C 
BRANCH  10  11
ATOM     11  C   UNL     1      -7.815  15.156  22.106  1.00  0.00    -0.000 C 
BRANCH  11  12
ATOM     12  C   UNL     1      -8.743  16.346  21.802  1.00  0.00    -0.000 C 
BRANCH  12  13
ATOM     13  C   UNL     1      -8.190  17.675  22.343  1.00  0.00    -0.000 C 
BRANCH  13  14
ATOM     14  C   UNL     1      -8.539  18.870  21.440  1.00  0.00    -0.000 C 
BRANCH  14  15
ATOM     15  C   UNL     1      -8.683  18.469  19.964  1.00  0.00    -0.003 C 
ATOM     16  C   UNL     1      -8.690  19.674  19.023  1.00  0.00     0.004 C 
ENDBRANCH  14  15
ENDBRANCH  13  14
ENDBRANCH  12  13
ENDBRANCH  11  12
ENDBRANCH  10  11
ENDBRANCH   1  10
TORSDOF 12
ENDMDL
MODEL 4
REMARK VINA RESULT:    -3.558      4.195     10.675
REMARK INTER + INTRA:          -6.734
REMARK INTER:                  -6.132
REMARK INTRA:                  -0.603
REMARK UNBOUND:                -0.680
REMARK SMILES CCCCCCCCCCCCCC(=O)[O-]
REMARK SMILES IDX 8 1 9 2 10 3 11 4 12 5 13 6 14 7 15 8 16 9 7 10 6 11 5 12
REMARK SMILES IDX 4 13 3 14 2 15 1 16
REMARK H PARENT
REMARK Flexibility Score: inf
ROOT
ATOM      1  C   UNL     1       5.882  15.838  21.840  1.00  0.00     0.000 C 
ENDROOT
BRANCH   1   2
ATOM      2  C   UNL     1       4.535  15.615  22.547  1.00  0.00     0.000 C 
BRANCH   2   3
ATOM      3  C   UNL     1       3.382  16.391  21.889  1.00  0.00     0.000 C 
BRANCH   3   4
ATOM      4  C   UNL     1       2.093  16.261  22.713  1.00  0.00     0.000 C 
BRANCH   4   5
ATOM      5  C   UNL     1       0.840  16.050  21.844  1.00  0.00     0.006 C 
BRANCH   5   6
ATOM      6  C   UNL     1      -0.484  16.296  22.588  1.00  0.00     0.053 C 
BRANCH   6   7
ATOM      7  C   UNL     1      -1.582  16.750  21.673  1.00  0.00     0.041 C 
ATOM      8  O   UNL     1      -2.665  16.110  21.618  1.00  0.00    -0.550 OA
ATOM      9  O   UNL     1      -1.425  17.899  20.908  1.00  0.00    -0.550 OA
ENDBRANCH   6   7
ENDBRANCH   5   6
ENDBRANCH   4   5
ENDBRANCH   3   4
ENDBRANCH   2   3
ENDBRANCH   1   2
BRANCH   1  10
ATOM     10  C   UNL     1       7.052  15.154  22.569  1.00  0.00     0.000 C 
BRANCH  10  11
ATOM     11  C   UNL     1       8.412  15.777  22.214  1.00  0.00    -0.000 C 
BRANCH  11  12
ATOM     12  C   UNL     1       8.281  16.999  21.287  1.00  0.00    -0.000 C 
BRANCH  12  13
ATOM     13  C   UNL     1       9.297  16.973  20.133  1.00  0.00    -0.000 C 
BRANCH  13  14
ATOM     14  C   UNL     1      10.573  16.190  20.490  1.00  0.00    -0.000 C 
BRANCH  14  15
ATOM     15  C   UNL     1      10.901  15.099  19.460  1.00  0.00    -0.003 C 
ATOM     16  C   UNL     1      10.365  13.725  19.862  1.00  0.00     0.004 C 
ENDBRANCH  14  15
ENDBRANCH  13  14
ENDBRANCH  12  13
ENDBRANCH  11  12
ENDBRANCH  10  11
ENDBRANCH   1  10
TORSDOF 12
ENDMDL
MODEL 5
REMARK VINA RESULT:    -3.539      1.209      1.933
REMARK INTER + INTRA:          -6.702
REMARK INTER:                  -6.231
REMARK INTRA:                  -0.470
REMARK UNBOUND:                -0.680
REMARK SMILES CCCCCCCCCCCCCC(=O)[O-]
REMARK SMILES IDX 8 1 9 2 10 3 11 4 12 5 13 6 14 7 15 8 16 9 7 10 6 11 5 12
REMARK SMILES IDX 4 13 3 14 2 15 1 16
REMARK H PARENT
REMARK Flexibility Score: inf
ROOT
ATOM      1  C   UNL     1      -2.565  16.086  21.541  1.00  0.00     0.000 C 
ENDROOT
BRANCH   1   2
ATOM      2  C   UNL     1      -1.211  16.726  21.888  1.00  0.00     0.000 C 
BRANCH   2   3
ATOM      3  C   UNL     1      -0.025  15.779  21.639  1.00  0.00     0.000 C 
BRANCH   3   4
ATOM      4  C   UNL     1       1.079  15.998  22.684  1.00  0.00     0.000 C 
BRANCH   4   5
ATOM      5  C   UNL     1       2.440  16.353  22.058  1.00  0.00     0.006 C 
BRANCH   5   6
ATOM      6  C   UNL     1       3.639  15.677  22.745  1.00  0.00     0.053 C 
BRANCH   6   7
ATOM      7  C   UNL     1       4.941  15.992  22.071  1.00  0.00     0.041 C 
ATOM      8  O   UNL     1       6.016  15.511  22.516  1.00  0.00    -0.550 OA
ATOM      9  O   UNL     1       4.964  16.786  20.932  1.00  0.00    -0.550 OA
ENDBRANCH   6   7
ENDBRANCH   5   6
ENDBRANCH   4   5
ENDBRANCH   3   4
ENDBRANCH   2   3
ENDBRANCH   1   2
BRANCH   1  10
ATOM     10  C   UNL     1      -3.551  16.114  22.722  1.00  0.00     0.000 C 
BRANCH  10  11
ATOM     11  C   UNL     1      -5.013  16.255  22.267  1.00  0.00    -0.000 C 
BRANCH  11  12
ATOM     12  C   UNL     1      -5.543  14.986  21.574  1.00  0.00    -0.000 C 
BRANCH  12  13
ATOM     13  C   UNL     1      -7.035  15.091  21.219  1.00  0.00    -0.000 C 
BRANCH  13  14
ATOM     14  C   UNL     1      -7.758  16.182  22.028  1.00  0.00    -0.000 C 
BRANCH  14  15
ATOM     15  C   UNL     1      -8.838  16.903  21.209  1.00  0.00    -0.003 C 
ATOM     16  C   UNL     1      -8.267  17.645  20.001  1.00  0.00     0.004 C 
ENDBRANCH  14  15
ENDBRANCH  13  14
ENDBRANCH  12  13
ENDBRANCH  11  12
ENDBRANCH  10  11
ENDBRANCH   1  10
TORSDOF 12
ENDMDL
MODEL 6
REMARK VINA RESULT:    -3.539      2.163      3.888
REMARK INTER + INTRA:          -6.701
REMARK INTER:                  -6.441
REMARK INTRA:                  -0.260
REMARK UNBOUND:                -0.680
REMARK SMILES CCCCCCCCCCCCCC(=O)[O-]
REMARK SMILES IDX 8 1 9 2 10 3 11 4 12 5 13 6 14 7 15 8 16 9 7 10 6 11 5 12
REMARK SMILES IDX 4 13 3 14 2 15 1 16
REMARK H PARENT
REMARK Flexibility Score: inf
ROOT
ATOM      1  C   UNL     1       2.609  16.193  22.184  1.00  0.00     0.000 C 
ENDROOT
BRANCH   1   2
ATOM      2  C   UNL     1       3.704  15.634  23.106  1.00  0.00     0.000 C 
BRANCH   2   3
ATOM      3  C   UNL     1       4.880  15.019  22.329  1.00  0.00     0.000 C 
BRANCH   3   4
ATOM      4  C   UNL     1       5.764  16.115  21.716  1.00  0.00     0.000 C 
BRANCH   4   5
ATOM      5  C   UNL     1       7.264  15.771  21.752  1.00  0.00     0.006 C 
BRANCH   5   6
ATOM      6  C   UNL     1       8.188  16.978  21.513  1.00  0.00     0.053 C 
BRANCH   6   7
ATOM      7  C   UNL     1       9.378  16.633  20.670  1.00  0.00     0.041 C 
ATOM      8  O   UNL     1      10.109  17.546  20.203  1.00  0.00    -0.550 OA
ATOM      9  O   UNL     1       9.704  15.304  20.430  1.00  0.00    -0.550 OA
ENDBRANCH   6   7
ENDBRANCH   5   6
ENDBRANCH   4   5
ENDBRANCH   3   4
ENDBRANCH   2   3
ENDBRANCH   1   2
BRANCH   1  10
ATOM     10  C   UNL     1       1.206  16.101  22.810  1.00  0.00     0.000 C 
BRANCH  10  11
ATOM     11  C   UNL     1       0.097  15.969  21.754  1.00  0.00    -0.000 C 
BRANCH  11  12
ATOM     12  C   UNL     1      -1.201  16.689  22.163  1.00  0.00    -0.000 C 
BRANCH  12  13
ATOM     13  C   UNL     1      -2.456  16.005  21.596  1.00  0.00    -0.000 C 
BRANCH  13  14
ATOM     14  C   UNL     1      -3.662  16.107  22.545  1.00  0.00    -0.000 C 
BRANCH  14  15
ATOM     15  C   UNL     1      -4.990  16.276  21.792  1.00  0.00    -0.003 C 
ATOM     16  C   UNL     1      -5.795  14.979  21.715  1.00  0.00     0.004 C 
ENDBRANCH  14  15
ENDBRANCH  13  14
ENDBRANCH  12  13
ENDBRANCH  11  12
ENDBRANCH  10  11
ENDBRANCH   1  10
TORSDOF 12
ENDMDL
MODEL 7
REMARK VINA RESULT:    -3.468      1.325      2.023
REMARK INTER + INTRA:          -6.581
REMARK INTER:                  -6.296
REMARK INTRA:                  -0.285
REMARK UNBOUND:                -0.680
REMARK SMILES CCCCCCCCCCCCCC(=O)[O-]
REMARK SMILES IDX 8 1 9 2 10 3 11 4 12 5 13 6 14 7 15 8 16 9 7 10 6 11 5 12
REMARK SMILES IDX 4 13 3 14 2 15 1 16
REMARK H PARENT
REMARK Flexibility Score: inf
ROOT
ATOM      1  C   UNL     1       0.235  15.993  21.688  1.00  0.00     0.000 C 
ENDROOT
BRANCH   1   2
ATOM      2  C   UNL     1       1.425  15.965  22.660  1.00  0.00     0.000 C 
BRANCH   2   3
ATOM      3  C   UNL     1       2.754  16.343  21.985  1.00  0.00     0.000 C 
BRANCH   3   4
ATOM      4  C   UNL     1       3.946  15.751  22.750  1.00  0.00     0.000 C 
BRANCH   4   5
ATOM      5  C   UNL     1       5.267  15.827  21.964  1.00  0.00     0.006 C 
BRANCH   5   6
ATOM      6  C   UNL     1       6.525  15.792  22.849  1.00  0.00     0.053 C 
BRANCH   6   7
ATOM      7  C   UNL     1       7.782  16.044  22.073  1.00  0.00     0.041 C 
ATOM      8  O   UNL     1       7.795  16.903  21.152  1.00  0.00    -0.550 OA
ATOM      9  O   UNL     1       8.948  15.360  22.389  1.00  0.00    -0.550 OA
ENDBRANCH   6   7
ENDBRANCH   5   6
ENDBRANCH   4   5
ENDBRANCH   3   4
ENDBRANCH   2   3
ENDBRANCH   1   2
BRANCH   1  10
ATOM     10  C   UNL     1      -1.032  16.594  22.322  1.00  0.00     0.000 C 
BRANCH  10  11
ATOM     11  C   UNL     1      -2.323  16.043  21.694  1.00  0.00    -0.000 C 
BRANCH  11  12
ATOM     12  C   UNL     1      -3.573  16.835  22.118  1.00  0.00    -0.000 C 
BRANCH  12  13
ATOM     13  C   UNL     1      -4.751  15.919  22.490  1.00  0.00    -0.000 C 
BRANCH  13  14
ATOM     14  C   UNL     1      -5.372  15.230  21.263  1.00  0.00    -0.000 C 
BRANCH  14  15
ATOM     15  C   UNL     1      -6.841  14.844  21.486  1.00  0.00    -0.003 C 
ATOM     16  C   UNL     1      -7.570  15.809  22.421  1.00  0.00     0.004 C 
ENDBRANCH  14  15
ENDBRANCH  13  14
ENDBRANCH  12  13
ENDBRANCH  11  12
ENDBRANCH  10  11
ENDBRANCH   1  10
TORSDOF 12
ENDMDL
MODEL 8
REMARK VINA RESULT:    -3.358      4.348     10.251
REMARK INTER + INTRA:          -6.394
REMARK INTER:                  -6.010
REMARK INTRA:                  -0.384
REMARK UNBOUND:                -0.680
REMARK SMILES CCCCCCCCCCCCCC(=O)[O-]
REMARK SMILES IDX 8 1 9 2 10 3 11 4 12 5 13 6 14 7 15 8 16 9 7 10 6 11 5 12
REMARK SMILES IDX 4 13 3 14 2 15 1 16
REMARK H PARENT
REMARK Flexibility Score: inf
ROOT
ATOM      1  C   UNL     1       3.868  15.921  22.173  1.00  0.00     0.000 C 
ENDROOT
BRANCH   1   2
ATOM      2  C   UNL     1       2.432  16.001  22.715  1.00  0.00     0.000 C 
BRANCH   2   3
ATOM      3  C   UNL     1       1.407  16.373  21.632  1.00  0.00     0.000 C 
BRANCH   3   4
ATOM      4  C   UNL     1       0.070  15.658  21.874  1.00  0.00     0.000 C 
BRANCH   4   5
ATOM      5  C   UNL     1      -1.144  16.601  21.788  1.00  0.00     0.006 C 
BRANCH   5   6
ATOM      6  C   UNL     1      -2.455  15.898  21.393  1.00  0.00     0.053 C 
BRANCH   6   7
ATOM      7  C   UNL     1      -3.657  16.522  22.035  1.00  0.00     0.041 C 
ATOM      8  O   UNL     1      -3.690  17.763  22.244  1.00  0.00    -0.550 OA
ATOM      9  O   UNL     1      -4.757  15.742  22.367  1.00  0.00    -0.550 OA
ENDBRANCH   6   7
ENDBRANCH   5   6
ENDBRANCH   4   5
ENDBRANCH   3   4
ENDBRANCH   2   3
ENDBRANCH   1   2
BRANCH   1  10
ATOM     10  C   UNL     1       4.691  14.806  22.842  1.00  0.00     0.000 C 
BRANCH  10  11
ATOM     11  C   UNL     1       6.181  15.166  22.964  1.00  0.00    -0.000 C 
BRANCH  11  12
ATOM     12  C   UNL     1       6.679  16.037  21.797  1.00  0.00    -0.000 C 
BRANCH  12  13
ATOM     13  C   UNL     1       8.147  16.461  21.965  1.00  0.00    -0.000 C 
BRANCH  13  14
ATOM     14  C   UNL     1       8.560  17.564  20.975  1.00  0.00    -0.000 C 
BRANCH  14  15
ATOM     15  C   UNL     1       9.850  17.220  20.216  1.00  0.00    -0.003 C 
ATOM     16  C   UNL     1      10.201  15.734  20.289  1.00  0.00     0.004 C 
ENDBRANCH  14  15
ENDBRANCH  13  14
ENDBRANCH  12  13
ENDBRANCH  11  12
ENDBRANCH  10  11
ENDBRANCH   1  10
TORSDOF 12
ENDMDL
MODEL 9
REMARK VINA RESULT:    -3.352      4.935      9.869
REMARK INTER + INTRA:          -6.383
REMARK INTER:                  -6.109
REMARK INTRA:                  -0.274
REMARK UNBOUND:                -0.680
REMARK SMILES CCCCCCCCCCCCCC(=O)[O-]
REMARK SMILES IDX 8 1 9 2 10 3 11 4 12 5 13 6 14 7 15 8 16 9 7 10 6 11 5 12
REMARK SMILES IDX 4 13 3 14 2 15 1 16
REMARK H PARENT
REMARK Flexibility Score: inf
ROOT
ATOM      1  C   UNL     1       0.278  16.033  21.986  1.00  0.00     0.000 C 
ENDROOT
BRANCH   1   2
ATOM      2  C   UNL     1      -1.028  16.505  22.646  1.00  0.00     0.000 C 
BRANCH   2   3
ATOM      3  C   UNL     1      -2.275  16.139  21.824  1.00  0.00     0.000 C 
BRANCH   3   4
ATOM      4  C   UNL     1      -3.379  17.191  22.006  1.00  0.00     0.000 C 
BRANCH   4   5
ATOM      5  C   UNL     1      -4.727  16.583  22.436  1.00  0.00     0.006 C 
BRANCH   5   6
ATOM      6  C   UNL     1      -5.293  15.552  21.444  1.00  0.00     0.053 C 
BRANCH   6   7
ATOM      7  C   UNL     1      -6.789  15.593  21.364  1.00  0.00     0.041 C 
ATOM      8  O   UNL     1      -7.391  16.698  21.332  1.00  0.00    -0.550 OA
ATOM      9  O   UNL     1      -7.517  14.413  21.288  1.00  0.00    -0.550 OA
ENDBRANCH   6   7
ENDBRANCH   5   6
ENDBRANCH   4   5
ENDBRANCH   3   4
ENDBRANCH   2   3
ENDBRANCH   1   2
BRANCH   1  10
ATOM     10  C   UNL     1       1.464  16.022  22.966  1.00  0.00     0.000 C 
BRANCH  10  11
ATOM     11  C   UNL     1       2.822  16.095  22.249  1.00  0.00    -0.000 C 
BRANCH  11  12
ATOM     12  C   UNL     1       3.983  15.589  23.124  1.00  0.00    -0.000 C 
BRANCH  12  13
ATOM     13  C   UNL     1       5.162  15.062  22.289  1.00  0.00    -0.000 C 
BRANCH  13  14
ATOM     14  C   UNL     1       5.972  16.194  21.634  1.00  0.00    -0.000 C 
BRANCH  14  15
ATOM     15  C   UNL     1       7.464  16.132  21.991  1.00  0.00    -0.003 C 
ATOM     16  C   UNL     1       8.300  17.152  21.219  1.00  0.00     0.004 C 
ENDBRANCH  14  15
ENDBRANCH  13  14
ENDBRANCH  12  13
ENDBRANCH  11  12
ENDBRANCH  10  11
ENDBRANCH   1  10
TORSDOF 12
ENDMDL
