MODEL 1
REMARK VINA RESULT:    -2.285      0.000      0.000
REMARK INTER + INTRA:          -4.292
REMARK INTER:                  -4.156
REMARK INTRA:                  -0.136
REMARK UNBOUND:                -0.136
REMARK SMILES CCCCCCCCCCCCCCCC(=O)[O-]
REMARK SMILES IDX 9 1 10 2 11 3 12 4 13 5 14 6 15 7 16 8 17 9 18 10 8 11 7 12
REMARK SMILES IDX 6 13 5 14 4 15 3 16 2 17 1 18
REMARK H PARENT
REMARK Flexibility Score: inf
ROOT
ATOM      1  C   UNL     1     -31.947 -20.939 -21.345  1.00  0.00     0.000 C 
ENDROOT
BRANCH   1   2
ATOM      2  C   UNL     1     -31.597 -22.136 -22.255  1.00  0.00     0.000 C 
BRANCH   2   3
ATOM      3  C   UNL     1     -30.606 -23.124 -21.616  1.00  0.00     0.000 C 
BRANCH   3   4
ATOM      4  C   UNL     1     -30.258 -22.763 -20.163  1.00  0.00     0.000 C 
BRANCH   4   5
ATOM      5  C   UNL     1     -29.355 -21.524 -20.061  1.00  0.00     0.000 C 
BRANCH   5   6
ATOM      6  C   UNL     1     -28.366 -21.609 -18.885  1.00  0.00     0.006 C 
BRANCH   6   7
ATOM      7  C   UNL     1     -28.209 -23.043 -18.363  1.00  0.00     0.053 C 
BRANCH   7   8
ATOM      8  C   UNL     1     -28.175 -23.089 -16.865  1.00  0.00     0.041 C 
ATOM      9  O   UNL     1     -29.248 -23.084 -16.206  1.00  0.00    -0.550 OA
ATOM     10  O   UNL     1     -26.957 -23.107 -16.198  1.00  0.00    -0.550 OA
ENDBRANCH   7   8
ENDBRANCH   6   7
ENDBRANCH   5   6
ENDBRANCH   4   5
ENDBRANCH   3   4
ENDBRANCH   2   3
ENDBRANCH   1   2
BRANCH   1  11
ATOM     11  C   UNL     1     -32.464 -19.731 -22.146  1.00  0.00     0.000 C 
BRANCH  11  12
ATOM     12  C   UNL     1     -32.736 -20.071 -23.621  1.00  0.00    -0.000 C 
BRANCH  12  13
ATOM     13  C   UNL     1     -31.737 -19.402 -24.576  1.00  0.00    -0.000 C 
BRANCH  13  14
ATOM     14  C   UNL     1     -31.544 -20.246 -25.846  1.00  0.00    -0.000 C 
BRANCH  14  15
ATOM     15  C   UNL     1     -30.407 -21.276 -25.716  1.00  0.00    -0.000 C 
BRANCH  15  16
ATOM     16  C   UNL     1     -29.185 -20.799 -24.912  1.00  0.00    -0.000 C 
BRANCH  16  17
ATOM     17  C   UNL     1     -29.018 -21.543 -23.578  1.00  0.00    -0.003 C 
ATOM     18  C   UNL     1     -27.545 -21.806 -23.276  1.00  0.00     0.004 C 
ENDBRANCH  16  17
ENDBRANCH  15  16
ENDBRANCH  14  15
ENDBRANCH  13  14
ENDBRANCH  12  13
ENDBRANCH  11  12
ENDBRANCH   1  11
TORSDOF 14
ENDMDL
MODEL 2
REMARK VINA RESULT:    -1.865      2.530      6.468
REMARK INTER + INTRA:          -3.527
REMARK INTER:                  -3.267
REMARK INTRA:                  -0.260
REMARK UNBOUND:                -0.136
REMARK SMILES CCCCCCCCCCCCCCCC(=O)[O-]
REMARK SMILES IDX 9 1 10 2 11 3 12 4 13 5 14 6 15 7 16 8 17 9 18 10 8 11 7 12
REMARK SMILES IDX 6 13 5 14 4 15 3 16 2 17 1 18
REMARK H PARENT
REMARK Flexibility Score: inf
ROOT
ATOM      1  C   UNL     1     -27.849 -21.544 -23.537  1.00  0.00     0.000 C 
ENDROOT
BRANCH   1   2
ATOM      2  C   UNL     1     -29.135 -20.866 -24.056  1.00  0.00     0.000 C 
BRANCH   2   3
ATOM      3  C   UNL     1     -29.791 -21.610 -25.233  1.00  0.00     0.000 C 
BRANCH   3   4
ATOM      4  C   UNL     1     -30.707 -20.705 -26.073  1.00  0.00     0.000 C 
BRANCH   4   5
ATOM      5  C   UNL     1     -31.653 -19.856 -25.210  1.00  0.00     0.000 C 
BRANCH   5   6
ATOM      6  C   UNL     1     -32.224 -20.637 -24.014  1.00  0.00     0.006 C 
BRANCH   6   7
ATOM      7  C   UNL     1     -32.860 -19.712 -22.968  1.00  0.00     0.053 C 
BRANCH   7   8
ATOM      8  C   UNL     1     -32.485 -20.110 -21.573  1.00  0.00     0.041 C 
ATOM      9  O   UNL     1     -32.134 -19.237 -20.736  1.00  0.00    -0.550 OA
ATOM     10  O   UNL     1     -32.496 -21.449 -21.206  1.00  0.00    -0.550 OA
ENDBRANCH   7   8
ENDBRANCH   6   7
ENDBRANCH   5   6
ENDBRANCH   4   5
ENDBRANCH   3   4
ENDBRANCH   2   3
ENDBRANCH   1   2
BRANCH   1  11
ATOM     11  C   UNL     1     -28.129 -22.502 -22.366  1.00  0.00     0.000 C 
BRANCH  11  12
ATOM     12  C   UNL     1     -29.595 -22.459 -21.902  1.00  0.00    -0.000 C 
BRANCH  12  13
ATOM     13  C   UNL     1     -29.781 -23.001 -20.477  1.00  0.00    -0.000 C 
BRANCH  13  14
ATOM     14  C   UNL     1     -28.430 -23.125 -19.756  1.00  0.00    -0.000 C 
BRANCH  14  15
ATOM     15  C   UNL     1     -28.562 -23.099 -18.223  1.00  0.00    -0.000 C 
BRANCH  15  16
ATOM     16  C   UNL     1     -27.420 -22.380 -17.483  1.00  0.00    -0.000 C 
BRANCH  16  17
ATOM     17  C   UNL     1     -27.257 -22.851 -16.030  1.00  0.00    -0.003 C 
ATOM     18  C   UNL     1     -25.802 -22.754 -15.580  1.00  0.00     0.004 C 
ENDBRANCH  16  17
ENDBRANCH  15  16
ENDBRANCH  14  15
ENDBRANCH  13  14
ENDBRANCH  12  13
ENDBRANCH  11  12
ENDBRANCH   1  11
TORSDOF 14
ENDMDL
MODEL 3
REMARK VINA RESULT:    -1.602      1.017      3.124
REMARK INTER + INTRA:          -3.050
REMARK INTER:                  -3.138
REMARK INTRA:                   0.088
REMARK UNBOUND:                -0.136
REMARK SMILES CCCCCCCCCCCCCCCC(=O)[O-]
REMARK SMILES IDX 9 1 10 2 11 3 12 4 13 5 14 6 15 7 16 8 17 9 18 10 8 11 7 12
REMARK SMILES IDX 6 13 5 14 4 15 3 16 2 17 1 18
REMARK H PARENT
REMARK Flexibility Score: inf
ROOT
ATOM      1  C   UNL     1     -29.546 -21.285 -23.700  1.00  0.00     0.000 C 
ENDROOT
BRANCH   1   2
ATOM      2  C   UNL     1     -28.169 -21.082 -23.032  1.00  0.00     0.000 C 
BRANCH   2   3
ATOM      3  C   UNL     1     -27.185 -22.237 -23.291  1.00  0.00     0.000 C 
BRANCH   3   4
ATOM      4  C   UNL     1     -26.922 -23.088 -22.038  1.00  0.00     0.000 C 
BRANCH   4   5
ATOM      5  C   UNL     1     -28.125 -23.124 -21.084  1.00  0.00     0.000 C 
BRANCH   5   6
ATOM      6  C   UNL     1     -27.706 -23.118 -19.603  1.00  0.00     0.006 C 
BRANCH   6   7
ATOM      7  C   UNL     1     -28.915 -23.110 -18.659  1.00  0.00     0.053 C 
BRANCH   7   8
ATOM      8  C   UNL     1     -28.506 -22.895 -17.234  1.00  0.00     0.041 C 
ATOM      9  O   UNL     1     -27.287 -22.897 -16.917  1.00  0.00    -0.550 OA
ATOM     10  O   UNL     1     -29.472 -22.721 -16.252  1.00  0.00    -0.550 OA
ENDBRANCH   7   8
ENDBRANCH   6   7
ENDBRANCH   5   6
ENDBRANCH   4   5
ENDBRANCH   3   4
ENDBRANCH   2   3
ENDBRANCH   1   2
BRANCH   1  11
ATOM     11  C   UNL     1     -29.487 -21.089 -25.225  1.00  0.00     0.000 C 
BRANCH  11  12
ATOM     12  C   UNL     1     -30.875 -21.142 -25.884  1.00  0.00    -0.000 C 
BRANCH  12  13
ATOM     13  C   UNL     1     -32.017 -20.974 -24.872  1.00  0.00    -0.000 C 
BRANCH  13  14
ATOM     14  C   UNL     1     -31.998 -19.569 -24.251  1.00  0.00    -0.000 C 
BRANCH  14  15
ATOM     15  C   UNL     1     -32.325 -19.573 -22.746  1.00  0.00    -0.000 C 
BRANCH  15  16
ATOM     16  C   UNL     1     -32.553 -20.966 -22.132  1.00  0.00    -0.000 C 
BRANCH  16  17
ATOM     17  C   UNL     1     -31.508 -21.330 -21.067  1.00  0.00    -0.003 C 
ATOM     18  C   UNL     1     -31.083 -22.790 -21.191  1.00  0.00     0.004 C 
ENDBRANCH  16  17
ENDBRANCH  15  16
ENDBRANCH  14  15
ENDBRANCH  13  14
ENDBRANCH  12  13
ENDBRANCH  11  12
ENDBRANCH   1  11
TORSDOF 14
ENDMDL
MODEL 4
REMARK VINA RESULT:    -1.570      2.879      5.011
REMARK INTER + INTRA:          -2.991
REMARK INTER:                  -3.145
REMARK INTRA:                   0.153
REMARK UNBOUND:                -0.136
REMARK SMILES CCCCCCCCCCCCCCCC(=O)[O-]
REMARK SMILES IDX 9 1 10 2 11 3 12 4 13 5 14 6 15 7 16 8 17 9 18 10 8 11 7 12
REMARK SMILES IDX 6 13 5 14 4 15 3 16 2 17 1 18
REMARK H PARENT
REMARK Flexibility Score: inf
ROOT
ATOM      1  C   UNL     1     -27.277 -22.680 -20.466  1.00  0.00     0.000 C 
ENDROOT
BRANCH   1   2
ATOM      2  C   UNL     1     -28.105 -23.045 -19.216  1.00  0.00     0.000 C 
BRANCH   2   3
ATOM      3  C   UNL     1     -29.016 -21.904 -18.729  1.00  0.00     0.000 C 
BRANCH   3   4
ATOM      4  C   UNL     1     -28.900 -20.638 -19.593  1.00  0.00     0.000 C 
BRANCH   4   5
ATOM      5  C   UNL     1     -30.227 -20.260 -20.270  1.00  0.00     0.000 C 
BRANCH   5   6
ATOM      6  C   UNL     1     -30.729 -21.348 -21.235  1.00  0.00     0.006 C 
BRANCH   6   7
ATOM      7  C   UNL     1     -32.241 -21.252 -21.480  1.00  0.00     0.053 C 
BRANCH   7   8
ATOM      8  C   UNL     1     -32.666 -19.847 -21.780  1.00  0.00     0.041 C 
ATOM      9  O   UNL     1     -32.613 -18.963 -20.884  1.00  0.00    -0.550 OA
ATOM     10  O   UNL     1     -33.149 -19.520 -23.040  1.00  0.00    -0.550 OA
ENDBRANCH   7   8
ENDBRANCH   6   7
ENDBRANCH   5   6
ENDBRANCH   4   5
ENDBRANCH   3   4
ENDBRANCH   2   3
ENDBRANCH   1   2
BRANCH   1  11
ATOM     11  C   UNL     1     -27.964 -23.125 -21.769  1.00  0.00     0.000 C 
BRANCH  11  12
ATOM     12  C   UNL     1     -27.436 -22.377 -23.004  1.00  0.00    -0.000 C 
BRANCH  12  13
ATOM     13  C   UNL     1     -28.364 -21.236 -23.447  1.00  0.00    -0.000 C 
BRANCH  13  14
ATOM     14  C   UNL     1     -29.292 -21.694 -24.583  1.00  0.00    -0.000 C 
BRANCH  14  15
ATOM     15  C   UNL     1     -30.641 -20.952 -24.592  1.00  0.00    -0.000 C 
BRANCH  15  16
ATOM     16  C   UNL     1     -30.788 -19.881 -25.688  1.00  0.00    -0.000 C 
BRANCH  16  17
ATOM     17  C   UNL     1     -31.041 -20.479 -27.080  1.00  0.00    -0.003 C 
ATOM     18  C   UNL     1     -30.956 -22.002 -27.048  1.00  0.00     0.004 C 
ENDBRANCH  16  17
ENDBRANCH  15  16
ENDBRANCH  14  15
ENDBRANCH  13  14
ENDBRANCH  12  13
ENDBRANCH  11  12
ENDBRANCH   1  11
TORSDOF 14
ENDMDL
MODEL 5
REMARK VINA RESULT:    -0.714      2.274      4.079
REMARK INTER + INTRA:          -1.435
REMARK INTER:                  -1.195
REMARK INTRA:                  -0.240
REMARK UNBOUND:                -0.136
REMARK SMILES CCCCCCCCCCCCCCCC(=O)[O-]
REMARK SMILES IDX 9 1 10 2 11 3 12 4 13 5 14 6 15 7 16 8 17 9 18 10 8 11 7 12
REMARK SMILES IDX 6 13 5 14 4 15 3 16 2 17 1 18
REMARK H PARENT
REMARK Flexibility Score: inf
ROOT
ATOM      1  C   UNL     1     -29.132 -23.105 -19.777  1.00  0.00     0.000 C 
ENDROOT
BRANCH   1   2
ATOM      2  C   UNL     1     -28.596 -21.785 -19.182  1.00  0.00     0.000 C 
BRANCH   2   3
ATOM      3  C   UNL     1     -27.634 -21.992 -17.999  1.00  0.00     0.000 C 
BRANCH   3   4
ATOM      4  C   UNL     1     -28.081 -23.124 -17.059  1.00  0.00     0.000 C 
BRANCH   4   5
ATOM      5  C   UNL     1     -29.588 -23.088 -16.764  1.00  0.00     0.000 C 
BRANCH   5   6
ATOM      6  C   UNL     1     -29.899 -22.625 -15.330  1.00  0.00     0.006 C 
BRANCH   6   7
ATOM      7  C   UNL     1     -31.400 -22.395 -15.108  1.00  0.00     0.053 C 
BRANCH   7   8
ATOM      8  C   UNL     1     -31.661 -21.132 -14.345  1.00  0.00     0.041 C 
ATOM      9  O   UNL     1     -32.843 -20.739 -14.155  1.00  0.00    -0.550 OA
ATOM     10  O   UNL     1     -30.599 -20.374 -13.869  1.00  0.00    -0.550 OA
ENDBRANCH   7   8
ENDBRANCH   6   7
ENDBRANCH   5   6
ENDBRANCH   4   5
ENDBRANCH   3   4
ENDBRANCH   2   3
ENDBRANCH   1   2
BRANCH   1  11
ATOM     11  C   UNL     1     -29.491 -22.966 -21.268  1.00  0.00     0.000 C 
BRANCH  11  12
ATOM     12  C   UNL     1     -30.962 -22.579 -21.490  1.00  0.00    -0.000 C 
BRANCH  12  13
ATOM     13  C   UNL     1     -31.209 -21.072 -21.327  1.00  0.00    -0.000 C 
BRANCH  13  14
ATOM     14  C   UNL     1     -32.265 -20.578 -22.327  1.00  0.00    -0.000 C 
BRANCH  14  15
ATOM     15  C   UNL     1     -32.051 -21.130 -23.749  1.00  0.00    -0.000 C 
BRANCH  15  16
ATOM     16  C   UNL     1     -30.825 -20.567 -24.489  1.00  0.00    -0.000 C 
BRANCH  16  17
ATOM     17  C   UNL     1     -31.141 -20.133 -25.929  1.00  0.00    -0.003 C 
ATOM     18  C   UNL     1     -30.795 -21.237 -26.924  1.00  0.00     0.004 C 
ENDBRANCH  16  17
ENDBRANCH  15  16
ENDBRANCH  14  15
ENDBRANCH  13  14
ENDBRANCH  12  13
ENDBRANCH  11  12
ENDBRANCH   1  11
TORSDOF 14
ENDMDL
MODEL 6
REMARK VINA RESULT:    -0.422      2.756      3.846
REMARK INTER + INTRA:          -0.904
REMARK INTER:                  -1.362
REMARK INTRA:                   0.458
REMARK UNBOUND:                -0.136
REMARK SMILES CCCCCCCCCCCCCCCC(=O)[O-]
REMARK SMILES IDX 9 1 10 2 11 3 12 4 13 5 14 6 15 7 16 8 17 9 18 10 8 11 7 12
REMARK SMILES IDX 6 13 5 14 4 15 3 16 2 17 1 18
REMARK H PARENT
REMARK Flexibility Score: inf
ROOT
ATOM      1  C   UNL     1     -31.054 -19.906 -20.046  1.00  0.00     0.000 C 
ENDROOT
BRANCH   1   2
ATOM      2  C   UNL     1     -29.893 -20.907 -20.232  1.00  0.00     0.000 C 
BRANCH   2   3
ATOM      3  C   UNL     1     -28.708 -20.656 -19.282  1.00  0.00     0.000 C 
BRANCH   3   4
ATOM      4  C   UNL     1     -28.410 -21.858 -18.372  1.00  0.00     0.000 C 
BRANCH   4   5
ATOM      5  C   UNL     1     -28.030 -23.120 -19.162  1.00  0.00     0.000 C 
BRANCH   5   6
ATOM      6  C   UNL     1     -27.462 -22.796 -20.555  1.00  0.00     0.006 C 
BRANCH   6   7
ATOM      7  C   UNL     1     -28.488 -23.041 -21.669  1.00  0.00     0.053 C 
BRANCH   7   8
ATOM      8  C   UNL     1     -28.131 -22.305 -22.925  1.00  0.00     0.041 C 
ATOM      9  O   UNL     1     -29.027 -21.990 -23.752  1.00  0.00    -0.550 OA
ATOM     10  O   UNL     1     -26.806 -21.991 -23.194  1.00  0.00    -0.550 OA
ENDBRANCH   7   8
ENDBRANCH   6   7
ENDBRANCH   5   6
ENDBRANCH   4   5
ENDBRANCH   3   4
ENDBRANCH   2   3
ENDBRANCH   1   2
BRANCH   1  11
ATOM     11  C   UNL     1     -32.012 -19.898 -21.250  1.00  0.00     0.000 C 
BRANCH  11  12
ATOM     12  C   UNL     1     -31.821 -21.116 -22.168  1.00  0.00    -0.000 C 
BRANCH  12  13
ATOM     13  C   UNL     1     -32.306 -20.858 -23.602  1.00  0.00    -0.000 C 
BRANCH  13  14
ATOM     14  C   UNL     1     -31.563 -19.667 -24.227  1.00  0.00    -0.000 C 
BRANCH  14  15
ATOM     15  C   UNL     1     -31.255 -19.868 -25.722  1.00  0.00    -0.000 C 
BRANCH  15  16
ATOM     16  C   UNL     1     -30.319 -21.047 -26.041  1.00  0.00    -0.000 C 
BRANCH  16  17
ATOM     17  C   UNL     1     -30.880 -21.981 -27.125  1.00  0.00    -0.003 C 
ATOM     18  C   UNL     1     -31.989 -22.868 -26.566  1.00  0.00     0.004 C 
ENDBRANCH  16  17
ENDBRANCH  15  16
ENDBRANCH  14  15
ENDBRANCH  13  14
ENDBRANCH  12  13
ENDBRANCH  11  12
ENDBRANCH   1  11
TORSDOF 14
ENDMDL
MODEL 7
REMARK VINA RESULT:     0.368      1.432      3.184
REMARK INTER + INTRA:           0.534
REMARK INTER:                   1.400
REMARK INTRA:                  -0.866
REMARK UNBOUND:                -0.136
REMARK SMILES CCCCCCCCCCCCCCCC(=O)[O-]
REMARK SMILES IDX 9 1 10 2 11 3 12 4 13 5 14 6 15 7 16 8 17 9 18 10 8 11 7 12
REMARK SMILES IDX 6 13 5 14 4 15 3 16 2 17 1 18
REMARK H PARENT
REMARK Flexibility Score: inf
ROOT
ATOM      1  C   UNL     1     -29.571 -21.217 -20.285  1.00  0.00     0.000 C 
ENDROOT
BRANCH   1   2
ATOM      2  C   UNL     1     -28.333 -21.569 -21.138  1.00  0.00     0.000 C 
BRANCH   2   3
ATOM      3  C   UNL     1     -27.288 -22.411 -20.385  1.00  0.00     0.000 C 
BRANCH   3   4
ATOM      4  C   UNL     1     -27.872 -23.125 -19.155  1.00  0.00     0.000 C 
BRANCH   4   5
ATOM      5  C   UNL     1     -27.003 -22.948 -17.900  1.00  0.00     0.000 C 
BRANCH   5   6
ATOM      6  C   UNL     1     -27.809 -23.095 -16.598  1.00  0.00     0.006 C 
BRANCH   6   7
ATOM      7  C   UNL     1     -29.323 -23.086 -16.850  1.00  0.00     0.053 C 
BRANCH   7   8
ATOM      8  C   UNL     1     -30.099 -23.081 -15.568  1.00  0.00     0.041 C 
ATOM      9  O   UNL     1     -29.497 -23.116 -14.462  1.00  0.00    -0.550 OA
ATOM     10  O   UNL     1     -31.487 -23.067 -15.596  1.00  0.00    -0.550 OA
ENDBRANCH   7   8
ENDBRANCH   6   7
ENDBRANCH   5   6
ENDBRANCH   4   5
ENDBRANCH   3   4
ENDBRANCH   2   3
ENDBRANCH   1   2
BRANCH   1  11
ATOM     11  C   UNL     1     -30.704 -22.246 -20.454  1.00  0.00     0.000 C 
BRANCH  11  12
ATOM     12  C   UNL     1     -31.877 -21.705 -21.286  1.00  0.00    -0.000 C 
BRANCH  12  13
ATOM     13  C   UNL     1     -31.978 -20.173 -21.241  1.00  0.00    -0.000 C 
BRANCH  13  14
ATOM     14  C   UNL     1     -32.653 -19.630 -22.510  1.00  0.00    -0.000 C 
BRANCH  14  15
ATOM     15  C   UNL     1     -32.237 -20.388 -23.784  1.00  0.00    -0.000 C 
BRANCH  15  16
ATOM     16  C   UNL     1     -31.647 -19.509 -24.901  1.00  0.00    -0.000 C 
BRANCH  16  17
ATOM     17  C   UNL     1     -31.317 -20.300 -26.176  1.00  0.00    -0.003 C 
ATOM     18  C   UNL     1     -30.576 -21.592 -25.844  1.00  0.00     0.004 C 
ENDBRANCH  16  17
ENDBRANCH  15  16
ENDBRANCH  14  15
ENDBRANCH  13  14
ENDBRANCH  12  13
ENDBRANCH  11  12
ENDBRANCH   1  11
TORSDOF 14
ENDMDL
