MODEL 1
REMARK VINA RESULT:    -6.601      0.000      0.000
REMARK INTER + INTRA:          -7.341
REMARK INTER:                  -7.180
REMARK INTRA:                  -0.161
REMARK UNBOUND:                -0.161
REMARK SMILES C[C@H]1[C@H]2C3=CC[C@H]4[C@]5(C)CC[C@@H](O)C(C)(C)[C@@H]5CC[C@@]4(C)[C@@]3(C)CC[C@@]2(C(=O)[O-])CC[C@@H]1C
REMARK SMILES IDX 26 1 30 2 25 3 3 4 31 5 24 6 4 7 2 8 32 9 22 10 5 11 1 12
REMARK SMILES IDX 33 13 23 14 20 15 6 16 7 17 19 18 21 19 8 20 18 21 17 22
REMARK SMILES IDX 10 23 9 24 14 25 11 26 12 27 15 28 16 29 27 30 28 31 29 32
REMARK SMILES IDX 13 33
REMARK H PARENT 13 34
REMARK Flexibility Score: inf
ROOT
ATOM      1  C   UNL     1      22.020 -15.602  29.181  1.00  0.00     0.017 C 
ATOM      2  C   UNL     1      21.788 -15.474  30.714  1.00  0.00     0.014 C 
ATOM      3  C   UNL     1      22.846 -14.381  28.663  1.00  0.00     0.014 C 
ATOM      4  C   UNL     1      20.663 -15.732  28.409  1.00  0.00     0.030 C 
ATOM      5  C   UNL     1      20.696 -14.482  31.120  1.00  0.00     0.004 C 
ATOM      6  C   UNL     1      22.668 -14.018  27.165  1.00  0.00     0.013 C 
ATOM      7  C   UNL     1      20.865 -15.758  26.885  1.00  0.00    -0.063 C 
ATOM      8  C   UNL     1      19.489 -14.797  28.888  1.00  0.00    -0.003 C 
ATOM      9  C   UNL     1      19.350 -14.781  30.437  1.00  0.00    -0.011 C 
ATOM     10  C   UNL     1      22.111 -15.157  26.221  1.00  0.00    -0.006 C 
ATOM     11  C   UNL     1      20.181 -16.676  26.196  1.00  0.00    -0.027 C 
ATOM     12  C   UNL     1      19.516 -13.356  28.345  1.00  0.00     0.008 C 
ATOM     13  C   UNL     1      18.713 -16.085  30.968  1.00  0.00     0.008 C 
ATOM     14  C   UNL     1      23.198 -16.296  26.103  1.00  0.00     0.017 C 
ATOM     15  C   UNL     1      21.755 -14.615  24.730  1.00  0.00    -0.020 C 
ATOM     16  C   UNL     1      20.285 -16.862  24.698  1.00  0.00     0.032 C 
ATOM     17  C   UNL     1      21.125 -15.818  23.852  1.00  0.00     0.006 C 
ATOM     18  C   UNL     1      20.720 -13.404  24.698  1.00  0.00     0.008 C 
ATOM     19  C   UNL     1      23.126 -14.118  24.085  1.00  0.00     0.012 C 
ATOM     20  C   UNL     1      20.298 -15.336  22.550  1.00  0.00    -0.025 C 
ATOM     21  C   UNL     1      19.287 -13.863  24.433  1.00  0.00     0.005 C 
ATOM     22  C   UNL     1      19.097 -14.349  22.959  1.00  0.00     0.003 C 
ATOM     23  C   UNL     1      21.287 -14.664  21.554  1.00  0.00     0.010 C 
ATOM     24  C   UNL     1      19.756 -16.613  21.799  1.00  0.00     0.012 C 
ATOM     25  C   UNL     1      18.647 -13.218  21.864  1.00  0.00    -0.006 C 
ATOM     26  C   UNL     1      20.598 -14.007  20.356  1.00  0.00     0.033 C 
ATOM     27  C   UNL     1      19.779 -12.825  20.849  1.00  0.00     0.120 C 
ATOM     28  C   UNL     1      18.154 -11.838  22.478  1.00  0.00     0.014 C 
ATOM     29  C   UNL     1      17.440 -13.797  21.063  1.00  0.00     0.014 C 
ENDROOT
BRANCH   1  30
ATOM     30  C   UNL     1      22.840 -16.892  29.033  1.00  0.00     0.048 C 
ATOM     31  O   UNL     1      24.099 -16.883  29.194  1.00  0.00    -0.550 OA
ATOM     32  O   UNL     1      22.213 -18.124  28.854  1.00  0.00    -0.550 OA
ENDBRANCH   1  30
BRANCH  27  33
ATOM     33  O   UNL     1      19.236 -12.122  19.739  1.00  0.00    -0.393 OA
ATOM     34  H   UNL     1      19.085 -11.189  20.039  1.00  0.00     0.210 HD
ENDBRANCH  27  33
TORSDOF 2
ENDMDL
MODEL 2
REMARK VINA RESULT:    -6.503      1.759      7.479
REMARK INTER + INTRA:          -7.234
REMARK INTER:                  -7.074
REMARK INTRA:                  -0.160
REMARK UNBOUND:                -0.161
REMARK SMILES C[C@H]1[C@H]2C3=CC[C@H]4[C@]5(C)CC[C@@H](O)C(C)(C)[C@@H]5CC[C@@]4(C)[C@@]3(C)CC[C@@]2(C(=O)[O-])CC[C@@H]1C
REMARK SMILES IDX 26 1 30 2 25 3 3 4 31 5 24 6 4 7 2 8 32 9 22 10 5 11 1 12
REMARK SMILES IDX 33 13 23 14 20 15 6 16 7 17 19 18 21 19 8 20 18 21 17 22
REMARK SMILES IDX 10 23 9 24 14 25 11 26 12 27 15 28 16 29 27 30 28 31 29 32
REMARK SMILES IDX 13 33
REMARK H PARENT 13 34
REMARK Flexibility Score: inf
ROOT
ATOM      1  C   UNL     1      20.629 -14.899  21.003  1.00  0.00     0.017 C 
ATOM      2  C   UNL     1      19.917 -14.343  19.736  1.00  0.00     0.014 C 
ATOM      3  C   UNL     1      20.228 -16.393  21.227  1.00  0.00     0.014 C 
ATOM      4  C   UNL     1      20.301 -14.033  22.266  1.00  0.00     0.030 C 
ATOM      5  C   UNL     1      18.442 -13.986  19.930  1.00  0.00     0.004 C 
ATOM      6  C   UNL     1      20.329 -16.920  22.683  1.00  0.00     0.013 C 
ATOM      7  C   UNL     1      20.912 -14.625  23.547  1.00  0.00    -0.063 C 
ATOM      8  C   UNL     1      18.807 -13.558  22.425  1.00  0.00    -0.003 C 
ATOM      9  C   UNL     1      18.226 -13.002  21.093  1.00  0.00    -0.011 C 
ATOM     10  C   UNL     1      21.267 -16.112  23.665  1.00  0.00    -0.006 C 
ATOM     11  C   UNL     1      21.528 -13.776  24.375  1.00  0.00    -0.027 C 
ATOM     12  C   UNL     1      17.837 -14.589  23.033  1.00  0.00     0.008 C 
ATOM     13  C   UNL     1      18.784 -11.598  20.769  1.00  0.00     0.008 C 
ATOM     14  C   UNL     1      22.766 -16.294  23.201  1.00  0.00     0.017 C 
ATOM     15  C   UNL     1      21.133 -16.608  25.208  1.00  0.00    -0.020 C 
ATOM     16  C   UNL     1      22.210 -14.191  25.660  1.00  0.00     0.032 C 
ATOM     17  C   UNL     1      22.065 -15.689  26.156  1.00  0.00     0.006 C 
ATOM     18  C   UNL     1      19.651 -16.554  25.791  1.00  0.00     0.008 C 
ATOM     19  C   UNL     1      21.629 -18.124  25.245  1.00  0.00     0.012 C 
ATOM     20  C   UNL     1      21.682 -15.739  27.725  1.00  0.00    -0.025 C 
ATOM     21  C   UNL     1      19.386 -15.285  26.601  1.00  0.00     0.005 C 
ATOM     22  C   UNL     1      20.155 -15.295  27.963  1.00  0.00     0.003 C 
ATOM     23  C   UNL     1      21.958 -17.175  28.258  1.00  0.00     0.010 C 
ATOM     24  C   UNL     1      22.677 -14.804  28.515  1.00  0.00     0.012 C 
ATOM     25  C   UNL     1      19.373 -15.950  29.244  1.00  0.00    -0.006 C 
ATOM     26  C   UNL     1      21.470 -17.401  29.691  1.00  0.00     0.033 C 
ATOM     27  C   UNL     1      19.950 -17.335  29.708  1.00  0.00     0.120 C 
ATOM     28  C   UNL     1      17.819 -16.209  29.030  1.00  0.00     0.014 C 
ATOM     29  C   UNL     1      19.489 -14.941  30.428  1.00  0.00     0.014 C 
ENDROOT
BRANCH   1  30
ATOM     30  C   UNL     1      22.124 -14.801  20.666  1.00  0.00     0.048 C 
ATOM     31  O   UNL     1      22.696 -15.703  19.982  1.00  0.00    -0.550 OA
ATOM     32  O   UNL     1      22.857 -13.658  20.983  1.00  0.00    -0.550 OA
ENDBRANCH   1  30
BRANCH  27  33
ATOM     33  O   UNL     1      19.470 -17.671  31.002  1.00  0.00    -0.393 OA
ATOM     34  H   UNL     1      18.483 -17.727  30.934  1.00  0.00     0.210 HD
ENDBRANCH  27  33
TORSDOF 2
ENDMDL
MODEL 3
REMARK VINA RESULT:    -6.361      2.089      3.706
REMARK INTER + INTRA:          -7.080
REMARK INTER:                  -6.923
REMARK INTRA:                  -0.157
REMARK UNBOUND:                -0.161
REMARK SMILES C[C@H]1[C@H]2C3=CC[C@H]4[C@]5(C)CC[C@@H](O)C(C)(C)[C@@H]5CC[C@@]4(C)[C@@]3(C)CC[C@@]2(C(=O)[O-])CC[C@@H]1C
REMARK SMILES IDX 26 1 30 2 25 3 3 4 31 5 24 6 4 7 2 8 32 9 22 10 5 11 1 12
REMARK SMILES IDX 33 13 23 14 20 15 6 16 7 17 19 18 21 19 8 20 18 21 17 22
REMARK SMILES IDX 10 23 9 24 14 25 11 26 12 27 15 28 16 29 27 30 28 31 29 32
REMARK SMILES IDX 13 33
REMARK H PARENT 13 34
REMARK Flexibility Score: inf
ROOT
ATOM      1  C   UNL     1      20.712 -15.298  30.162  1.00  0.00     0.017 C 
ATOM      2  C   UNL     1      21.311 -14.847  31.525  1.00  0.00     0.014 C 
ATOM      3  C   UNL     1      21.268 -16.706  29.774  1.00  0.00     0.014 C 
ATOM      4  C   UNL     1      21.004 -14.248  29.038  1.00  0.00     0.030 C 
ATOM      5  C   UNL     1      22.751 -14.331  31.457  1.00  0.00     0.004 C 
ATOM      6  C   UNL     1      21.280 -17.045  28.260  1.00  0.00     0.013 C 
ATOM      7  C   UNL     1      20.508 -14.722  27.661  1.00  0.00    -0.063 C 
ATOM      8  C   UNL     1      22.449 -13.619  29.020  1.00  0.00    -0.003 C 
ATOM      9  C   UNL     1      22.915 -13.189  30.441  1.00  0.00    -0.011 C 
ATOM     10  C   UNL     1      20.308 -16.208  27.338  1.00  0.00    -0.006 C 
ATOM     11  C   UNL     1      19.846 -13.834  26.915  1.00  0.00    -0.027 C 
ATOM     12  C   UNL     1      23.541 -14.466  28.340  1.00  0.00     0.008 C 
ATOM     13  C   UNL     1      22.208 -11.897  30.907  1.00  0.00     0.008 C 
ATOM     14  C   UNL     1      18.817 -16.588  27.695  1.00  0.00     0.017 C 
ATOM     15  C   UNL     1      20.555 -16.484  25.755  1.00  0.00    -0.020 C 
ATOM     16  C   UNL     1      19.261 -14.140  25.553  1.00  0.00     0.032 C 
ATOM     17  C   UNL     1      19.575 -15.540  24.881  1.00  0.00     0.006 C 
ATOM     18  C   UNL     1      22.047 -16.216  25.264  1.00  0.00     0.008 C 
ATOM     19  C   UNL     1      20.214 -18.022  25.501  1.00  0.00     0.012 C 
ATOM     20  C   UNL     1      20.026 -15.350  23.341  1.00  0.00    -0.025 C 
ATOM     21  C   UNL     1      22.217 -14.833  24.635  1.00  0.00     0.005 C 
ATOM     22  C   UNL     1      21.510 -14.738  23.243  1.00  0.00     0.003 C 
ATOM     23  C   UNL     1      19.917 -16.724  22.618  1.00  0.00     0.010 C 
ATOM     24  C   UNL     1      18.977 -14.417  22.622  1.00  0.00     0.012 C 
ATOM     25  C   UNL     1      22.406 -15.144  21.934  1.00  0.00    -0.006 C 
ATOM     26  C   UNL     1      20.484 -16.715  21.196  1.00  0.00     0.033 C 
ATOM     27  C   UNL     1      21.988 -16.504  21.270  1.00  0.00     0.120 C 
ATOM     28  C   UNL     1      23.967 -15.282  22.197  1.00  0.00     0.014 C 
ATOM     29  C   UNL     1      22.238 -14.005  20.882  1.00  0.00     0.014 C 
ENDROOT
BRANCH   1  30
ATOM     30  C   UNL     1      19.202 -15.384  30.428  1.00  0.00     0.048 C 
ATOM     31  O   UNL     1      18.699 -16.404  30.991  1.00  0.00    -0.550 OA
ATOM     32  O   UNL     1      18.367 -14.294  30.184  1.00  0.00    -0.550 OA
ENDBRANCH   1  30
BRANCH  27  33
ATOM     33  O   UNL     1      22.553 -16.623  19.971  1.00  0.00    -0.393 OA
ATOM     34  H   UNL     1      23.529 -16.743  20.095  1.00  0.00     0.210 HD
ENDBRANCH  27  33
TORSDOF 2
ENDMDL
MODEL 4
REMARK VINA RESULT:    -6.141      2.144      7.550
REMARK INTER + INTRA:          -6.841
REMARK INTER:                  -6.684
REMARK INTRA:                  -0.157
REMARK UNBOUND:                -0.161
REMARK SMILES C[C@H]1[C@H]2C3=CC[C@H]4[C@]5(C)CC[C@@H](O)C(C)(C)[C@@H]5CC[C@@]4(C)[C@@]3(C)CC[C@@]2(C(=O)[O-])CC[C@@H]1C
REMARK SMILES IDX 26 1 30 2 25 3 3 4 31 5 24 6 4 7 2 8 32 9 22 10 5 11 1 12
REMARK SMILES IDX 33 13 23 14 20 15 6 16 7 17 19 18 21 19 8 20 18 21 17 22
REMARK SMILES IDX 10 23 9 24 14 25 11 26 12 27 15 28 16 29 27 30 28 31 29 32
REMARK SMILES IDX 13 33
REMARK H PARENT 13 34
REMARK Flexibility Score: inf
ROOT
ATOM      1  C   UNL     1      21.851 -15.202  21.470  1.00  0.00     0.017 C 
ATOM      2  C   UNL     1      22.911 -15.231  20.332  1.00  0.00     0.014 C 
ATOM      3  C   UNL     1      21.748 -13.760  22.066  1.00  0.00     0.014 C 
ATOM      4  C   UNL     1      22.186 -16.249  22.585  1.00  0.00     0.030 C 
ATOM      5  C   UNL     1      24.367 -15.252  20.806  1.00  0.00     0.004 C 
ATOM      6  C   UNL     1      21.236 -13.657  23.527  1.00  0.00     0.013 C 
ATOM      7  C   UNL     1      21.208 -16.166  23.769  1.00  0.00    -0.063 C 
ATOM      8  C   UNL     1      23.699 -16.367  23.009  1.00  0.00    -0.003 C 
ATOM      9  C   UNL     1      24.648 -16.412  21.776  1.00  0.00    -0.011 C 
ATOM     10  C   UNL     1      20.415 -14.890  24.079  1.00  0.00    -0.006 C 
ATOM     11  C   UNL     1      20.730 -17.319  24.245  1.00  0.00    -0.027 C 
ATOM     12  C   UNL     1      24.197 -15.317  24.020  1.00  0.00     0.008 C 
ATOM     13  C   UNL     1      24.596 -17.783  21.065  1.00  0.00     0.008 C 
ATOM     14  C   UNL     1      19.039 -14.970  23.308  1.00  0.00     0.017 C 
ATOM     15  C   UNL     1      20.117 -14.779  25.674  1.00  0.00    -0.020 C 
ATOM     16  C   UNL     1      19.735 -17.420  25.381  1.00  0.00     0.032 C 
ATOM     17  C   UNL     1      19.341 -16.106  26.174  1.00  0.00     0.006 C 
ATOM     18  C   UNL     1      21.419 -14.613  26.577  1.00  0.00     0.008 C 
ATOM     19  C   UNL     1      19.200 -13.490  25.879  1.00  0.00     0.012 C 
ATOM     20  C   UNL     1      19.404 -16.358  27.769  1.00  0.00    -0.025 C 
ATOM     21  C   UNL     1      21.895 -15.938  27.170  1.00  0.00     0.005 C 
ATOM     22  C   UNL     1      20.924 -16.459  28.281  1.00  0.00     0.003 C 
ATOM     23  C   UNL     1      18.626 -15.214  28.483  1.00  0.00     0.010 C 
ATOM     24  C   UNL     1      18.602 -17.675  28.101  1.00  0.00     0.012 C 
ATOM     25  C   UNL     1      21.235 -15.975  29.814  1.00  0.00    -0.006 C 
ATOM     26  C   UNL     1      18.759 -15.242  30.008  1.00  0.00     0.033 C 
ATOM     27  C   UNL     1      20.202 -14.936  30.379  1.00  0.00     0.120 C 
ATOM     28  C   UNL     1      22.656 -15.298  30.037  1.00  0.00     0.014 C 
ATOM     29  C   UNL     1      21.209 -17.245  30.719  1.00  0.00     0.014 C 
ENDROOT
BRANCH   1  30
ATOM     30  C   UNL     1      20.538 -15.576  20.768  1.00  0.00     0.048 C 
ATOM     31  O   UNL     1      19.825 -14.689  20.207  1.00  0.00    -0.550 OA
ATOM     32  O   UNL     1      20.164 -16.910  20.611  1.00  0.00    -0.550 OA
ENDBRANCH   1  30
BRANCH  27  33
ATOM     33  O   UNL     1      20.320 -14.827  31.792  1.00  0.00    -0.393 OA
ATOM     34  H   UNL     1      20.612 -13.899  31.982  1.00  0.00     0.210 HD
ENDBRANCH  27  33
TORSDOF 2
ENDMDL
MODEL 5
REMARK VINA RESULT:    -6.020      2.367      7.365
REMARK INTER + INTRA:          -6.709
REMARK INTER:                  -6.548
REMARK INTRA:                  -0.161
REMARK UNBOUND:                -0.161
REMARK SMILES C[C@H]1[C@H]2C3=CC[C@H]4[C@]5(C)CC[C@@H](O)C(C)(C)[C@@H]5CC[C@@]4(C)[C@@]3(C)CC[C@@]2(C(=O)[O-])CC[C@@H]1C
REMARK SMILES IDX 26 1 30 2 25 3 3 4 31 5 24 6 4 7 2 8 32 9 22 10 5 11 1 12
REMARK SMILES IDX 33 13 23 14 20 15 6 16 7 17 19 18 21 19 8 20 18 21 17 22
REMARK SMILES IDX 10 23 9 24 14 25 11 26 12 27 15 28 16 29 27 30 28 31 29 32
REMARK SMILES IDX 13 33
REMARK H PARENT 13 34
REMARK Flexibility Score: inf
ROOT
ATOM      1  C   UNL     1      21.553 -16.394  23.261  1.00  0.00     0.017 C 
ATOM      2  C   UNL     1      20.924 -16.338  21.839  1.00  0.00     0.014 C 
ATOM      3  C   UNL     1      20.779 -17.423  24.146  1.00  0.00     0.014 C 
ATOM      4  C   UNL     1      21.574 -14.979  23.930  1.00  0.00     0.030 C 
ATOM      5  C   UNL     1      19.621 -15.539  21.743  1.00  0.00     0.004 C 
ATOM      6  C   UNL     1      20.847 -17.196  25.680  1.00  0.00     0.013 C 
ATOM      7  C   UNL     1      22.099 -15.029  25.375  1.00  0.00    -0.063 C 
ATOM      8  C   UNL     1      20.283 -14.094  23.746  1.00  0.00    -0.003 C 
ATOM      9  C   UNL     1      19.774 -14.105  22.275  1.00  0.00    -0.011 C 
ATOM     10  C   UNL     1      22.043 -16.313  26.214  1.00  0.00    -0.006 C 
ATOM     11  C   UNL     1      22.986 -14.097  25.733  1.00  0.00    -0.027 C 
ATOM     12  C   UNL     1      19.120 -14.395  24.709  1.00  0.00     0.008 C 
ATOM     13  C   UNL     1      20.666 -13.241  21.356  1.00  0.00     0.008 C 
ATOM     14  C   UNL     1      23.394 -17.100  25.991  1.00  0.00     0.017 C 
ATOM     15  C   UNL     1      21.900 -15.954  27.793  1.00  0.00    -0.020 C 
ATOM     16  C   UNL     1      23.628 -14.018  27.101  1.00  0.00     0.032 C 
ATOM     17  C   UNL     1      23.119 -14.992  28.243  1.00  0.00     0.006 C 
ATOM     18  C   UNL     1      20.539 -15.221  28.181  1.00  0.00     0.008 C 
ATOM     19  C   UNL     1      21.965 -17.338  28.584  1.00  0.00     0.012 C 
ATOM     20  C   UNL     1      22.860 -14.180  29.616  1.00  0.00    -0.025 C 
ATOM     21  C   UNL     1      20.694 -13.703  28.266  1.00  0.00     0.005 C 
ATOM     22  C   UNL     1      21.536 -13.274  29.513  1.00  0.00     0.003 C 
ATOM     23  C   UNL     1      22.775 -15.200  30.789  1.00  0.00     0.010 C 
ATOM     24  C   UNL     1      24.131 -13.297  29.925  1.00  0.00     0.012 C 
ATOM     25  C   UNL     1      20.708 -12.993  30.897  1.00  0.00    -0.006 C 
ATOM     26  C   UNL     1      22.357 -14.571  32.120  1.00  0.00     0.033 C 
ATOM     27  C   UNL     1      20.920 -14.087  32.004  1.00  0.00     0.120 C 
ATOM     28  C   UNL     1      19.130 -12.882  30.734  1.00  0.00     0.014 C 
ATOM     29  C   UNL     1      21.187 -11.619  31.458  1.00  0.00     0.014 C 
ENDROOT
BRANCH   1  30
ATOM     30  C   UNL     1      22.987 -16.886  23.015  1.00  0.00     0.048 C 
ATOM     31  O   UNL     1      23.242 -18.125  22.918  1.00  0.00    -0.550 OA
ATOM     32  O   UNL     1      24.020 -15.984  22.758  1.00  0.00    -0.550 OA
ENDBRANCH   1  30
BRANCH  27  33
ATOM     33  O   UNL     1      20.469 -13.618  33.267  1.00  0.00    -0.393 OA
ATOM     34  H   UNL     1      20.284 -12.650  33.162  1.00  0.00     0.210 HD
ENDBRANCH  27  33
TORSDOF 2
ENDMDL
MODEL 6
REMARK VINA RESULT:    -5.870      2.456      7.512
REMARK INTER + INTRA:          -6.546
REMARK INTER:                  -6.395
REMARK INTRA:                  -0.150
REMARK UNBOUND:                -0.161
REMARK SMILES C[C@H]1[C@H]2C3=CC[C@H]4[C@]5(C)CC[C@@H](O)C(C)(C)[C@@H]5CC[C@@]4(C)[C@@]3(C)CC[C@@]2(C(=O)[O-])CC[C@@H]1C
REMARK SMILES IDX 26 1 30 2 25 3 3 4 31 5 24 6 4 7 2 8 32 9 22 10 5 11 1 12
REMARK SMILES IDX 33 13 23 14 20 15 6 16 7 17 19 18 21 19 8 20 18 21 17 22
REMARK SMILES IDX 10 23 9 24 14 25 11 26 12 27 15 28 16 29 27 30 28 31 29 32
REMARK SMILES IDX 13 33
REMARK H PARENT 13 34
REMARK Flexibility Score: inf
ROOT
ATOM      1  C   UNL     1      19.513 -15.774  23.408  1.00  0.00     0.017 C 
ATOM      2  C   UNL     1      19.476 -15.378  21.903  1.00  0.00     0.014 C 
ATOM      3  C   UNL     1      18.120 -15.505  24.064  1.00  0.00     0.014 C 
ATOM      4  C   UNL     1      20.650 -15.012  24.168  1.00  0.00     0.030 C 
ATOM      5  C   UNL     1      19.565 -13.875  21.630  1.00  0.00     0.004 C 
ATOM      6  C   UNL     1      18.120 -15.263  25.597  1.00  0.00     0.013 C 
ATOM      7  C   UNL     1      20.638 -15.311  25.676  1.00  0.00    -0.063 C 
ATOM      8  C   UNL     1      20.832 -13.486  23.817  1.00  0.00    -0.003 C 
ATOM      9  C   UNL     1      20.801 -13.234  22.282  1.00  0.00    -0.011 C 
ATOM     10  C   UNL     1      19.373 -15.793  26.399  1.00  0.00    -0.006 C 
ATOM     11  C   UNL     1      21.815 -15.572  26.254  1.00  0.00    -0.027 C 
ATOM     12  C   UNL     1      19.874 -12.514  24.530  1.00  0.00     0.008 C 
ATOM     13  C   UNL     1      22.112 -13.690  21.602  1.00  0.00     0.008 C 
ATOM     14  C   UNL     1      19.365 -17.372  26.368  1.00  0.00     0.017 C 
ATOM     15  C   UNL     1      19.380 -15.298  27.948  1.00  0.00    -0.020 C 
ATOM     16  C   UNL     1      21.982 -15.918  27.717  1.00  0.00     0.032 C 
ATOM     17  C   UNL     1      20.726 -15.819  28.677  1.00  0.00     0.006 C 
ATOM     18  C   UNL     1      19.312 -13.717  28.135  1.00  0.00     0.008 C 
ATOM     19  C   UNL     1      18.092 -15.939  28.638  1.00  0.00     0.012 C 
ATOM     20  C   UNL     1      21.101 -15.027  30.035  1.00  0.00    -0.025 C 
ATOM     21  C   UNL     1      20.689 -13.092  28.353  1.00  0.00     0.005 C 
ATOM     22  C   UNL     1      21.274 -13.453  29.759  1.00  0.00     0.003 C 
ATOM     23  C   UNL     1      20.000 -15.312  31.098  1.00  0.00     0.010 C 
ATOM     24  C   UNL     1      22.424 -15.650  30.629  1.00  0.00     0.012 C 
ATOM     25  C   UNL     1      20.917 -12.431  30.987  1.00  0.00    -0.006 C 
ATOM     26  C   UNL     1      20.149 -14.479  32.372  1.00  0.00     0.033 C 
ATOM     27  C   UNL     1      19.903 -13.017  32.034  1.00  0.00     0.120 C 
ATOM     28  C   UNL     1      20.289 -11.037  30.550  1.00  0.00     0.014 C 
ATOM     29  C   UNL     1      22.252 -12.098  31.721  1.00  0.00     0.014 C 
ENDROOT
BRANCH   1  30
ATOM     30  C   UNL     1      19.804 -17.281  23.391  1.00  0.00     0.048 C 
ATOM     31  O   UNL     1      18.859 -18.125  23.310  1.00  0.00    -0.550 OA
ATOM     32  O   UNL     1      21.113 -17.758  23.326  1.00  0.00    -0.550 OA
ENDBRANCH   1  30
BRANCH  27  33
ATOM     33  O   UNL     1      19.906 -12.242  33.225  1.00  0.00    -0.393 OA
ATOM     34  H   UNL     1      19.211 -11.544  33.113  1.00  0.00     0.210 HD
ENDBRANCH  27  33
TORSDOF 2
ENDMDL
MODEL 7
REMARK VINA RESULT:    -5.454      2.441      7.671
REMARK INTER + INTRA:          -6.093
REMARK INTER:                  -5.936
REMARK INTRA:                  -0.157
REMARK UNBOUND:                -0.161
REMARK SMILES C[C@H]1[C@H]2C3=CC[C@H]4[C@]5(C)CC[C@@H](O)C(C)(C)[C@@H]5CC[C@@]4(C)[C@@]3(C)CC[C@@]2(C(=O)[O-])CC[C@@H]1C
REMARK SMILES IDX 26 1 30 2 25 3 3 4 31 5 24 6 4 7 2 8 32 9 22 10 5 11 1 12
REMARK SMILES IDX 33 13 23 14 20 15 6 16 7 17 19 18 21 19 8 20 18 21 17 22
REMARK SMILES IDX 10 23 9 24 14 25 11 26 12 27 15 28 16 29 27 30 28 31 29 32
REMARK SMILES IDX 13 33
REMARK H PARENT 13 34
REMARK Flexibility Score: inf
ROOT
ATOM      1  C   UNL     1      21.648 -15.542  23.075  1.00  0.00     0.017 C 
ATOM      2  C   UNL     1      22.391 -15.524  21.708  1.00  0.00     0.014 C 
ATOM      3  C   UNL     1      21.034 -14.135  23.367  1.00  0.00     0.014 C 
ATOM      4  C   UNL     1      22.600 -15.993  24.233  1.00  0.00     0.030 C 
ATOM      5  C   UNL     1      23.768 -14.856  21.732  1.00  0.00     0.004 C 
ATOM      6  C   UNL     1      20.799 -13.786  24.861  1.00  0.00     0.013 C 
ATOM      7  C   UNL     1      21.913 -15.920  25.608  1.00  0.00    -0.063 C 
ATOM      8  C   UNL     1      24.062 -15.404  24.213  1.00  0.00    -0.003 C 
ATOM      9  C   UNL     1      24.697 -15.470  22.794  1.00  0.00    -0.011 C 
ATOM     10  C   UNL     1      20.713 -15.000  25.867  1.00  0.00    -0.006 C 
ATOM     11  C   UNL     1      22.081 -16.962  26.427  1.00  0.00    -0.027 C 
ATOM     12  C   UNL     1      24.223 -13.989  24.798  1.00  0.00     0.008 C 
ATOM     13  C   UNL     1      25.122 -16.909  22.424  1.00  0.00     0.008 C 
ATOM     14  C   UNL     1      19.397 -15.819  25.564  1.00  0.00     0.017 C 
ATOM     15  C   UNL     1      20.688 -14.524  27.422  1.00  0.00    -0.020 C 
ATOM     16  C   UNL     1      21.452 -17.070  27.799  1.00  0.00     0.032 C 
ATOM     17  C   UNL     1      20.673 -15.821  28.387  1.00  0.00     0.006 C 
ATOM     18  C   UNL     1      21.925 -13.617  27.853  1.00  0.00     0.008 C 
ATOM     19  C   UNL     1      19.353 -13.672  27.618  1.00  0.00     0.012 C 
ATOM     20  C   UNL     1      21.124 -15.529  29.910  1.00  0.00    -0.025 C 
ATOM     21  C   UNL     1      23.030 -14.420  28.540  1.00  0.00     0.005 C 
ATOM     22  C   UNL     1      22.600 -14.895  29.967  1.00  0.00     0.003 C 
ATOM     23  C   UNL     1      20.067 -14.596  30.571  1.00  0.00     0.010 C 
ATOM     24  C   UNL     1      21.052 -16.879  30.723  1.00  0.00     0.012 C 
ATOM     25  C   UNL     1      22.938 -13.885  31.210  1.00  0.00    -0.006 C 
ATOM     26  C   UNL     1      20.470 -14.102  31.962  1.00  0.00     0.033 C 
ATOM     27  C   UNL     1      21.675 -13.185  31.827  1.00  0.00     0.120 C 
ATOM     28  C   UNL     1      23.935 -12.696  30.867  1.00  0.00     0.014 C 
ATOM     29  C   UNL     1      23.631 -14.730  32.323  1.00  0.00     0.014 C 
ENDROOT
BRANCH   1  30
ATOM     30  C   UNL     1      20.527 -16.573  22.877  1.00  0.00     0.048 C 
ATOM     31  O   UNL     1      19.411 -16.233  22.379  1.00  0.00    -0.550 OA
ATOM     32  O   UNL     1      20.752 -17.930  23.112  1.00  0.00    -0.550 OA
ENDBRANCH   1  30
BRANCH  27  33
ATOM     33  O   UNL     1      21.985 -12.612  33.091  1.00  0.00    -0.393 OA
ATOM     34  H   UNL     1      22.779 -13.096  33.435  1.00  0.00     0.210 HD
ENDBRANCH  27  33
TORSDOF 2
ENDMDL
MODEL 8
REMARK VINA RESULT:    -5.216      1.790      7.820
REMARK INTER + INTRA:          -5.835
REMARK INTER:                  -6.017
REMARK INTRA:                   0.183
REMARK UNBOUND:                -0.161
REMARK SMILES C[C@H]1[C@H]2C3=CC[C@H]4[C@]5(C)CC[C@@H](O)C(C)(C)[C@@H]5CC[C@@]4(C)[C@@]3(C)CC[C@@]2(C(=O)[O-])CC[C@@H]1C
REMARK SMILES IDX 26 1 30 2 25 3 3 4 31 5 24 6 4 7 2 8 32 9 22 10 5 11 1 12
REMARK SMILES IDX 33 13 23 14 20 15 6 16 7 17 19 18 21 19 8 20 18 21 17 22
REMARK SMILES IDX 10 23 9 24 14 25 11 26 12 27 15 28 16 29 27 30 28 31 29 32
REMARK SMILES IDX 13 33
REMARK H PARENT 13 34
REMARK Flexibility Score: inf
ROOT
ATOM      1  C   UNL     1      19.930 -14.320  21.177  1.00  0.00     0.017 C 
ATOM      2  C   UNL     1      20.561 -14.505  19.767  1.00  0.00     0.014 C 
ATOM      3  C   UNL     1      20.650 -13.158  21.935  1.00  0.00     0.014 C 
ATOM      4  C   UNL     1      19.985 -15.649  22.003  1.00  0.00     0.030 C 
ATOM      5  C   UNL     1      21.904 -15.240  19.753  1.00  0.00     0.004 C 
ATOM      6  C   UNL     1      20.596 -13.213  23.485  1.00  0.00     0.013 C 
ATOM      7  C   UNL     1      19.460 -15.462  23.436  1.00  0.00    -0.063 C 
ATOM      8  C   UNL     1      21.321 -16.481  21.911  1.00  0.00    -0.003 C 
ATOM      9  C   UNL     1      21.827 -16.611  20.446  1.00  0.00    -0.011 C 
ATOM     10  C   UNL     1      19.448 -14.091  24.123  1.00  0.00    -0.006 C 
ATOM     11  C   UNL     1      18.623 -16.393  23.904  1.00  0.00    -0.027 C 
ATOM     12  C   UNL     1      22.468 -16.011  22.826  1.00  0.00     0.008 C 
ATOM     13  C   UNL     1      20.981 -17.619  19.636  1.00  0.00     0.008 C 
ATOM     14  C   UNL     1      18.057 -13.406  23.822  1.00  0.00     0.017 C 
ATOM     15  C   UNL     1      19.611 -14.260  25.733  1.00  0.00    -0.020 C 
ATOM     16  C   UNL     1      17.988 -16.349  25.276  1.00  0.00     0.032 C 
ATOM     17  C   UNL     1      18.445 -15.227  26.297  1.00  0.00     0.006 C 
ATOM     18  C   UNL     1      21.009 -14.871  26.192  1.00  0.00     0.008 C 
ATOM     19  C   UNL     1      19.474 -12.800  26.362  1.00  0.00     0.012 C 
ATOM     20  C   UNL     1      18.748 -15.863  27.752  1.00  0.00    -0.025 C 
ATOM     21  C   UNL     1      20.935 -16.376  26.450  1.00  0.00     0.005 C 
ATOM     22  C   UNL     1      20.118 -16.704  27.743  1.00  0.00     0.003 C 
ATOM     23  C   UNL     1      18.780 -14.712  28.800  1.00  0.00     0.010 C 
ATOM     24  C   UNL     1      17.525 -16.769  28.167  1.00  0.00     0.012 C 
ATOM     25  C   UNL     1      20.961 -16.781  29.144  1.00  0.00    -0.006 C 
ATOM     26  C   UNL     1      19.231 -15.164  30.191  1.00  0.00     0.033 C 
ATOM     27  C   UNL     1      20.692 -15.581  30.121  1.00  0.00     0.120 C 
ATOM     28  C   UNL     1      22.542 -16.828  28.984  1.00  0.00     0.014 C 
ATOM     29  C   UNL     1      20.555 -18.106  29.861  1.00  0.00     0.014 C 
ENDROOT
BRANCH   1  30
ATOM     30  C   UNL     1      18.472 -13.936  20.887  1.00  0.00     0.048 C 
ATOM     31  O   UNL     1      17.530 -14.760  21.094  1.00  0.00    -0.550 OA
ATOM     32  O   UNL     1      18.133 -12.633  20.521  1.00  0.00    -0.550 OA
ENDBRANCH   1  30
BRANCH  27  33
ATOM     33  O   UNL     1      21.168 -15.879  31.427  1.00  0.00    -0.393 OA
ATOM     34  H   UNL     1      21.962 -16.463  31.313  1.00  0.00     0.210 HD
ENDBRANCH  27  33
TORSDOF 2
ENDMDL
MODEL 9
REMARK VINA RESULT:    -5.202      1.685      2.334
REMARK INTER + INTRA:          -5.820
REMARK INTER:                  -5.658
REMARK INTRA:                  -0.162
REMARK UNBOUND:                -0.161
REMARK SMILES C[C@H]1[C@H]2C3=CC[C@H]4[C@]5(C)CC[C@@H](O)C(C)(C)[C@@H]5CC[C@@]4(C)[C@@]3(C)CC[C@@]2(C(=O)[O-])CC[C@@H]1C
REMARK SMILES IDX 26 1 30 2 25 3 3 4 31 5 24 6 4 7 2 8 32 9 22 10 5 11 1 12
REMARK SMILES IDX 33 13 23 14 20 15 6 16 7 17 19 18 21 19 8 20 18 21 17 22
REMARK SMILES IDX 10 23 9 24 14 25 11 26 12 27 15 28 16 29 27 30 28 31 29 32
REMARK SMILES IDX 13 33
REMARK H PARENT 13 34
REMARK Flexibility Score: inf
ROOT
ATOM      1  C   UNL     1      21.490 -15.561  29.453  1.00  0.00     0.017 C 
ATOM      2  C   UNL     1      20.591 -15.518  30.722  1.00  0.00     0.014 C 
ATOM      3  C   UNL     1      21.752 -14.109  28.935  1.00  0.00     0.014 C 
ATOM      4  C   UNL     1      20.853 -16.452  28.334  1.00  0.00     0.030 C 
ATOM      5  C   UNL     1      19.104 -15.278  30.450  1.00  0.00     0.004 C 
ATOM      6  C   UNL     1      22.087 -13.970  27.426  1.00  0.00     0.013 C 
ATOM      7  C   UNL     1      21.676 -16.426  27.035  1.00  0.00    -0.063 C 
ATOM      8  C   UNL     1      19.300 -16.302  28.115  1.00  0.00    -0.003 C 
ATOM      9  C   UNL     1      18.518 -16.299  29.460  1.00  0.00    -0.011 C 
ATOM     10  C   UNL     1      22.620 -15.265  26.696  1.00  0.00    -0.006 C 
ATOM     11  C   UNL     1      21.897 -17.597  26.431  1.00  0.00    -0.027 C 
ATOM     12  C   UNL     1      18.857 -15.111  27.245  1.00  0.00     0.008 C 
ATOM     13  C   UNL     1      18.435 -17.714  30.076  1.00  0.00     0.008 C 
ATOM     14  C   UNL     1      24.050 -15.618  27.266  1.00  0.00     0.017 C 
ATOM     15  C   UNL     1      22.730 -15.075  25.084  1.00  0.00    -0.020 C 
ATOM     16  C   UNL     1      22.711 -17.758  25.167  1.00  0.00     0.032 C 
ATOM     17  C   UNL     1      23.211 -16.461  24.406  1.00  0.00     0.006 C 
ATOM     18  C   UNL     1      21.370 -14.639  24.378  1.00  0.00     0.008 C 
ATOM     19  C   UNL     1      23.812 -13.930  24.833  1.00  0.00     0.012 C 
ATOM     20  C   UNL     1      22.909 -16.572  22.822  1.00  0.00    -0.025 C 
ATOM     21  C   UNL     1      20.614 -15.825  23.779  1.00  0.00     0.005 C 
ATOM     22  C   UNL     1      21.340 -16.397  22.517  1.00  0.00     0.003 C 
ATOM     23  C   UNL     1      23.767 -15.508  22.077  1.00  0.00     0.010 C 
ATOM     24  C   UNL     1      23.438 -17.967  22.308  1.00  0.00     0.012 C 
ATOM     25  C   UNL     1      20.923 -15.751  21.073  1.00  0.00    -0.006 C 
ATOM     26  C   UNL     1      23.441 -15.393  20.586  1.00  0.00     0.033 C 
ATOM     27  C   UNL     1      22.032 -14.841  20.434  1.00  0.00     0.120 C 
ATOM     28  C   UNL     1      19.615 -14.849  21.085  1.00  0.00     0.014 C 
ATOM     29  C   UNL     1      20.629 -16.934  20.099  1.00  0.00     0.014 C 
ENDROOT
BRANCH   1  30
ATOM     30  C   UNL     1      22.803 -16.187  29.946  1.00  0.00     0.048 C 
ATOM     31  O   UNL     1      23.691 -15.476  30.508  1.00  0.00    -0.550 OA
ATOM     32  O   UNL     1      22.995 -17.568  29.914  1.00  0.00    -0.550 OA
ENDBRANCH   1  30
BRANCH  27  33
ATOM     33  O   UNL     1      21.757 -14.603  19.059  1.00  0.00    -0.393 OA
ATOM     34  H   UNL     1      21.959 -13.647  18.891  1.00  0.00     0.210 HD
ENDBRANCH  27  33
TORSDOF 2
ENDMDL
