MODEL 1
REMARK VINA RESULT:    -7.236      0.000      0.000
REMARK INTER + INTRA:          -8.795
REMARK INTER:                  -8.505
REMARK INTRA:                  -0.289
REMARK UNBOUND:                -0.289
REMARK SMILES O=c1c(O)c(-c2ccc(O)cc2)oc2cc(O)cc(O)c12
REMARK SMILES IDX 5 1 3 2 2 3 1 4 21 5 19 6 18 7 16 8 15 9 14 10 13 11 6 12
REMARK SMILES IDX 7 13 8 14 9 15 12 16 11 17 10 18 4 20 20 22 17 24
REMARK H PARENT 10 19 4 21 20 23 17 25
REMARK Flexibility Score: inf
ROOT
ATOM      1  C   UNL     1     -11.749  38.676  -9.984  1.00  0.00     0.180 A 
ATOM      2  C   UNL     1     -11.443  37.369 -10.399  1.00  0.00     0.208 A 
ATOM      3  C   UNL     1     -10.147  37.085 -10.861  1.00  0.00     0.238 A 
ATOM      4  O   UNL     1      -9.864  35.901 -11.180  1.00  0.00    -0.285 OA
ATOM      5  C   UNL     1      -9.179  38.116 -10.917  1.00  0.00     0.111 A 
ATOM      6  C   UNL     1      -7.848  37.951 -11.405  1.00  0.00     0.134 A 
ATOM      7  C   UNL     1      -6.935  39.009 -11.293  1.00  0.00     0.093 A 
ATOM      8  C   UNL     1      -7.323  40.241 -10.771  1.00  0.00     0.123 A 
ATOM      9  C   UNL     1      -8.638  40.432 -10.345  1.00  0.00     0.094 A 
ATOM     10  C   UNL     1      -9.561  39.386 -10.411  1.00  0.00     0.146 A 
ATOM     11  O   UNL     1     -10.800  39.605  -9.986  1.00  0.00    -0.452 OA
ENDROOT
BRANCH   1  12
ATOM     12  C   UNL     1     -13.098  39.057  -9.508  1.00  0.00     0.021 A 
ATOM     13  C   UNL     1     -13.446  38.972  -8.147  1.00  0.00     0.016 A 
ATOM     14  C   UNL     1     -14.734  39.313  -7.724  1.00  0.00     0.047 A 
ATOM     15  C   UNL     1     -15.692  39.732  -8.652  1.00  0.00     0.115 A 
ATOM     16  C   UNL     1     -14.072  39.458 -10.437  1.00  0.00     0.016 A 
ATOM     17  C   UNL     1     -15.359  39.801 -10.011  1.00  0.00     0.047 A 
BRANCH  15  18
ATOM     18  O   UNL     1     -16.971  40.071  -8.216  1.00  0.00    -0.508 OA
ATOM     19  H   UNL     1     -17.624  40.559  -8.819  1.00  0.00     0.293 HD
ENDBRANCH  15  18
ENDBRANCH   1  12
BRANCH   2  20
ATOM     20  O   UNL     1     -12.408  36.360 -10.315  1.00  0.00    -0.502 OA
ATOM     21  H   UNL     1     -13.138  36.362  -9.613  1.00  0.00     0.293 HD
ENDBRANCH   2  20
BRANCH   6  22
ATOM     22  O   UNL     1      -7.384  36.790 -12.030  1.00  0.00    -0.507 OA
ATOM     23  H   UNL     1      -7.279  36.676 -13.025  1.00  0.00     0.293 HD
ENDBRANCH   6  22
BRANCH   8  24
ATOM     24  O   UNL     1      -6.392  41.275 -10.688  1.00  0.00    -0.508 OA
ATOM     25  H   UNL     1      -5.895  41.608 -11.506  1.00  0.00     0.293 HD
ENDBRANCH   8  24
TORSDOF 5
ENDMDL
MODEL 2
REMARK VINA RESULT:    -7.077      8.253     12.334
REMARK INTER + INTRA:          -8.608
REMARK INTER:                  -8.344
REMARK INTRA:                  -0.264
REMARK UNBOUND:                -0.289
REMARK SMILES O=c1c(O)c(-c2ccc(O)cc2)oc2cc(O)cc(O)c12
REMARK SMILES IDX 5 1 3 2 2 3 1 4 21 5 19 6 18 7 16 8 15 9 14 10 13 11 6 12
REMARK SMILES IDX 7 13 8 14 9 15 12 16 11 17 10 18 4 20 20 22 17 24
REMARK H PARENT 10 19 4 21 20 23 17 25
REMARK Flexibility Score: inf
ROOT
ATOM      1  C   UNL     1     -15.771  35.973  -1.757  1.00  0.00     0.180 A 
ATOM      2  C   UNL     1     -16.939  36.669  -2.110  1.00  0.00     0.208 A 
ATOM      3  C   UNL     1     -17.699  37.282  -1.101  1.00  0.00     0.238 A 
ATOM      4  O   UNL     1     -18.715  37.949  -1.429  1.00  0.00    -0.285 OA
ATOM      5  C   UNL     1     -17.291  37.176   0.250  1.00  0.00     0.111 A 
ATOM      6  C   UNL     1     -18.007  37.722   1.358  1.00  0.00     0.134 A 
ATOM      7  C   UNL     1     -17.441  37.668   2.639  1.00  0.00     0.093 A 
ATOM      8  C   UNL     1     -16.221  37.033   2.862  1.00  0.00     0.123 A 
ATOM      9  C   UNL     1     -15.541  36.443   1.795  1.00  0.00     0.094 A 
ATOM     10  C   UNL     1     -16.061  36.511   0.500  1.00  0.00     0.146 A 
ATOM     11  O   UNL     1     -15.379  35.947  -0.489  1.00  0.00    -0.452 OA
ENDROOT
BRANCH   1  12
ATOM     12  C   UNL     1     -14.931  35.282  -2.761  1.00  0.00     0.021 A 
ATOM     13  C   UNL     1     -15.020  33.891  -2.959  1.00  0.00     0.016 A 
ATOM     14  C   UNL     1     -14.199  33.256  -3.896  1.00  0.00     0.047 A 
ATOM     15  C   UNL     1     -13.273  33.995  -4.636  1.00  0.00     0.115 A 
ATOM     16  C   UNL     1     -13.983  36.015  -3.495  1.00  0.00     0.016 A 
ATOM     17  C   UNL     1     -13.164  35.377  -4.432  1.00  0.00     0.047 A 
BRANCH  15  18
ATOM     18  O   UNL     1     -12.463  33.350  -5.568  1.00  0.00    -0.508 OA
ATOM     19  H   UNL     1     -12.119  32.409  -5.409  1.00  0.00     0.293 HD
ENDBRANCH  15  18
ENDBRANCH   1  12
BRANCH   2  20
ATOM     20  O   UNL     1     -17.313  36.781  -3.453  1.00  0.00    -0.502 OA
ATOM     21  H   UNL     1     -18.243  36.548  -3.780  1.00  0.00     0.293 HD
ENDBRANCH   2  20
BRANCH   6  22
ATOM     22  O   UNL     1     -19.277  38.297   1.260  1.00  0.00    -0.507 OA
ATOM     23  H   UNL     1     -19.701  38.876   1.967  1.00  0.00     0.293 HD
ENDBRANCH   6  22
BRANCH   8  24
ATOM     24  O   UNL     1     -15.696  36.986   4.152  1.00  0.00    -0.508 OA
ATOM     25  H   UNL     1     -14.733  36.723   4.322  1.00  0.00     0.293 HD
ENDBRANCH   8  24
TORSDOF 5
ENDMDL
MODEL 3
REMARK VINA RESULT:    -7.017      4.396      6.831
REMARK INTER + INTRA:          -8.536
REMARK INTER:                  -8.311
REMARK INTRA:                  -0.226
REMARK UNBOUND:                -0.289
REMARK SMILES O=c1c(O)c(-c2ccc(O)cc2)oc2cc(O)cc(O)c12
REMARK SMILES IDX 5 1 3 2 2 3 1 4 21 5 19 6 18 7 16 8 15 9 14 10 13 11 6 12
REMARK SMILES IDX 7 13 8 14 9 15 12 16 11 17 10 18 4 20 20 22 17 24
REMARK H PARENT 10 19 4 21 20 23 17 25
REMARK Flexibility Score: inf
ROOT
ATOM      1  C   UNL     1     -12.686  39.116  -5.994  1.00  0.00     0.180 A 
ATOM      2  C   UNL     1     -14.044  38.757  -5.944  1.00  0.00     0.208 A 
ATOM      3  C   UNL     1     -14.920  39.269  -6.914  1.00  0.00     0.238 A 
ATOM      4  O   UNL     1     -16.124  38.902  -6.896  1.00  0.00    -0.285 OA
ATOM      5  C   UNL     1     -14.432  40.146  -7.912  1.00  0.00     0.111 A 
ATOM      6  C   UNL     1     -15.238  40.756  -8.920  1.00  0.00     0.134 A 
ATOM      7  C   UNL     1     -14.626  41.504  -9.934  1.00  0.00     0.093 A 
ATOM      8  C   UNL     1     -13.248  41.717  -9.941  1.00  0.00     0.123 A 
ATOM      9  C   UNL     1     -12.457  41.174  -8.927  1.00  0.00     0.094 A 
ATOM     10  C   UNL     1     -13.034  40.394  -7.921  1.00  0.00     0.146 A 
ATOM     11  O   UNL     1     -12.246  39.888  -6.981  1.00  0.00    -0.452 OA
ENDROOT
BRANCH   1  12
ATOM     12  C   UNL     1     -11.707  38.637  -4.993  1.00  0.00     0.021 A 
ATOM     13  C   UNL     1     -11.201  39.491  -3.994  1.00  0.00     0.016 A 
ATOM     14  C   UNL     1     -10.258  39.023  -3.075  1.00  0.00     0.047 A 
ATOM     15  C   UNL     1      -9.798  37.705  -3.146  1.00  0.00     0.115 A 
ATOM     16  C   UNL     1     -11.224  37.319  -5.071  1.00  0.00     0.016 A 
ATOM     17  C   UNL     1     -10.282  36.854  -4.148  1.00  0.00     0.047 A 
BRANCH  15  18
ATOM     18  O   UNL     1      -8.860  37.252  -2.221  1.00  0.00    -0.508 OA
ATOM     19  H   UNL     1      -8.357  36.383  -2.360  1.00  0.00     0.293 HD
ENDBRANCH  15  18
ENDBRANCH   1  12
BRANCH   2  20
ATOM     20  O   UNL     1     -14.502  37.872  -4.963  1.00  0.00    -0.502 OA
ATOM     21  H   UNL     1     -13.874  37.339  -4.374  1.00  0.00     0.293 HD
ENDBRANCH   2  20
BRANCH   6  22
ATOM     22  O   UNL     1     -16.634  40.683  -8.953  1.00  0.00    -0.507 OA
ATOM     23  H   UNL     1     -17.190  40.712  -9.793  1.00  0.00     0.293 HD
ENDBRANCH   6  22
BRANCH   8  24
ATOM     24  O   UNL     1     -12.676  42.478 -10.958  1.00  0.00    -0.508 OA
ATOM     25  H   UNL     1     -11.688  42.412 -11.177  1.00  0.00     0.293 HD
ENDBRANCH   8  24
TORSDOF 5
ENDMDL
MODEL 4
REMARK VINA RESULT:    -6.930      3.690      6.607
REMARK INTER + INTRA:          -8.435
REMARK INTER:                  -8.151
REMARK INTRA:                  -0.284
REMARK UNBOUND:                -0.289
REMARK SMILES O=c1c(O)c(-c2ccc(O)cc2)oc2cc(O)cc(O)c12
REMARK SMILES IDX 5 1 3 2 2 3 1 4 21 5 19 6 18 7 16 8 15 9 14 10 13 11 6 12
REMARK SMILES IDX 7 13 8 14 9 15 12 16 11 17 10 18 4 20 20 22 17 24
REMARK H PARENT 10 19 4 21 20 23 17 25
REMARK Flexibility Score: inf
ROOT
ATOM      1  C   UNL     1     -11.574  39.084  -6.708  1.00  0.00     0.180 A 
ATOM      2  C   UNL     1     -10.851  39.273  -7.898  1.00  0.00     0.208 A 
ATOM      3  C   UNL     1     -11.539  39.659  -9.059  1.00  0.00     0.238 A 
ATOM      4  O   UNL     1     -10.879  39.880 -10.108  1.00  0.00    -0.285 OA
ATOM      5  C   UNL     1     -12.943  39.834  -9.020  1.00  0.00     0.111 A 
ATOM      6  C   UNL     1     -13.747  40.183 -10.147  1.00  0.00     0.134 A 
ATOM      7  C   UNL     1     -15.109  40.457  -9.964  1.00  0.00     0.093 A 
ATOM      8  C   UNL     1     -15.708  40.331  -8.712  1.00  0.00     0.123 A 
ATOM      9  C   UNL     1     -14.943  39.932  -7.615  1.00  0.00     0.094 A 
ATOM     10  C   UNL     1     -13.575  39.687  -7.758  1.00  0.00     0.146 A 
ATOM     11  O   UNL     1     -12.881  39.319  -6.688  1.00  0.00    -0.452 OA
ENDROOT
BRANCH   1  12
ATOM     12  C   UNL     1     -10.923  38.654  -5.450  1.00  0.00     0.021 A 
ATOM     13  C   UNL     1     -10.334  39.585  -4.574  1.00  0.00     0.016 A 
ATOM     14  C   UNL     1      -9.703  39.154  -3.403  1.00  0.00     0.047 A 
ATOM     15  C   UNL     1      -9.640  37.792  -3.098  1.00  0.00     0.115 A 
ATOM     16  C   UNL     1     -10.838  37.285  -5.146  1.00  0.00     0.016 A 
ATOM     17  C   UNL     1     -10.207  36.857  -3.973  1.00  0.00     0.047 A 
BRANCH  15  18
ATOM     18  O   UNL     1      -9.011  37.377  -1.926  1.00  0.00    -0.508 OA
ATOM     19  H   UNL     1      -9.517  37.300  -1.051  1.00  0.00     0.293 HD
ENDBRANCH  15  18
ENDBRANCH   1  12
BRANCH   2  20
ATOM     20  O   UNL     1      -9.461  39.117  -7.909  1.00  0.00    -0.502 OA
ATOM     21  H   UNL     1      -8.990  38.402  -7.368  1.00  0.00     0.293 HD
ENDBRANCH   2  20
BRANCH   6  22
ATOM     22  O   UNL     1     -13.268  40.247 -11.459  1.00  0.00    -0.507 OA
ATOM     23  H   UNL     1     -13.838  40.146 -12.284  1.00  0.00     0.293 HD
ENDBRANCH   6  22
BRANCH   8  24
ATOM     24  O   UNL     1     -17.068  40.597  -8.570  1.00  0.00    -0.508 OA
ATOM     25  H   UNL     1     -17.564  41.184  -9.230  1.00  0.00     0.293 HD
ENDBRANCH   8  24
TORSDOF 5
ENDMDL
MODEL 5
REMARK VINA RESULT:    -6.898      8.615     11.053
REMARK INTER + INTRA:          -8.397
REMARK INTER:                  -8.272
REMARK INTRA:                  -0.125
REMARK UNBOUND:                -0.289
REMARK SMILES O=c1c(O)c(-c2ccc(O)cc2)oc2cc(O)cc(O)c12
REMARK SMILES IDX 5 1 3 2 2 3 1 4 21 5 19 6 18 7 16 8 15 9 14 10 13 11 6 12
REMARK SMILES IDX 7 13 8 14 9 15 12 16 11 17 10 18 4 20 20 22 17 24
REMARK H PARENT 10 19 4 21 20 23 17 25
REMARK Flexibility Score: inf
ROOT
ATOM      1  C   UNL     1     -14.982  35.398  -0.404  1.00  0.00     0.180 A 
ATOM      2  C   UNL     1     -14.084  34.341  -0.633  1.00  0.00     0.208 A 
ATOM      3  C   UNL     1     -13.777  33.983  -1.956  1.00  0.00     0.238 A 
ATOM      4  O   UNL     1     -12.931  33.072  -2.155  1.00  0.00    -0.285 OA
ATOM      5  C   UNL     1     -14.384  34.674  -3.032  1.00  0.00     0.111 A 
ATOM      6  C   UNL     1     -14.177  34.368  -4.411  1.00  0.00     0.134 A 
ATOM      7  C   UNL     1     -14.727  35.202  -5.393  1.00  0.00     0.093 A 
ATOM      8  C   UNL     1     -15.529  36.288  -5.048  1.00  0.00     0.123 A 
ATOM      9  C   UNL     1     -15.787  36.562  -3.704  1.00  0.00     0.094 A 
ATOM     10  C   UNL     1     -15.223  35.770  -2.701  1.00  0.00     0.146 A 
ATOM     11  O   UNL     1     -15.484  36.069  -1.434  1.00  0.00    -0.452 OA
ENDROOT
BRANCH   1  12
ATOM     12  C   UNL     1     -15.374  35.817   0.960  1.00  0.00     0.021 A 
ATOM     13  C   UNL     1     -16.033  34.936   1.838  1.00  0.00     0.016 A 
ATOM     14  C   UNL     1     -16.416  35.362   3.113  1.00  0.00     0.047 A 
ATOM     15  C   UNL     1     -16.158  36.673   3.524  1.00  0.00     0.115 A 
ATOM     16  C   UNL     1     -15.137  37.139   1.373  1.00  0.00     0.016 A 
ATOM     17  C   UNL     1     -15.520  37.562   2.650  1.00  0.00     0.047 A 
BRANCH  15  18
ATOM     18  O   UNL     1     -16.543  37.083   4.799  1.00  0.00    -0.508 OA
ATOM     19  H   UNL     1     -16.907  38.014   4.968  1.00  0.00     0.293 HD
ENDBRANCH  15  18
ENDBRANCH   1  12
BRANCH   2  20
ATOM     20  O   UNL     1     -13.479  33.686   0.443  1.00  0.00    -0.502 OA
ATOM     21  H   UNL     1     -13.674  33.929   1.407  1.00  0.00     0.293 HD
ENDBRANCH   2  20
BRANCH   6  22
ATOM     22  O   UNL     1     -13.468  33.252  -4.865  1.00  0.00    -0.507 OA
ATOM     23  H   UNL     1     -12.659  33.290  -5.465  1.00  0.00     0.293 HD
ENDBRANCH   6  22
BRANCH   8  24
ATOM     24  O   UNL     1     -16.072  37.087  -6.052  1.00  0.00    -0.508 OA
ATOM     25  H   UNL     1     -15.825  36.955  -7.026  1.00  0.00     0.293 HD
ENDBRANCH   8  24
TORSDOF 5
ENDMDL
MODEL 6
REMARK VINA RESULT:    -6.883     12.598     14.295
REMARK INTER + INTRA:          -8.380
REMARK INTER:                  -8.125
REMARK INTRA:                  -0.255
REMARK UNBOUND:                -0.289
REMARK SMILES O=c1c(O)c(-c2ccc(O)cc2)oc2cc(O)cc(O)c12
REMARK SMILES IDX 5 1 3 2 2 3 1 4 21 5 19 6 18 7 16 8 15 9 14 10 13 11 6 12
REMARK SMILES IDX 7 13 8 14 9 15 12 16 11 17 10 18 4 20 20 22 17 24
REMARK H PARENT 10 19 4 21 20 23 17 25
REMARK Flexibility Score: inf
ROOT
ATOM      1  C   UNL     1     -16.569  47.342   0.041  1.00  0.00     0.180 A 
ATOM      2  C   UNL     1     -17.102  47.781  -1.182  1.00  0.00     0.208 A 
ATOM      3  C   UNL     1     -16.225  48.155  -2.213  1.00  0.00     0.238 A 
ATOM      4  O   UNL     1     -16.708  48.496  -3.325  1.00  0.00    -0.285 OA
ATOM      5  C   UNL     1     -14.826  48.101  -2.002  1.00  0.00     0.111 A 
ATOM      6  C   UNL     1     -13.846  48.495  -2.962  1.00  0.00     0.134 A 
ATOM      7  C   UNL     1     -12.489  48.276  -2.693  1.00  0.00     0.093 A 
ATOM      8  C   UNL     1     -12.074  47.740  -1.475  1.00  0.00     0.123 A 
ATOM      9  C   UNL     1     -13.021  47.406  -0.505  1.00  0.00     0.094 A 
ATOM     10  C   UNL     1     -14.383  47.579  -0.758  1.00  0.00     0.146 A 
ATOM     11  O   UNL     1     -15.253  47.240   0.186  1.00  0.00    -0.452 OA
ENDROOT
BRANCH   1  12
ATOM     12  C   UNL     1     -17.428  46.954   1.182  1.00  0.00     0.021 A 
ATOM     13  C   UNL     1     -18.052  45.693   1.235  1.00  0.00     0.016 A 
ATOM     14  C   UNL     1     -18.880  45.359   2.311  1.00  0.00     0.047 A 
ATOM     15  C   UNL     1     -19.105  46.279   3.339  1.00  0.00     0.115 A 
ATOM     16  C   UNL     1     -17.676  47.881   2.209  1.00  0.00     0.016 A 
ATOM     17  C   UNL     1     -18.504  47.542   3.284  1.00  0.00     0.047 A 
BRANCH  15  18
ATOM     18  O   UNL     1     -19.930  45.930   4.406  1.00  0.00    -0.508 OA
ATOM     19  H   UNL     1     -19.648  46.086   5.367  1.00  0.00     0.293 HD
ENDBRANCH  15  18
ENDBRANCH   1  12
BRANCH   2  20
ATOM     20  O   UNL     1     -18.486  47.806  -1.378  1.00  0.00    -0.502 OA
ATOM     21  H   UNL     1     -18.908  48.105  -2.249  1.00  0.00     0.293 HD
ENDBRANCH   2  20
BRANCH   6  22
ATOM     22  O   UNL     1     -14.149  49.125  -4.173  1.00  0.00    -0.507 OA
ATOM     23  H   UNL     1     -15.080  49.354  -4.484  1.00  0.00     0.293 HD
ENDBRANCH   6  22
BRANCH   8  24
ATOM     24  O   UNL     1     -10.714  47.550  -1.236  1.00  0.00    -0.508 OA
ATOM     25  H   UNL     1     -10.065  47.359  -1.990  1.00  0.00     0.293 HD
ENDBRANCH   8  24
TORSDOF 5
ENDMDL
MODEL 7
REMARK VINA RESULT:    -6.865      5.406      8.708
REMARK INTER + INTRA:          -8.358
REMARK INTER:                  -8.084
REMARK INTRA:                  -0.273
REMARK UNBOUND:                -0.289
REMARK SMILES O=c1c(O)c(-c2ccc(O)cc2)oc2cc(O)cc(O)c12
REMARK SMILES IDX 5 1 3 2 2 3 1 4 21 5 19 6 18 7 16 8 15 9 14 10 13 11 6 12
REMARK SMILES IDX 7 13 8 14 9 15 12 16 11 17 10 18 4 20 20 22 17 24
REMARK H PARENT 10 19 4 21 20 23 17 25
REMARK Flexibility Score: inf
ROOT
ATOM      1  C   UNL     1     -15.072  38.889  -5.741  1.00  0.00     0.180 A 
ATOM      2  C   UNL     1     -14.432  37.638  -5.718  1.00  0.00     0.208 A 
ATOM      3  C   UNL     1     -14.777  36.714  -4.718  1.00  0.00     0.238 A 
ATOM      4  O   UNL     1     -14.240  35.575  -4.735  1.00  0.00    -0.285 OA
ATOM      5  C   UNL     1     -15.745  37.059  -3.745  1.00  0.00     0.111 A 
ATOM      6  C   UNL     1     -16.142  36.217  -2.663  1.00  0.00     0.134 A 
ATOM      7  C   UNL     1     -17.203  36.609  -1.836  1.00  0.00     0.093 A 
ATOM      8  C   UNL     1     -17.836  37.839  -2.011  1.00  0.00     0.123 A 
ATOM      9  C   UNL     1     -17.416  38.696  -3.029  1.00  0.00     0.094 A 
ATOM     10  C   UNL     1     -16.385  38.318  -3.892  1.00  0.00     0.146 A 
ATOM     11  O   UNL     1     -16.022  39.157  -4.854  1.00  0.00    -0.452 OA
ENDROOT
BRANCH   1  12
ATOM     12  C   UNL     1     -14.744  39.923  -6.749  1.00  0.00     0.021 A 
ATOM     13  C   UNL     1     -13.862  40.979  -6.454  1.00  0.00     0.016 A 
ATOM     14  C   UNL     1     -13.587  41.959  -7.413  1.00  0.00     0.047 A 
ATOM     15  C   UNL     1     -14.196  41.905  -8.670  1.00  0.00     0.115 A 
ATOM     16  C   UNL     1     -15.369  39.887  -8.007  1.00  0.00     0.016 A 
ATOM     17  C   UNL     1     -15.090  40.867  -8.964  1.00  0.00     0.047 A 
BRANCH  15  18
ATOM     18  O   UNL     1     -13.910  42.886  -9.616  1.00  0.00    -0.508 OA
ATOM     19  H   UNL     1     -12.961  43.069  -9.920  1.00  0.00     0.293 HD
ENDBRANCH  15  18
ENDBRANCH   1  12
BRANCH   2  20
ATOM     20  O   UNL     1     -13.495  37.308  -6.702  1.00  0.00    -0.502 OA
ATOM     21  H   UNL     1     -12.880  36.507  -6.621  1.00  0.00     0.293 HD
ENDBRANCH   2  20
BRANCH   6  22
ATOM     22  O   UNL     1     -15.515  35.009  -2.343  1.00  0.00    -0.507 OA
ATOM     23  H   UNL     1     -14.627  34.931  -1.873  1.00  0.00     0.293 HD
ENDBRANCH   6  22
BRANCH   8  24
ATOM     24  O   UNL     1     -18.878  38.202  -1.160  1.00  0.00    -0.508 OA
ATOM     25  H   UNL     1     -18.744  38.270  -0.158  1.00  0.00     0.293 HD
ENDBRANCH   8  24
TORSDOF 5
ENDMDL
MODEL 8
REMARK VINA RESULT:    -6.807      7.504     11.365
REMARK INTER + INTRA:          -8.290
REMARK INTER:                  -8.010
REMARK INTRA:                  -0.280
REMARK UNBOUND:                -0.289
REMARK SMILES O=c1c(O)c(-c2ccc(O)cc2)oc2cc(O)cc(O)c12
REMARK SMILES IDX 5 1 3 2 2 3 1 4 21 5 19 6 18 7 16 8 15 9 14 10 13 11 6 12
REMARK SMILES IDX 7 13 8 14 9 15 12 16 11 17 10 18 4 20 20 22 17 24
REMARK H PARENT 10 19 4 21 20 23 17 25
REMARK Flexibility Score: inf
ROOT
ATOM      1  C   UNL     1     -13.528  36.708  -1.725  1.00  0.00     0.180 A 
ATOM      2  C   UNL     1     -13.822  35.743  -0.747  1.00  0.00     0.208 A 
ATOM      3  C   UNL     1     -15.104  35.721  -0.175  1.00  0.00     0.238 A 
ATOM      4  O   UNL     1     -15.378  34.821   0.661  1.00  0.00    -0.285 OA
ATOM      5  C   UNL     1     -16.070  36.675  -0.576  1.00  0.00     0.111 A 
ATOM      6  C   UNL     1     -17.387  36.771  -0.033  1.00  0.00     0.134 A 
ATOM      7  C   UNL     1     -18.302  37.670  -0.598  1.00  0.00     0.093 A 
ATOM      8  C   UNL     1     -17.929  38.519  -1.638  1.00  0.00     0.123 A 
ATOM      9  C   UNL     1     -16.626  38.475  -2.137  1.00  0.00     0.094 A 
ATOM     10  C   UNL     1     -15.702  37.564  -1.619  1.00  0.00     0.146 A 
ATOM     11  O   UNL     1     -14.476  37.546  -2.127  1.00  0.00    -0.452 OA
ENDROOT
BRANCH   1  12
ATOM     12  C   UNL     1     -12.193  36.809  -2.356  1.00  0.00     0.021 A 
ATOM     13  C   UNL     1     -11.125  37.463  -1.713  1.00  0.00     0.016 A 
ATOM     14  C   UNL     1      -9.880  37.568  -2.339  1.00  0.00     0.047 A 
ATOM     15  C   UNL     1      -9.686  37.035  -3.616  1.00  0.00     0.115 A 
ATOM     16  C   UNL     1     -11.996  36.294  -3.649  1.00  0.00     0.016 A 
ATOM     17  C   UNL     1     -10.748  36.400  -4.271  1.00  0.00     0.047 A 
BRANCH  15  18
ATOM     18  O   UNL     1      -8.439  37.145  -4.227  1.00  0.00    -0.508 OA
ATOM     19  H   UNL     1      -7.812  37.913  -4.016  1.00  0.00     0.293 HD
ENDBRANCH  15  18
ENDBRANCH   1  12
BRANCH   2  20
ATOM     20  O   UNL     1     -12.860  34.796  -0.381  1.00  0.00    -0.502 OA
ATOM     21  H   UNL     1     -12.491  34.116  -1.034  1.00  0.00     0.293 HD
ENDBRANCH   2  20
BRANCH   6  22
ATOM     22  O   UNL     1     -17.834  36.034   1.067  1.00  0.00    -0.507 OA
ATOM     23  H   UNL     1     -18.627  35.412   1.058  1.00  0.00     0.293 HD
ENDBRANCH   6  22
BRANCH   8  24
ATOM     24  O   UNL     1     -18.861  39.410  -2.165  1.00  0.00    -0.508 OA
ATOM     25  H   UNL     1     -19.420  40.008  -1.567  1.00  0.00     0.293 HD
ENDBRANCH   8  24
TORSDOF 5
ENDMDL
MODEL 9
REMARK VINA RESULT:    -6.793      4.576      6.159
REMARK INTER + INTRA:          -8.274
REMARK INTER:                  -8.038
REMARK INTRA:                  -0.236
REMARK UNBOUND:                -0.289
REMARK SMILES O=c1c(O)c(-c2ccc(O)cc2)oc2cc(O)cc(O)c12
REMARK SMILES IDX 5 1 3 2 2 3 1 4 21 5 19 6 18 7 16 8 15 9 14 10 13 11 6 12
REMARK SMILES IDX 7 13 8 14 9 15 12 16 11 17 10 18 4 20 20 22 17 24
REMARK H PARENT 10 19 4 21 20 23 17 25
REMARK Flexibility Score: inf
ROOT
ATOM      1  C   UNL     1     -11.130  39.172  -5.741  1.00  0.00     0.180 A 
ATOM      2  C   UNL     1     -10.576  38.327  -6.717  1.00  0.00     0.208 A 
ATOM      3  C   UNL     1     -10.851  38.578  -8.071  1.00  0.00     0.238 A 
ATOM      4  O   UNL     1     -10.308  37.851  -8.944  1.00  0.00    -0.285 OA
ATOM      5  C   UNL     1     -11.691  39.659  -8.430  1.00  0.00     0.111 A 
ATOM      6  C   UNL     1     -12.071  39.980  -9.769  1.00  0.00     0.134 A 
ATOM      7  C   UNL     1     -12.800  41.150 -10.017  1.00  0.00     0.093 A 
ATOM      8  C   UNL     1     -13.219  41.973  -8.973  1.00  0.00     0.123 A 
ATOM      9  C   UNL     1     -12.904  41.637  -7.656  1.00  0.00     0.094 A 
ATOM     10  C   UNL     1     -12.147  40.496  -7.379  1.00  0.00     0.146 A 
ATOM     11  O   UNL     1     -11.861  40.216  -6.113  1.00  0.00    -0.452 OA
ENDROOT
BRANCH   1  12
ATOM     12  C   UNL     1     -10.906  38.958  -4.293  1.00  0.00     0.021 A 
ATOM     13  C   UNL     1     -11.911  38.422  -3.467  1.00  0.00     0.016 A 
ATOM     14  C   UNL     1     -11.685  38.252  -2.098  1.00  0.00     0.047 A 
ATOM     15  C   UNL     1     -10.461  38.624  -1.535  1.00  0.00     0.115 A 
ATOM     16  C   UNL     1      -9.685  39.348  -3.716  1.00  0.00     0.016 A 
ATOM     17  C   UNL     1      -9.462  39.175  -2.347  1.00  0.00     0.047 A 
BRANCH  15  18
ATOM     18  O   UNL     1     -10.249  38.446  -0.169  1.00  0.00    -0.508 OA
ATOM     19  H   UNL     1      -9.664  39.080   0.363  1.00  0.00     0.293 HD
ENDBRANCH  15  18
ENDBRANCH   1  12
BRANCH   2  20
ATOM     20  O   UNL     1      -9.731  37.278  -6.343  1.00  0.00    -0.502 OA
ATOM     21  H   UNL     1      -9.200  36.739  -7.016  1.00  0.00     0.293 HD
ENDBRANCH   2  20
BRANCH   6  22
ATOM     22  O   UNL     1     -11.783  39.177 -10.876  1.00  0.00    -0.507 OA
ATOM     23  H   UNL     1     -10.935  38.644 -10.994  1.00  0.00     0.293 HD
ENDBRANCH   6  22
BRANCH   8  24
ATOM     24  O   UNL     1     -13.956  43.121  -9.257  1.00  0.00    -0.508 OA
ATOM     25  H   UNL     1     -14.969  43.122  -9.226  1.00  0.00     0.293 HD
ENDBRANCH   8  24
TORSDOF 5
ENDMDL
