MODEL 1
REMARK VINA RESULT:    -6.332      0.000      0.000
REMARK INTER + INTRA:          -8.114
REMARK INTER:                  -7.813
REMARK INTRA:                  -0.302
REMARK UNBOUND:                -0.302
REMARK SMILES Oc1cc(O)c2cc(O)c(-c3cc(O)c(O)c(O)c3)[o+]c2c1
REMARK SMILES IDX 10 1 20 2 21 3 22 4 2 5 3 6 4 7 6 8 7 9 8 10 11 11 12 12
REMARK SMILES IDX 13 13 19 14 15 15 17 16 14 17 16 19 18 21 9 23 1 25 5 27
REMARK H PARENT 14 18 16 20 18 22 9 24 1 26 5 28
REMARK Flexibility Score: inf
ROOT
ATOM      1  C   UNL     1      20.920  33.334  31.231  1.00  0.00     0.402 A 
ATOM      2  O   UNL     1      21.674  34.122  31.997  1.00  0.00    -0.202 OA
ATOM      3  C   UNL     1      21.842  33.924  33.301  1.00  0.00     0.368 A 
ATOM      4  C   UNL     1      22.646  34.801  34.036  1.00  0.00     0.162 A 
ATOM      5  C   UNL     1      22.829  34.606  35.409  1.00  0.00     0.128 A 
ATOM      6  C   UNL     1      22.205  33.528  36.051  1.00  0.00     0.093 A 
ATOM      7  C   UNL     1      21.397  32.639  35.326  1.00  0.00     0.136 A 
ATOM      8  C   UNL     1      21.213  32.837  33.944  1.00  0.00     0.125 A 
ATOM      9  C   UNL     1      20.425  31.978  33.170  1.00  0.00     0.078 A 
ATOM     10  C   UNL     1      20.280  32.214  31.800  1.00  0.00     0.223 A 
ENDROOT
BRANCH   1  11
ATOM     11  C   UNL     1      20.802  33.663  29.792  1.00  0.00     0.091 A 
ATOM     12  C   UNL     1      21.931  33.564  28.966  1.00  0.00     0.068 A 
ATOM     13  C   UNL     1      21.854  33.886  27.608  1.00  0.00     0.162 A 
ATOM     14  C   UNL     1      19.594  34.127  29.245  1.00  0.00     0.068 A 
ATOM     15  C   UNL     1      20.638  34.330  27.060  1.00  0.00     0.200 A 
ATOM     16  C   UNL     1      19.507  34.454  27.885  1.00  0.00     0.162 A 
BRANCH  13  17
ATOM     17  O   UNL     1      22.996  33.761  26.818  1.00  0.00    -0.504 OA
ATOM     18  H   UNL     1      23.664  34.515  26.711  1.00  0.00     0.293 HD
ENDBRANCH  13  17
BRANCH  15  19
ATOM     19  O   UNL     1      20.569  34.647  25.703  1.00  0.00    -0.502 OA
ATOM     20  H   UNL     1      21.171  34.211  25.015  1.00  0.00     0.293 HD
ENDBRANCH  15  19
BRANCH  16  21
ATOM     21  O   UNL     1      18.301  34.907  27.351  1.00  0.00    -0.504 OA
ATOM     22  H   UNL     1      18.096  34.830  26.361  1.00  0.00     0.293 HD
ENDBRANCH  16  21
ENDBRANCH   1  11
BRANCH  10  23
ATOM     23  O   UNL     1      19.537  31.335  31.012  1.00  0.00    -0.500 OA
ATOM     24  H   UNL     1      19.942  30.484  30.638  1.00  0.00     0.294 HD
ENDBRANCH  10  23
BRANCH   5  25
ATOM     25  O   UNL     1      23.632  35.490  36.125  1.00  0.00    -0.507 OA
ATOM     26  H   UNL     1      24.502  35.843  35.743  1.00  0.00     0.293 HD
ENDBRANCH   5  25
BRANCH   7  27
ATOM     27  O   UNL     1      20.781  31.568  35.976  1.00  0.00    -0.507 OA
ATOM     28  H   UNL     1      21.218  31.102  36.762  1.00  0.00     0.293 HD
ENDBRANCH   7  27
TORSDOF 7
ENDMDL
MODEL 2
REMARK VINA RESULT:    -6.254     10.336     14.281
REMARK INTER + INTRA:          -8.018
REMARK INTER:                  -7.769
REMARK INTRA:                  -0.248
REMARK UNBOUND:                -0.302
REMARK SMILES Oc1cc(O)c2cc(O)c(-c3cc(O)c(O)c(O)c3)[o+]c2c1
REMARK SMILES IDX 10 1 20 2 21 3 22 4 2 5 3 6 4 7 6 8 7 9 8 10 11 11 12 12
REMARK SMILES IDX 13 13 19 14 15 15 17 16 14 17 16 19 18 21 9 23 1 25 5 27
REMARK H PARENT 14 18 16 20 18 22 9 24 1 26 5 28
REMARK Flexibility Score: inf
ROOT
ATOM      1  C   UNL     1      23.424  30.343  18.156  1.00  0.00     0.402 A 
ATOM      2  O   UNL     1      23.386  30.868  19.380  1.00  0.00    -0.202 OA
ATOM      3  C   UNL     1      22.604  31.891  19.709  1.00  0.00     0.368 A 
ATOM      4  C   UNL     1      22.627  32.388  21.016  1.00  0.00     0.162 A 
ATOM      5  C   UNL     1      21.812  33.466  21.375  1.00  0.00     0.128 A 
ATOM      6  C   UNL     1      20.968  34.051  20.422  1.00  0.00     0.093 A 
ATOM      7  C   UNL     1      20.933  33.562  19.107  1.00  0.00     0.136 A 
ATOM      8  C   UNL     1      21.754  32.478  18.747  1.00  0.00     0.125 A 
ATOM      9  C   UNL     1      21.755  31.944  17.453  1.00  0.00     0.078 A 
ATOM     10  C   UNL     1      22.584  30.861  17.148  1.00  0.00     0.223 A 
ENDROOT
BRANCH   1  11
ATOM     11  C   UNL     1      24.344  29.210  17.908  1.00  0.00     0.091 A 
ATOM     12  C   UNL     1      25.418  29.374  17.020  1.00  0.00     0.068 A 
ATOM     13  C   UNL     1      26.292  28.316  16.753  1.00  0.00     0.162 A 
ATOM     14  C   UNL     1      24.134  27.954  18.501  1.00  0.00     0.068 A 
ATOM     15  C   UNL     1      26.090  27.067  17.364  1.00  0.00     0.200 A 
ATOM     16  C   UNL     1      25.003  26.887  18.237  1.00  0.00     0.162 A 
BRANCH  13  17
ATOM     17  O   UNL     1      27.356  28.524  15.875  1.00  0.00    -0.504 OA
ATOM     18  H   UNL     1      27.787  27.766  15.361  1.00  0.00     0.293 HD
ENDBRANCH  13  17
BRANCH  15  19
ATOM     19  O   UNL     1      26.968  26.017  17.094  1.00  0.00    -0.502 OA
ATOM     20  H   UNL     1      27.731  25.776  17.717  1.00  0.00     0.293 HD
ENDBRANCH  15  19
BRANCH  16  21
ATOM     21  O   UNL     1      24.789  25.646  18.836  1.00  0.00    -0.504 OA
ATOM     22  H   UNL     1      25.423  25.277  19.535  1.00  0.00     0.293 HD
ENDBRANCH  16  21
ENDBRANCH   1  11
BRANCH  10  23
ATOM     23  O   UNL     1      22.554  30.293  15.875  1.00  0.00    -0.500 OA
ATOM     24  H   UNL     1      22.378  29.304  15.739  1.00  0.00     0.294 HD
ENDBRANCH  10  23
BRANCH   5  25
ATOM     25  O   UNL     1      21.849  33.948  22.681  1.00  0.00    -0.507 OA
ATOM     26  H   UNL     1      21.454  34.849  22.924  1.00  0.00     0.293 HD
ENDBRANCH   5  25
BRANCH   7  27
ATOM     27  O   UNL     1      20.087  34.153  18.167  1.00  0.00    -0.507 OA
ATOM     28  H   UNL     1      19.263  33.677  17.820  1.00  0.00     0.293 HD
ENDBRANCH   7  27
TORSDOF 7
ENDMDL
MODEL 3
REMARK VINA RESULT:    -6.007      0.841      2.001
REMARK INTER + INTRA:          -7.714
REMARK INTER:                  -7.335
REMARK INTRA:                  -0.379
REMARK UNBOUND:                -0.302
REMARK SMILES Oc1cc(O)c2cc(O)c(-c3cc(O)c(O)c(O)c3)[o+]c2c1
REMARK SMILES IDX 10 1 20 2 21 3 22 4 2 5 3 6 4 7 6 8 7 9 8 10 11 11 12 12
REMARK SMILES IDX 13 13 19 14 15 15 17 16 14 17 16 19 18 21 9 23 1 25 5 27
REMARK H PARENT 14 18 16 20 18 22 9 24 1 26 5 28
REMARK Flexibility Score: inf
ROOT
ATOM      1  C   UNL     1      20.363  33.455  31.150  1.00  0.00     0.402 A 
ATOM      2  O   UNL     1      21.069  34.217  31.983  1.00  0.00    -0.202 OA
ATOM      3  C   UNL     1      21.401  33.838  33.213  1.00  0.00     0.368 A 
ATOM      4  C   UNL     1      22.140  34.701  34.028  1.00  0.00     0.162 A 
ATOM      5  C   UNL     1      22.493  34.315  35.326  1.00  0.00     0.128 A 
ATOM      6  C   UNL     1      22.104  33.060  35.811  1.00  0.00     0.093 A 
ATOM      7  C   UNL     1      21.363  32.183  35.004  1.00  0.00     0.136 A 
ATOM      8  C   UNL     1      21.009  32.572  33.699  1.00  0.00     0.125 A 
ATOM      9  C   UNL     1      20.278  31.736  32.848  1.00  0.00     0.078 A 
ATOM     10  C   UNL     1      19.957  32.167  31.557  1.00  0.00     0.223 A 
ENDROOT
BRANCH   1  11
ATOM     11  C   UNL     1      20.047  33.992  29.806  1.00  0.00     0.091 A 
ATOM     12  C   UNL     1      18.816  34.627  29.589  1.00  0.00     0.068 A 
ATOM     13  C   UNL     1      18.482  35.127  28.326  1.00  0.00     0.162 A 
ATOM     14  C   UNL     1      20.932  33.830  28.727  1.00  0.00     0.068 A 
ATOM     15  C   UNL     1      19.380  34.981  27.255  1.00  0.00     0.200 A 
ATOM     16  C   UNL     1      20.606  34.325  27.458  1.00  0.00     0.162 A 
BRANCH  13  17
ATOM     17  O   UNL     1      17.254  35.765  28.155  1.00  0.00    -0.504 OA
ATOM     18  H   UNL     1      17.087  36.709  28.480  1.00  0.00     0.293 HD
ENDBRANCH  13  17
BRANCH  15  19
ATOM     19  O   UNL     1      19.041  35.485  25.999  1.00  0.00    -0.502 OA
ATOM     20  H   UNL     1      18.177  35.235  25.531  1.00  0.00     0.293 HD
ENDBRANCH  15  19
BRANCH  16  21
ATOM     21  O   UNL     1      21.495  34.165  26.395  1.00  0.00    -0.504 OA
ATOM     22  H   UNL     1      22.069  33.335  26.303  1.00  0.00     0.293 HD
ENDBRANCH  16  21
ENDBRANCH   1  11
BRANCH  10  23
ATOM     23  O   UNL     1      19.272  31.320  30.686  1.00  0.00    -0.500 OA
ATOM     24  H   UNL     1      19.136  30.338  30.897  1.00  0.00     0.294 HD
ENDBRANCH  10  23
BRANCH   5  25
ATOM     25  O   UNL     1      23.228  35.188  36.123  1.00  0.00    -0.507 OA
ATOM     26  H   UNL     1      23.932  34.849  36.769  1.00  0.00     0.293 HD
ENDBRANCH   5  25
BRANCH   7  27
ATOM     27  O   UNL     1      20.983  30.934  35.499  1.00  0.00    -0.507 OA
ATOM     28  H   UNL     1      21.462  30.086  35.224  1.00  0.00     0.293 HD
ENDBRANCH   7  27
TORSDOF 7
ENDMDL
MODEL 4
REMARK VINA RESULT:    -5.807     14.837     17.963
REMARK INTER + INTRA:          -7.467
REMARK INTER:                  -7.535
REMARK INTRA:                   0.069
REMARK UNBOUND:                -0.302
REMARK SMILES Oc1cc(O)c2cc(O)c(-c3cc(O)c(O)c(O)c3)[o+]c2c1
REMARK SMILES IDX 10 1 20 2 21 3 22 4 2 5 3 6 4 7 6 8 7 9 8 10 11 11 12 12
REMARK SMILES IDX 13 13 19 14 15 15 17 16 14 17 16 19 18 21 9 23 1 25 5 27
REMARK H PARENT 14 18 16 20 18 22 9 24 1 26 5 28
REMARK Flexibility Score: inf
ROOT
ATOM      1  C   UNL     1      17.845  20.996  20.816  1.00  0.00     0.402 A 
ATOM      2  O   UNL     1      17.687  22.124  20.125  1.00  0.00    -0.202 OA
ATOM      3  C   UNL     1      17.706  22.174  18.797  1.00  0.00     0.368 A 
ATOM      4  C   UNL     1      17.538  23.401  18.147  1.00  0.00     0.162 A 
ATOM      5  C   UNL     1      17.559  23.467  16.751  1.00  0.00     0.128 A 
ATOM      6  C   UNL     1      17.750  22.300  15.998  1.00  0.00     0.093 A 
ATOM      7  C   UNL     1      17.919  21.063  16.636  1.00  0.00     0.136 A 
ATOM      8  C   UNL     1      17.898  20.997  18.042  1.00  0.00     0.125 A 
ATOM      9  C   UNL     1      18.053  19.789  18.732  1.00  0.00     0.078 A 
ATOM     10  C   UNL     1      18.017  19.777  20.129  1.00  0.00     0.223 A 
ENDROOT
BRANCH   1  11
ATOM     11  C   UNL     1      17.814  21.070  22.294  1.00  0.00     0.091 A 
ATOM     12  C   UNL     1      18.722  20.306  23.043  1.00  0.00     0.068 A 
ATOM     13  C   UNL     1      18.703  20.340  24.440  1.00  0.00     0.162 A 
ATOM     14  C   UNL     1      16.857  21.847  22.968  1.00  0.00     0.068 A 
ATOM     15  C   UNL     1      17.757  21.136  25.110  1.00  0.00     0.200 A 
ATOM     16  C   UNL     1      16.829  21.886  24.368  1.00  0.00     0.162 A 
BRANCH  13  17
ATOM     17  O   UNL     1      19.632  19.577  25.148  1.00  0.00    -0.504 OA
ATOM     18  H   UNL     1      20.182  19.963  25.905  1.00  0.00     0.293 HD
ENDBRANCH  13  17
BRANCH  15  19
ATOM     19  O   UNL     1      17.747  21.167  26.505  1.00  0.00    -0.502 OA
ATOM     20  H   UNL     1      18.340  21.794  27.035  1.00  0.00     0.293 HD
ENDBRANCH  15  19
BRANCH  16  21
ATOM     21  O   UNL     1      15.878  22.666  25.027  1.00  0.00    -0.504 OA
ATOM     22  H   UNL     1      15.853  23.673  24.922  1.00  0.00     0.293 HD
ENDBRANCH  16  21
ENDBRANCH   1  11
BRANCH  10  23
ATOM     23  O   UNL     1      18.121  18.570  20.821  1.00  0.00    -0.500 OA
ATOM     24  H   UNL     1      18.772  18.453  21.589  1.00  0.00     0.294 HD
ENDBRANCH  10  23
BRANCH   5  25
ATOM     25  O   UNL     1      17.391  24.698  16.121  1.00  0.00    -0.507 OA
ATOM     26  H   UNL     1      16.489  25.160  16.095  1.00  0.00     0.293 HD
ENDBRANCH   5  25
BRANCH   7  27
ATOM     27  O   UNL     1      18.108  19.907  15.876  1.00  0.00    -0.507 OA
ATOM     28  H   UNL     1      18.459  19.947  14.927  1.00  0.00     0.293 HD
ENDBRANCH   7  27
TORSDOF 7
ENDMDL
MODEL 5
REMARK VINA RESULT:    -5.754      1.867      3.040
REMARK INTER + INTRA:          -7.401
REMARK INTER:                  -7.676
REMARK INTRA:                   0.275
REMARK UNBOUND:                -0.302
REMARK SMILES Oc1cc(O)c2cc(O)c(-c3cc(O)c(O)c(O)c3)[o+]c2c1
REMARK SMILES IDX 10 1 20 2 21 3 22 4 2 5 3 6 4 7 6 8 7 9 8 10 11 11 12 12
REMARK SMILES IDX 13 13 19 14 15 15 17 16 14 17 16 19 18 21 9 23 1 25 5 27
REMARK H PARENT 14 18 16 20 18 22 9 24 1 26 5 28
REMARK Flexibility Score: inf
ROOT
ATOM      1  C   UNL     1      20.396  33.329  31.411  1.00  0.00     0.402 A 
ATOM      2  O   UNL     1      19.395  33.829  32.134  1.00  0.00    -0.202 OA
ATOM      3  C   UNL     1      19.209  33.541  33.418  1.00  0.00     0.368 A 
ATOM      4  C   UNL     1      18.129  34.103  34.105  1.00  0.00     0.162 A 
ATOM      5  C   UNL     1      17.921  33.806  35.456  1.00  0.00     0.128 A 
ATOM      6  C   UNL     1      18.798  32.941  36.124  1.00  0.00     0.093 A 
ATOM      7  C   UNL     1      19.887  32.370  35.448  1.00  0.00     0.136 A 
ATOM      8  C   UNL     1      20.095  32.670  34.089  1.00  0.00     0.125 A 
ATOM      9  C   UNL     1      21.168  32.136  33.367  1.00  0.00     0.078 A 
ATOM     10  C   UNL     1      21.335  32.471  32.020  1.00  0.00     0.223 A 
ENDROOT
BRANCH   1  11
ATOM     11  C   UNL     1      20.492  33.717  29.985  1.00  0.00     0.091 A 
ATOM     12  C   UNL     1      19.333  34.100  29.295  1.00  0.00     0.068 A 
ATOM     13  C   UNL     1      19.390  34.453  27.943  1.00  0.00     0.162 A 
ATOM     14  C   UNL     1      21.712  33.656  29.291  1.00  0.00     0.068 A 
ATOM     15  C   UNL     1      20.617  34.411  27.258  1.00  0.00     0.200 A 
ATOM     16  C   UNL     1      21.779  34.006  27.936  1.00  0.00     0.162 A 
BRANCH  13  17
ATOM     17  O   UNL     1      18.217  34.842  27.296  1.00  0.00    -0.504 OA
ATOM     18  H   UNL     1      17.300  34.621  27.663  1.00  0.00     0.293 HD
ENDBRANCH  13  17
BRANCH  15  19
ATOM     19  O   UNL     1      20.666  34.768  25.910  1.00  0.00    -0.502 OA
ATOM     20  H   UNL     1      19.921  35.288  25.461  1.00  0.00     0.293 HD
ENDBRANCH  15  19
BRANCH  16  21
ATOM     21  O   UNL     1      22.997  33.949  27.259  1.00  0.00    -0.504 OA
ATOM     22  H   UNL     1      23.048  33.701  26.278  1.00  0.00     0.293 HD
ENDBRANCH  16  21
ENDBRANCH   1  11
BRANCH  10  23
ATOM     23  O   UNL     1      22.430  31.982  31.307  1.00  0.00    -0.500 OA
ATOM     24  H   UNL     1      22.321  31.541  30.402  1.00  0.00     0.294 HD
ENDBRANCH  10  23
BRANCH   5  25
ATOM     25  O   UNL     1      16.839  34.375  36.123  1.00  0.00    -0.507 OA
ATOM     26  H   UNL     1      15.935  34.476  35.676  1.00  0.00     0.293 HD
ENDBRANCH   5  25
BRANCH   7  27
ATOM     27  O   UNL     1      20.754  31.511  36.125  1.00  0.00    -0.507 OA
ATOM     28  H   UNL     1      21.308  31.827  36.911  1.00  0.00     0.293 HD
ENDBRANCH   7  27
TORSDOF 7
ENDMDL
MODEL 6
REMARK VINA RESULT:    -5.655     11.558     13.594
REMARK INTER + INTRA:          -7.279
REMARK INTER:                  -7.612
REMARK INTRA:                   0.333
REMARK UNBOUND:                -0.302
REMARK SMILES Oc1cc(O)c2cc(O)c(-c3cc(O)c(O)c(O)c3)[o+]c2c1
REMARK SMILES IDX 10 1 20 2 21 3 22 4 2 5 3 6 4 7 6 8 7 9 8 10 11 11 12 12
REMARK SMILES IDX 13 13 19 14 15 15 17 16 14 17 16 19 18 21 9 23 1 25 5 27
REMARK H PARENT 14 18 16 20 18 22 9 24 1 26 5 28
REMARK Flexibility Score: inf
ROOT
ATOM      1  C   UNL     1      31.449  26.958  34.868  1.00  0.00     0.402 A 
ATOM      2  O   UNL     1      31.706  28.168  35.363  1.00  0.00    -0.202 OA
ATOM      3  C   UNL     1      32.857  28.804  35.172  1.00  0.00     0.368 A 
ATOM      4  C   UNL     1      33.050  30.071  35.731  1.00  0.00     0.162 A 
ATOM      5  C   UNL     1      34.257  30.750  35.540  1.00  0.00     0.128 A 
ATOM      6  C   UNL     1      35.279  30.159  34.785  1.00  0.00     0.093 A 
ATOM      7  C   UNL     1      35.100  28.888  34.217  1.00  0.00     0.136 A 
ATOM      8  C   UNL     1      33.884  28.206  34.410  1.00  0.00     0.125 A 
ATOM      9  C   UNL     1      33.647  26.941  33.861  1.00  0.00     0.078 A 
ATOM     10  C   UNL     1      32.419  26.309  34.076  1.00  0.00     0.223 A 
ENDROOT
BRANCH   1  11
ATOM     11  C   UNL     1      30.132  26.347  35.158  1.00  0.00     0.091 A 
ATOM     12  C   UNL     1      29.971  24.960  35.029  1.00  0.00     0.068 A 
ATOM     13  C   UNL     1      28.734  24.358  35.278  1.00  0.00     0.162 A 
ATOM     14  C   UNL     1      29.022  27.135  35.507  1.00  0.00     0.068 A 
ATOM     15  C   UNL     1      27.631  25.147  35.646  1.00  0.00     0.200 A 
ATOM     16  C   UNL     1      27.777  26.540  35.755  1.00  0.00     0.162 A 
BRANCH  13  17
ATOM     17  O   UNL     1      28.619  22.974  35.152  1.00  0.00    -0.504 OA
ATOM     18  H   UNL     1      27.737  22.522  34.943  1.00  0.00     0.293 HD
ENDBRANCH  13  17
BRANCH  15  19
ATOM     19  O   UNL     1      26.400  24.538  35.896  1.00  0.00    -0.502 OA
ATOM     20  H   UNL     1      25.784  24.240  35.148  1.00  0.00     0.293 HD
ENDBRANCH  15  19
BRANCH  16  21
ATOM     21  O   UNL     1      26.684  27.331  36.108  1.00  0.00    -0.504 OA
ATOM     22  H   UNL     1      26.289  27.306  37.040  1.00  0.00     0.293 HD
ENDBRANCH  16  21
ENDBRANCH   1  11
BRANCH  10  23
ATOM     23  O   UNL     1      32.157  25.070  33.491  1.00  0.00    -0.500 OA
ATOM     24  H   UNL     1      31.497  24.972  32.729  1.00  0.00     0.294 HD
ENDBRANCH  10  23
BRANCH   5  25
ATOM     25  O   UNL     1      34.431  32.010  36.105  1.00  0.00    -0.507 OA
ATOM     26  H   UNL     1      35.181  32.625  35.808  1.00  0.00     0.293 HD
ENDBRANCH   5  25
BRANCH   7  27
ATOM     27  O   UNL     1      36.125  28.310  33.466  1.00  0.00    -0.507 OA
ATOM     28  H   UNL     1      36.670  28.851  32.806  1.00  0.00     0.293 HD
ENDBRANCH   7  27
TORSDOF 7
ENDMDL
MODEL 7
REMARK VINA RESULT:    -5.655      1.861      2.476
REMARK INTER + INTRA:          -7.278
REMARK INTER:                  -7.588
REMARK INTRA:                   0.310
REMARK UNBOUND:                -0.302
REMARK SMILES Oc1cc(O)c2cc(O)c(-c3cc(O)c(O)c(O)c3)[o+]c2c1
REMARK SMILES IDX 10 1 20 2 21 3 22 4 2 5 3 6 4 7 6 8 7 9 8 10 11 11 12 12
REMARK SMILES IDX 13 13 19 14 15 15 17 16 14 17 16 19 18 21 9 23 1 25 5 27
REMARK H PARENT 14 18 16 20 18 22 9 24 1 26 5 28
REMARK Flexibility Score: inf
ROOT
ATOM      1  C   UNL     1      20.359  33.254  31.389  1.00  0.00     0.402 A 
ATOM      2  O   UNL     1      19.348  33.730  32.116  1.00  0.00    -0.202 OA
ATOM      3  C   UNL     1      19.187  33.455  33.406  1.00  0.00     0.368 A 
ATOM      4  C   UNL     1      18.095  33.989  34.097  1.00  0.00     0.162 A 
ATOM      5  C   UNL     1      17.911  33.706  35.454  1.00  0.00     0.128 A 
ATOM      6  C   UNL     1      18.825  32.882  36.125  1.00  0.00     0.093 A 
ATOM      7  C   UNL     1      19.926  32.340  35.445  1.00  0.00     0.136 A 
ATOM      8  C   UNL     1      20.109  32.626  34.080  1.00  0.00     0.125 A 
ATOM      9  C   UNL     1      21.193  32.119  33.353  1.00  0.00     0.078 A 
ATOM     10  C   UNL     1      21.333  32.439  32.000  1.00  0.00     0.223 A 
ENDROOT
BRANCH   1  11
ATOM     11  C   UNL     1      20.426  33.624  29.957  1.00  0.00     0.091 A 
ATOM     12  C   UNL     1      21.669  33.641  29.306  1.00  0.00     0.068 A 
ATOM     13  C   UNL     1      21.765  34.004  27.959  1.00  0.00     0.162 A 
ATOM     14  C   UNL     1      19.278  34.013  29.247  1.00  0.00     0.068 A 
ATOM     15  C   UNL     1      20.611  34.373  27.248  1.00  0.00     0.200 A 
ATOM     16  C   UNL     1      19.365  34.381  27.898  1.00  0.00     0.162 A 
BRANCH  13  17
ATOM     17  O   UNL     1      23.017  33.995  27.345  1.00  0.00    -0.504 OA
ATOM     18  H   UNL     1      23.878  34.089  27.872  1.00  0.00     0.293 HD
ENDBRANCH  13  17
BRANCH  15  19
ATOM     19  O   UNL     1      20.715  34.731  25.903  1.00  0.00    -0.502 OA
ATOM     20  H   UNL     1      20.118  34.330  25.189  1.00  0.00     0.293 HD
ENDBRANCH  15  19
BRANCH  16  21
ATOM     21  O   UNL     1      18.218  34.758  27.201  1.00  0.00    -0.504 OA
ATOM     22  H   UNL     1      17.396  35.106  27.680  1.00  0.00     0.293 HD
ENDBRANCH  16  21
ENDBRANCH   1  11
BRANCH  10  23
ATOM     23  O   UNL     1      22.438  31.978  31.283  1.00  0.00    -0.500 OA
ATOM     24  H   UNL     1      22.569  32.208  30.304  1.00  0.00     0.294 HD
ENDBRANCH  10  23
BRANCH   5  25
ATOM     25  O   UNL     1      16.817  34.246  36.125  1.00  0.00    -0.507 OA
ATOM     26  H   UNL     1      16.874  35.145  36.591  1.00  0.00     0.293 HD
ENDBRANCH   5  25
BRANCH   7  27
ATOM     27  O   UNL     1      20.830  31.522  36.125  1.00  0.00    -0.507 OA
ATOM     28  H   UNL     1      20.564  31.014  36.960  1.00  0.00     0.293 HD
ENDBRANCH   7  27
TORSDOF 7
ENDMDL
MODEL 8
REMARK VINA RESULT:    -5.632     15.664     18.026
REMARK INTER + INTRA:          -7.251
REMARK INTER:                  -6.989
REMARK INTRA:                  -0.262
REMARK UNBOUND:                -0.302
REMARK SMILES Oc1cc(O)c2cc(O)c(-c3cc(O)c(O)c(O)c3)[o+]c2c1
REMARK SMILES IDX 10 1 20 2 21 3 22 4 2 5 3 6 4 7 6 8 7 9 8 10 11 11 12 12
REMARK SMILES IDX 13 13 19 14 15 15 17 16 14 17 16 19 18 21 9 23 1 25 5 27
REMARK H PARENT 14 18 16 20 18 22 9 24 1 26 5 28
REMARK Flexibility Score: inf
ROOT
ATOM      1  C   UNL     1      17.809  21.483  19.057  1.00  0.00     0.402 A 
ATOM      2  O   UNL     1      17.465  21.210  20.315  1.00  0.00    -0.202 OA
ATOM      3  C   UNL     1      17.012  22.129  21.162  1.00  0.00     0.368 A 
ATOM      4  C   UNL     1      16.678  21.762  22.469  1.00  0.00     0.162 A 
ATOM      5  C   UNL     1      16.203  22.719  23.371  1.00  0.00     0.128 A 
ATOM      6  C   UNL     1      16.061  24.052  22.964  1.00  0.00     0.093 A 
ATOM      7  C   UNL     1      16.391  24.435  21.655  1.00  0.00     0.136 A 
ATOM      8  C   UNL     1      16.869  23.471  20.748  1.00  0.00     0.125 A 
ATOM      9  C   UNL     1      17.206  23.794  19.429  1.00  0.00     0.078 A 
ATOM     10  C   UNL     1      17.670  22.798  18.566  1.00  0.00     0.223 A 
ENDROOT
BRANCH   1  11
ATOM     11  C   UNL     1      18.310  20.375  18.212  1.00  0.00     0.091 A 
ATOM     12  C   UNL     1      17.472  19.286  17.934  1.00  0.00     0.068 A 
ATOM     13  C   UNL     1      17.924  18.216  17.155  1.00  0.00     0.162 A 
ATOM     14  C   UNL     1      19.629  20.365  17.727  1.00  0.00     0.068 A 
ATOM     15  C   UNL     1      19.238  18.219  16.654  1.00  0.00     0.200 A 
ATOM     16  C   UNL     1      20.092  19.296  16.947  1.00  0.00     0.162 A 
BRANCH  13  17
ATOM     17  O   UNL     1      17.055  17.159  16.889  1.00  0.00    -0.504 OA
ATOM     18  H   UNL     1      16.639  16.604  17.627  1.00  0.00     0.293 HD
ENDBRANCH  13  17
BRANCH  15  19
ATOM     19  O   UNL     1      19.680  17.150  15.875  1.00  0.00    -0.502 OA
ATOM     20  H   UNL     1      19.076  16.678  15.213  1.00  0.00     0.293 HD
ENDBRANCH  15  19
BRANCH  16  21
ATOM     21  O   UNL     1      21.400  19.299  16.465  1.00  0.00    -0.504 OA
ATOM     22  H   UNL     1      22.186  19.062  17.059  1.00  0.00     0.293 HD
ENDBRANCH  16  21
ENDBRANCH   1  11
BRANCH  10  23
ATOM     23  O   UNL     1      17.961  23.103  17.236  1.00  0.00    -0.500 OA
ATOM     24  H   UNL     1      18.812  23.586  16.976  1.00  0.00     0.294 HD
ENDBRANCH  10  23
BRANCH   5  25
ATOM     25  O   UNL     1      15.876  22.335  24.669  1.00  0.00    -0.507 OA
ATOM     26  H   UNL     1      16.512  22.488  25.442  1.00  0.00     0.293 HD
ENDBRANCH   5  25
BRANCH   7  27
ATOM     27  O   UNL     1      16.244  25.767  21.261  1.00  0.00    -0.507 OA
ATOM     28  H   UNL     1      16.690  26.125  20.426  1.00  0.00     0.293 HD
ENDBRANCH   7  27
TORSDOF 7
ENDMDL
