MODEL 1
REMARK VINA RESULT:    -4.880      0.000      0.000
REMARK INTER + INTRA:         -14.294
REMARK INTER:                 -11.155
REMARK INTRA:                  -3.139
REMARK UNBOUND:                -3.139
REMARK SMILES CCCCCCCCCCCCCCCCCCCCCCCC(=O)[O-]
REMARK SMILES IDX 13 1 14 2 15 3 16 4 17 5 18 6 19 7 20 8 21 9 22 10 23 11
REMARK SMILES IDX 24 12 25 13 26 14 12 15 11 16 10 17 9 18 8 19 7 20 6 21 5 22
REMARK SMILES IDX 4 23 3 24 2 25 1 26
REMARK H PARENT
REMARK Flexibility Score: inf
ROOT
ATOM      1  C   UNL     1      59.541  28.234  12.241  1.00  0.00     0.000 C 
ENDROOT
BRANCH   1   2
ATOM      2  C   UNL     1      60.418  28.658  13.437  1.00  0.00     0.000 C 
BRANCH   2   3
ATOM      3  C   UNL     1      61.920  28.340  13.297  1.00  0.00     0.000 C 
BRANCH   3   4
ATOM      4  C   UNL     1      62.797  29.528  12.862  1.00  0.00     0.000 C 
BRANCH   4   5
ATOM      5  C   UNL     1      62.358  30.857  13.501  1.00  0.00     0.000 C 
BRANCH   5   6
ATOM      6  C   UNL     1      61.766  31.838  12.476  1.00  0.00     0.000 C 
BRANCH   6   7
ATOM      7  C   UNL     1      60.399  32.395  12.913  1.00  0.00     0.000 C 
BRANCH   7   8
ATOM      8  C   UNL     1      60.174  32.277  14.429  1.00  0.00     0.000 C 
BRANCH   8   9
ATOM      9  C   UNL     1      60.552  33.562  15.186  1.00  0.00     0.000 C 
BRANCH   9  10
ATOM     10  C   UNL     1      61.165  33.278  16.570  1.00  0.00     0.006 C 
BRANCH  10  11
ATOM     11  C   UNL     1      61.811  34.504  17.236  1.00  0.00     0.053 C 
BRANCH  11  12
ATOM     12  C   UNL     1      63.273  34.300  17.490  1.00  0.00     0.041 C 
ATOM     13  O   UNL     1      63.813  33.193  17.227  1.00  0.00    -0.550 OA
ATOM     14  O   UNL     1      64.047  35.343  17.980  1.00  0.00    -0.550 OA
ENDBRANCH  11  12
ENDBRANCH  10  11
ENDBRANCH   9  10
ENDBRANCH   8   9
ENDBRANCH   7   8
ENDBRANCH   6   7
ENDBRANCH   5   6
ENDBRANCH   4   5
ENDBRANCH   3   4
ENDBRANCH   2   3
ENDBRANCH   1   2
BRANCH   1  15
ATOM     15  C   UNL     1      59.519  29.222  11.059  1.00  0.00     0.000 C 
BRANCH  15  16
ATOM     16  C   UNL     1      59.922  28.567   9.727  1.00  0.00     0.000 C 
BRANCH  16  17
ATOM     17  C   UNL     1      61.189  29.188   9.110  1.00  0.00     0.000 C 
BRANCH  17  18
ATOM     18  C   UNL     1      62.519  28.701   9.711  1.00  0.00    -0.000 C 
BRANCH  18  19
ATOM     19  C   UNL     1      63.743  29.113   8.875  1.00  0.00    -0.000 C 
BRANCH  19  20
ATOM     20  C   UNL     1      64.017  30.624   8.939  1.00  0.00    -0.000 C 
BRANCH  20  21
ATOM     21  C   UNL     1      65.517  30.946   9.057  1.00  0.00    -0.000 C 
BRANCH  21  22
ATOM     22  C   UNL     1      65.780  32.280   9.777  1.00  0.00    -0.000 C 
BRANCH  22  23
ATOM     23  C   UNL     1      64.954  32.433  11.063  1.00  0.00    -0.000 C 
BRANCH  23  24
ATOM     24  C   UNL     1      65.493  33.585  11.925  1.00  0.00    -0.000 C 
BRANCH  24  25
ATOM     25  C   UNL     1      64.794  33.680  13.290  1.00  0.00    -0.003 C 
ATOM     26  C   UNL     1      65.780  33.711  14.458  1.00  0.00     0.004 C 
ENDBRANCH  24  25
ENDBRANCH  23  24
ENDBRANCH  22  23
ENDBRANCH  21  22
ENDBRANCH  20  21
ENDBRANCH  19  20
ENDBRANCH  18  19
ENDBRANCH  17  18
ENDBRANCH  16  17
ENDBRANCH  15  16
ENDBRANCH   1  15
TORSDOF 22
ENDMDL
MODEL 2
REMARK VINA RESULT:    -4.873      1.341      2.168
REMARK INTER + INTRA:         -14.279
REMARK INTER:                 -11.084
REMARK INTRA:                  -3.195
REMARK UNBOUND:                -3.139
REMARK SMILES CCCCCCCCCCCCCCCCCCCCCCCC(=O)[O-]
REMARK SMILES IDX 13 1 14 2 15 3 16 4 17 5 18 6 19 7 20 8 21 9 22 10 23 11
REMARK SMILES IDX 24 12 25 13 26 14 12 15 11 16 10 17 9 18 8 19 7 20 6 21 5 22
REMARK SMILES IDX 4 23 3 24 2 25 1 26
REMARK H PARENT
REMARK Flexibility Score: inf
ROOT
ATOM      1  C   UNL     1      59.645  29.035  10.501  1.00  0.00     0.000 C 
ENDROOT
BRANCH   1   2
ATOM      2  C   UNL     1      60.215  27.894  11.367  1.00  0.00     0.000 C 
BRANCH   2   3
ATOM      3  C   UNL     1      60.200  28.149  12.887  1.00  0.00     0.000 C 
BRANCH   3   4
ATOM      4  C   UNL     1      61.505  28.727  13.462  1.00  0.00     0.000 C 
BRANCH   4   5
ATOM      5  C   UNL     1      61.356  30.186  13.926  1.00  0.00     0.000 C 
BRANCH   5   6
ATOM      6  C   UNL     1      61.533  31.193  12.777  1.00  0.00     0.000 C 
BRANCH   6   7
ATOM      7  C   UNL     1      60.795  32.519  13.035  1.00  0.00     0.000 C 
BRANCH   7   8
ATOM      8  C   UNL     1      59.982  32.495  14.339  1.00  0.00     0.000 C 
BRANCH   8   9
ATOM      9  C   UNL     1      60.351  33.647  15.289  1.00  0.00     0.000 C 
BRANCH   9  10
ATOM     10  C   UNL     1      61.245  33.190  16.457  1.00  0.00     0.006 C 
BRANCH  10  11
ATOM     11  C   UNL     1      61.648  34.319  17.421  1.00  0.00     0.053 C 
BRANCH  11  12
ATOM     12  C   UNL     1      61.695  33.852  18.843  1.00  0.00     0.041 C 
ATOM     13  O   UNL     1      62.791  33.816  19.462  1.00  0.00    -0.550 OA
ATOM     14  O   UNL     1      60.524  33.493  19.497  1.00  0.00    -0.550 OA
ENDBRANCH  11  12
ENDBRANCH  10  11
ENDBRANCH   9  10
ENDBRANCH   8   9
ENDBRANCH   7   8
ENDBRANCH   6   7
ENDBRANCH   5   6
ENDBRANCH   4   5
ENDBRANCH   3   4
ENDBRANCH   2   3
ENDBRANCH   1   2
BRANCH   1  15
ATOM     15  C   UNL     1      60.661  29.728   9.575  1.00  0.00     0.000 C 
BRANCH  15  16
ATOM     16  C   UNL     1      61.902  28.864   9.297  1.00  0.00     0.000 C 
BRANCH  16  17
ATOM     17  C   UNL     1      63.169  29.385  10.000  1.00  0.00     0.000 C 
BRANCH  17  18
ATOM     18  C   UNL     1      64.252  29.952   9.066  1.00  0.00    -0.000 C 
BRANCH  18  19
ATOM     19  C   UNL     1      65.249  30.873   9.791  1.00  0.00    -0.000 C 
BRANCH  19  20
ATOM     20  C   UNL     1      64.588  31.682  10.919  1.00  0.00    -0.000 C 
BRANCH  20  21
ATOM     21  C   UNL     1      65.185  33.094  11.058  1.00  0.00    -0.000 C 
BRANCH  21  22
ATOM     22  C   UNL     1      65.479  33.470  12.520  1.00  0.00    -0.000 C 
BRANCH  22  23
ATOM     23  C   UNL     1      64.236  33.378  13.418  1.00  0.00    -0.000 C 
BRANCH  23  24
ATOM     24  C   UNL     1      64.578  33.767  14.865  1.00  0.00    -0.000 C 
BRANCH  24  25
ATOM     25  C   UNL     1      64.762  32.545  15.778  1.00  0.00    -0.003 C 
ATOM     26  C   UNL     1      66.227  32.286  16.131  1.00  0.00     0.004 C 
ENDBRANCH  24  25
ENDBRANCH  23  24
ENDBRANCH  22  23
ENDBRANCH  21  22
ENDBRANCH  20  21
ENDBRANCH  19  20
ENDBRANCH  18  19
ENDBRANCH  17  18
ENDBRANCH  16  17
ENDBRANCH  15  16
ENDBRANCH   1  15
TORSDOF 22
ENDMDL
MODEL 3
REMARK VINA RESULT:    -4.781      0.996      4.241
REMARK INTER + INTRA:         -14.068
REMARK INTER:                 -10.634
REMARK INTRA:                  -3.434
REMARK UNBOUND:                -3.139
REMARK SMILES CCCCCCCCCCCCCCCCCCCCCCCC(=O)[O-]
REMARK SMILES IDX 13 1 14 2 15 3 16 4 17 5 18 6 19 7 20 8 21 9 22 10 23 11
REMARK SMILES IDX 24 12 25 13 26 14 12 15 11 16 10 17 9 18 8 19 7 20 6 21 5 22
REMARK SMILES IDX 4 23 3 24 2 25 1 26
REMARK H PARENT
REMARK Flexibility Score: inf
ROOT
ATOM      1  C   UNL     1      62.502  28.807   9.163  1.00  0.00     0.000 C 
ENDROOT
BRANCH   1   2
ATOM      2  C   UNL     1      63.872  29.437   9.486  1.00  0.00     0.000 C 
BRANCH   2   3
ATOM      3  C   UNL     1      64.113  30.834   8.881  1.00  0.00     0.000 C 
BRANCH   3   4
ATOM      4  C   UNL     1      65.096  31.721   9.666  1.00  0.00     0.000 C 
BRANCH   4   5
ATOM      5  C   UNL     1      64.435  32.428  10.862  1.00  0.00     0.000 C 
BRANCH   5   6
ATOM      6  C   UNL     1      65.458  33.115  11.782  1.00  0.00     0.000 C 
BRANCH   6   7
ATOM      7  C   UNL     1      64.860  33.496  13.148  1.00  0.00     0.000 C 
BRANCH   7   8
ATOM      8  C   UNL     1      65.918  34.040  14.122  1.00  0.00     0.000 C 
BRANCH   8   9
ATOM      9  C   UNL     1      65.304  34.876  15.258  1.00  0.00     0.000 C 
BRANCH   9  10
ATOM     10  C   UNL     1      64.061  34.212  15.878  1.00  0.00     0.006 C 
BRANCH  10  11
ATOM     11  C   UNL     1      64.350  33.400  17.152  1.00  0.00     0.053 C 
BRANCH  11  12
ATOM     12  C   UNL     1      63.733  34.023  18.366  1.00  0.00     0.041 C 
ATOM     13  O   UNL     1      64.463  34.540  19.253  1.00  0.00    -0.550 OA
ATOM     14  O   UNL     1      62.351  34.068  18.501  1.00  0.00    -0.550 OA
ENDBRANCH  11  12
ENDBRANCH  10  11
ENDBRANCH   9  10
ENDBRANCH   8   9
ENDBRANCH   7   8
ENDBRANCH   6   7
ENDBRANCH   5   6
ENDBRANCH   4   5
ENDBRANCH   3   4
ENDBRANCH   2   3
ENDBRANCH   1   2
BRANCH   1  15
ATOM     15  C   UNL     1      61.283  29.710   9.434  1.00  0.00     0.000 C 
BRANCH  15  16
ATOM     16  C   UNL     1      60.047  28.920   9.894  1.00  0.00     0.000 C 
BRANCH  16  17
ATOM     17  C   UNL     1      59.611  29.265  11.330  1.00  0.00     0.000 C 
BRANCH  17  18
ATOM     18  C   UNL     1      59.826  28.150  12.368  1.00  0.00    -0.000 C 
BRANCH  18  19
ATOM     19  C   UNL     1      60.810  28.546  13.482  1.00  0.00    -0.000 C 
BRANCH  19  20
ATOM     20  C   UNL     1      62.276  28.470  13.026  1.00  0.00    -0.000 C 
BRANCH  20  21
ATOM     21  C   UNL     1      62.947  29.853  12.970  1.00  0.00    -0.000 C 
BRANCH  21  22
ATOM     22  C   UNL     1      63.195  30.446  14.367  1.00  0.00    -0.000 C 
BRANCH  22  23
ATOM     23  C   UNL     1      62.124  31.468  14.778  1.00  0.00    -0.000 C 
BRANCH  23  24
ATOM     24  C   UNL     1      61.533  32.166  13.543  1.00  0.00    -0.000 C 
BRANCH  24  25
ATOM     25  C   UNL     1      60.353  33.087  13.892  1.00  0.00    -0.003 C 
ATOM     26  C   UNL     1      60.466  33.687  15.294  1.00  0.00     0.004 C 
ENDBRANCH  24  25
ENDBRANCH  23  24
ENDBRANCH  22  23
ENDBRANCH  21  22
ENDBRANCH  20  21
ENDBRANCH  19  20
ENDBRANCH  18  19
ENDBRANCH  17  18
ENDBRANCH  16  17
ENDBRANCH  15  16
ENDBRANCH   1  15
TORSDOF 22
ENDMDL
MODEL 4
REMARK VINA RESULT:    -4.696      2.113      5.568
REMARK INTER + INTRA:         -13.874
REMARK INTER:                 -10.891
REMARK INTRA:                  -2.983
REMARK UNBOUND:                -3.139
REMARK SMILES CCCCCCCCCCCCCCCCCCCCCCCC(=O)[O-]
REMARK SMILES IDX 13 1 14 2 15 3 16 4 17 5 18 6 19 7 20 8 21 9 22 10 23 11
REMARK SMILES IDX 24 12 25 13 26 14 12 15 11 16 10 17 9 18 8 19 7 20 6 21 5 22
REMARK SMILES IDX 4 23 3 24 2 25 1 26
REMARK H PARENT
REMARK Flexibility Score: inf
ROOT
ATOM      1  C   UNL     1      63.347  30.212  10.403  1.00  0.00     0.000 C 
ENDROOT
BRANCH   1   2
ATOM      2  C   UNL     1      63.102  29.019   9.457  1.00  0.00     0.000 C 
BRANCH   2   3
ATOM      3  C   UNL     1      61.635  28.561   9.341  1.00  0.00     0.000 C 
BRANCH   3   4
ATOM      4  C   UNL     1      60.589  29.674   9.538  1.00  0.00     0.000 C 
BRANCH   4   5
ATOM      5  C   UNL     1      59.790  29.514  10.843  1.00  0.00     0.000 C 
BRANCH   5   6
ATOM      6  C   UNL     1      59.924  28.108  11.449  1.00  0.00     0.000 C 
BRANCH   6   7
ATOM      7  C   UNL     1      60.349  28.141  12.929  1.00  0.00     0.000 C 
BRANCH   7   8
ATOM      8  C   UNL     1      61.873  28.252  13.100  1.00  0.00     0.000 C 
BRANCH   8   9
ATOM      9  C   UNL     1      62.296  29.543  13.821  1.00  0.00     0.000 C 
BRANCH   9  10
ATOM     10  C   UNL     1      61.283  29.983  14.894  1.00  0.00     0.006 C 
BRANCH  10  11
ATOM     11  C   UNL     1      61.005  31.495  14.916  1.00  0.00     0.053 C 
BRANCH  11  12
ATOM     12  C   UNL     1      59.903  31.877  13.976  1.00  0.00     0.041 C 
ATOM     13  O   UNL     1      58.701  31.796  14.343  1.00  0.00    -0.550 OA
ATOM     14  O   UNL     1      60.205  32.359  12.709  1.00  0.00    -0.550 OA
ENDBRANCH  11  12
ENDBRANCH  10  11
ENDBRANCH   9  10
ENDBRANCH   8   9
ENDBRANCH   7   8
ENDBRANCH   6   7
ENDBRANCH   5   6
ENDBRANCH   4   5
ENDBRANCH   3   4
ENDBRANCH   2   3
ENDBRANCH   1   2
BRANCH   1  15
ATOM     15  C   UNL     1      64.435  31.202   9.946  1.00  0.00     0.000 C 
BRANCH  15  16
ATOM     16  C   UNL     1      64.723  32.295  10.987  1.00  0.00     0.000 C 
BRANCH  16  17
ATOM     17  C   UNL     1      63.741  32.271  12.173  1.00  0.00     0.000 C 
BRANCH  17  18
ATOM     18  C   UNL     1      64.133  33.156  13.370  1.00  0.00    -0.000 C 
BRANCH  18  19
ATOM     19  C   UNL     1      65.427  33.951  13.131  1.00  0.00    -0.000 C 
BRANCH  19  20
ATOM     20  C   UNL     1      65.981  34.575  14.423  1.00  0.00    -0.000 C 
BRANCH  20  21
ATOM     21  C   UNL     1      65.368  33.949  15.688  1.00  0.00    -0.000 C 
BRANCH  21  22
ATOM     22  C   UNL     1      64.564  34.963  16.519  1.00  0.00    -0.000 C 
BRANCH  22  23
ATOM     23  C   UNL     1      63.582  34.290  17.490  1.00  0.00    -0.000 C 
BRANCH  23  24
ATOM     24  C   UNL     1      62.201  34.121  16.840  1.00  0.00    -0.000 C 
BRANCH  24  25
ATOM     25  C   UNL     1      61.049  34.301  17.843  1.00  0.00    -0.003 C 
ATOM     26  C   UNL     1      61.305  33.587  19.170  1.00  0.00     0.004 C 
ENDBRANCH  24  25
ENDBRANCH  23  24
ENDBRANCH  22  23
ENDBRANCH  21  22
ENDBRANCH  20  21
ENDBRANCH  19  20
ENDBRANCH  18  19
ENDBRANCH  17  18
ENDBRANCH  16  17
ENDBRANCH  15  16
ENDBRANCH   1  15
TORSDOF 22
ENDMDL
MODEL 5
REMARK VINA RESULT:    -4.601      1.172      2.271
REMARK INTER + INTRA:         -13.658
REMARK INTER:                 -10.377
REMARK INTRA:                  -3.281
REMARK UNBOUND:                -3.139
REMARK SMILES CCCCCCCCCCCCCCCCCCCCCCCC(=O)[O-]
REMARK SMILES IDX 13 1 14 2 15 3 16 4 17 5 18 6 19 7 20 8 21 9 22 10 23 11
REMARK SMILES IDX 24 12 25 13 26 14 12 15 11 16 10 17 9 18 8 19 7 20 6 21 5 22
REMARK SMILES IDX 4 23 3 24 2 25 1 26
REMARK H PARENT
REMARK Flexibility Score: inf
ROOT
ATOM      1  C   UNL     1      61.001  28.378  12.837  1.00  0.00     0.000 C 
ENDROOT
BRANCH   1   2
ATOM      2  C   UNL     1      61.507  29.702  13.444  1.00  0.00     0.000 C 
BRANCH   2   3
ATOM      3  C   UNL     1      61.545  30.900  12.473  1.00  0.00     0.000 C 
BRANCH   3   4
ATOM      4  C   UNL     1      60.381  31.895  12.623  1.00  0.00     0.000 C 
BRANCH   4   5
ATOM      5  C   UNL     1      59.916  32.051  14.081  1.00  0.00     0.000 C 
BRANCH   5   6
ATOM      6  C   UNL     1      60.167  33.464  14.634  1.00  0.00     0.000 C 
BRANCH   6   7
ATOM      7  C   UNL     1      61.598  33.641  15.174  1.00  0.00     0.000 C 
BRANCH   7   8
ATOM      8  C   UNL     1      62.221  32.314  15.635  1.00  0.00     0.000 C 
BRANCH   8   9
ATOM      9  C   UNL     1      63.757  32.365  15.681  1.00  0.00     0.000 C 
BRANCH   9  10
ATOM     10  C   UNL     1      64.300  33.800  15.812  1.00  0.00     0.006 C 
BRANCH  10  11
ATOM     11  C   UNL     1      65.035  34.077  17.134  1.00  0.00     0.053 C 
BRANCH  11  12
ATOM     12  C   UNL     1      64.117  34.625  18.183  1.00  0.00     0.041 C 
ATOM     13  O   UNL     1      62.988  35.080  17.861  1.00  0.00    -0.550 OA
ATOM     14  O   UNL     1      64.492  34.598  19.520  1.00  0.00    -0.550 OA
ENDBRANCH  11  12
ENDBRANCH  10  11
ENDBRANCH   9  10
ENDBRANCH   8   9
ENDBRANCH   7   8
ENDBRANCH   6   7
ENDBRANCH   5   6
ENDBRANCH   4   5
ENDBRANCH   3   4
ENDBRANCH   2   3
ENDBRANCH   1   2
BRANCH   1  15
ATOM     15  C   UNL     1      59.608  28.446  12.181  1.00  0.00     0.000 C 
BRANCH  15  16
ATOM     16  C   UNL     1      59.646  28.157  10.672  1.00  0.00     0.000 C 
BRANCH  16  17
ATOM     17  C   UNL     1      59.617  29.435   9.813  1.00  0.00     0.000 C 
BRANCH  17  18
ATOM     18  C   UNL     1      60.907  29.727   9.027  1.00  0.00    -0.000 C 
BRANCH  18  19
ATOM     19  C   UNL     1      61.953  28.605   9.147  1.00  0.00    -0.000 C 
BRANCH  19  20
ATOM     20  C   UNL     1      63.280  29.100   9.744  1.00  0.00    -0.000 C 
BRANCH  20  21
ATOM     21  C   UNL     1      63.771  30.402   9.087  1.00  0.00    -0.000 C 
BRANCH  21  22
ATOM     22  C   UNL     1      65.163  30.827   9.586  1.00  0.00    -0.000 C 
BRANCH  22  23
ATOM     23  C   UNL     1      65.188  32.267  10.121  1.00  0.00    -0.000 C 
BRANCH  23  24
ATOM     24  C   UNL     1      64.540  32.345  11.511  1.00  0.00    -0.000 C 
BRANCH  24  25
ATOM     25  C   UNL     1      65.085  33.509  12.354  1.00  0.00    -0.003 C 
ATOM     26  C   UNL     1      65.941  34.478  11.539  1.00  0.00     0.004 C 
ENDBRANCH  24  25
ENDBRANCH  23  24
ENDBRANCH  22  23
ENDBRANCH  21  22
ENDBRANCH  20  21
ENDBRANCH  19  20
ENDBRANCH  18  19
ENDBRANCH  17  18
ENDBRANCH  16  17
ENDBRANCH  15  16
ENDBRANCH   1  15
TORSDOF 22
ENDMDL
MODEL 6
REMARK VINA RESULT:    -4.598      1.474      5.425
REMARK INTER + INTRA:         -13.651
REMARK INTER:                 -10.650
REMARK INTRA:                  -3.001
REMARK UNBOUND:                -3.139
REMARK SMILES CCCCCCCCCCCCCCCCCCCCCCCC(=O)[O-]
REMARK SMILES IDX 13 1 14 2 15 3 16 4 17 5 18 6 19 7 20 8 21 9 22 10 23 11
REMARK SMILES IDX 24 12 25 13 26 14 12 15 11 16 10 17 9 18 8 19 7 20 6 21 5 22
REMARK SMILES IDX 4 23 3 24 2 25 1 26
REMARK H PARENT
REMARK Flexibility Score: inf
ROOT
ATOM      1  C   UNL     1      60.022  27.918  12.981  1.00  0.00     0.000 C 
ENDROOT
BRANCH   1   2
ATOM      2  C   UNL     1      59.315  28.926  12.053  1.00  0.00     0.000 C 
BRANCH   2   3
ATOM      3  C   UNL     1      59.540  28.702  10.544  1.00  0.00     0.000 C 
BRANCH   3   4
ATOM      4  C   UNL     1      60.725  29.478   9.942  1.00  0.00     0.000 C 
BRANCH   4   5
ATOM      5  C   UNL     1      61.705  28.568   9.181  1.00  0.00     0.000 C 
BRANCH   5   6
ATOM      6  C   UNL     1      63.173  28.977   9.388  1.00  0.00     0.000 C 
BRANCH   6   7
ATOM      7  C   UNL     1      63.330  30.475   9.708  1.00  0.00     0.000 C 
BRANCH   7   8
ATOM      8  C   UNL     1      64.133  30.720  10.996  1.00  0.00     0.000 C 
BRANCH   8   9
ATOM      9  C   UNL     1      64.322  32.216  11.300  1.00  0.00     0.000 C 
BRANCH   9  10
ATOM     10  C   UNL     1      64.211  32.535  12.802  1.00  0.00     0.006 C 
BRANCH  10  11
ATOM     11  C   UNL     1      64.973  33.799  13.236  1.00  0.00     0.053 C 
BRANCH  11  12
ATOM     12  C   UNL     1      65.695  33.601  14.533  1.00  0.00     0.041 C 
ATOM     13  O   UNL     1      66.507  34.471  14.944  1.00  0.00    -0.550 OA
ATOM     14  O   UNL     1      65.443  32.475  15.306  1.00  0.00    -0.550 OA
ENDBRANCH  11  12
ENDBRANCH  10  11
ENDBRANCH   9  10
ENDBRANCH   8   9
ENDBRANCH   7   8
ENDBRANCH   6   7
ENDBRANCH   5   6
ENDBRANCH   4   5
ENDBRANCH   3   4
ENDBRANCH   2   3
ENDBRANCH   1   2
BRANCH   1  15
ATOM     15  C   UNL     1      61.491  28.245  13.310  1.00  0.00     0.000 C 
BRANCH  15  16
ATOM     16  C   UNL     1      61.750  29.755  13.444  1.00  0.00     0.000 C 
BRANCH  16  17
ATOM     17  C   UNL     1      61.717  30.244  14.904  1.00  0.00     0.000 C 
BRANCH  17  18
ATOM     18  C   UNL     1      60.430  30.976  15.324  1.00  0.00    -0.000 C 
BRANCH  18  19
ATOM     19  C   UNL     1      59.759  31.727  14.161  1.00  0.00    -0.000 C 
BRANCH  19  20
ATOM     20  C   UNL     1      60.381  33.112  13.919  1.00  0.00    -0.000 C 
BRANCH  20  21
ATOM     21  C   UNL     1      60.664  33.867  15.230  1.00  0.00    -0.000 C 
BRANCH  21  22
ATOM     22  C   UNL     1      62.129  33.739  15.680  1.00  0.00    -0.000 C 
BRANCH  22  23
ATOM     23  C   UNL     1      62.343  34.180  17.136  1.00  0.00    -0.000 C 
BRANCH  23  24
ATOM     24  C   UNL     1      61.042  34.052  17.943  1.00  0.00    -0.000 C 
BRANCH  24  25
ATOM     25  C   UNL     1      61.279  33.538  19.372  1.00  0.00    -0.003 C 
ATOM     26  C   UNL     1      62.730  33.703  19.825  1.00  0.00     0.004 C 
ENDBRANCH  24  25
ENDBRANCH  23  24
ENDBRANCH  22  23
ENDBRANCH  21  22
ENDBRANCH  20  21
ENDBRANCH  19  20
ENDBRANCH  18  19
ENDBRANCH  17  18
ENDBRANCH  16  17
ENDBRANCH  15  16
ENDBRANCH   1  15
TORSDOF 22
ENDMDL
MODEL 7
REMARK VINA RESULT:    -4.569      2.526      6.860
REMARK INTER + INTRA:         -13.584
REMARK INTER:                 -10.632
REMARK INTRA:                  -2.953
REMARK UNBOUND:                -3.139
REMARK SMILES CCCCCCCCCCCCCCCCCCCCCCCC(=O)[O-]
REMARK SMILES IDX 13 1 14 2 15 3 16 4 17 5 18 6 19 7 20 8 21 9 22 10 23 11
REMARK SMILES IDX 24 12 25 13 26 14 12 15 11 16 10 17 9 18 8 19 7 20 6 21 5 22
REMARK SMILES IDX 4 23 3 24 2 25 1 26
REMARK H PARENT
REMARK Flexibility Score: inf
ROOT
ATOM      1  C   UNL     1      59.743  32.182  14.347  1.00  0.00     0.000 C 
ENDROOT
BRANCH   1   2
ATOM      2  C   UNL     1      60.148  31.878  12.890  1.00  0.00     0.000 C 
BRANCH   2   3
ATOM      3  C   UNL     1      61.660  31.953  12.598  1.00  0.00     0.000 C 
BRANCH   3   4
ATOM      4  C   UNL     1      62.500  30.827  13.228  1.00  0.00     0.000 C 
BRANCH   4   5
ATOM      5  C   UNL     1      63.456  30.164  12.221  1.00  0.00     0.000 C 
BRANCH   5   6
ATOM      6  C   UNL     1      63.399  30.821  10.831  1.00  0.00     0.000 C 
BRANCH   6   7
ATOM      7  C   UNL     1      63.990  29.924   9.729  1.00  0.00     0.000 C 
BRANCH   7   8
ATOM      8  C   UNL     1      63.024  28.808   9.299  1.00  0.00     0.000 C 
BRANCH   8   9
ATOM      9  C   UNL     1      61.549  29.184   9.517  1.00  0.00     0.000 C 
BRANCH   9  10
ATOM     10  C   UNL     1      60.816  28.200  10.447  1.00  0.00     0.006 C 
BRANCH  10  11
ATOM     11  C   UNL     1      59.588  28.797  11.155  1.00  0.00     0.053 C 
BRANCH  11  12
ATOM     12  C   UNL     1      59.369  28.190  12.507  1.00  0.00     0.041 C 
ATOM     13  O   UNL     1      58.274  27.631  12.780  1.00  0.00    -0.550 OA
ATOM     14  O   UNL     1      60.387  28.208  13.451  1.00  0.00    -0.550 OA
ENDBRANCH  11  12
ENDBRANCH  10  11
ENDBRANCH   9  10
ENDBRANCH   8   9
ENDBRANCH   7   8
ENDBRANCH   6   7
ENDBRANCH   5   6
ENDBRANCH   4   5
ENDBRANCH   3   4
ENDBRANCH   2   3
ENDBRANCH   1   2
BRANCH   1  15
ATOM     15  C   UNL     1      60.403  33.428  14.966  1.00  0.00     0.000 C 
BRANCH  15  16
ATOM     16  C   UNL     1      61.351  33.087  16.127  1.00  0.00     0.000 C 
BRANCH  16  17
ATOM     17  C   UNL     1      61.327  34.137  17.254  1.00  0.00     0.000 C 
BRANCH  17  18
ATOM     18  C   UNL     1      62.241  33.834  18.454  1.00  0.00    -0.000 C 
BRANCH  18  19
ATOM     19  C   UNL     1      63.734  33.824  18.086  1.00  0.00    -0.000 C 
BRANCH  19  20
ATOM     20  C   UNL     1      64.208  35.170  17.514  1.00  0.00    -0.000 C 
BRANCH  20  21
ATOM     21  C   UNL     1      65.665  35.120  17.021  1.00  0.00    -0.000 C 
BRANCH  21  22
ATOM     22  C   UNL     1      66.137  33.688  16.718  1.00  0.00    -0.000 C 
BRANCH  22  23
ATOM     23  C   UNL     1      66.661  33.527  15.283  1.00  0.00    -0.000 C 
BRANCH  23  24
ATOM     24  C   UNL     1      65.926  34.475  14.323  1.00  0.00    -0.000 C 
BRANCH  24  25
ATOM     25  C   UNL     1      64.850  33.758  13.492  1.00  0.00    -0.003 C 
ATOM     26  C   UNL     1      65.285  33.514  12.047  1.00  0.00     0.004 C 
ENDBRANCH  24  25
ENDBRANCH  23  24
ENDBRANCH  22  23
ENDBRANCH  21  22
ENDBRANCH  20  21
ENDBRANCH  19  20
ENDBRANCH  18  19
ENDBRANCH  17  18
ENDBRANCH  16  17
ENDBRANCH  15  16
ENDBRANCH   1  15
TORSDOF 22
ENDMDL
MODEL 8
REMARK VINA RESULT:    -4.561      3.246      5.769
REMARK INTER + INTRA:         -13.567
REMARK INTER:                  -9.663
REMARK INTRA:                  -3.904
REMARK UNBOUND:                -3.139
REMARK SMILES CCCCCCCCCCCCCCCCCCCCCCCC(=O)[O-]
REMARK SMILES IDX 13 1 14 2 15 3 16 4 17 5 18 6 19 7 20 8 21 9 22 10 23 11
REMARK SMILES IDX 24 12 25 13 26 14 12 15 11 16 10 17 9 18 8 19 7 20 6 21 5 22
REMARK SMILES IDX 4 23 3 24 2 25 1 26
REMARK H PARENT
REMARK Flexibility Score: inf
ROOT
ATOM      1  C   UNL     1      63.590  29.213  12.987  1.00  0.00     0.000 C 
ENDROOT
BRANCH   1   2
ATOM      2  C   UNL     1      62.938  30.135  14.037  1.00  0.00     0.000 C 
BRANCH   2   3
ATOM      3  C   UNL     1      63.918  31.002  14.851  1.00  0.00     0.000 C 
BRANCH   3   4
ATOM      4  C   UNL     1      63.281  32.208  15.564  1.00  0.00     0.000 C 
BRANCH   4   5
ATOM      5  C   UNL     1      62.467  33.101  14.611  1.00  0.00     0.000 C 
BRANCH   5   6
ATOM      6  C   UNL     1      61.101  33.498  15.194  1.00  0.00     0.000 C 
BRANCH   6   7
ATOM      7  C   UNL     1      59.970  32.555  14.744  1.00  0.00     0.000 C 
BRANCH   7   8
ATOM      8  C   UNL     1      60.018  32.257  13.237  1.00  0.00     0.000 C 
BRANCH   8   9
ATOM      9  C   UNL     1      59.637  30.803  12.908  1.00  0.00     0.000 C 
BRANCH   9  10
ATOM     10  C   UNL     1      60.005  30.404  11.467  1.00  0.00     0.006 C 
BRANCH  10  11
ATOM     11  C   UNL     1      59.644  28.955  11.103  1.00  0.00     0.053 C 
BRANCH  11  12
ATOM     12  C   UNL     1      59.777  28.695   9.634  1.00  0.00     0.041 C 
ATOM     13  O   UNL     1      58.973  27.920   9.052  1.00  0.00    -0.550 OA
ATOM     14  O   UNL     1      60.765  29.339   8.900  1.00  0.00    -0.550 OA
ENDBRANCH  11  12
ENDBRANCH  10  11
ENDBRANCH   9  10
ENDBRANCH   8   9
ENDBRANCH   7   8
ENDBRANCH   6   7
ENDBRANCH   5   6
ENDBRANCH   4   5
ENDBRANCH   3   4
ENDBRANCH   2   3
ENDBRANCH   1   2
BRANCH   1  15
ATOM     15  C   UNL     1      63.393  29.643  11.521  1.00  0.00     0.000 C 
BRANCH  15  16
ATOM     16  C   UNL     1      63.445  31.169  11.336  1.00  0.00     0.000 C 
BRANCH  16  17
ATOM     17  C   UNL     1      64.494  31.615  10.300  1.00  0.00     0.000 C 
BRANCH  17  18
ATOM     18  C   UNL     1      65.427  32.750  10.757  1.00  0.00    -0.000 C 
BRANCH  18  19
ATOM     19  C   UNL     1      64.992  33.388  12.087  1.00  0.00    -0.000 C 
BRANCH  19  20
ATOM     20  C   UNL     1      65.890  34.568  12.495  1.00  0.00    -0.000 C 
BRANCH  20  21
ATOM     21  C   UNL     1      65.668  34.998  13.956  1.00  0.00    -0.000 C 
BRANCH  21  22
ATOM     22  C   UNL     1      66.397  34.086  14.957  1.00  0.00    -0.000 C 
BRANCH  22  23
ATOM     23  C   UNL     1      66.136  34.480  16.419  1.00  0.00    -0.000 C 
BRANCH  23  24
ATOM     24  C   UNL     1      64.962  35.467  16.517  1.00  0.00    -0.000 C 
BRANCH  24  25
ATOM     25  C   UNL     1      63.973  35.101  17.635  1.00  0.00    -0.003 C 
ATOM     26  C   UNL     1      64.504  34.002  18.556  1.00  0.00     0.004 C 
ENDBRANCH  24  25
ENDBRANCH  23  24
ENDBRANCH  22  23
ENDBRANCH  21  22
ENDBRANCH  20  21
ENDBRANCH  19  20
ENDBRANCH  18  19
ENDBRANCH  17  18
ENDBRANCH  16  17
ENDBRANCH  15  16
ENDBRANCH   1  15
TORSDOF 22
ENDMDL
MODEL 9
REMARK VINA RESULT:    -4.558      1.486      5.663
REMARK INTER + INTRA:         -13.558
REMARK INTER:                  -9.991
REMARK INTRA:                  -3.567
REMARK UNBOUND:                -3.139
REMARK SMILES CCCCCCCCCCCCCCCCCCCCCCCC(=O)[O-]
REMARK SMILES IDX 13 1 14 2 15 3 16 4 17 5 18 6 19 7 20 8 21 9 22 10 23 11
REMARK SMILES IDX 24 12 25 13 26 14 12 15 11 16 10 17 9 18 8 19 7 20 6 21 5 22
REMARK SMILES IDX 4 23 3 24 2 25 1 26
REMARK H PARENT
REMARK Flexibility Score: inf
ROOT
ATOM      1  C   UNL     1      63.452  29.594  12.064  1.00  0.00     0.000 C 
ENDROOT
BRANCH   1   2
ATOM      2  C   UNL     1      63.410  31.046  11.546  1.00  0.00     0.000 C 
BRANCH   2   3
ATOM      3  C   UNL     1      64.264  31.323  10.292  1.00  0.00     0.000 C 
BRANCH   3   4
ATOM      4  C   UNL     1      65.378  32.368  10.483  1.00  0.00     0.000 C 
BRANCH   4   5
ATOM      5  C   UNL     1      65.207  33.190  11.772  1.00  0.00     0.000 C 
BRANCH   5   6
ATOM      6  C   UNL     1      65.911  34.555  11.699  1.00  0.00     0.000 C 
BRANCH   6   7
ATOM      7  C   UNL     1      66.133  35.180  13.089  1.00  0.00     0.000 C 
BRANCH   7   8
ATOM      8  C   UNL     1      65.203  34.582  14.157  1.00  0.00     0.000 C 
BRANCH   8   9
ATOM      9  C   UNL     1      65.974  33.995  15.352  1.00  0.00     0.000 C 
BRANCH   9  10
ATOM     10  C   UNL     1      65.538  34.603  16.698  1.00  0.00     0.006 C 
BRANCH  10  11
ATOM     11  C   UNL     1      65.136  33.565  17.758  1.00  0.00     0.053 C 
BRANCH  11  12
ATOM     12  C   UNL     1      64.118  34.105  18.715  1.00  0.00     0.041 C 
ATOM     13  O   UNL     1      64.468  34.490  19.861  1.00  0.00    -0.550 OA
ATOM     14  O   UNL     1      62.789  34.219  18.326  1.00  0.00    -0.550 OA
ENDBRANCH  11  12
ENDBRANCH  10  11
ENDBRANCH   9  10
ENDBRANCH   8   9
ENDBRANCH   7   8
ENDBRANCH   6   7
ENDBRANCH   5   6
ENDBRANCH   4   5
ENDBRANCH   3   4
ENDBRANCH   2   3
ENDBRANCH   1   2
BRANCH   1  15
ATOM     15  C   UNL     1      63.764  29.440  13.564  1.00  0.00     0.000 C 
BRANCH  15  16
ATOM     16  C   UNL     1      62.763  30.188  14.461  1.00  0.00     0.000 C 
BRANCH  16  17
ATOM     17  C   UNL     1      63.384  31.405  15.171  1.00  0.00     0.000 C 
BRANCH  17  18
ATOM     18  C   UNL     1      62.473  32.641  15.275  1.00  0.00    -0.000 C 
BRANCH  18  19
ATOM     19  C   UNL     1      61.648  32.889  14.000  1.00  0.00    -0.000 C 
BRANCH  19  20
ATOM     20  C   UNL     1      60.137  32.943  14.280  1.00  0.00    -0.000 C 
BRANCH  20  21
ATOM     21  C   UNL     1      59.403  31.684  13.787  1.00  0.00    -0.000 C 
BRANCH  21  22
ATOM     22  C   UNL     1      59.949  31.168  12.445  1.00  0.00    -0.000 C 
BRANCH  22  23
ATOM     23  C   UNL     1      59.808  29.646  12.292  1.00  0.00    -0.000 C 
BRANCH  23  24
ATOM     24  C   UNL     1      59.578  29.264  10.822  1.00  0.00    -0.000 C 
BRANCH  24  25
ATOM     25  C   UNL     1      60.651  28.302  10.286  1.00  0.00    -0.003 C 
ATOM     26  C   UNL     1      61.388  28.858   9.068  1.00  0.00     0.004 C 
ENDBRANCH  24  25
ENDBRANCH  23  24
ENDBRANCH  22  23
ENDBRANCH  21  22
ENDBRANCH  20  21
ENDBRANCH  19  20
ENDBRANCH  18  19
ENDBRANCH  17  18
ENDBRANCH  16  17
ENDBRANCH  15  16
ENDBRANCH   1  15
TORSDOF 22
ENDMDL
