MODEL 1
REMARK VINA RESULT:    -5.559      0.000      0.000
REMARK INTER + INTRA:          -6.798
REMARK INTER:                  -6.534
REMARK INTRA:                  -0.264
REMARK UNBOUND:                -0.264
REMARK SMILES O=c1cc(-c2ccc(O)c(O)c2)oc2cc(O)cc(O)c12
REMARK SMILES IDX 4 1 3 2 2 3 1 4 21 5 19 6 18 7 16 8 15 9 14 10 13 11 5 12
REMARK SMILES IDX 6 13 7 14 8 15 12 16 10 17 9 18 11 20 20 22 17 24
REMARK H PARENT 9 19 11 21 20 23 17 25
REMARK Flexibility Score: inf
ROOT
ATOM      1  C   UNL     1      16.978  -6.098  27.401  1.00  0.00     0.138 A 
ATOM      2  C   UNL     1      15.934  -5.385  28.005  1.00  0.00     0.100 A 
ATOM      3  C   UNL     1      16.218  -4.227  28.730  1.00  0.00     0.197 A 
ATOM      4  O   UNL     1      15.265  -3.641  29.307  1.00  0.00    -0.289 OA
ATOM      5  C   UNL     1      17.552  -3.762  28.821  1.00  0.00     0.107 A 
ATOM      6  C   UNL     1      17.956  -2.576  29.504  1.00  0.00     0.134 A 
ATOM      7  C   UNL     1      19.319  -2.270  29.609  1.00  0.00     0.093 A 
ATOM      8  C   UNL     1      20.288  -3.076  29.005  1.00  0.00     0.123 A 
ATOM      9  C   UNL     1      19.899  -4.210  28.294  1.00  0.00     0.094 A 
ATOM     10  C   UNL     1      18.551  -4.560  28.200  1.00  0.00     0.146 A 
ATOM     11  O   UNL     1      18.225  -5.658  27.527  1.00  0.00    -0.456 OA
ENDROOT
BRANCH   1  12
ATOM     12  C   UNL     1      16.733  -7.334  26.616  1.00  0.00     0.021 A 
ATOM     13  C   UNL     1      17.090  -8.580  27.159  1.00  0.00     0.016 A 
ATOM     14  C   UNL     1      16.865  -9.759  26.445  1.00  0.00     0.051 A 
ATOM     15  C   UNL     1      16.270  -9.716  25.180  1.00  0.00     0.157 A 
ATOM     16  C   UNL     1      16.122  -7.297  25.347  1.00  0.00     0.062 A 
ATOM     17  C   UNL     1      15.893  -8.481  24.630  1.00  0.00     0.158 A 
BRANCH  15  18
ATOM     18  O   UNL     1      16.059 -10.910  24.490  1.00  0.00    -0.504 OA
ATOM     19  H   UNL     1      16.544 -11.125  23.627  1.00  0.00     0.293 HD
ENDBRANCH  15  18
BRANCH  17  20
ATOM     20  O   UNL     1      15.289  -8.433  23.374  1.00  0.00    -0.504 OA
ATOM     21  H   UNL     1      15.521  -9.099  22.647  1.00  0.00     0.293 HD
ENDBRANCH  17  20
ENDBRANCH   1  12
BRANCH   6  22
ATOM     22  O   UNL     1      17.069  -1.658  30.075  1.00  0.00    -0.507 OA
ATOM     23  H   UNL     1      16.308  -1.208  29.589  1.00  0.00     0.293 HD
ENDBRANCH   6  22
BRANCH   8  24
ATOM     24  O   UNL     1      21.640  -2.756  29.101  1.00  0.00    -0.508 OA
ATOM     25  H   UNL     1      22.206  -3.074  29.879  1.00  0.00     0.293 HD
ENDBRANCH   8  24
TORSDOF 5
ENDMDL
MODEL 2
REMARK VINA RESULT:    -5.344      9.104     12.294
REMARK INTER + INTRA:          -6.545
REMARK INTER:                  -6.253
REMARK INTRA:                  -0.292
REMARK UNBOUND:                -0.264
REMARK SMILES O=c1cc(-c2ccc(O)c(O)c2)oc2cc(O)cc(O)c12
REMARK SMILES IDX 4 1 3 2 2 3 1 4 21 5 19 6 18 7 16 8 15 9 14 10 13 11 5 12
REMARK SMILES IDX 6 13 7 14 8 15 12 16 10 17 9 18 11 20 20 22 17 24
REMARK H PARENT 9 19 11 21 20 23 17 25
REMARK Flexibility Score: inf
ROOT
ATOM      1  C   UNL     1      23.530   3.959  25.784  1.00  0.00     0.138 A 
ATOM      2  C   UNL     1      22.371   4.558  26.295  1.00  0.00     0.100 A 
ATOM      3  C   UNL     1      21.702   3.964  27.366  1.00  0.00     0.197 A 
ATOM      4  O   UNL     1      20.634   4.497  27.766  1.00  0.00    -0.289 OA
ATOM      5  C   UNL     1      22.216   2.781  27.950  1.00  0.00     0.107 A 
ATOM      6  C   UNL     1      21.638   2.106  29.067  1.00  0.00     0.134 A 
ATOM      7  C   UNL     1      22.182   0.888  29.494  1.00  0.00     0.093 A 
ATOM      8  C   UNL     1      23.319   0.352  28.883  1.00  0.00     0.123 A 
ATOM      9  C   UNL     1      23.919   1.029  27.824  1.00  0.00     0.094 A 
ATOM     10  C   UNL     1      23.381   2.228  27.352  1.00  0.00     0.146 A 
ATOM     11  O   UNL     1      23.976   2.832  26.329  1.00  0.00    -0.456 OA
ENDROOT
BRANCH   1  12
ATOM     12  C   UNL     1      24.284   4.549  24.650  1.00  0.00     0.021 A 
ATOM     13  C   UNL     1      24.566   5.926  24.649  1.00  0.00     0.016 A 
ATOM     14  C   UNL     1      25.279   6.506  23.598  1.00  0.00     0.051 A 
ATOM     15  C   UNL     1      25.732   5.721  22.533  1.00  0.00     0.157 A 
ATOM     16  C   UNL     1      24.753   3.760  23.581  1.00  0.00     0.062 A 
ATOM     17  C   UNL     1      25.472   4.342  22.526  1.00  0.00     0.158 A 
BRANCH  15  18
ATOM     18  O   UNL     1      26.441   6.329  21.498  1.00  0.00    -0.504 OA
ATOM     19  H   UNL     1      26.336   6.041  20.532  1.00  0.00     0.293 HD
ENDBRANCH  15  18
BRANCH  17  20
ATOM     20  O   UNL     1      25.932   3.552  21.473  1.00  0.00    -0.504 OA
ATOM     21  H   UNL     1      25.295   3.135  20.805  1.00  0.00     0.293 HD
ENDBRANCH  17  20
ENDBRANCH   1  12
BRANCH   6  22
ATOM     22  O   UNL     1      20.551   2.591  29.800  1.00  0.00    -0.507 OA
ATOM     23  H   UNL     1      20.158   3.515  29.710  1.00  0.00     0.293 HD
ENDBRANCH   6  22
BRANCH   8  24
ATOM     24  O   UNL     1      23.862  -0.852  29.325  1.00  0.00    -0.508 OA
ATOM     25  H   UNL     1      23.303  -1.694  29.390  1.00  0.00     0.293 HD
ENDBRANCH   8  24
TORSDOF 5
ENDMDL
MODEL 3
REMARK VINA RESULT:    -5.171      1.499      7.302
REMARK INTER + INTRA:          -6.342
REMARK INTER:                  -6.078
REMARK INTRA:                  -0.264
REMARK UNBOUND:                -0.264
REMARK SMILES O=c1cc(-c2ccc(O)c(O)c2)oc2cc(O)cc(O)c12
REMARK SMILES IDX 4 1 3 2 2 3 1 4 21 5 19 6 18 7 16 8 15 9 14 10 13 11 5 12
REMARK SMILES IDX 6 13 7 14 8 15 12 16 10 17 9 18 11 20 20 22 17 24
REMARK H PARENT 9 19 11 21 20 23 17 25
REMARK Flexibility Score: inf
ROOT
ATOM      1  C   UNL     1      17.722  -6.724  27.691  1.00  0.00     0.138 A 
ATOM      2  C   UNL     1      17.980  -7.910  28.390  1.00  0.00     0.100 A 
ATOM      3  C   UNL     1      17.555  -9.130  27.860  1.00  0.00     0.197 A 
ATOM      4  O   UNL     1      17.754 -10.171  28.539  1.00  0.00    -0.289 OA
ATOM      5  C   UNL     1      16.900  -9.163  26.606  1.00  0.00     0.107 A 
ATOM      6  C   UNL     1      16.453 -10.351  25.952  1.00  0.00     0.134 A 
ATOM      7  C   UNL     1      15.729 -10.250  24.757  1.00  0.00     0.093 A 
ATOM      8  C   UNL     1      15.485  -9.008  24.164  1.00  0.00     0.123 A 
ATOM      9  C   UNL     1      15.960  -7.847  24.770  1.00  0.00     0.094 A 
ATOM     10  C   UNL     1      16.656  -7.911  25.978  1.00  0.00     0.146 A 
ATOM     11  O   UNL     1      17.077  -6.778  26.530  1.00  0.00    -0.456 OA
ENDROOT
BRANCH   1  12
ATOM     12  C   UNL     1      18.153  -5.400  28.205  1.00  0.00     0.021 A 
ATOM     13  C   UNL     1      17.199  -4.530  28.762  1.00  0.00     0.016 A 
ATOM     14  C   UNL     1      17.578  -3.282  29.259  1.00  0.00     0.051 A 
ATOM     15  C   UNL     1      18.917  -2.882  29.220  1.00  0.00     0.157 A 
ATOM     16  C   UNL     1      19.503  -4.998  28.180  1.00  0.00     0.062 A 
ATOM     17  C   UNL     1      19.885  -3.745  28.682  1.00  0.00     0.158 A 
BRANCH  15  18
ATOM     18  O   UNL     1      19.265  -1.630  29.724  1.00  0.00    -0.504 OA
ATOM     19  H   UNL     1      19.650  -1.511  30.654  1.00  0.00     0.293 HD
ENDBRANCH  15  18
BRANCH  17  20
ATOM     20  O   UNL     1      21.224  -3.357  28.651  1.00  0.00    -0.504 OA
ATOM     21  H   UNL     1      21.672  -3.063  27.792  1.00  0.00     0.293 HD
ENDBRANCH  17  20
ENDBRANCH   1  12
BRANCH   6  22
ATOM     22  O   UNL     1      16.710 -11.645  26.415  1.00  0.00    -0.507 OA
ATOM     23  H   UNL     1      17.597 -11.969  26.768  1.00  0.00     0.293 HD
ENDBRANCH   6  22
BRANCH   8  24
ATOM     24  O   UNL     1      14.777  -8.919  22.968  1.00  0.00    -0.508 OA
ATOM     25  H   UNL     1      14.219  -8.104  22.742  1.00  0.00     0.293 HD
ENDBRANCH   8  24
TORSDOF 5
ENDMDL
MODEL 4
REMARK VINA RESULT:    -4.997      8.120     10.553
REMARK INTER + INTRA:          -6.138
REMARK INTER:                  -5.843
REMARK INTRA:                  -0.295
REMARK UNBOUND:                -0.264
REMARK SMILES O=c1cc(-c2ccc(O)c(O)c2)oc2cc(O)cc(O)c12
REMARK SMILES IDX 4 1 3 2 2 3 1 4 21 5 19 6 18 7 16 8 15 9 14 10 13 11 5 12
REMARK SMILES IDX 6 13 7 14 8 15 12 16 10 17 9 18 11 20 20 22 17 24
REMARK H PARENT 9 19 11 21 20 23 17 25
REMARK Flexibility Score: inf
ROOT
ATOM      1  C   UNL     1      22.640   1.978  27.699  1.00  0.00     0.138 A 
ATOM      2  C   UNL     1      21.700   3.006  27.847  1.00  0.00     0.100 A 
ATOM      3  C   UNL     1      21.700   4.076  26.950  1.00  0.00     0.197 A 
ATOM      4  O   UNL     1      20.878   5.010  27.143  1.00  0.00    -0.289 OA
ATOM      5  C   UNL     1      22.625   4.098  25.879  1.00  0.00     0.107 A 
ATOM      6  C   UNL     1      22.696   5.119  24.885  1.00  0.00     0.134 A 
ATOM      7  C   UNL     1      23.720   5.082  23.930  1.00  0.00     0.093 A 
ATOM      8  C   UNL     1      24.640   4.031  23.898  1.00  0.00     0.123 A 
ATOM      9  C   UNL     1      24.548   3.003  24.834  1.00  0.00     0.094 A 
ATOM     10  C   UNL     1      23.560   3.029  25.820  1.00  0.00     0.146 A 
ATOM     11  O   UNL     1      23.519   2.037  26.704  1.00  0.00    -0.456 OA
ENDROOT
BRANCH   1  12
ATOM     12  C   UNL     1      22.683   0.815  28.621  1.00  0.00     0.021 A 
ATOM     13  C   UNL     1      23.804  -0.034  28.610  1.00  0.00     0.016 A 
ATOM     14  C   UNL     1      23.873  -1.131  29.471  1.00  0.00     0.051 A 
ATOM     15  C   UNL     1      22.832  -1.395  30.366  1.00  0.00     0.157 A 
ATOM     16  C   UNL     1      21.643   0.553  29.533  1.00  0.00     0.062 A 
ATOM     17  C   UNL     1      21.713  -0.547  30.400  1.00  0.00     0.158 A 
BRANCH  15  18
ATOM     18  O   UNL     1      22.930  -2.498  31.212  1.00  0.00    -0.504 OA
ATOM     19  H   UNL     1      23.230  -2.412  32.176  1.00  0.00     0.293 HD
ENDBRANCH  15  18
BRANCH  17  20
ATOM     20  O   UNL     1      20.676  -0.798  31.298  1.00  0.00    -0.504 OA
ATOM     21  H   UNL     1      20.858  -1.082  32.253  1.00  0.00     0.293 HD
ENDBRANCH  17  20
ENDBRANCH   1  12
BRANCH   6  22
ATOM     22  O   UNL     1      21.783   6.172  24.775  1.00  0.00    -0.507 OA
ATOM     23  H   UNL     1      20.908   6.235  25.273  1.00  0.00     0.293 HD
ENDBRANCH   6  22
BRANCH   8  24
ATOM     24  O   UNL     1      25.645   3.995  22.934  1.00  0.00    -0.508 OA
ATOM     25  H   UNL     1      26.494   3.460  23.074  1.00  0.00     0.293 HD
ENDBRANCH   8  24
TORSDOF 5
ENDMDL
MODEL 5
REMARK VINA RESULT:    -4.963      8.208     11.033
REMARK INTER + INTRA:          -6.098
REMARK INTER:                  -5.783
REMARK INTRA:                  -0.315
REMARK UNBOUND:                -0.264
REMARK SMILES O=c1cc(-c2ccc(O)c(O)c2)oc2cc(O)cc(O)c12
REMARK SMILES IDX 4 1 3 2 2 3 1 4 21 5 19 6 18 7 16 8 15 9 14 10 13 11 5 12
REMARK SMILES IDX 6 13 7 14 8 15 12 16 10 17 9 18 11 20 20 22 17 24
REMARK H PARENT 9 19 11 21 20 23 17 25
REMARK Flexibility Score: inf
ROOT
ATOM      1  C   UNL     1      22.907   2.334  27.264  1.00  0.00     0.138 A 
ATOM      2  C   UNL     1      24.095   2.764  26.657  1.00  0.00     0.100 A 
ATOM      3  C   UNL     1      24.073   3.865  25.800  1.00  0.00     0.197 A 
ATOM      4  O   UNL     1      25.145   4.191  25.228  1.00  0.00    -0.289 OA
ATOM      5  C   UNL     1      22.860   4.561  25.578  1.00  0.00     0.107 A 
ATOM      6  C   UNL     1      22.724   5.717  24.751  1.00  0.00     0.134 A 
ATOM      7  C   UNL     1      21.452   6.260  24.529  1.00  0.00     0.093 A 
ATOM      8  C   UNL     1      20.321   5.725  25.150  1.00  0.00     0.123 A 
ATOM      9  C   UNL     1      20.451   4.628  25.998  1.00  0.00     0.094 A 
ATOM     10  C   UNL     1      21.699   4.041  26.212  1.00  0.00     0.146 A 
ATOM     11  O   UNL     1      21.776   2.985  27.015  1.00  0.00    -0.456 OA
ENDROOT
BRANCH   1  12
ATOM     12  C   UNL     1      22.873   1.172  28.187  1.00  0.00     0.021 A 
ATOM     13  C   UNL     1      23.966   0.290  28.228  1.00  0.00     0.016 A 
ATOM     14  C   UNL     1      23.963  -0.808  29.091  1.00  0.00     0.051 A 
ATOM     15  C   UNL     1      22.874  -1.039  29.937  1.00  0.00     0.157 A 
ATOM     16  C   UNL     1      21.784   0.943  29.050  1.00  0.00     0.062 A 
ATOM     17  C   UNL     1      21.781  -0.158  29.920  1.00  0.00     0.158 A 
BRANCH  15  18
ATOM     18  O   UNL     1      22.900  -2.143  30.788  1.00  0.00    -0.504 OA
ATOM     19  H   UNL     1      23.749  -2.449  31.247  1.00  0.00     0.293 HD
ENDBRANCH  15  18
BRANCH  17  20
ATOM     20  O   UNL     1      20.697  -0.377  30.770  1.00  0.00    -0.504 OA
ATOM     21  H   UNL     1      19.769  -0.039  30.544  1.00  0.00     0.293 HD
ENDBRANCH  17  20
ENDBRANCH   1  12
BRANCH   6  22
ATOM     22  O   UNL     1      23.797   6.378  24.146  1.00  0.00    -0.507 OA
ATOM     23  H   UNL     1      23.883   7.379  24.056  1.00  0.00     0.293 HD
ENDBRANCH   6  22
BRANCH   8  24
ATOM     24  O   UNL     1      19.062   6.283  24.936  1.00  0.00    -0.508 OA
ATOM     25  H   UNL     1      18.219   5.832  25.270  1.00  0.00     0.293 HD
ENDBRANCH   8  24
TORSDOF 5
ENDMDL
MODEL 6
REMARK VINA RESULT:    -4.913      9.606     12.580
REMARK INTER + INTRA:          -6.038
REMARK INTER:                  -5.761
REMARK INTRA:                  -0.277
REMARK UNBOUND:                -0.264
REMARK SMILES O=c1cc(-c2ccc(O)c(O)c2)oc2cc(O)cc(O)c12
REMARK SMILES IDX 4 1 3 2 2 3 1 4 21 5 19 6 18 7 16 8 15 9 14 10 13 11 5 12
REMARK SMILES IDX 6 13 7 14 8 15 12 16 10 17 9 18 11 20 20 22 17 24
REMARK H PARENT 9 19 11 21 20 23 17 25
REMARK Flexibility Score: inf
ROOT
ATOM      1  C   UNL     1      23.879   3.733  25.874  1.00  0.00     0.138 A 
ATOM      2  C   UNL     1      24.358   2.505  26.349  1.00  0.00     0.100 A 
ATOM      3  C   UNL     1      23.737   1.898  27.442  1.00  0.00     0.197 A 
ATOM      4  O   UNL     1      24.225   0.823  27.878  1.00  0.00    -0.289 OA
ATOM      5  C   UNL     1      22.609   2.508  28.040  1.00  0.00     0.107 A 
ATOM      6  C   UNL     1      21.875   1.965  29.138  1.00  0.00     0.134 A 
ATOM      7  C   UNL     1      20.835   2.710  29.709  1.00  0.00     0.093 A 
ATOM      8  C   UNL     1      20.465   3.951  29.185  1.00  0.00     0.123 A 
ATOM      9  C   UNL     1      21.143   4.467  28.083  1.00  0.00     0.094 A 
ATOM     10  C   UNL     1      22.207   3.765  27.512  1.00  0.00     0.146 A 
ATOM     11  O   UNL     1      22.837   4.302  26.473  1.00  0.00    -0.456 OA
ENDROOT
BRANCH   1  12
ATOM     12  C   UNL     1      24.497   4.421  24.714  1.00  0.00     0.021 A 
ATOM     13  C   UNL     1      24.789   5.794  24.799  1.00  0.00     0.016 A 
ATOM     14  C   UNL     1      25.377   6.465  23.725  1.00  0.00     0.051 A 
ATOM     15  C   UNL     1      25.694   5.777  22.550  1.00  0.00     0.157 A 
ATOM     16  C   UNL     1      24.830   3.730  23.533  1.00  0.00     0.062 A 
ATOM     17  C   UNL     1      25.424   4.402  22.454  1.00  0.00     0.158 A 
BRANCH  15  18
ATOM     18  O   UNL     1      26.280   6.474  21.494  1.00  0.00    -0.504 OA
ATOM     19  H   UNL     1      25.825   6.568  20.594  1.00  0.00     0.293 HD
ENDBRANCH  15  18
BRANCH  17  20
ATOM     20  O   UNL     1      25.748   3.708  21.289  1.00  0.00    -0.504 OA
ATOM     21  H   UNL     1      25.958   4.191  20.424  1.00  0.00     0.293 HD
ENDBRANCH  17  20
ENDBRANCH   1  12
BRANCH   6  22
ATOM     22  O   UNL     1      22.108   0.702  29.688  1.00  0.00    -0.507 OA
ATOM     23  H   UNL     1      22.868   0.089  29.433  1.00  0.00     0.293 HD
ENDBRANCH   6  22
BRANCH   8  24
ATOM     24  O   UNL     1      19.419   4.678  29.750  1.00  0.00    -0.508 OA
ATOM     25  H   UNL     1      18.506   4.264  29.896  1.00  0.00     0.293 HD
ENDBRANCH   8  24
TORSDOF 5
ENDMDL
MODEL 7
REMARK VINA RESULT:    -4.898      1.244      2.781
REMARK INTER + INTRA:          -6.021
REMARK INTER:                  -5.749
REMARK INTRA:                  -0.272
REMARK UNBOUND:                -0.264
REMARK SMILES O=c1cc(-c2ccc(O)c(O)c2)oc2cc(O)cc(O)c12
REMARK SMILES IDX 4 1 3 2 2 3 1 4 21 5 19 6 18 7 16 8 15 9 14 10 13 11 5 12
REMARK SMILES IDX 6 13 7 14 8 15 12 16 10 17 9 18 11 20 20 22 17 24
REMARK H PARENT 9 19 11 21 20 23 17 25
REMARK Flexibility Score: inf
ROOT
ATOM      1  C   UNL     1      17.199  -5.984  27.541  1.00  0.00     0.138 A 
ATOM      2  C   UNL     1      18.523  -5.620  27.822  1.00  0.00     0.100 A 
ATOM      3  C   UNL     1      18.779  -4.455  28.547  1.00  0.00     0.197 A 
ATOM      4  O   UNL     1      19.979  -4.127  28.735  1.00  0.00    -0.289 OA
ATOM      5  C   UNL     1      17.701  -3.669  29.022  1.00  0.00     0.107 A 
ATOM      6  C   UNL     1      17.841  -2.480  29.799  1.00  0.00     0.134 A 
ATOM      7  C   UNL     1      16.703  -1.733  30.128  1.00  0.00     0.093 A 
ATOM      8  C   UNL     1      15.426  -2.162  29.757  1.00  0.00     0.123 A 
ATOM      9  C   UNL     1      15.276  -3.348  29.041  1.00  0.00     0.094 A 
ATOM     10  C   UNL     1      16.393  -4.097  28.668  1.00  0.00     0.146 A 
ATOM     11  O   UNL     1      16.206  -5.213  27.971  1.00  0.00    -0.456 OA
ENDROOT
BRANCH   1  12
ATOM     12  C   UNL     1      16.868  -7.213  26.778  1.00  0.00     0.021 A 
ATOM     13  C   UNL     1      17.156  -8.471  27.336  1.00  0.00     0.016 A 
ATOM     14  C   UNL     1      16.849  -9.644  26.643  1.00  0.00     0.051 A 
ATOM     15  C   UNL     1      16.240  -9.584  25.385  1.00  0.00     0.157 A 
ATOM     16  C   UNL     1      16.244  -7.158  25.516  1.00  0.00     0.062 A 
ATOM     17  C   UNL     1      15.933  -8.336  24.821  1.00  0.00     0.158 A 
BRANCH  15  18
ATOM     18  O   UNL     1      15.947 -10.772  24.717  1.00  0.00    -0.504 OA
ATOM     19  H   UNL     1      16.649 -11.484  24.553  1.00  0.00     0.293 HD
ENDBRANCH  15  18
BRANCH  17  20
ATOM     20  O   UNL     1      15.316  -8.269  23.572  1.00  0.00    -0.504 OA
ATOM     21  H   UNL     1      14.379  -7.901  23.462  1.00  0.00     0.293 HD
ENDBRANCH  17  20
ENDBRANCH   1  12
BRANCH   6  22
ATOM     22  O   UNL     1      19.060  -2.003  30.289  1.00  0.00    -0.507 OA
ATOM     23  H   UNL     1      19.806  -1.627  29.723  1.00  0.00     0.293 HD
ENDBRANCH   6  22
BRANCH   8  24
ATOM     24  O   UNL     1      14.299  -1.420  30.102  1.00  0.00    -0.508 OA
ATOM     25  H   UNL     1      14.371  -0.567  30.643  1.00  0.00     0.293 HD
ENDBRANCH   8  24
TORSDOF 5
ENDMDL
MODEL 8
REMARK VINA RESULT:    -4.799      1.986      7.023
REMARK INTER + INTRA:          -5.904
REMARK INTER:                  -5.605
REMARK INTRA:                  -0.300
REMARK UNBOUND:                -0.264
REMARK SMILES O=c1cc(-c2ccc(O)c(O)c2)oc2cc(O)cc(O)c12
REMARK SMILES IDX 4 1 3 2 2 3 1 4 21 5 19 6 18 7 16 8 15 9 14 10 13 11 5 12
REMARK SMILES IDX 6 13 7 14 8 15 12 16 10 17 9 18 11 20 20 22 17 24
REMARK H PARENT 9 19 11 21 20 23 17 25
REMARK Flexibility Score: inf
ROOT
ATOM      1  C   UNL     1      16.332  -6.205  27.516  1.00  0.00     0.138 A 
ATOM      2  C   UNL     1      15.174  -6.594  28.203  1.00  0.00     0.100 A 
ATOM      3  C   UNL     1      14.390  -7.634  27.701  1.00  0.00     0.197 A 
ATOM      4  O   UNL     1      13.328  -7.922  28.311  1.00  0.00    -0.289 OA
ATOM      5  C   UNL     1      14.788  -8.311  26.522  1.00  0.00     0.107 A 
ATOM      6  C   UNL     1      14.085  -9.407  25.937  1.00  0.00     0.134 A 
ATOM      7  C   UNL     1      14.522  -9.931  24.714  1.00  0.00     0.093 A 
ATOM      8  C   UNL     1      15.669  -9.438  24.085  1.00  0.00     0.123 A 
ATOM      9  C   UNL     1      16.389  -8.401  24.675  1.00  0.00     0.094 A 
ATOM     10  C   UNL     1      15.960  -7.834  25.876  1.00  0.00     0.146 A 
ATOM     11  O   UNL     1      16.667  -6.835  26.395  1.00  0.00    -0.456 OA
ENDROOT
BRANCH   1  12
ATOM     12  C   UNL     1      17.205  -5.109  28.006  1.00  0.00     0.021 A 
ATOM     13  C   UNL     1      16.624  -3.983  28.615  1.00  0.00     0.016 A 
ATOM     14  C   UNL     1      17.422  -2.941  29.091  1.00  0.00     0.051 A 
ATOM     15  C   UNL     1      18.814  -3.007  28.977  1.00  0.00     0.157 A 
ATOM     16  C   UNL     1      18.608  -5.178  27.905  1.00  0.00     0.062 A 
ATOM     17  C   UNL     1      19.411  -4.132  28.386  1.00  0.00     0.158 A 
BRANCH  15  18
ATOM     18  O   UNL     1      19.584  -1.951  29.461  1.00  0.00    -0.504 OA
ATOM     19  H   UNL     1      19.196  -1.232  30.060  1.00  0.00     0.293 HD
ENDBRANCH  15  18
BRANCH  17  20
ATOM     20  O   UNL     1      20.799  -4.210  28.280  1.00  0.00    -0.504 OA
ATOM     21  H   UNL     1      21.250  -4.515  27.427  1.00  0.00     0.293 HD
ENDBRANCH  17  20
ENDBRANCH   1  12
BRANCH   6  22
ATOM     22  O   UNL     1      12.976 -10.027  26.518  1.00  0.00    -0.507 OA
ATOM     23  H   UNL     1      12.471  -9.681  27.319  1.00  0.00     0.293 HD
ENDBRANCH   6  22
BRANCH   8  24
ATOM     24  O   UNL     1      16.104  -9.977  22.877  1.00  0.00    -0.508 OA
ATOM     25  H   UNL     1      16.382 -10.948  22.799  1.00  0.00     0.293 HD
ENDBRANCH   8  24
TORSDOF 5
ENDMDL
MODEL 9
REMARK VINA RESULT:    -4.790      6.909     10.190
REMARK INTER + INTRA:          -5.893
REMARK INTER:                  -5.577
REMARK INTRA:                  -0.316
REMARK UNBOUND:                -0.264
REMARK SMILES O=c1cc(-c2ccc(O)c(O)c2)oc2cc(O)cc(O)c12
REMARK SMILES IDX 4 1 3 2 2 3 1 4 21 5 19 6 18 7 16 8 15 9 14 10 13 11 5 12
REMARK SMILES IDX 6 13 7 14 8 15 12 16 10 17 9 18 11 20 20 22 17 24
REMARK H PARENT 9 19 11 21 20 23 17 25
REMARK Flexibility Score: inf
ROOT
ATOM      1  C   UNL     1      23.121   1.470  29.009  1.00  0.00     0.138 A 
ATOM      2  C   UNL     1      23.464   2.601  29.762  1.00  0.00     0.100 A 
ATOM      3  C   UNL     1      23.754   3.801  29.111  1.00  0.00     0.197 A 
ATOM      4  O   UNL     1      24.111   4.784  29.812  1.00  0.00    -0.289 OA
ATOM      5  C   UNL     1      23.666   3.877  27.700  1.00  0.00     0.107 A 
ATOM      6  C   UNL     1      23.906   5.056  26.931  1.00  0.00     0.134 A 
ATOM      7  C   UNL     1      23.885   4.983  25.532  1.00  0.00     0.093 A 
ATOM      8  C   UNL     1      23.576   3.788  24.876  1.00  0.00     0.123 A 
ATOM      9  C   UNL     1      23.291   2.645  25.620  1.00  0.00     0.094 A 
ATOM     10  C   UNL     1      23.338   2.676  27.015  1.00  0.00     0.146 A 
ATOM     11  O   UNL     1      23.076   1.558  27.684  1.00  0.00    -0.456 OA
ENDROOT
BRANCH   1  12
ATOM     12  C   UNL     1      22.800   0.170  29.649  1.00  0.00     0.021 A 
ATOM     13  C   UNL     1      23.066  -0.012  31.017  1.00  0.00     0.016 A 
ATOM     14  C   UNL     1      22.767  -1.223  31.645  1.00  0.00     0.051 A 
ATOM     15  C   UNL     1      22.188  -2.270  30.923  1.00  0.00     0.157 A 
ATOM     16  C   UNL     1      22.204  -0.884  28.928  1.00  0.00     0.062 A 
ATOM     17  C   UNL     1      21.901  -2.099  29.559  1.00  0.00     0.158 A 
BRANCH  15  18
ATOM     18  O   UNL     1      21.902  -3.468  31.577  1.00  0.00    -0.504 OA
ATOM     19  H   UNL     1      22.582  -4.215  31.654  1.00  0.00     0.293 HD
ENDBRANCH  15  18
BRANCH  17  20
ATOM     20  O   UNL     1      21.313  -3.136  28.836  1.00  0.00    -0.504 OA
ATOM     21  H   UNL     1      21.445  -3.228  27.836  1.00  0.00     0.293 HD
ENDBRANCH  17  20
ENDBRANCH   1  12
BRANCH   6  22
ATOM     22  O   UNL     1      24.147   6.317  27.483  1.00  0.00    -0.507 OA
ATOM     23  H   UNL     1      25.050   6.761  27.543  1.00  0.00     0.293 HD
ENDBRANCH   6  22
BRANCH   8  24
ATOM     24  O   UNL     1      23.542   3.730  23.485  1.00  0.00    -0.508 OA
ATOM     25  H   UNL     1      22.666   3.694  22.977  1.00  0.00     0.293 HD
ENDBRANCH   8  24
TORSDOF 5
ENDMDL
