MODEL 1
REMARK VINA RESULT:    -4.821      0.000      0.000
REMARK INTER + INTRA:          -5.102
REMARK INTER:                  -5.102
REMARK INTRA:                   0.000
REMARK UNBOUND:                 0.000
REMARK SMILES O=c1ccc2cc(O)c(O)cc2o1
REMARK SMILES IDX 4 1 3 2 2 3 1 4 13 5 12 6 11 7 9 8 7 9 6 10 5 11 8 12 10 14
REMARK H PARENT 8 13 10 15
REMARK Flexibility Score: inf
ROOT
ATOM      1  C   UNL     1      32.248  -7.960 -29.311  1.00  0.00     0.019 A 
ATOM      2  C   UNL     1      33.333  -8.016 -30.184  1.00  0.00     0.094 A 
ATOM      3  C   UNL     1      33.097  -7.987 -31.563  1.00  0.00     0.336 A 
ATOM      4  O   UNL     1      34.063  -8.036 -32.367  1.00  0.00    -0.246 OA
ATOM      5  O   UNL     1      31.854  -7.906 -32.031  1.00  0.00    -0.423 OA
ATOM      6  C   UNL     1      30.790  -7.851 -31.233  1.00  0.00     0.142 A 
ATOM      7  C   UNL     1      29.508  -7.768 -31.782  1.00  0.00     0.098 A 
ATOM      8  C   UNL     1      28.382  -7.709 -30.946  1.00  0.00     0.161 A 
ATOM      9  C   UNL     1      28.543  -7.734 -29.552  1.00  0.00     0.158 A 
ATOM     10  C   UNL     1      29.828  -7.818 -28.996  1.00  0.00     0.062 A 
ATOM     11  C   UNL     1      30.952  -7.876 -29.830  1.00  0.00     0.022 A 
ENDROOT
BRANCH   9  12
ATOM     12  O   UNL     1      27.421  -7.675 -28.729  1.00  0.00    -0.504 OA
ATOM     13  H   UNL     1      27.504  -7.665 -27.719  1.00  0.00     0.293 HD
ENDBRANCH   9  12
BRANCH   8  14
ATOM     14  O   UNL     1      27.103  -7.626 -31.491  1.00  0.00    -0.504 OA
ATOM     15  H   UNL     1      26.955  -7.589 -32.493  1.00  0.00     0.293 HD
ENDBRANCH   8  14
TORSDOF 2
ENDMDL
MODEL 2
REMARK VINA RESULT:    -4.621      3.036      3.966
REMARK INTER + INTRA:          -4.892
REMARK INTER:                  -4.892
REMARK INTRA:                   0.000
REMARK UNBOUND:                 0.000
REMARK SMILES O=c1ccc2cc(O)c(O)cc2o1
REMARK SMILES IDX 4 1 3 2 2 3 1 4 13 5 12 6 11 7 9 8 7 9 6 10 5 11 8 12 10 14
REMARK H PARENT 8 13 10 15
REMARK Flexibility Score: inf
ROOT
ATOM      1  C   UNL     1      31.186  -5.039 -31.526  1.00  0.00     0.019 A 
ATOM      2  C   UNL     1      31.284  -3.817 -30.861  1.00  0.00     0.094 A 
ATOM      3  C   UNL     1      30.272  -3.449 -29.967  1.00  0.00     0.336 A 
ATOM      4  O   UNL     1      30.343  -2.351 -29.356  1.00  0.00    -0.246 OA
ATOM      5  O   UNL     1      29.233  -4.254 -29.757  1.00  0.00    -0.423 OA
ATOM      6  C   UNL     1      29.101  -5.427 -30.371  1.00  0.00     0.142 A 
ATOM      7  C   UNL     1      27.987  -6.230 -30.111  1.00  0.00     0.098 A 
ATOM      8  C   UNL     1      27.842  -7.468 -30.756  1.00  0.00     0.161 A 
ATOM      9  C   UNL     1      28.817  -7.903 -31.666  1.00  0.00     0.158 A 
ATOM     10  C   UNL     1      29.938  -7.100 -31.931  1.00  0.00     0.062 A 
ATOM     11  C   UNL     1      30.083  -5.865 -31.287  1.00  0.00     0.022 A 
ENDROOT
BRANCH   9  12
ATOM     12  O   UNL     1      28.667  -9.133 -32.302  1.00  0.00    -0.504 OA
ATOM     13  H   UNL     1      27.920  -9.299 -32.966  1.00  0.00     0.293 HD
ENDBRANCH   9  12
BRANCH   8  14
ATOM     14  O   UNL     1      26.732  -8.270 -30.499  1.00  0.00    -0.504 OA
ATOM     15  H   UNL     1      25.797  -7.883 -30.457  1.00  0.00     0.293 HD
ENDBRANCH   8  14
TORSDOF 2
ENDMDL
MODEL 3
REMARK VINA RESULT:    -4.578      2.967      3.659
REMARK INTER + INTRA:          -4.845
REMARK INTER:                  -4.845
REMARK INTRA:                   0.000
REMARK UNBOUND:                 0.000
REMARK SMILES O=c1ccc2cc(O)c(O)cc2o1
REMARK SMILES IDX 4 1 3 2 2 3 1 4 13 5 12 6 11 7 9 8 7 9 6 10 5 11 8 12 10 14
REMARK H PARENT 8 13 10 15
REMARK Flexibility Score: inf
ROOT
ATOM      1  C   UNL     1      28.699  -4.221 -29.197  1.00  0.00     0.019 A 
ATOM      2  C   UNL     1      29.749  -3.321 -29.374  1.00  0.00     0.094 A 
ATOM      3  C   UNL     1      30.753  -3.626 -30.300  1.00  0.00     0.336 A 
ATOM      4  O   UNL     1      31.709  -2.826 -30.476  1.00  0.00    -0.246 OA
ATOM      5  O   UNL     1      30.705  -4.757 -30.999  1.00  0.00    -0.423 OA
ATOM      6  C   UNL     1      29.721  -5.644 -30.860  1.00  0.00     0.142 A 
ATOM      7  C   UNL     1      29.723  -6.815 -31.621  1.00  0.00     0.098 A 
ATOM      8  C   UNL     1      28.688  -7.753 -31.478  1.00  0.00     0.161 A 
ATOM      9  C   UNL     1      27.647  -7.515 -30.568  1.00  0.00     0.158 A 
ATOM     10  C   UNL     1      27.641  -6.339 -29.802  1.00  0.00     0.062 A 
ATOM     11  C   UNL     1      28.673  -5.404 -29.944  1.00  0.00     0.022 A 
ENDROOT
BRANCH   9  12
ATOM     12  O   UNL     1      26.624  -8.450 -30.432  1.00  0.00    -0.504 OA
ATOM     13  H   UNL     1      26.259  -8.957 -31.230  1.00  0.00     0.293 HD
ENDBRANCH   9  12
BRANCH   8  14
ATOM     14  O   UNL     1      28.688  -8.923 -32.236  1.00  0.00    -0.504 OA
ATOM     15  H   UNL     1      27.844  -9.465 -32.373  1.00  0.00     0.293 HD
ENDBRANCH   8  14
TORSDOF 2
ENDMDL
MODEL 4
REMARK VINA RESULT:    -4.535      1.778      4.895
REMARK INTER + INTRA:          -4.800
REMARK INTER:                  -4.800
REMARK INTRA:                   0.000
REMARK UNBOUND:                 0.000
REMARK SMILES O=c1ccc2cc(O)c(O)cc2o1
REMARK SMILES IDX 4 1 3 2 2 3 1 4 13 5 12 6 11 7 9 8 7 9 6 10 5 11 8 12 10 14
REMARK H PARENT 8 13 10 15
REMARK Flexibility Score: inf
ROOT
ATOM      1  C   UNL     1      28.933  -5.406 -30.745  1.00  0.00     0.019 A 
ATOM      2  C   UNL     1      27.907  -6.126 -30.135  1.00  0.00     0.094 A 
ATOM      3  C   UNL     1      28.021  -7.517 -30.037  1.00  0.00     0.336 A 
ATOM      4  O   UNL     1      27.106  -8.185 -29.489  1.00  0.00    -0.246 OA
ATOM      5  O   UNL     1      29.093  -8.141 -30.518  1.00  0.00    -0.423 OA
ATOM      6  C   UNL     1      30.094  -7.492 -31.108  1.00  0.00     0.142 A 
ATOM      7  C   UNL     1      31.196  -8.201 -31.595  1.00  0.00     0.098 A 
ATOM      8  C   UNL     1      32.254  -7.522 -32.218  1.00  0.00     0.161 A 
ATOM      9  C   UNL     1      32.209  -6.126 -32.353  1.00  0.00     0.158 A 
ATOM     10  C   UNL     1      31.105  -5.410 -31.865  1.00  0.00     0.062 A 
ATOM     11  C   UNL     1      30.049  -6.087 -31.244  1.00  0.00     0.022 A 
ENDROOT
BRANCH   9  12
ATOM     12  O   UNL     1      33.263  -5.459 -32.972  1.00  0.00    -0.504 OA
ATOM     13  H   UNL     1      33.518  -4.513 -32.715  1.00  0.00     0.293 HD
ENDBRANCH   9  12
BRANCH   8  14
ATOM     14  O   UNL     1      33.353  -8.226 -32.706  1.00  0.00    -0.504 OA
ATOM     15  H   UNL     1      33.252  -8.941 -33.416  1.00  0.00     0.293 HD
ENDBRANCH   8  14
TORSDOF 2
ENDMDL
MODEL 5
REMARK VINA RESULT:    -4.453      1.376      5.103
REMARK INTER + INTRA:          -4.714
REMARK INTER:                  -4.714
REMARK INTRA:                   0.000
REMARK UNBOUND:                 0.000
REMARK SMILES O=c1ccc2cc(O)c(O)cc2o1
REMARK SMILES IDX 4 1 3 2 2 3 1 4 13 5 12 6 11 7 9 8 7 9 6 10 5 11 8 12 10 14
REMARK H PARENT 8 13 10 15
REMARK Flexibility Score: inf
ROOT
ATOM      1  C   UNL     1      27.968  -7.375 -31.115  1.00  0.00     0.019 A 
ATOM      2  C   UNL     1      27.009  -7.173 -30.123  1.00  0.00     0.094 A 
ATOM      3  C   UNL     1      27.405  -7.206 -28.781  1.00  0.00     0.336 A 
ATOM      4  O   UNL     1      26.555  -7.024 -27.871  1.00  0.00    -0.246 OA
ATOM      5  O   UNL     1      28.678  -7.425 -28.459  1.00  0.00    -0.423 OA
ATOM      6  C   UNL     1      29.624  -7.623 -29.374  1.00  0.00     0.142 A 
ATOM      7  C   UNL     1      30.944  -7.850 -28.976  1.00  0.00     0.098 A 
ATOM      8  C   UNL     1      31.946  -8.059 -29.937  1.00  0.00     0.161 A 
ATOM      9  C   UNL     1      31.623  -8.041 -31.302  1.00  0.00     0.158 A 
ATOM     10  C   UNL     1      30.299  -7.813 -31.706  1.00  0.00     0.062 A 
ATOM     11  C   UNL     1      29.299  -7.605 -30.748  1.00  0.00     0.022 A 
ENDROOT
BRANCH   9  12
ATOM     12  O   UNL     1      32.623  -8.249 -32.249  1.00  0.00    -0.504 OA
ATOM     13  H   UNL     1      32.522  -8.939 -32.984  1.00  0.00     0.293 HD
ENDBRANCH   9  12
BRANCH   8  14
ATOM     14  O   UNL     1      33.263  -8.286 -29.543  1.00  0.00    -0.504 OA
ATOM     15  H   UNL     1      33.560  -8.154 -28.583  1.00  0.00     0.293 HD
ENDBRANCH   8  14
TORSDOF 2
ENDMDL
MODEL 6
REMARK VINA RESULT:    -4.435      1.643      1.743
REMARK INTER + INTRA:          -4.695
REMARK INTER:                  -4.695
REMARK INTRA:                   0.000
REMARK UNBOUND:                 0.000
REMARK SMILES O=c1ccc2cc(O)c(O)cc2o1
REMARK SMILES IDX 4 1 3 2 2 3 1 4 13 5 12 6 11 7 9 8 7 9 6 10 5 11 8 12 10 14
REMARK H PARENT 8 13 10 15
REMARK Flexibility Score: inf
ROOT
ATOM      1  C   UNL     1      32.196  -5.505 -30.807  1.00  0.00     0.019 A 
ATOM      2  C   UNL     1      33.267  -6.244 -31.306  1.00  0.00     0.094 A 
ATOM      3  C   UNL     1      33.014  -7.485 -31.902  1.00  0.00     0.336 A 
ATOM      4  O   UNL     1      33.968  -8.168 -32.360  1.00  0.00    -0.246 OA
ATOM      5  O   UNL     1      31.771  -7.950 -31.989  1.00  0.00    -0.423 OA
ATOM      6  C   UNL     1      30.721  -7.277 -31.524  1.00  0.00     0.142 A 
ATOM      7  C   UNL     1      29.437  -7.815 -31.643  1.00  0.00     0.098 A 
ATOM      8  C   UNL     1      28.326  -7.110 -31.155  1.00  0.00     0.161 A 
ATOM      9  C   UNL     1      28.503  -5.859 -30.545  1.00  0.00     0.158 A 
ATOM     10  C   UNL     1      29.790  -5.314 -30.423  1.00  0.00     0.062 A 
ATOM     11  C   UNL     1      30.899  -6.018 -30.910  1.00  0.00     0.022 A 
ENDROOT
BRANCH   9  12
ATOM     12  O   UNL     1      27.396  -5.165 -30.063  1.00  0.00    -0.504 OA
ATOM     13  H   UNL     1      26.964  -5.402 -29.177  1.00  0.00     0.293 HD
ENDBRANCH   9  12
BRANCH   8  14
ATOM     14  O   UNL     1      27.045  -7.645 -31.271  1.00  0.00    -0.504 OA
ATOM     15  H   UNL     1      26.880  -8.644 -31.218  1.00  0.00     0.293 HD
ENDBRANCH   8  14
TORSDOF 2
ENDMDL
MODEL 7
REMARK VINA RESULT:    -4.347      2.677      5.528
REMARK INTER + INTRA:          -4.601
REMARK INTER:                  -4.601
REMARK INTRA:                   0.000
REMARK UNBOUND:                 0.000
REMARK SMILES O=c1ccc2cc(O)c(O)cc2o1
REMARK SMILES IDX 4 1 3 2 2 3 1 4 13 5 12 6 11 7 9 8 7 9 6 10 5 11 8 12 10 14
REMARK H PARENT 8 13 10 15
REMARK Flexibility Score: inf
ROOT
ATOM      1  C   UNL     1      27.928  -4.289 -28.991  1.00  0.00     0.019 A 
ATOM      2  C   UNL     1      26.863  -4.295 -28.091  1.00  0.00     0.094 A 
ATOM      3  C   UNL     1      26.066  -5.440 -27.992  1.00  0.00     0.336 A 
ATOM      4  O   UNL     1      25.100  -5.465 -27.185  1.00  0.00    -0.246 OA
ATOM      5  O   UNL     1      26.322  -6.507 -28.745  1.00  0.00    -0.423 OA
ATOM      6  C   UNL     1      27.327  -6.543 -29.617  1.00  0.00     0.142 A 
ATOM      7  C   UNL     1      27.548  -7.691 -30.382  1.00  0.00     0.098 A 
ATOM      8  C   UNL     1      28.606  -7.735 -31.303  1.00  0.00     0.161 A 
ATOM      9  C   UNL     1      29.447  -6.623 -31.457  1.00  0.00     0.158 A 
ATOM     10  C   UNL     1      29.230  -5.468 -30.690  1.00  0.00     0.062 A 
ATOM     11  C   UNL     1      28.174  -5.424 -29.772  1.00  0.00     0.022 A 
ENDROOT
BRANCH   9  12
ATOM     12  O   UNL     1      30.496  -6.674 -32.372  1.00  0.00    -0.504 OA
ATOM     13  H   UNL     1      30.875  -7.556 -32.696  1.00  0.00     0.293 HD
ENDBRANCH   9  12
BRANCH   8  14
ATOM     14  O   UNL     1      28.827  -8.879 -32.068  1.00  0.00    -0.504 OA
ATOM     15  H   UNL     1      29.730  -9.338 -32.085  1.00  0.00     0.293 HD
ENDBRANCH   8  14
TORSDOF 2
ENDMDL
MODEL 8
REMARK VINA RESULT:    -4.305      3.375      4.984
REMARK INTER + INTRA:          -4.557
REMARK INTER:                  -4.557
REMARK INTRA:                   0.000
REMARK UNBOUND:                 0.000
REMARK SMILES O=c1ccc2cc(O)c(O)cc2o1
REMARK SMILES IDX 4 1 3 2 2 3 1 4 13 5 12 6 11 7 9 8 7 9 6 10 5 11 8 12 10 14
REMARK H PARENT 8 13 10 15
REMARK Flexibility Score: inf
ROOT
ATOM      1  C   UNL     1      26.727  -4.849 -27.899  1.00  0.00     0.019 A 
ATOM      2  C   UNL     1      27.234  -3.552 -27.966  1.00  0.00     0.094 A 
ATOM      3  C   UNL     1      28.159  -3.238 -28.969  1.00  0.00     0.336 A 
ATOM      4  O   UNL     1      28.628  -2.072 -29.047  1.00  0.00    -0.246 OA
ATOM      5  O   UNL     1      28.545  -4.163 -29.844  1.00  0.00    -0.423 OA
ATOM      6  C   UNL     1      28.086  -5.412 -29.814  1.00  0.00     0.142 A 
ATOM      7  C   UNL     1      28.528  -6.342 -30.759  1.00  0.00     0.098 A 
ATOM      8  C   UNL     1      28.047  -7.660 -30.733  1.00  0.00     0.161 A 
ATOM      9  C   UNL     1      27.119  -8.048 -29.755  1.00  0.00     0.158 A 
ATOM     10  C   UNL     1      26.671  -7.118 -28.805  1.00  0.00     0.062 A 
ATOM     11  C   UNL     1      27.151  -5.802 -28.830  1.00  0.00     0.022 A 
ENDROOT
BRANCH   9  12
ATOM     12  O   UNL     1      26.646  -9.358 -29.736  1.00  0.00    -0.504 OA
ATOM     13  H   UNL     1      27.065 -10.082 -30.307  1.00  0.00     0.293 HD
ENDBRANCH   9  12
BRANCH   8  14
ATOM     14  O   UNL     1      28.487  -8.589 -31.673  1.00  0.00    -0.504 OA
ATOM     15  H   UNL     1      29.352  -8.457 -32.184  1.00  0.00     0.293 HD
ENDBRANCH   8  14
TORSDOF 2
ENDMDL
MODEL 9
REMARK VINA RESULT:    -4.194      2.063      2.829
REMARK INTER + INTRA:          -4.439
REMARK INTER:                  -4.439
REMARK INTRA:                   0.000
REMARK UNBOUND:                 0.000
REMARK SMILES O=c1ccc2cc(O)c(O)cc2o1
REMARK SMILES IDX 4 1 3 2 2 3 1 4 13 5 12 6 11 7 9 8 7 9 6 10 5 11 8 12 10 14
REMARK H PARENT 8 13 10 15
REMARK Flexibility Score: inf
ROOT
ATOM      1  C   UNL     1      32.169  -8.231 -30.362  1.00  0.00     0.019 A 
ATOM      2  C   UNL     1      32.970  -8.172 -29.222  1.00  0.00     0.094 A 
ATOM      3  C   UNL     1      32.380  -7.850 -27.995  1.00  0.00     0.336 A 
ATOM      4  O   UNL     1      33.086  -7.793 -26.955  1.00  0.00    -0.246 OA
ATOM      5  O   UNL     1      31.074  -7.605 -27.919  1.00  0.00    -0.423 OA
ATOM      6  C   UNL     1      30.274  -7.650 -28.982  1.00  0.00     0.142 A 
ATOM      7  C   UNL     1      28.910  -7.383 -28.842  1.00  0.00     0.098 A 
ATOM      8  C   UNL     1      28.062  -7.430 -29.959  1.00  0.00     0.161 A 
ATOM      9  C   UNL     1      28.583  -7.745 -31.223  1.00  0.00     0.158 A 
ATOM     10  C   UNL     1      29.953  -8.014 -31.369  1.00  0.00     0.062 A 
ATOM     11  C   UNL     1      30.799  -7.968 -30.254  1.00  0.00     0.022 A 
ENDROOT
BRANCH   9  12
ATOM     12  O   UNL     1      27.735  -7.789 -32.327  1.00  0.00    -0.504 OA
ATOM     13  H   UNL     1      26.876  -8.326 -32.315  1.00  0.00     0.293 HD
ENDBRANCH   9  12
BRANCH   8  14
ATOM     14  O   UNL     1      26.701  -7.162 -29.822  1.00  0.00    -0.504 OA
ATOM     15  H   UNL     1      26.235  -7.232 -28.925  1.00  0.00     0.293 HD
ENDBRANCH   8  14
TORSDOF 2
ENDMDL
