MODEL 1
REMARK VINA RESULT:    -6.511      0.000      0.000
REMARK INTER + INTRA:          -7.800
REMARK INTER:                  -7.653
REMARK INTRA:                  -0.147
REMARK UNBOUND:                -0.147
REMARK SMILES O=c1c(O)c(-c2ccc(O)cc2)oc2cc(O)cc(O)c12
REMARK SMILES IDX 5 1 3 2 2 3 1 4 21 5 19 6 18 7 16 8 15 9 14 10 13 11 6 12
REMARK SMILES IDX 7 13 8 14 9 15 12 16 11 17 10 18 4 20 20 22 17 24
REMARK H PARENT 10 19 4 21 20 23 17 25
REMARK Flexibility Score: inf
ROOT
ATOM      1  C   UNL     1      31.436 -91.744  37.595  1.00  0.00     0.180 A 
ATOM      2  C   UNL     1      30.196 -92.349  37.311  1.00  0.00     0.208 A 
ATOM      3  C   UNL     1      30.051 -93.730  37.520  1.00  0.00     0.238 A 
ATOM      4  O   UNL     1      28.943 -94.280  37.280  1.00  0.00    -0.285 OA
ATOM      5  C   UNL     1      31.148 -94.483  37.987  1.00  0.00     0.111 A 
ATOM      6  C   UNL     1      31.086 -95.878  38.219  1.00  0.00     0.134 A 
ATOM      7  C   UNL     1      32.225 -96.558  38.676  1.00  0.00     0.093 A 
ATOM      8  C   UNL     1      33.421 -95.874  38.903  1.00  0.00     0.123 A 
ATOM      9  C   UNL     1      33.488 -94.495  38.676  1.00  0.00     0.094 A 
ATOM     10  C   UNL     1      32.364 -93.799  38.223  1.00  0.00     0.146 A 
ATOM     11  O   UNL     1      32.453 -92.489  38.020  1.00  0.00    -0.452 OA
ENDROOT
BRANCH   1  12
ATOM     12  C   UNL     1      31.662 -90.292  37.419  1.00  0.00     0.021 A 
ATOM     13  C   UNL     1      32.648 -89.849  36.521  1.00  0.00     0.016 A 
ATOM     14  C   UNL     1      32.893 -88.482  36.355  1.00  0.00     0.047 A 
ATOM     15  C   UNL     1      32.167 -87.542  37.098  1.00  0.00     0.115 A 
ATOM     16  C   UNL     1      30.950 -89.342  38.175  1.00  0.00     0.016 A 
ATOM     17  C   UNL     1      31.198 -87.976  38.008  1.00  0.00     0.047 A 
BRANCH  15  18
ATOM     18  O   UNL     1      32.401 -86.178  36.941  1.00  0.00    -0.508 OA
ATOM     19  H   UNL     1      32.717 -85.793  36.057  1.00  0.00     0.293 HD
ENDBRANCH  15  18
ENDBRANCH   1  12
BRANCH   2  20
ATOM     20  O   UNL     1      29.140 -91.589  36.802  1.00  0.00    -0.502 OA
ATOM     21  H   UNL     1      28.996 -90.620  37.057  1.00  0.00     0.293 HD
ENDBRANCH   2  20
BRANCH   6  22
ATOM     22  O   UNL     1      29.907 -96.591  38.000  1.00  0.00    -0.507 OA
ATOM     23  H   UNL     1      29.182 -96.652  38.707  1.00  0.00     0.293 HD
ENDBRANCH   6  22
BRANCH   8  24
ATOM     24  O   UNL     1      34.537 -96.573  39.356  1.00  0.00    -0.508 OA
ATOM     25  H   UNL     1      35.465 -96.377  39.000  1.00  0.00     0.293 HD
ENDBRANCH   8  24
TORSDOF 5
ENDMDL
MODEL 2
REMARK VINA RESULT:    -5.834      9.519     10.823
REMARK INTER + INTRA:          -7.004
REMARK INTER:                  -6.731
REMARK INTRA:                  -0.274
REMARK UNBOUND:                -0.147
REMARK SMILES O=c1c(O)c(-c2ccc(O)cc2)oc2cc(O)cc(O)c12
REMARK SMILES IDX 5 1 3 2 2 3 1 4 21 5 19 6 18 7 16 8 15 9 14 10 13 11 6 12
REMARK SMILES IDX 7 13 8 14 9 15 12 16 11 17 10 18 4 20 20 22 17 24
REMARK H PARENT 10 19 4 21 20 23 17 25
REMARK Flexibility Score: inf
ROOT
ATOM      1  C   UNL     1      36.641 -95.099  29.926  1.00  0.00     0.180 A 
ATOM      2  C   UNL     1      37.714 -95.463  29.088  1.00  0.00     0.208 A 
ATOM      3  C   UNL     1      39.014 -95.480  29.618  1.00  0.00     0.238 A 
ATOM      4  O   UNL     1      39.980 -95.815  28.881  1.00  0.00    -0.285 OA
ATOM      5  C   UNL     1      39.222 -95.113  30.964  1.00  0.00     0.111 A 
ATOM      6  C   UNL     1      40.500 -95.099  31.574  1.00  0.00     0.134 A 
ATOM      7  C   UNL     1      40.625 -94.713  32.916  1.00  0.00     0.093 A 
ATOM      8  C   UNL     1      39.503 -94.341  33.659  1.00  0.00     0.123 A 
ATOM      9  C   UNL     1      38.238 -94.354  33.062  1.00  0.00     0.094 A 
ATOM     10  C   UNL     1      38.091 -94.737  31.726  1.00  0.00     0.146 A 
ATOM     11  O   UNL     1      36.878 -94.745  31.185  1.00  0.00    -0.452 OA
ENDROOT
BRANCH   1  12
ATOM     12  C   UNL     1      35.241 -95.077  29.446  1.00  0.00     0.021 A 
ATOM     13  C   UNL     1      34.422 -96.200  29.651  1.00  0.00     0.016 A 
ATOM     14  C   UNL     1      33.103 -96.209  29.186  1.00  0.00     0.047 A 
ATOM     15  C   UNL     1      32.592 -95.102  28.496  1.00  0.00     0.115 A 
ATOM     16  C   UNL     1      34.726 -93.976  28.735  1.00  0.00     0.016 A 
ATOM     17  C   UNL     1      33.407 -93.989  28.271  1.00  0.00     0.047 A 
BRANCH  15  18
ATOM     18  O   UNL     1      31.280 -95.099  28.030  1.00  0.00    -0.508 OA
ATOM     19  H   UNL     1      30.550 -95.627  28.496  1.00  0.00     0.293 HD
ENDBRANCH  15  18
ENDBRANCH   1  12
BRANCH   2  20
ATOM     20  O   UNL     1      37.487 -95.774  27.745  1.00  0.00    -0.502 OA
ATOM     21  H   UNL     1      36.639 -96.228  27.428  1.00  0.00     0.293 HD
ENDBRANCH   2  20
BRANCH   6  22
ATOM     22  O   UNL     1      41.641 -95.464  30.858  1.00  0.00    -0.507 OA
ATOM     23  H   UNL     1      41.853 -95.062  29.951  1.00  0.00     0.293 HD
ENDBRANCH   6  22
BRANCH   8  24
ATOM     24  O   UNL     1      39.655 -93.961  34.990  1.00  0.00    -0.508 OA
ATOM     25  H   UNL     1      39.761 -94.648  35.728  1.00  0.00     0.293 HD
ENDBRANCH   8  24
TORSDOF 5
ENDMDL
MODEL 3
REMARK VINA RESULT:    -5.694      1.286      3.055
REMARK INTER + INTRA:          -6.839
REMARK INTER:                  -6.804
REMARK INTRA:                  -0.035
REMARK UNBOUND:                -0.147
REMARK SMILES O=c1c(O)c(-c2ccc(O)cc2)oc2cc(O)cc(O)c12
REMARK SMILES IDX 5 1 3 2 2 3 1 4 21 5 19 6 18 7 16 8 15 9 14 10 13 11 6 12
REMARK SMILES IDX 7 13 8 14 9 15 12 16 11 17 10 18 4 20 20 22 17 24
REMARK H PARENT 10 19 4 21 20 23 17 25
REMARK Flexibility Score: inf
ROOT
ATOM      1  C   UNL     1      31.489 -92.082  37.657  1.00  0.00     0.180 A 
ATOM      2  C   UNL     1      32.547 -92.941  38.013  1.00  0.00     0.208 A 
ATOM      3  C   UNL     1      32.289 -94.314  38.150  1.00  0.00     0.238 A 
ATOM      4  O   UNL     1      33.231 -95.094  38.457  1.00  0.00    -0.285 OA
ATOM      5  C   UNL     1      30.981 -94.801  37.951  1.00  0.00     0.111 A 
ATOM      6  C   UNL     1      30.636 -96.168  38.075  1.00  0.00     0.134 A 
ATOM      7  C   UNL     1      29.308 -96.572  37.870  1.00  0.00     0.093 A 
ATOM      8  C   UNL     1      28.321 -95.639  37.546  1.00  0.00     0.123 A 
ATOM      9  C   UNL     1      28.655 -94.287  37.423  1.00  0.00     0.094 A 
ATOM     10  C   UNL     1      29.973 -93.864  37.621  1.00  0.00     0.146 A 
ATOM     11  O   UNL     1      30.265 -92.575  37.493  1.00  0.00    -0.452 OA
ENDROOT
BRANCH   1  12
ATOM     12  C   UNL     1      31.685 -90.626  37.475  1.00  0.00     0.021 A 
ATOM     13  C   UNL     1      32.649 -90.167  36.560  1.00  0.00     0.016 A 
ATOM     14  C   UNL     1      32.866 -88.797  36.388  1.00  0.00     0.047 A 
ATOM     15  C   UNL     1      32.135 -87.868  37.140  1.00  0.00     0.115 A 
ATOM     16  C   UNL     1      30.968 -89.687  38.239  1.00  0.00     0.016 A 
ATOM     17  C   UNL     1      31.189 -88.317  38.066  1.00  0.00     0.047 A 
BRANCH  15  18
ATOM     18  O   UNL     1      32.343 -86.500  36.977  1.00  0.00    -0.508 OA
ATOM     19  H   UNL     1      32.964 -85.982  37.588  1.00  0.00     0.293 HD
ENDBRANCH  15  18
ENDBRANCH   1  12
BRANCH   2  20
ATOM     20  O   UNL     1      33.824 -92.427  38.253  1.00  0.00    -0.502 OA
ATOM     21  H   UNL     1      34.587 -92.541  37.596  1.00  0.00     0.293 HD
ENDBRANCH   2  20
BRANCH   6  22
ATOM     22  O   UNL     1      31.599 -97.125  38.397  1.00  0.00    -0.507 OA
ATOM     23  H   UNL     1      31.450 -98.112  38.221  1.00  0.00     0.293 HD
ENDBRANCH   6  22
BRANCH   8  24
ATOM     24  O   UNL     1      27.010 -96.067  37.349  1.00  0.00    -0.508 OA
ATOM     25  H   UNL     1      26.728 -96.532  36.494  1.00  0.00     0.293 HD
ENDBRANCH   8  24
TORSDOF 5
ENDMDL
MODEL 4
REMARK VINA RESULT:    -5.571      9.500     11.061
REMARK INTER + INTRA:          -6.695
REMARK INTER:                  -6.500
REMARK INTRA:                  -0.194
REMARK UNBOUND:                -0.147
REMARK SMILES O=c1c(O)c(-c2ccc(O)cc2)oc2cc(O)cc(O)c12
REMARK SMILES IDX 5 1 3 2 2 3 1 4 21 5 19 6 18 7 16 8 15 9 14 10 13 11 6 12
REMARK SMILES IDX 7 13 8 14 9 15 12 16 11 17 10 18 4 20 20 22 17 24
REMARK H PARENT 10 19 4 21 20 23 17 25
REMARK Flexibility Score: inf
ROOT
ATOM      1  C   UNL     1      37.920 -95.208  30.999  1.00  0.00     0.180 A 
ATOM      2  C   UNL     1      38.499 -95.954  29.954  1.00  0.00     0.208 A 
ATOM      3  C   UNL     1      37.793 -96.091  28.747  1.00  0.00     0.238 A 
ATOM      4  O   UNL     1      38.306 -96.746  27.800  1.00  0.00    -0.285 OA
ATOM      5  C   UNL     1      36.518 -95.503  28.614  1.00  0.00     0.111 A 
ATOM      6  C   UNL     1      35.741 -95.598  27.435  1.00  0.00     0.134 A 
ATOM      7  C   UNL     1      34.477 -94.992  27.385  1.00  0.00     0.093 A 
ATOM      8  C   UNL     1      33.976 -94.295  28.487  1.00  0.00     0.123 A 
ATOM      9  C   UNL     1      34.740 -94.197  29.654  1.00  0.00     0.094 A 
ATOM     10  C   UNL     1      36.002 -94.793  29.724  1.00  0.00     0.146 A 
ATOM     11  O   UNL     1      36.709 -94.680  30.843  1.00  0.00    -0.452 OA
ENDROOT
BRANCH   1  12
ATOM     12  C   UNL     1      38.609 -95.002  32.293  1.00  0.00     0.021 A 
ATOM     13  C   UNL     1      38.066 -95.561  33.463  1.00  0.00     0.016 A 
ATOM     14  C   UNL     1      38.688 -95.360  34.699  1.00  0.00     0.047 A 
ATOM     15  C   UNL     1      39.852 -94.585  34.783  1.00  0.00     0.115 A 
ATOM     16  C   UNL     1      39.768 -94.209  32.389  1.00  0.00     0.016 A 
ATOM     17  C   UNL     1      40.387 -94.009  33.627  1.00  0.00     0.047 A 
BRANCH  15  18
ATOM     18  O   UNL     1      40.481 -94.379  36.009  1.00  0.00    -0.508 OA
ATOM     19  H   UNL     1      39.958 -94.103  36.833  1.00  0.00     0.293 HD
ENDBRANCH  15  18
ENDBRANCH   1  12
BRANCH   2  20
ATOM     20  O   UNL     1      39.741 -96.568  30.128  1.00  0.00    -0.502 OA
ATOM     21  H   UNL     1      40.182 -96.654  31.035  1.00  0.00     0.293 HD
ENDBRANCH   2  20
BRANCH   6  22
ATOM     22  O   UNL     1      36.213 -96.287  26.318  1.00  0.00    -0.507 OA
ATOM     23  H   UNL     1      37.202 -96.456  26.174  1.00  0.00     0.293 HD
ENDBRANCH   6  22
BRANCH   8  24
ATOM     24  O   UNL     1      32.718 -93.703  28.411  1.00  0.00    -0.508 OA
ATOM     25  H   UNL     1      31.914 -94.105  28.879  1.00  0.00     0.293 HD
ENDBRANCH   8  24
TORSDOF 5
ENDMDL
MODEL 5
REMARK VINA RESULT:    -5.435      7.822     10.325
REMARK INTER + INTRA:          -6.535
REMARK INTER:                  -6.298
REMARK INTRA:                  -0.237
REMARK UNBOUND:                -0.147
REMARK SMILES O=c1c(O)c(-c2ccc(O)cc2)oc2cc(O)cc(O)c12
REMARK SMILES IDX 5 1 3 2 2 3 1 4 21 5 19 6 18 7 16 8 15 9 14 10 13 11 6 12
REMARK SMILES IDX 7 13 8 14 9 15 12 16 11 17 10 18 4 20 20 22 17 24
REMARK H PARENT 10 19 4 21 20 23 17 25
REMARK Flexibility Score: inf
ROOT
ATOM      1  C   UNL     1      40.378 -95.135  35.297  1.00  0.00     0.180 A 
ATOM      2  C   UNL     1      41.405 -94.739  36.175  1.00  0.00     0.208 A 
ATOM      3  C   UNL     1      41.182 -94.817  37.559  1.00  0.00     0.238 A 
ATOM      4  O   UNL     1      42.098 -94.476  38.355  1.00  0.00    -0.285 OA
ATOM      5  C   UNL     1      39.935 -95.267  38.040  1.00  0.00     0.111 A 
ATOM      6  C   UNL     1      39.628 -95.371  39.418  1.00  0.00     0.134 A 
ATOM      7  C   UNL     1      38.360 -95.820  39.816  1.00  0.00     0.093 A 
ATOM      8  C   UNL     1      37.396 -96.164  38.867  1.00  0.00     0.123 A 
ATOM      9  C   UNL     1      37.693 -96.064  37.504  1.00  0.00     0.094 A 
ATOM     10  C   UNL     1      38.951 -95.621  37.086  1.00  0.00     0.146 A 
ATOM     11  O   UNL     1      39.210 -95.540  35.786  1.00  0.00    -0.452 OA
ENDROOT
BRANCH   1  12
ATOM     12  C   UNL     1      40.544 -95.099  33.826  1.00  0.00     0.021 A 
ATOM     13  C   UNL     1      39.849 -94.136  33.075  1.00  0.00     0.016 A 
ATOM     14  C   UNL     1      39.973 -94.098  31.683  1.00  0.00     0.047 A 
ATOM     15  C   UNL     1      40.781 -95.034  31.023  1.00  0.00     0.115 A 
ATOM     16  C   UNL     1      41.338 -96.047  33.154  1.00  0.00     0.016 A 
ATOM     17  C   UNL     1      41.459 -96.007  31.761  1.00  0.00     0.047 A 
BRANCH  15  18
ATOM     18  O   UNL     1      40.913 -95.005  29.636  1.00  0.00    -0.508 OA
ATOM     19  H   UNL     1      41.722 -95.403  29.173  1.00  0.00     0.293 HD
ENDBRANCH  15  18
ENDBRANCH   1  12
BRANCH   2  20
ATOM     20  O   UNL     1      42.614 -94.249  35.674  1.00  0.00    -0.502 OA
ATOM     21  H   UNL     1      43.470 -94.790  35.697  1.00  0.00     0.293 HD
ENDBRANCH   2  20
BRANCH   6  22
ATOM     22  O   UNL     1      40.570 -95.034  40.390  1.00  0.00    -0.507 OA
ATOM     23  H   UNL     1      41.354 -94.425  40.185  1.00  0.00     0.293 HD
ENDBRANCH   6  22
BRANCH   8  24
ATOM     24  O   UNL     1      36.144 -96.606  39.289  1.00  0.00    -0.508 OA
ATOM     25  H   UNL     1      35.373 -96.712  38.640  1.00  0.00     0.293 HD
ENDBRANCH   8  24
TORSDOF 5
ENDMDL
MODEL 6
REMARK VINA RESULT:    -5.189      9.378     10.727
REMARK INTER + INTRA:          -6.245
REMARK INTER:                  -5.993
REMARK INTRA:                  -0.252
REMARK UNBOUND:                -0.147
REMARK SMILES O=c1c(O)c(-c2ccc(O)cc2)oc2cc(O)cc(O)c12
REMARK SMILES IDX 5 1 3 2 2 3 1 4 21 5 19 6 18 7 16 8 15 9 14 10 13 11 6 12
REMARK SMILES IDX 7 13 8 14 9 15 12 16 11 17 10 18 4 20 20 22 17 24
REMARK H PARENT 10 19 4 21 20 23 17 25
REMARK Flexibility Score: inf
ROOT
ATOM      1  C   UNL     1      31.461 -95.705  28.990  1.00  0.00     0.180 A 
ATOM      2  C   UNL     1      31.008 -95.936  30.303  1.00  0.00     0.208 A 
ATOM      3  C   UNL     1      29.647 -96.207  30.513  1.00  0.00     0.238 A 
ATOM      4  O   UNL     1      29.231 -96.426  31.683  1.00  0.00    -0.285 OA
ATOM      5  C   UNL     1      28.761 -96.221  29.416  1.00  0.00     0.111 A 
ATOM      6  C   UNL     1      27.375 -96.481  29.542  1.00  0.00     0.134 A 
ATOM      7  C   UNL     1      26.559 -96.468  28.401  1.00  0.00     0.093 A 
ATOM      8  C   UNL     1      27.098 -96.201  27.141  1.00  0.00     0.123 A 
ATOM      9  C   UNL     1      28.467 -95.944  27.010  1.00  0.00     0.094 A 
ATOM     10  C   UNL     1      29.298 -95.954  28.134  1.00  0.00     0.146 A 
ATOM     11  O   UNL     1      30.595 -95.712  27.981  1.00  0.00    -0.452 OA
ENDROOT
BRANCH   1  12
ATOM     12  C   UNL     1      32.884 -95.432  28.685  1.00  0.00     0.021 A 
ATOM     13  C   UNL     1      33.802 -96.496  28.661  1.00  0.00     0.016 A 
ATOM     14  C   UNL     1      35.155 -96.258  28.397  1.00  0.00     0.047 A 
ATOM     15  C   UNL     1      35.609 -94.952  28.172  1.00  0.00     0.115 A 
ATOM     16  C   UNL     1      33.351 -94.122  28.476  1.00  0.00     0.016 A 
ATOM     17  C   UNL     1      34.705 -93.887  28.214  1.00  0.00     0.047 A 
BRANCH  15  18
ATOM     18  O   UNL     1      36.954 -94.703  27.908  1.00  0.00    -0.508 OA
ATOM     19  H   UNL     1      37.358 -93.783  28.041  1.00  0.00     0.293 HD
ENDBRANCH  15  18
ENDBRANCH   1  12
BRANCH   2  20
ATOM     20  O   UNL     1      31.896 -95.867  31.379  1.00  0.00    -0.502 OA
ATOM     21  H   UNL     1      32.869 -96.139  31.299  1.00  0.00     0.293 HD
ENDBRANCH   2  20
BRANCH   6  22
ATOM     22  O   UNL     1      26.806 -96.751  30.786  1.00  0.00    -0.507 OA
ATOM     23  H   UNL     1      25.891 -97.180  30.873  1.00  0.00     0.293 HD
ENDBRANCH   6  22
BRANCH   8  24
ATOM     24  O   UNL     1      26.265 -96.194  26.025  1.00  0.00    -0.508 OA
ATOM     25  H   UNL     1      25.621 -96.954  25.840  1.00  0.00     0.293 HD
ENDBRANCH   8  24
TORSDOF 5
ENDMDL
MODEL 7
REMARK VINA RESULT:    -4.974      9.008     10.965
REMARK INTER + INTRA:          -5.993
REMARK INTER:                  -5.847
REMARK INTRA:                  -0.147
REMARK UNBOUND:                -0.147
REMARK SMILES O=c1c(O)c(-c2ccc(O)cc2)oc2cc(O)cc(O)c12
REMARK SMILES IDX 5 1 3 2 2 3 1 4 21 5 19 6 18 7 16 8 15 9 14 10 13 11 6 12
REMARK SMILES IDX 7 13 8 14 9 15 12 16 11 17 10 18 4 20 20 22 17 24
REMARK H PARENT 10 19 4 21 20 23 17 25
REMARK Flexibility Score: inf
ROOT
ATOM      1  C   UNL     1      39.849 -95.026  34.388  1.00  0.00     0.180 A 
ATOM      2  C   UNL     1      38.769 -94.722  33.536  1.00  0.00     0.208 A 
ATOM      3  C   UNL     1      38.968 -94.767  32.147  1.00  0.00     0.238 A 
ATOM      4  O   UNL     1      38.006 -94.508  31.374  1.00  0.00    -0.285 OA
ATOM      5  C   UNL     1      40.240 -95.093  31.634  1.00  0.00     0.111 A 
ATOM      6  C   UNL     1      40.525 -95.156  30.249  1.00  0.00     0.134 A 
ATOM      7  C   UNL     1      41.820 -95.479  29.819  1.00  0.00     0.093 A 
ATOM      8  C   UNL     1      42.834 -95.739  30.743  1.00  0.00     0.123 A 
ATOM      9  C   UNL     1      42.559 -95.678  32.113  1.00  0.00     0.094 A 
ATOM     10  C   UNL     1      41.275 -95.360  32.562  1.00  0.00     0.146 A 
ATOM     11  O   UNL     1      41.039 -95.315  33.869  1.00  0.00    -0.452 OA
ENDROOT
BRANCH   1  12
ATOM     12  C   UNL     1      39.714 -95.019  35.862  1.00  0.00     0.021 A 
ATOM     13  C   UNL     1      40.504 -94.141  36.624  1.00  0.00     0.016 A 
ATOM     14  C   UNL     1      40.408 -94.133  38.019  1.00  0.00     0.047 A 
ATOM     15  C   UNL     1      39.535 -95.014  38.670  1.00  0.00     0.115 A 
ATOM     16  C   UNL     1      38.852 -95.913  36.524  1.00  0.00     0.016 A 
ATOM     17  C   UNL     1      38.760 -95.903  37.920  1.00  0.00     0.047 A 
BRANCH  15  18
ATOM     18  O   UNL     1      39.431 -95.014  40.059  1.00  0.00    -0.508 OA
ATOM     19  H   UNL     1      40.068 -94.479  40.638  1.00  0.00     0.293 HD
ENDBRANCH  15  18
ENDBRANCH   1  12
BRANCH   2  20
ATOM     20  O   UNL     1      37.531 -94.354  34.068  1.00  0.00    -0.502 OA
ATOM     21  H   UNL     1      37.066 -93.491  33.814  1.00  0.00     0.293 HD
ENDBRANCH   2  20
BRANCH   6  22
ATOM     22  O   UNL     1      39.534 -94.902  29.300  1.00  0.00    -0.507 OA
ATOM     23  H   UNL     1      39.129 -93.979  29.186  1.00  0.00     0.293 HD
ENDBRANCH   6  22
BRANCH   8  24
ATOM     24  O   UNL     1      44.112 -96.057  30.290  1.00  0.00    -0.508 OA
ATOM     25  H   UNL     1      44.509 -95.612  29.471  1.00  0.00     0.293 HD
ENDBRANCH   8  24
TORSDOF 5
ENDMDL
MODEL 8
REMARK VINA RESULT:    -4.899     10.298     11.708
REMARK INTER + INTRA:          -5.905
REMARK INTER:                  -5.642
REMARK INTRA:                  -0.263
REMARK UNBOUND:                -0.147
REMARK SMILES O=c1c(O)c(-c2ccc(O)cc2)oc2cc(O)cc(O)c12
REMARK SMILES IDX 5 1 3 2 2 3 1 4 21 5 19 6 18 7 16 8 15 9 14 10 13 11 6 12
REMARK SMILES IDX 7 13 8 14 9 15 12 16 11 17 10 18 4 20 20 22 17 24
REMARK H PARENT 10 19 4 21 20 23 17 25
REMARK Flexibility Score: inf
ROOT
ATOM      1  C   UNL     1      40.504 -94.856  31.370  1.00  0.00     0.180 A 
ATOM      2  C   UNL     1      39.175 -95.027  31.803  1.00  0.00     0.208 A 
ATOM      3  C   UNL     1      38.914 -95.095  33.181  1.00  0.00     0.238 A 
ATOM      4  O   UNL     1      37.727 -95.236  33.582  1.00  0.00    -0.285 OA
ATOM      5  C   UNL     1      39.982 -95.013  34.098  1.00  0.00     0.111 A 
ATOM      6  C   UNL     1      39.806 -95.077  35.501  1.00  0.00     0.134 A 
ATOM      7  C   UNL     1      40.922 -94.997  36.347  1.00  0.00     0.093 A 
ATOM      8  C   UNL     1      42.207 -94.855  35.819  1.00  0.00     0.123 A 
ATOM      9  C   UNL     1      42.388 -94.791  34.434  1.00  0.00     0.094 A 
ATOM     10  C   UNL     1      41.289 -94.867  33.574  1.00  0.00     0.146 A 
ATOM     11  O   UNL     1      41.488 -94.797  32.263  1.00  0.00    -0.452 OA
ENDROOT
BRANCH   1  12
ATOM     12  C   UNL     1      40.857 -94.756  29.936  1.00  0.00     0.021 A 
ATOM     13  C   UNL     1      40.982 -95.928  29.171  1.00  0.00     0.016 A 
ATOM     14  C   UNL     1      41.336 -95.858  27.820  1.00  0.00     0.047 A 
ATOM     15  C   UNL     1      41.586 -94.617  27.221  1.00  0.00     0.115 A 
ATOM     16  C   UNL     1      41.127 -93.514  29.331  1.00  0.00     0.016 A 
ATOM     17  C   UNL     1      41.483 -93.447  27.980  1.00  0.00     0.047 A 
BRANCH  15  18
ATOM     18  O   UNL     1      41.938 -94.535  25.876  1.00  0.00    -0.508 OA
ATOM     19  H   UNL     1      41.345 -94.918  25.148  1.00  0.00     0.293 HD
ENDBRANCH  15  18
ENDBRANCH   1  12
BRANCH   2  20
ATOM     20  O   UNL     1      38.140 -95.155  30.874  1.00  0.00    -0.502 OA
ATOM     21  H   UNL     1      38.301 -95.448  29.918  1.00  0.00     0.293 HD
ENDBRANCH   2  20
BRANCH   6  22
ATOM     22  O   UNL     1      38.535 -95.220  36.059  1.00  0.00    -0.507 OA
ATOM     23  H   UNL     1      38.194 -96.116  36.388  1.00  0.00     0.293 HD
ENDBRANCH   6  22
BRANCH   8  24
ATOM     24  O   UNL     1      43.299 -94.779  36.682  1.00  0.00    -0.508 OA
ATOM     25  H   UNL     1      44.248 -94.884  36.345  1.00  0.00     0.293 HD
ENDBRANCH   8  24
TORSDOF 5
ENDMDL
MODEL 9
REMARK VINA RESULT:    -4.868     15.235     16.735
REMARK INTER + INTRA:          -5.868
REMARK INTER:                  -5.741
REMARK INTRA:                  -0.127
REMARK UNBOUND:                -0.147
REMARK SMILES O=c1c(O)c(-c2ccc(O)cc2)oc2cc(O)cc(O)c12
REMARK SMILES IDX 5 1 3 2 2 3 1 4 21 5 19 6 18 7 16 8 15 9 14 10 13 11 6 12
REMARK SMILES IDX 7 13 8 14 9 15 12 16 11 17 10 18 4 20 20 22 17 24
REMARK H PARENT 10 19 4 21 20 23 17 25
REMARK Flexibility Score: inf
ROOT
ATOM      1  C   UNL     1      37.887 -77.748  38.126  1.00  0.00     0.180 A 
ATOM      2  C   UNL     1      38.438 -77.586  36.840  1.00  0.00     0.208 A 
ATOM      3  C   UNL     1      37.573 -77.409  35.749  1.00  0.00     0.238 A 
ATOM      4  O   UNL     1      38.055 -77.252  34.594  1.00  0.00    -0.285 OA
ATOM      5  C   UNL     1      36.178 -77.420  35.956  1.00  0.00     0.111 A 
ATOM      6  C   UNL     1      35.238 -77.254  34.910  1.00  0.00     0.134 A 
ATOM      7  C   UNL     1      33.866 -77.285  35.197  1.00  0.00     0.093 A 
ATOM      8  C   UNL     1      33.415 -77.479  36.504  1.00  0.00     0.123 A 
ATOM      9  C   UNL     1      34.338 -77.644  37.542  1.00  0.00     0.094 A 
ATOM     10  C   UNL     1      35.710 -77.614  37.277  1.00  0.00     0.146 A 
ATOM     11  O   UNL     1      36.566 -77.767  38.281  1.00  0.00    -0.452 OA
ENDROOT
BRANCH   1  12
ATOM     12  C   UNL     1      38.733 -77.919  39.328  1.00  0.00     0.021 A 
ATOM     13  C   UNL     1      39.592 -76.879  39.724  1.00  0.00     0.016 A 
ATOM     14  C   UNL     1      40.416 -77.028  40.844  1.00  0.00     0.047 A 
ATOM     15  C   UNL     1      40.404 -78.225  41.572  1.00  0.00     0.115 A 
ATOM     16  C   UNL     1      38.741 -79.125  40.055  1.00  0.00     0.016 A 
ATOM     17  C   UNL     1      39.568 -79.271  41.173  1.00  0.00     0.047 A 
BRANCH  15  18
ATOM     18  O   UNL     1      41.221 -78.384  42.690  1.00  0.00    -0.508 OA
ATOM     19  H   UNL     1      41.941 -77.709  42.920  1.00  0.00     0.293 HD
ENDBRANCH  15  18
ENDBRANCH   1  12
BRANCH   2  20
ATOM     20  O   UNL     1      39.822 -77.629  36.654  1.00  0.00    -0.502 OA
ATOM     21  H   UNL     1      40.251 -77.519  35.743  1.00  0.00     0.293 HD
ENDBRANCH   2  20
BRANCH   6  22
ATOM     22  O   UNL     1      35.657 -77.058  33.593  1.00  0.00    -0.507 OA
ATOM     23  H   UNL     1      35.125 -77.413  32.806  1.00  0.00     0.293 HD
ENDBRANCH   6  22
BRANCH   8  24
ATOM     24  O   UNL     1      32.046 -77.507  36.762  1.00  0.00    -0.508 OA
ATOM     25  H   UNL     1      31.411 -78.054  36.192  1.00  0.00     0.293 HD
ENDBRANCH   8  24
TORSDOF 5
ENDMDL
