MODEL 1
REMARK VINA RESULT:    -7.820      0.000      0.000
REMARK INTER + INTRA:          -9.238
REMARK INTER:                  -9.191
REMARK INTRA:                  -0.047
REMARK UNBOUND:                -0.047
REMARK SMILES O=c1c(O)c(-c2ccc(O)cc2)oc2cc(O)cc(O)c12
REMARK SMILES IDX 5 1 3 2 2 3 1 4 21 5 19 6 18 7 16 8 15 9 14 10 13 11 6 12
REMARK SMILES IDX 7 13 8 14 9 15 12 16 11 17 10 18 4 20 20 22 17 24
REMARK H PARENT 10 19 4 21 20 23 17 25
REMARK Flexibility Score: inf
ROOT
ATOM      1  C   UNL     1     -13.074 -28.987 -11.914  1.00  0.00     0.180 A 
ATOM      2  C   UNL     1     -14.143 -28.638 -12.757  1.00  0.00     0.208 A 
ATOM      3  C   UNL     1     -14.593 -29.569 -13.707  1.00  0.00     0.238 A 
ATOM      4  O   UNL     1     -15.514 -29.231 -14.495  1.00  0.00    -0.285 OA
ATOM      5  C   UNL     1     -13.979 -30.841 -13.792  1.00  0.00     0.111 A 
ATOM      6  C   UNL     1     -14.379 -31.876 -14.691  1.00  0.00     0.134 A 
ATOM      7  C   UNL     1     -13.617 -33.047 -14.778  1.00  0.00     0.093 A 
ATOM      8  C   UNL     1     -12.506 -33.248 -13.954  1.00  0.00     0.123 A 
ATOM      9  C   UNL     1     -12.143 -32.269 -13.032  1.00  0.00     0.094 A 
ATOM     10  C   UNL     1     -12.863 -31.075 -12.947  1.00  0.00     0.146 A 
ATOM     11  O   UNL     1     -12.476 -30.164 -12.062  1.00  0.00    -0.452 OA
ENDROOT
BRANCH   1  12
ATOM     12  C   UNL     1     -12.561 -28.069 -10.871  1.00  0.00     0.021 A 
ATOM     13  C   UNL     1     -13.414 -27.515  -9.899  1.00  0.00     0.016 A 
ATOM     14  C   UNL     1     -12.902 -26.670  -8.909  1.00  0.00     0.047 A 
ATOM     15  C   UNL     1     -11.532 -26.380  -8.870  1.00  0.00     0.115 A 
ATOM     16  C   UNL     1     -11.185 -27.791 -10.811  1.00  0.00     0.016 A 
ATOM     17  C   UNL     1     -10.677 -26.945  -9.820  1.00  0.00     0.047 A 
BRANCH  15  18
ATOM     18  O   UNL     1     -11.011 -25.539  -7.888  1.00  0.00    -0.508 OA
ATOM     19  H   UNL     1     -10.862 -25.862  -6.940  1.00  0.00     0.293 HD
ENDBRANCH  15  18
ENDBRANCH   1  12
BRANCH   2  20
ATOM     20  O   UNL     1     -14.721 -27.369 -12.671  1.00  0.00    -0.502 OA
ATOM     21  H   UNL     1     -14.172 -26.518 -12.696  1.00  0.00     0.293 HD
ENDBRANCH   2  20
BRANCH   6  22
ATOM     22  O   UNL     1     -15.523 -31.815 -15.491  1.00  0.00    -0.507 OA
ATOM     23  H   UNL     1     -15.712 -32.427 -16.271  1.00  0.00     0.293 HD
ENDBRANCH   6  22
BRANCH   8  24
ATOM     24  O   UNL     1     -11.762 -34.423 -14.037  1.00  0.00    -0.508 OA
ATOM     25  H   UNL     1     -11.339 -34.842 -13.217  1.00  0.00     0.293 HD
ENDBRANCH   8  24
TORSDOF 5
ENDMDL
MODEL 2
REMARK VINA RESULT:    -7.774      2.013      6.586
REMARK INTER + INTRA:          -9.184
REMARK INTER:                  -9.239
REMARK INTRA:                   0.055
REMARK UNBOUND:                -0.047
REMARK SMILES O=c1c(O)c(-c2ccc(O)cc2)oc2cc(O)cc(O)c12
REMARK SMILES IDX 5 1 3 2 2 3 1 4 21 5 19 6 18 7 16 8 15 9 14 10 13 11 6 12
REMARK SMILES IDX 7 13 8 14 9 15 12 16 11 17 10 18 4 20 20 22 17 24
REMARK H PARENT 10 19 4 21 20 23 17 25
REMARK Flexibility Score: inf
ROOT
ATOM      1  C   UNL     1     -13.749 -30.520 -13.905  1.00  0.00     0.180 A 
ATOM      2  C   UNL     1     -14.002 -29.606 -14.941  1.00  0.00     0.208 A 
ATOM      3  C   UNL     1     -14.224 -28.257 -14.619  1.00  0.00     0.238 A 
ATOM      4  O   UNL     1     -14.504 -27.453 -15.546  1.00  0.00    -0.285 OA
ATOM      5  C   UNL     1     -14.174 -27.837 -13.269  1.00  0.00     0.111 A 
ATOM      6  C   UNL     1     -14.344 -26.489 -12.832  1.00  0.00     0.134 A 
ATOM      7  C   UNL     1     -14.403 -26.210 -11.461  1.00  0.00     0.093 A 
ATOM      8  C   UNL     1     -14.235 -27.220 -10.511  1.00  0.00     0.123 A 
ATOM      9  C   UNL     1     -14.009 -28.530 -10.928  1.00  0.00     0.094 A 
ATOM     10  C   UNL     1     -13.980 -28.845 -12.289  1.00  0.00     0.146 A 
ATOM     11  O   UNL     1     -13.773 -30.108 -12.642  1.00  0.00    -0.452 OA
ENDROOT
BRANCH   1  12
ATOM     12  C   UNL     1     -13.481 -31.953 -14.166  1.00  0.00     0.021 A 
ATOM     13  C   UNL     1     -12.375 -32.608 -13.595  1.00  0.00     0.016 A 
ATOM     14  C   UNL     1     -12.157 -33.968 -13.837  1.00  0.00     0.047 A 
ATOM     15  C   UNL     1     -13.047 -34.692 -14.640  1.00  0.00     0.115 A 
ATOM     16  C   UNL     1     -14.381 -32.693 -14.953  1.00  0.00     0.016 A 
ATOM     17  C   UNL     1     -14.159 -34.053 -15.193  1.00  0.00     0.047 A 
BRANCH  15  18
ATOM     18  O   UNL     1     -12.839 -36.048 -14.888  1.00  0.00    -0.508 OA
ATOM     19  H   UNL     1     -13.039 -36.457 -15.793  1.00  0.00     0.293 HD
ENDBRANCH  15  18
ENDBRANCH   1  12
BRANCH   2  20
ATOM     20  O   UNL     1     -14.069 -30.045 -16.266  1.00  0.00    -0.502 OA
ATOM     21  H   UNL     1     -14.655 -29.596 -16.959  1.00  0.00     0.293 HD
ENDBRANCH   2  20
BRANCH   6  22
ATOM     22  O   UNL     1     -14.429 -25.394 -13.696  1.00  0.00    -0.507 OA
ATOM     23  H   UNL     1     -15.200 -24.743 -13.726  1.00  0.00     0.293 HD
ENDBRANCH   6  22
BRANCH   8  24
ATOM     24  O   UNL     1     -14.281 -26.931  -9.149  1.00  0.00    -0.508 OA
ATOM     25  H   UNL     1     -14.733 -27.554  -8.490  1.00  0.00     0.293 HD
ENDBRANCH   8  24
TORSDOF 5
ENDMDL
MODEL 3
REMARK VINA RESULT:    -7.531      1.642      3.411
REMARK INTER + INTRA:          -8.898
REMARK INTER:                  -9.286
REMARK INTRA:                   0.388
REMARK UNBOUND:                -0.047
REMARK SMILES O=c1c(O)c(-c2ccc(O)cc2)oc2cc(O)cc(O)c12
REMARK SMILES IDX 5 1 3 2 2 3 1 4 21 5 19 6 18 7 16 8 15 9 14 10 13 11 6 12
REMARK SMILES IDX 7 13 8 14 9 15 12 16 11 17 10 18 4 20 20 22 17 24
REMARK H PARENT 10 19 4 21 20 23 17 25
REMARK Flexibility Score: inf
ROOT
ATOM      1  C   UNL     1     -12.074 -28.871 -10.539  1.00  0.00     0.180 A 
ATOM      2  C   UNL     1     -11.029 -29.799 -10.395  1.00  0.00     0.208 A 
ATOM      3  C   UNL     1     -10.960 -30.889 -11.278  1.00  0.00     0.238 A 
ATOM      4  O   UNL     1     -10.053 -31.746 -11.110  1.00  0.00    -0.285 OA
ATOM      5  C   UNL     1     -11.926 -31.029 -12.302  1.00  0.00     0.111 A 
ATOM      6  C   UNL     1     -11.930 -32.072 -13.276  1.00  0.00     0.134 A 
ATOM      7  C   UNL     1     -13.009 -32.185 -14.162  1.00  0.00     0.093 A 
ATOM      8  C   UNL     1     -14.052 -31.255 -14.151  1.00  0.00     0.123 A 
ATOM      9  C   UNL     1     -14.027 -30.199 -13.243  1.00  0.00     0.094 A 
ATOM     10  C   UNL     1     -12.982 -30.081 -12.323  1.00  0.00     0.146 A 
ATOM     11  O   UNL     1     -13.003 -29.065 -11.468  1.00  0.00    -0.452 OA
ENDROOT
BRANCH   1  12
ATOM     12  C   UNL     1     -12.200 -27.683  -9.663  1.00  0.00     0.021 A 
ATOM     13  C   UNL     1     -11.100 -27.188  -8.938  1.00  0.00     0.016 A 
ATOM     14  C   UNL     1     -11.237 -26.051  -8.137  1.00  0.00     0.047 A 
ATOM     15  C   UNL     1     -12.468 -25.387  -8.060  1.00  0.00     0.115 A 
ATOM     16  C   UNL     1     -13.425 -26.998  -9.598  1.00  0.00     0.016 A 
ATOM     17  C   UNL     1     -13.558 -25.861  -8.794  1.00  0.00     0.047 A 
BRANCH  15  18
ATOM     18  O   UNL     1     -12.615 -24.252  -7.264  1.00  0.00    -0.508 OA
ATOM     19  H   UNL     1     -12.072 -24.125  -6.418  1.00  0.00     0.293 HD
ENDBRANCH  15  18
ENDBRANCH   1  12
BRANCH   2  20
ATOM     20  O   UNL     1     -10.097 -29.654  -9.364  1.00  0.00    -0.502 OA
ATOM     21  H   UNL     1      -9.260 -29.092  -9.460  1.00  0.00     0.293 HD
ENDBRANCH   2  20
BRANCH   6  22
ATOM     22  O   UNL     1     -10.894 -32.997 -13.433  1.00  0.00    -0.507 OA
ATOM     23  H   UNL     1     -10.629 -33.685 -12.744  1.00  0.00     0.293 HD
ENDBRANCH   6  22
BRANCH   8  24
ATOM     24  O   UNL     1     -15.113 -31.367 -15.046  1.00  0.00    -0.508 OA
ATOM     25  H   UNL     1     -15.748 -30.595 -15.215  1.00  0.00     0.293 HD
ENDBRANCH   8  24
TORSDOF 5
ENDMDL
MODEL 4
REMARK VINA RESULT:    -7.403      1.702      7.201
REMARK INTER + INTRA:          -8.748
REMARK INTER:                  -9.214
REMARK INTRA:                   0.466
REMARK UNBOUND:                -0.047
REMARK SMILES O=c1c(O)c(-c2ccc(O)cc2)oc2cc(O)cc(O)c12
REMARK SMILES IDX 5 1 3 2 2 3 1 4 21 5 19 6 18 7 16 8 15 9 14 10 13 11 6 12
REMARK SMILES IDX 7 13 8 14 9 15 12 16 11 17 10 18 4 20 20 22 17 24
REMARK H PARENT 10 19 4 21 20 23 17 25
REMARK Flexibility Score: inf
ROOT
ATOM      1  C   UNL     1     -12.340 -29.356 -11.395  1.00  0.00     0.180 A 
ATOM      2  C   UNL     1     -11.113 -29.145 -10.743  1.00  0.00     0.208 A 
ATOM      3  C   UNL     1     -11.001 -28.087  -9.827  1.00  0.00     0.238 A 
ATOM      4  O   UNL     1      -9.885 -27.870  -9.287  1.00  0.00    -0.285 OA
ATOM      5  C   UNL     1     -12.121 -27.262  -9.564  1.00  0.00     0.111 A 
ATOM      6  C   UNL     1     -12.132 -26.186  -8.626  1.00  0.00     0.134 A 
ATOM      7  C   UNL     1     -13.257 -25.356  -8.541  1.00  0.00     0.093 A 
ATOM      8  C   UNL     1     -14.394 -25.602  -9.315  1.00  0.00     0.123 A 
ATOM      9  C   UNL     1     -14.414 -26.685 -10.190  1.00  0.00     0.094 A 
ATOM     10  C   UNL     1     -13.295 -27.510 -10.322  1.00  0.00     0.146 A 
ATOM     11  O   UNL     1     -13.353 -28.526 -11.175  1.00  0.00    -0.452 OA
ENDROOT
BRANCH   1  12
ATOM     12  C   UNL     1     -12.542 -30.466 -12.354  1.00  0.00     0.021 A 
ATOM     13  C   UNL     1     -11.585 -31.486 -12.507  1.00  0.00     0.016 A 
ATOM     14  C   UNL     1     -11.810 -32.537 -13.401  1.00  0.00     0.047 A 
ATOM     15  C   UNL     1     -12.996 -32.590 -14.143  1.00  0.00     0.115 A 
ATOM     16  C   UNL     1     -13.739 -30.538 -13.087  1.00  0.00     0.016 A 
ATOM     17  C   UNL     1     -13.960 -31.590 -13.981  1.00  0.00     0.047 A 
BRANCH  15  18
ATOM     18  O   UNL     1     -13.230 -33.632 -15.038  1.00  0.00    -0.508 OA
ATOM     19  H   UNL     1     -14.002 -33.605 -15.693  1.00  0.00     0.293 HD
ENDBRANCH  15  18
ENDBRANCH   1  12
BRANCH   2  20
ATOM     20  O   UNL     1     -10.013 -29.957 -11.034  1.00  0.00    -0.502 OA
ATOM     21  H   UNL     1      -9.528 -30.492 -10.324  1.00  0.00     0.293 HD
ENDBRANCH   2  20
BRANCH   6  22
ATOM     22  O   UNL     1     -11.085 -25.911  -7.742  1.00  0.00    -0.507 OA
ATOM     23  H   UNL     1     -10.138 -25.699  -8.020  1.00  0.00     0.293 HD
ENDBRANCH   6  22
BRANCH   8  24
ATOM     24  O   UNL     1     -15.514 -24.780  -9.213  1.00  0.00    -0.508 OA
ATOM     25  H   UNL     1     -15.925 -24.553  -8.315  1.00  0.00     0.293 HD
ENDBRANCH   8  24
TORSDOF 5
ENDMDL
MODEL 5
REMARK VINA RESULT:    -7.274      1.707      7.245
REMARK INTER + INTRA:          -8.596
REMARK INTER:                  -9.053
REMARK INTRA:                   0.457
REMARK UNBOUND:                -0.047
REMARK SMILES O=c1c(O)c(-c2ccc(O)cc2)oc2cc(O)cc(O)c12
REMARK SMILES IDX 5 1 3 2 2 3 1 4 21 5 19 6 18 7 16 8 15 9 14 10 13 11 6 12
REMARK SMILES IDX 7 13 8 14 9 15 12 16 11 17 10 18 4 20 20 22 17 24
REMARK H PARENT 10 19 4 21 20 23 17 25
REMARK Flexibility Score: inf
ROOT
ATOM      1  C   UNL     1     -12.789 -29.236 -11.458  1.00  0.00     0.180 A 
ATOM      2  C   UNL     1     -11.552 -29.643 -10.928  1.00  0.00     0.208 A 
ATOM      3  C   UNL     1     -11.008 -28.932  -9.847  1.00  0.00     0.238 A 
ATOM      4  O   UNL     1      -9.875 -29.268  -9.412  1.00  0.00    -0.285 OA
ATOM      5  C   UNL     1     -11.712 -27.833  -9.300  1.00  0.00     0.111 A 
ATOM      6  C   UNL     1     -11.273 -27.066  -8.179  1.00  0.00     0.134 A 
ATOM      7  C   UNL     1     -11.987 -25.921  -7.805  1.00  0.00     0.093 A 
ATOM      8  C   UNL     1     -13.158 -25.551  -8.470  1.00  0.00     0.123 A 
ATOM      9  C   UNL     1     -13.627 -26.328  -9.527  1.00  0.00     0.094 A 
ATOM     10  C   UNL     1     -12.918 -27.456  -9.947  1.00  0.00     0.146 A 
ATOM     11  O   UNL     1     -13.394 -28.162 -10.965  1.00  0.00    -0.452 OA
ENDROOT
BRANCH   1  12
ATOM     12  C   UNL     1     -13.439 -29.951 -12.581  1.00  0.00     0.021 A 
ATOM     13  C   UNL     1     -12.983 -31.211 -13.009  1.00  0.00     0.016 A 
ATOM     14  C   UNL     1     -13.628 -31.878 -14.055  1.00  0.00     0.047 A 
ATOM     15  C   UNL     1     -14.743 -31.301 -14.676  1.00  0.00     0.115 A 
ATOM     16  C   UNL     1     -14.571 -29.389 -13.195  1.00  0.00     0.016 A 
ATOM     17  C   UNL     1     -15.213 -30.059 -14.242  1.00  0.00     0.047 A 
BRANCH  15  18
ATOM     18  O   UNL     1     -15.393 -31.956 -15.720  1.00  0.00    -0.508 OA
ATOM     19  H   UNL     1     -15.326 -32.960 -15.838  1.00  0.00     0.293 HD
ENDBRANCH  15  18
ENDBRANCH   1  12
BRANCH   2  20
ATOM     20  O   UNL     1     -10.863 -30.717 -11.498  1.00  0.00    -0.502 OA
ATOM     21  H   UNL     1     -10.882 -30.912 -12.491  1.00  0.00     0.293 HD
ENDBRANCH   2  20
BRANCH   6  22
ATOM     22  O   UNL     1     -10.169 -27.399  -7.390  1.00  0.00    -0.507 OA
ATOM     23  H   UNL     1      -9.638 -28.253  -7.475  1.00  0.00     0.293 HD
ENDBRANCH   6  22
BRANCH   8  24
ATOM     24  O   UNL     1     -13.870 -24.419  -8.082  1.00  0.00    -0.508 OA
ATOM     25  H   UNL     1     -13.951 -24.152  -7.107  1.00  0.00     0.293 HD
ENDBRANCH   8  24
TORSDOF 5
ENDMDL
MODEL 6
REMARK VINA RESULT:    -6.694      1.412      6.559
REMARK INTER + INTRA:          -7.914
REMARK INTER:                  -8.418
REMARK INTRA:                   0.504
REMARK UNBOUND:                -0.047
REMARK SMILES O=c1c(O)c(-c2ccc(O)cc2)oc2cc(O)cc(O)c12
REMARK SMILES IDX 5 1 3 2 2 3 1 4 21 5 19 6 18 7 16 8 15 9 14 10 13 11 6 12
REMARK SMILES IDX 7 13 8 14 9 15 12 16 11 17 10 18 4 20 20 22 17 24
REMARK H PARENT 10 19 4 21 20 23 17 25
REMARK Flexibility Score: inf
ROOT
ATOM      1  C   UNL     1     -13.237 -29.285 -11.727  1.00  0.00     0.180 A 
ATOM      2  C   UNL     1     -14.157 -28.223 -11.728  1.00  0.00     0.208 A 
ATOM      3  C   UNL     1     -14.016 -27.200 -10.777  1.00  0.00     0.238 A 
ATOM      4  O   UNL     1     -14.874 -26.279 -10.748  1.00  0.00    -0.285 OA
ATOM      5  C   UNL     1     -12.949 -27.243  -9.848  1.00  0.00     0.111 A 
ATOM      6  C   UNL     1     -12.688 -26.240  -8.867  1.00  0.00     0.134 A 
ATOM      7  C   UNL     1     -11.681 -26.450  -7.916  1.00  0.00     0.093 A 
ATOM      8  C   UNL     1     -10.886 -27.598  -7.949  1.00  0.00     0.123 A 
ATOM      9  C   UNL     1     -11.095 -28.555  -8.940  1.00  0.00     0.094 A 
ATOM     10  C   UNL     1     -12.114 -28.390  -9.881  1.00  0.00     0.146 A 
ATOM     11  O   UNL     1     -12.286 -29.331 -10.801  1.00  0.00    -0.452 OA
ENDROOT
BRANCH   1  12
ATOM     12  C   UNL     1     -13.305 -30.388 -12.713  1.00  0.00     0.021 A 
ATOM     13  C   UNL     1     -14.352 -30.469 -13.650  1.00  0.00     0.016 A 
ATOM     14  C   UNL     1     -14.382 -31.506 -14.588  1.00  0.00     0.047 A 
ATOM     15  C   UNL     1     -13.361 -32.465 -14.610  1.00  0.00     0.115 A 
ATOM     16  C   UNL     1     -12.274 -31.343 -12.756  1.00  0.00     0.016 A 
ATOM     17  C   UNL     1     -12.309 -32.379 -13.695  1.00  0.00     0.047 A 
BRANCH  15  18
ATOM     18  O   UNL     1     -13.382 -33.503 -15.540  1.00  0.00    -0.508 OA
ATOM     19  H   UNL     1     -13.497 -34.468 -15.254  1.00  0.00     0.293 HD
ENDBRANCH  15  18
ENDBRANCH   1  12
BRANCH   2  20
ATOM     20  O   UNL     1     -15.216 -28.211 -12.639  1.00  0.00    -0.502 OA
ATOM     21  H   UNL     1     -16.132 -28.581 -12.415  1.00  0.00     0.293 HD
ENDBRANCH   2  20
BRANCH   6  22
ATOM     22  O   UNL     1     -13.362 -25.017  -8.802  1.00  0.00    -0.507 OA
ATOM     23  H   UNL     1     -14.242 -24.870  -8.330  1.00  0.00     0.293 HD
ENDBRANCH   6  22
BRANCH   8  24
ATOM     24  O   UNL     1      -9.877 -27.792  -7.008  1.00  0.00    -0.508 OA
ATOM     25  H   UNL     1      -9.924 -28.541  -6.328  1.00  0.00     0.293 HD
ENDBRANCH   8  24
TORSDOF 5
ENDMDL
MODEL 7
REMARK VINA RESULT:    -6.513      2.730      4.319
REMARK INTER + INTRA:          -7.702
REMARK INTER:                  -7.650
REMARK INTRA:                  -0.052
REMARK UNBOUND:                -0.047
REMARK SMILES O=c1c(O)c(-c2ccc(O)cc2)oc2cc(O)cc(O)c12
REMARK SMILES IDX 5 1 3 2 2 3 1 4 21 5 19 6 18 7 16 8 15 9 14 10 13 11 6 12
REMARK SMILES IDX 7 13 8 14 9 15 12 16 11 17 10 18 4 20 20 22 17 24
REMARK H PARENT 10 19 4 21 20 23 17 25
REMARK Flexibility Score: inf
ROOT
ATOM      1  C   UNL     1     -13.600 -30.593 -13.947  1.00  0.00     0.180 A 
ATOM      2  C   UNL     1     -12.502 -31.119 -13.244  1.00  0.00     0.208 A 
ATOM      3  C   UNL     1     -12.171 -32.472 -13.414  1.00  0.00     0.238 A 
ATOM      4  O   UNL     1     -11.220 -32.951 -12.741  1.00  0.00    -0.285 OA
ATOM      5  C   UNL     1     -12.930 -33.279 -14.294  1.00  0.00     0.111 A 
ATOM      6  C   UNL     1     -12.660 -34.653 -14.572  1.00  0.00     0.134 A 
ATOM      7  C   UNL     1     -13.555 -35.387 -15.360  1.00  0.00     0.093 A 
ATOM      8  C   UNL     1     -14.677 -34.781 -15.932  1.00  0.00     0.123 A 
ATOM      9  C   UNL     1     -14.916 -33.426 -15.715  1.00  0.00     0.094 A 
ATOM     10  C   UNL     1     -14.061 -32.676 -14.904  1.00  0.00     0.146 A 
ATOM     11  O   UNL     1     -14.333 -31.390 -14.715  1.00  0.00    -0.452 OA
ENDROOT
BRANCH   1  12
ATOM     12  C   UNL     1     -13.996 -29.170 -13.839  1.00  0.00     0.021 A 
ATOM     13  C   UNL     1     -14.326 -28.593 -12.599  1.00  0.00     0.016 A 
ATOM     14  C   UNL     1     -14.673 -27.241 -12.519  1.00  0.00     0.047 A 
ATOM     15  C   UNL     1     -14.681 -26.446 -13.672  1.00  0.00     0.115 A 
ATOM     16  C   UNL     1     -13.986 -28.360 -14.988  1.00  0.00     0.016 A 
ATOM     17  C   UNL     1     -14.335 -27.008 -14.904  1.00  0.00     0.047 A 
BRANCH  15  18
ATOM     18  O   UNL     1     -15.027 -25.098 -13.604  1.00  0.00    -0.508 OA
ATOM     19  H   UNL     1     -14.373 -24.401 -13.267  1.00  0.00     0.293 HD
ENDBRANCH  15  18
ENDBRANCH   1  12
BRANCH   2  20
ATOM     20  O   UNL     1     -11.779 -30.311 -12.363  1.00  0.00    -0.502 OA
ATOM     21  H   UNL     1     -12.141 -29.435 -12.005  1.00  0.00     0.293 HD
ENDBRANCH   2  20
BRANCH   6  22
ATOM     22  O   UNL     1     -11.521 -35.329 -14.127  1.00  0.00    -0.507 OA
ATOM     23  H   UNL     1     -11.326 -35.554 -13.162  1.00  0.00     0.293 HD
ENDBRANCH   6  22
BRANCH   8  24
ATOM     24  O   UNL     1     -15.553 -35.515 -16.727  1.00  0.00    -0.508 OA
ATOM     25  H   UNL     1     -15.288 -36.410 -17.122  1.00  0.00     0.293 HD
ENDBRANCH   8  24
TORSDOF 5
ENDMDL
MODEL 8
REMARK VINA RESULT:    -6.495      2.366      4.381
REMARK INTER + INTRA:          -7.681
REMARK INTER:                  -8.114
REMARK INTRA:                   0.434
REMARK UNBOUND:                -0.047
REMARK SMILES O=c1c(O)c(-c2ccc(O)cc2)oc2cc(O)cc(O)c12
REMARK SMILES IDX 5 1 3 2 2 3 1 4 21 5 19 6 18 7 16 8 15 9 14 10 13 11 6 12
REMARK SMILES IDX 7 13 8 14 9 15 12 16 11 17 10 18 4 20 20 22 17 24
REMARK H PARENT 10 19 4 21 20 23 17 25
REMARK Flexibility Score: inf
ROOT
ATOM      1  C   UNL     1     -12.456 -28.519 -11.573  1.00  0.00     0.180 A 
ATOM      2  C   UNL     1     -12.553 -29.616 -12.446  1.00  0.00     0.208 A 
ATOM      3  C   UNL     1     -13.188 -29.444 -13.687  1.00  0.00     0.238 A 
ATOM      4  O   UNL     1     -13.320 -30.443 -14.441  1.00  0.00    -0.285 OA
ATOM      5  C   UNL     1     -13.703 -28.176 -14.045  1.00  0.00     0.111 A 
ATOM      6  C   UNL     1     -14.330 -27.879 -15.292  1.00  0.00     0.134 A 
ATOM      7  C   UNL     1     -14.918 -26.623 -15.488  1.00  0.00     0.093 A 
ATOM      8  C   UNL     1     -14.847 -25.632 -14.505  1.00  0.00     0.123 A 
ATOM      9  C   UNL     1     -14.185 -25.894 -13.307  1.00  0.00     0.094 A 
ATOM     10  C   UNL     1     -13.619 -27.149 -13.069  1.00  0.00     0.146 A 
ATOM     11  O   UNL     1     -13.007 -27.358 -11.910  1.00  0.00    -0.452 OA
ENDROOT
BRANCH   1  12
ATOM     12  C   UNL     1     -11.779 -28.615 -10.259  1.00  0.00     0.021 A 
ATOM     13  C   UNL     1     -12.106 -27.746  -9.201  1.00  0.00     0.016 A 
ATOM     14  C   UNL     1     -11.471 -27.873  -7.962  1.00  0.00     0.047 A 
ATOM     15  C   UNL     1     -10.514 -28.875  -7.759  1.00  0.00     0.115 A 
ATOM     16  C   UNL     1     -10.833 -29.631 -10.040  1.00  0.00     0.016 A 
ATOM     17  C   UNL     1     -10.200 -29.753  -8.799  1.00  0.00     0.047 A 
BRANCH  15  18
ATOM     18  O   UNL     1      -9.875 -29.008  -6.528  1.00  0.00    -0.508 OA
ATOM     19  H   UNL     1      -9.019 -28.508  -6.319  1.00  0.00     0.293 HD
ENDBRANCH  15  18
ENDBRANCH   1  12
BRANCH   2  20
ATOM     20  O   UNL     1     -12.057 -30.865 -12.063  1.00  0.00    -0.502 OA
ATOM     21  H   UNL     1     -11.066 -31.058 -11.988  1.00  0.00     0.293 HD
ENDBRANCH   2  20
BRANCH   6  22
ATOM     22  O   UNL     1     -14.376 -28.764 -16.373  1.00  0.00    -0.507 OA
ATOM     23  H   UNL     1     -15.164 -28.873 -16.994  1.00  0.00     0.293 HD
ENDBRANCH   6  22
BRANCH   8  24
ATOM     24  O   UNL     1     -15.421 -24.381 -14.713  1.00  0.00    -0.508 OA
ATOM     25  H   UNL     1     -16.339 -24.152 -14.349  1.00  0.00     0.293 HD
ENDBRANCH   8  24
TORSDOF 5
ENDMDL
