MODEL 1
REMARK VINA RESULT:    -3.795      0.000      0.000
REMARK INTER + INTRA:         -10.036
REMARK INTER:                  -7.345
REMARK INTRA:                  -2.690
REMARK UNBOUND:                -2.690
REMARK SMILES CCCCCCCCCCCCCCCCCC(=O)[O-]
REMARK SMILES IDX 10 1 11 2 12 3 13 4 14 5 15 6 16 7 17 8 18 9 19 10 20 11
REMARK SMILES IDX 9 12 8 13 7 14 6 15 5 16 4 17 3 18 2 19 1 20
REMARK H PARENT
REMARK Flexibility Score: inf
ROOT
ATOM      1  C   UNL     1      11.390 -17.420 -23.833  1.00  0.00     0.000 C 
ENDROOT
BRANCH   1   2
ATOM      2  C   UNL     1      10.338 -17.417 -24.962  1.00  0.00     0.000 C 
BRANCH   2   3
ATOM      3  C   UNL     1       9.993 -16.030 -25.528  1.00  0.00     0.000 C 
BRANCH   3   4
ATOM      4  C   UNL     1       8.678 -15.467 -24.969  1.00  0.00     0.000 C 
BRANCH   4   5
ATOM      5  C   UNL     1       8.947 -14.391 -23.910  1.00  0.00     0.000 C 
BRANCH   5   6
ATOM      6  C   UNL     1      10.409 -13.931 -23.952  1.00  0.00     0.000 C 
BRANCH   6   7
ATOM      7  C   UNL     1      11.018 -13.902 -22.545  1.00  0.00     0.006 C 
BRANCH   7   8
ATOM      8  C   UNL     1       9.965 -14.229 -21.483  1.00  0.00     0.053 C 
BRANCH   8   9
ATOM      9  C   UNL     1      10.277 -13.522 -20.202  1.00  0.00     0.041 C 
ATOM     10  O   UNL     1      10.787 -14.153 -19.239  1.00  0.00    -0.550 OA
ATOM     11  O   UNL     1      10.049 -12.157 -20.088  1.00  0.00    -0.550 OA
ENDBRANCH   8   9
ENDBRANCH   7   8
ENDBRANCH   6   7
ENDBRANCH   5   6
ENDBRANCH   4   5
ENDBRANCH   3   4
ENDBRANCH   2   3
ENDBRANCH   1   2
BRANCH   1  12
ATOM     12  C   UNL     1      10.856 -17.801 -22.440  1.00  0.00     0.000 C 
BRANCH  12  13
ATOM     13  C   UNL     1       9.325 -17.942 -22.405  1.00  0.00    -0.000 C 
BRANCH  13  14
ATOM     14  C   UNL     1       8.867 -19.246 -21.735  1.00  0.00    -0.000 C 
BRANCH  14  15
ATOM     15  C   UNL     1       9.239 -20.495 -22.550  1.00  0.00    -0.000 C 
BRANCH  15  16
ATOM     16  C   UNL     1       8.096 -20.900 -23.488  1.00  0.00    -0.000 C 
BRANCH  16  17
ATOM     17  C   UNL     1       8.535 -20.831 -24.955  1.00  0.00    -0.000 C 
BRANCH  17  18
ATOM     18  C   UNL     1      10.037 -21.125 -25.093  1.00  0.00    -0.000 C 
BRANCH  18  19
ATOM     19  C   UNL     1      10.559 -20.881 -26.517  1.00  0.00    -0.003 C 
ATOM     20  C   UNL     1       9.538 -20.170 -27.407  1.00  0.00     0.004 C 
ENDBRANCH  18  19
ENDBRANCH  17  18
ENDBRANCH  16  17
ENDBRANCH  15  16
ENDBRANCH  14  15
ENDBRANCH  13  14
ENDBRANCH  12  13
ENDBRANCH   1  12
TORSDOF 16
ENDMDL
MODEL 2
REMARK VINA RESULT:    -3.746      2.832      4.079
REMARK INTER + INTRA:          -9.941
REMARK INTER:                  -8.367
REMARK INTRA:                  -1.573
REMARK UNBOUND:                -2.690
REMARK SMILES CCCCCCCCCCCCCCCCCC(=O)[O-]
REMARK SMILES IDX 10 1 11 2 12 3 13 4 14 5 15 6 16 7 17 8 18 9 19 10 20 11
REMARK SMILES IDX 9 12 8 13 7 14 6 15 5 16 4 17 3 18 2 19 1 20
REMARK H PARENT
REMARK Flexibility Score: inf
ROOT
ATOM      1  C   UNL     1      11.640 -18.662 -23.460  1.00  0.00     0.000 C 
ENDROOT
BRANCH   1   2
ATOM      2  C   UNL     1      11.090 -17.318 -22.939  1.00  0.00     0.000 C 
BRANCH   2   3
ATOM      3  C   UNL     1      11.224 -16.135 -23.913  1.00  0.00     0.000 C 
BRANCH   3   4
ATOM      4  C   UNL     1       9.873 -15.661 -24.467  1.00  0.00     0.000 C 
BRANCH   4   5
ATOM      5  C   UNL     1       9.345 -14.459 -23.675  1.00  0.00     0.000 C 
BRANCH   5   6
ATOM      6  C   UNL     1      10.499 -13.619 -23.115  1.00  0.00     0.000 C 
BRANCH   6   7
ATOM      7  C   UNL     1      10.220 -13.194 -21.668  1.00  0.00     0.006 C 
BRANCH   7   8
ATOM      8  C   UNL     1       9.972 -14.412 -20.775  1.00  0.00     0.053 C 
BRANCH   8   9
ATOM      9  C   UNL     1      10.694 -14.262 -19.472  1.00  0.00     0.041 C 
ATOM     10  O   UNL     1      10.858 -13.119 -18.968  1.00  0.00    -0.550 OA
ATOM     11  O   UNL     1      11.140 -15.386 -18.792  1.00  0.00    -0.550 OA
ENDBRANCH   8   9
ENDBRANCH   7   8
ENDBRANCH   6   7
ENDBRANCH   5   6
ENDBRANCH   4   5
ENDBRANCH   3   4
ENDBRANCH   2   3
ENDBRANCH   1   2
BRANCH   1  12
ATOM     12  C   UNL     1      10.584 -19.757 -23.694  1.00  0.00     0.000 C 
BRANCH  12  13
ATOM     13  C   UNL     1      10.494 -20.196 -25.165  1.00  0.00    -0.000 C 
BRANCH  13  14
ATOM     14  C   UNL     1      10.397 -19.006 -26.131  1.00  0.00    -0.000 C 
BRANCH  14  15
ATOM     15  C   UNL     1      11.652 -18.844 -27.003  1.00  0.00    -0.000 C 
BRANCH  15  16
ATOM     16  C   UNL     1      11.885 -17.372 -27.362  1.00  0.00    -0.000 C 
BRANCH  16  17
ATOM     17  C   UNL     1      12.956 -17.233 -28.451  1.00  0.00    -0.000 C 
BRANCH  17  18
ATOM     18  C   UNL     1      14.302 -16.802 -27.847  1.00  0.00    -0.000 C 
BRANCH  18  19
ATOM     19  C   UNL     1      15.493 -17.551 -28.463  1.00  0.00    -0.003 C 
ATOM     20  C   UNL     1      16.810 -17.265 -27.741  1.00  0.00     0.004 C 
ENDBRANCH  18  19
ENDBRANCH  17  18
ENDBRANCH  16  17
ENDBRANCH  15  16
ENDBRANCH  14  15
ENDBRANCH  13  14
ENDBRANCH  12  13
ENDBRANCH   1  12
TORSDOF 16
ENDMDL
MODEL 3
REMARK VINA RESULT:    -3.720      3.791      7.633
REMARK INTER + INTRA:          -9.889
REMARK INTER:                  -8.606
REMARK INTRA:                  -1.283
REMARK UNBOUND:                -2.690
REMARK SMILES CCCCCCCCCCCCCCCCCC(=O)[O-]
REMARK SMILES IDX 10 1 11 2 12 3 13 4 14 5 15 6 16 7 17 8 18 9 19 10 20 11
REMARK SMILES IDX 9 12 8 13 7 14 6 15 5 16 4 17 3 18 2 19 1 20
REMARK H PARENT
REMARK Flexibility Score: inf
ROOT
ATOM      1  C   UNL     1       9.401 -14.429 -25.007  1.00  0.00     0.000 C 
ENDROOT
BRANCH   1   2
ATOM      2  C   UNL     1       8.408 -15.586 -24.768  1.00  0.00     0.000 C 
BRANCH   2   3
ATOM      3  C   UNL     1       9.046 -16.911 -24.320  1.00  0.00     0.000 C 
BRANCH   3   4
ATOM      4  C   UNL     1       8.381 -17.501 -23.067  1.00  0.00     0.000 C 
BRANCH   4   5
ATOM      5  C   UNL     1       9.430 -17.871 -22.011  1.00  0.00     0.000 C 
BRANCH   5   6
ATOM      6  C   UNL     1      10.620 -16.905 -22.056  1.00  0.00     0.000 C 
BRANCH   6   7
ATOM      7  C   UNL     1      10.624 -15.979 -20.833  1.00  0.00     0.006 C 
BRANCH   7   8
ATOM      8  C   UNL     1       9.790 -14.722 -21.093  1.00  0.00     0.053 C 
BRANCH   8   9
ATOM      9  C   UNL     1      10.184 -13.628 -20.152  1.00  0.00     0.041 C 
ATOM     10  O   UNL     1      10.795 -13.900 -19.085  1.00  0.00    -0.550 OA
ATOM     11  O   UNL     1       9.920 -12.304 -20.476  1.00  0.00    -0.550 OA
ENDBRANCH   8   9
ENDBRANCH   7   8
ENDBRANCH   6   7
ENDBRANCH   5   6
ENDBRANCH   4   5
ENDBRANCH   3   4
ENDBRANCH   2   3
ENDBRANCH   1   2
BRANCH   1  12
ATOM     12  C   UNL     1       9.331 -13.282 -23.982  1.00  0.00     0.000 C 
BRANCH  12  13
ATOM     13  C   UNL     1       8.024 -12.476 -24.077  1.00  0.00    -0.000 C 
BRANCH  13  14
ATOM     14  C   UNL     1       8.205 -11.142 -24.817  1.00  0.00    -0.000 C 
BRANCH  14  15
ATOM     15  C   UNL     1       9.651 -10.625 -24.764  1.00  0.00    -0.000 C 
BRANCH  15  16
ATOM     16  C   UNL     1       9.684  -9.095 -24.672  1.00  0.00    -0.000 C 
BRANCH  16  17
ATOM     17  C   UNL     1       8.749  -8.460 -25.708  1.00  0.00    -0.000 C 
BRANCH  17  18
ATOM     18  C   UNL     1       9.373  -7.191 -26.308  1.00  0.00    -0.000 C 
BRANCH  18  19
ATOM     19  C   UNL     1       8.668  -6.737 -27.595  1.00  0.00    -0.003 C 
ATOM     20  C   UNL     1       9.071  -7.568 -28.814  1.00  0.00     0.004 C 
ENDBRANCH  18  19
ENDBRANCH  17  18
ENDBRANCH  16  17
ENDBRANCH  15  16
ENDBRANCH  14  15
ENDBRANCH  13  14
ENDBRANCH  12  13
ENDBRANCH   1  12
TORSDOF 16
ENDMDL
MODEL 4
REMARK VINA RESULT:    -3.685      2.571      6.431
REMARK INTER + INTRA:          -9.822
REMARK INTER:                  -8.164
REMARK INTRA:                  -1.658
REMARK UNBOUND:                -2.690
REMARK SMILES CCCCCCCCCCCCCCCCCC(=O)[O-]
REMARK SMILES IDX 10 1 11 2 12 3 13 4 14 5 15 6 16 7 17 8 18 9 19 10 20 11
REMARK SMILES IDX 9 12 8 13 7 14 6 15 5 16 4 17 3 18 2 19 1 20
REMARK H PARENT
REMARK Flexibility Score: inf
ROOT
ATOM      1  C   UNL     1      10.375 -15.879 -25.625  1.00  0.00     0.000 C 
ENDROOT
BRANCH   1   2
ATOM      2  C   UNL     1      11.318 -16.982 -25.098  1.00  0.00     0.000 C 
BRANCH   2   3
ATOM      3  C   UNL     1      10.670 -17.988 -24.132  1.00  0.00     0.000 C 
BRANCH   3   4
ATOM      4  C   UNL     1      11.241 -17.903 -22.709  1.00  0.00     0.000 C 
BRANCH   4   5
ATOM      5  C   UNL     1      10.162 -17.469 -21.709  1.00  0.00     0.000 C 
BRANCH   5   6
ATOM      6  C   UNL     1       9.200 -16.456 -22.342  1.00  0.00     0.000 C 
BRANCH   6   7
ATOM      7  C   UNL     1       9.586 -15.020 -21.966  1.00  0.00     0.006 C 
BRANCH   7   8
ATOM      8  C   UNL     1      10.287 -14.978 -20.606  1.00  0.00     0.053 C 
BRANCH   8   9
ATOM      9  C   UNL     1      10.327 -13.578 -20.080  1.00  0.00     0.041 C 
ATOM     10  O   UNL     1      10.823 -13.340 -18.947  1.00  0.00    -0.550 OA
ATOM     11  O   UNL     1       9.861 -12.528 -20.862  1.00  0.00    -0.550 OA
ENDBRANCH   8   9
ENDBRANCH   7   8
ENDBRANCH   6   7
ENDBRANCH   5   6
ENDBRANCH   4   5
ENDBRANCH   3   4
ENDBRANCH   2   3
ENDBRANCH   1   2
BRANCH   1  12
ATOM     12  C   UNL     1       9.075 -16.384 -26.278  1.00  0.00     0.000 C 
BRANCH  12  13
ATOM     13  C   UNL     1       7.979 -15.306 -26.336  1.00  0.00    -0.000 C 
BRANCH  13  14
ATOM     14  C   UNL     1       8.043 -14.334 -25.149  1.00  0.00    -0.000 C 
BRANCH  14  15
ATOM     15  C   UNL     1       8.254 -12.876 -25.585  1.00  0.00    -0.000 C 
BRANCH  15  16
ATOM     16  C   UNL     1       9.122 -12.120 -24.573  1.00  0.00    -0.000 C 
BRANCH  16  17
ATOM     17  C   UNL     1       8.684 -10.655 -24.455  1.00  0.00    -0.000 C 
BRANCH  17  18
ATOM     18  C   UNL     1       9.883  -9.708 -24.617  1.00  0.00    -0.000 C 
BRANCH  18  19
ATOM     19  C   UNL     1       9.478  -8.331 -25.166  1.00  0.00    -0.003 C 
ATOM     20  C   UNL     1       8.719  -8.422 -26.490  1.00  0.00     0.004 C 
ENDBRANCH  18  19
ENDBRANCH  17  18
ENDBRANCH  16  17
ENDBRANCH  15  16
ENDBRANCH  14  15
ENDBRANCH  13  14
ENDBRANCH  12  13
ENDBRANCH   1  12
TORSDOF 16
ENDMDL
MODEL 5
REMARK VINA RESULT:    -3.640      7.949     11.492
REMARK INTER + INTRA:          -9.736
REMARK INTER:                  -8.915
REMARK INTRA:                  -0.820
REMARK UNBOUND:                -2.690
REMARK SMILES CCCCCCCCCCCCCCCCCC(=O)[O-]
REMARK SMILES IDX 10 1 11 2 12 3 13 4 14 5 15 6 16 7 17 8 18 9 19 10 20 11
REMARK SMILES IDX 9 12 8 13 7 14 6 15 5 16 4 17 3 18 2 19 1 20
REMARK H PARENT
REMARK Flexibility Score: inf
ROOT
ATOM      1  C   UNL     1       8.496  -9.595 -27.543  1.00  0.00     0.000 C 
ENDROOT
BRANCH   1   2
ATOM      2  C   UNL     1       8.513 -10.696 -26.462  1.00  0.00     0.000 C 
BRANCH   2   3
ATOM      3  C   UNL     1       9.786 -10.745 -25.601  1.00  0.00     0.000 C 
BRANCH   3   4
ATOM      4  C   UNL     1       9.508 -11.151 -24.146  1.00  0.00     0.000 C 
BRANCH   4   5
ATOM      5  C   UNL     1       8.315 -12.109 -24.061  1.00  0.00     0.000 C 
BRANCH   5   6
ATOM      6  C   UNL     1       8.747 -13.481 -23.528  1.00  0.00     0.000 C 
BRANCH   6   7
ATOM      7  C   UNL     1       9.982 -13.357 -22.627  1.00  0.00     0.006 C 
BRANCH   7   8
ATOM      8  C   UNL     1       9.863 -14.269 -21.404  1.00  0.00     0.053 C 
BRANCH   8   9
ATOM      9  C   UNL     1      10.262 -13.536 -20.162  1.00  0.00     0.041 C 
ATOM     10  O   UNL     1      10.754 -14.162 -19.186  1.00  0.00    -0.550 OA
ATOM     11  O   UNL     1      10.138 -12.154 -20.101  1.00  0.00    -0.550 OA
ENDBRANCH   8   9
ENDBRANCH   7   8
ENDBRANCH   6   7
ENDBRANCH   5   6
ENDBRANCH   4   5
ENDBRANCH   3   4
ENDBRANCH   2   3
ENDBRANCH   1   2
BRANCH   1  12
ATOM     12  C   UNL     1       7.875  -8.256 -27.105  1.00  0.00     0.000 C 
BRANCH  12  13
ATOM     13  C   UNL     1       8.845  -7.071 -27.254  1.00  0.00    -0.000 C 
BRANCH  13  14
ATOM     14  C   UNL     1       8.275  -5.948 -28.133  1.00  0.00    -0.000 C 
BRANCH  14  15
ATOM     15  C   UNL     1       8.442  -6.226 -29.635  1.00  0.00    -0.000 C 
BRANCH  15  16
ATOM     16  C   UNL     1       8.113  -4.979 -30.465  1.00  0.00    -0.000 C 
BRANCH  16  17
ATOM     17  C   UNL     1       8.787  -5.039 -31.841  1.00  0.00    -0.000 C 
BRANCH  17  18
ATOM     18  C   UNL     1       8.419  -3.810 -32.686  1.00  0.00    -0.000 C 
BRANCH  18  19
ATOM     19  C   UNL     1       8.308  -2.528 -31.848  1.00  0.00    -0.003 C 
ATOM     20  C   UNL     1       8.840  -1.295 -32.579  1.00  0.00     0.004 C 
ENDBRANCH  18  19
ENDBRANCH  17  18
ENDBRANCH  16  17
ENDBRANCH  15  16
ENDBRANCH  14  15
ENDBRANCH  13  14
ENDBRANCH  12  13
ENDBRANCH   1  12
TORSDOF 16
ENDMDL
MODEL 6
REMARK VINA RESULT:    -3.640      1.365      2.313
REMARK INTER + INTRA:          -9.735
REMARK INTER:                  -7.926
REMARK INTRA:                  -1.809
REMARK UNBOUND:                -2.690
REMARK SMILES CCCCCCCCCCCCCCCCCC(=O)[O-]
REMARK SMILES IDX 10 1 11 2 12 3 13 4 14 5 15 6 16 7 17 8 18 9 19 10 20 11
REMARK SMILES IDX 9 12 8 13 7 14 6 15 5 16 4 17 3 18 2 19 1 20
REMARK H PARENT
REMARK Flexibility Score: inf
ROOT
ATOM      1  C   UNL     1       9.762 -18.317 -22.188  1.00  0.00     0.000 C 
ENDROOT
BRANCH   1   2
ATOM      2  C   UNL     1       9.412 -17.402 -23.380  1.00  0.00     0.000 C 
BRANCH   2   3
ATOM      3  C   UNL     1      10.577 -16.552 -23.914  1.00  0.00     0.000 C 
BRANCH   3   4
ATOM      4  C   UNL     1      10.128 -15.496 -24.934  1.00  0.00     0.000 C 
BRANCH   4   5
ATOM      5  C   UNL     1       9.944 -14.129 -24.265  1.00  0.00     0.000 C 
BRANCH   5   6
ATOM      6  C   UNL     1      10.875 -13.978 -23.055  1.00  0.00     0.000 C 
BRANCH   6   7
ATOM      7  C   UNL     1      10.094 -13.540 -21.810  1.00  0.00     0.006 C 
BRANCH   7   8
ATOM      8  C   UNL     1       9.914 -14.707 -20.836  1.00  0.00     0.053 C 
BRANCH   8   9
ATOM      9  C   UNL     1      10.678 -14.459 -19.574  1.00  0.00     0.041 C 
ATOM     10  O   UNL     1      11.184 -15.422 -18.940  1.00  0.00    -0.550 OA
ATOM     11  O   UNL     1      10.874 -13.160 -19.124  1.00  0.00    -0.550 OA
ENDBRANCH   8   9
ENDBRANCH   7   8
ENDBRANCH   6   7
ENDBRANCH   5   6
ENDBRANCH   4   5
ENDBRANCH   3   4
ENDBRANCH   2   3
ENDBRANCH   1   2
BRANCH   1  12
ATOM     12  C   UNL     1       8.638 -19.267 -21.738  1.00  0.00     0.000 C 
BRANCH  12  13
ATOM     13  C   UNL     1       8.683 -20.628 -22.454  1.00  0.00    -0.000 C 
BRANCH  13  14
ATOM     14  C   UNL     1       9.911 -20.774 -23.366  1.00  0.00    -0.000 C 
BRANCH  14  15
ATOM     15  C   UNL     1       9.539 -21.125 -24.814  1.00  0.00    -0.000 C 
BRANCH  15  16
ATOM     16  C   UNL     1      10.502 -20.462 -25.805  1.00  0.00    -0.000 C 
BRANCH  16  17
ATOM     17  C   UNL     1       9.864 -19.229 -26.455  1.00  0.00    -0.000 C 
BRANCH  17  18
ATOM     18  C   UNL     1      10.485 -18.949 -27.832  1.00  0.00    -0.000 C 
BRANCH  18  19
ATOM     19  C   UNL     1      12.016 -18.831 -27.777  1.00  0.00    -0.003 C 
ATOM     20  C   UNL     1      12.496 -17.380 -27.740  1.00  0.00     0.004 C 
ENDBRANCH  18  19
ENDBRANCH  17  18
ENDBRANCH  16  17
ENDBRANCH  15  16
ENDBRANCH  14  15
ENDBRANCH  13  14
ENDBRANCH  12  13
ENDBRANCH   1  12
TORSDOF 16
ENDMDL
MODEL 7
REMARK VINA RESULT:    -3.633     17.195     19.189
REMARK INTER + INTRA:          -9.721
REMARK INTER:                  -7.945
REMARK INTRA:                  -1.776
REMARK UNBOUND:                -2.690
REMARK SMILES CCCCCCCCCCCCCCCCCC(=O)[O-]
REMARK SMILES IDX 10 1 11 2 12 3 13 4 14 5 15 6 16 7 17 8 18 9 19 10 20 11
REMARK SMILES IDX 9 12 8 13 7 14 6 15 5 16 4 17 3 18 2 19 1 20
REMARK H PARENT
REMARK Flexibility Score: inf
ROOT
ATOM      1  C   UNL     1      23.406  -7.319 -26.385  1.00  0.00     0.000 C 
ENDROOT
BRANCH   1   2
ATOM      2  C   UNL     1      23.376  -5.806 -26.687  1.00  0.00     0.000 C 
BRANCH   2   3
ATOM      3  C   UNL     1      23.498  -5.434 -28.174  1.00  0.00     0.000 C 
BRANCH   3   4
ATOM      4  C   UNL     1      23.616  -3.921 -28.404  1.00  0.00     0.000 C 
BRANCH   4   5
ATOM      5  C   UNL     1      25.078  -3.509 -28.612  1.00  0.00     0.000 C 
BRANCH   5   6
ATOM      6  C   UNL     1      25.382  -2.181 -27.907  1.00  0.00     0.000 C 
BRANCH   6   7
ATOM      7  C   UNL     1      26.379  -2.383 -26.759  1.00  0.00     0.006 C 
BRANCH   7   8
ATOM      8  C   UNL     1      25.656  -2.755 -25.462  1.00  0.00     0.053 C 
BRANCH   8   9
ATOM      9  C   UNL     1      26.524  -2.469 -24.277  1.00  0.00     0.041 C 
ATOM     10  O   UNL     1      27.768  -2.337 -24.421  1.00  0.00    -0.550 OA
ATOM     11  O   UNL     1      25.954  -2.298 -23.023  1.00  0.00    -0.550 OA
ENDBRANCH   8   9
ENDBRANCH   7   8
ENDBRANCH   6   7
ENDBRANCH   5   6
ENDBRANCH   4   5
ENDBRANCH   3   4
ENDBRANCH   2   3
ENDBRANCH   1   2
BRANCH   1  12
ATOM     12  C   UNL     1      23.431  -8.235 -27.623  1.00  0.00     0.000 C 
BRANCH  12  13
ATOM     13  C   UNL     1      24.843  -8.737 -27.966  1.00  0.00    -0.000 C 
BRANCH  13  14
ATOM     14  C   UNL     1      24.954  -9.246 -29.411  1.00  0.00    -0.000 C 
BRANCH  14  15
ATOM     15  C   UNL     1      23.626  -9.800 -29.950  1.00  0.00    -0.000 C 
BRANCH  15  16
ATOM     16  C   UNL     1      23.260  -9.145 -31.288  1.00  0.00    -0.000 C 
BRANCH  16  17
ATOM     17  C   UNL     1      21.791  -8.706 -31.304  1.00  0.00    -0.000 C 
BRANCH  17  18
ATOM     18  C   UNL     1      21.631  -7.301 -30.704  1.00  0.00    -0.000 C 
BRANCH  18  19
ATOM     19  C   UNL     1      21.654  -6.197 -31.772  1.00  0.00    -0.003 C 
ATOM     20  C   UNL     1      23.012  -5.500 -31.873  1.00  0.00     0.004 C 
ENDBRANCH  18  19
ENDBRANCH  17  18
ENDBRANCH  16  17
ENDBRANCH  15  16
ENDBRANCH  14  15
ENDBRANCH  13  14
ENDBRANCH  12  13
ENDBRANCH   1  12
TORSDOF 16
ENDMDL
MODEL 8
REMARK VINA RESULT:    -3.591      2.631      3.854
REMARK INTER + INTRA:          -9.641
REMARK INTER:                  -6.914
REMARK INTRA:                  -2.727
REMARK UNBOUND:                -2.690
REMARK SMILES CCCCCCCCCCCCCCCCCC(=O)[O-]
REMARK SMILES IDX 10 1 11 2 12 3 13 4 14 5 15 6 16 7 17 8 18 9 19 10 20 11
REMARK SMILES IDX 9 12 8 13 7 14 6 15 5 16 4 17 3 18 2 19 1 20
REMARK H PARENT
REMARK Flexibility Score: inf
ROOT
ATOM      1  C   UNL     1      11.382 -17.770 -22.581  1.00  0.00     0.000 C 
ENDROOT
BRANCH   1   2
ATOM      2  C   UNL     1      10.500 -16.993 -21.582  1.00  0.00     0.000 C 
BRANCH   2   3
ATOM      3  C   UNL     1      10.143 -15.558 -22.004  1.00  0.00     0.000 C 
BRANCH   3   4
ATOM      4  C   UNL     1      11.062 -15.014 -23.107  1.00  0.00     0.000 C 
BRANCH   4   5
ATOM      5  C   UNL     1      10.636 -13.603 -23.531  1.00  0.00     0.000 C 
BRANCH   5   6
ATOM      6  C   UNL     1       9.366 -13.646 -24.389  1.00  0.00     0.000 C 
BRANCH   6   7
ATOM      7  C   UNL     1       8.925 -12.233 -24.792  1.00  0.00     0.006 C 
BRANCH   7   8
ATOM      8  C   UNL     1       9.766 -11.171 -24.079  1.00  0.00     0.053 C 
BRANCH   8   9
ATOM      9  C   UNL     1       9.635  -9.850 -24.768  1.00  0.00     0.041 C 
ATOM     10  O   UNL     1       9.762  -9.772 -26.019  1.00  0.00    -0.550 OA
ATOM     11  O   UNL     1       9.322  -8.712 -24.036  1.00  0.00    -0.550 OA
ENDBRANCH   8   9
ENDBRANCH   7   8
ENDBRANCH   6   7
ENDBRANCH   5   6
ENDBRANCH   4   5
ENDBRANCH   3   4
ENDBRANCH   2   3
ENDBRANCH   1   2
BRANCH   1  12
ATOM     12  C   UNL     1      10.720 -19.004 -23.220  1.00  0.00     0.000 C 
BRANCH  12  13
ATOM     13  C   UNL     1       9.238 -19.153 -22.835  1.00  0.00    -0.000 C 
BRANCH  13  14
ATOM     14  C   UNL     1       8.290 -18.837 -24.002  1.00  0.00    -0.000 C 
BRANCH  14  15
ATOM     15  C   UNL     1       7.876 -17.358 -24.048  1.00  0.00    -0.000 C 
BRANCH  15  16
ATOM     16  C   UNL     1       7.928 -16.818 -25.482  1.00  0.00    -0.000 C 
BRANCH  16  17
ATOM     17  C   UNL     1       9.027 -17.513 -26.294  1.00  0.00    -0.000 C 
BRANCH  17  18
ATOM     18  C   UNL     1      10.242 -16.590 -26.478  1.00  0.00    -0.000 C 
BRANCH  18  19
ATOM     19  C   UNL     1      11.577 -17.332 -26.313  1.00  0.00    -0.003 C 
ATOM     20  C   UNL     1      11.543 -18.747 -26.893  1.00  0.00     0.004 C 
ENDBRANCH  18  19
ENDBRANCH  17  18
ENDBRANCH  16  17
ENDBRANCH  15  16
ENDBRANCH  14  15
ENDBRANCH  13  14
ENDBRANCH  12  13
ENDBRANCH   1  12
TORSDOF 16
ENDMDL
MODEL 9
REMARK VINA RESULT:    -3.548     17.323     20.013
REMARK INTER + INTRA:          -9.557
REMARK INTER:                  -6.755
REMARK INTRA:                  -2.801
REMARK UNBOUND:                -2.690
REMARK SMILES CCCCCCCCCCCCCCCCCC(=O)[O-]
REMARK SMILES IDX 10 1 11 2 12 3 13 4 14 5 15 6 16 7 17 8 18 9 19 10 20 11
REMARK SMILES IDX 9 12 8 13 7 14 6 15 5 16 4 17 3 18 2 19 1 20
REMARK H PARENT
REMARK Flexibility Score: inf
ROOT
ATOM      1  C   UNL     1      22.600  -5.121 -32.930  1.00  0.00     0.000 C 
ENDROOT
BRANCH   1   2
ATOM      2  C   UNL     1      21.141  -5.290 -32.456  1.00  0.00     0.000 C 
BRANCH   2   3
ATOM      3  C   UNL     1      20.977  -5.712 -30.987  1.00  0.00     0.000 C 
BRANCH   3   4
ATOM      4  C   UNL     1      22.261  -6.303 -30.387  1.00  0.00     0.000 C 
BRANCH   4   5
ATOM      5  C   UNL     1      22.315  -7.822 -30.590  1.00  0.00     0.000 C 
BRANCH   5   6
ATOM      6  C   UNL     1      23.307  -8.473 -29.619  1.00  0.00     0.000 C 
BRANCH   6   7
ATOM      7  C   UNL     1      23.947  -7.424 -28.700  1.00  0.00     0.006 C 
BRANCH   7   8
ATOM      8  C   UNL     1      23.749  -7.791 -27.227  1.00  0.00     0.053 C 
BRANCH   8   9
ATOM      9  C   UNL     1      23.501  -6.562 -26.411  1.00  0.00     0.041 C 
ATOM     10  O   UNL     1      23.659  -6.589 -25.161  1.00  0.00    -0.550 OA
ATOM     11  O   UNL     1      23.142  -5.374 -27.034  1.00  0.00    -0.550 OA
ENDBRANCH   8   9
ENDBRANCH   7   8
ENDBRANCH   6   7
ENDBRANCH   5   6
ENDBRANCH   4   5
ENDBRANCH   3   4
ENDBRANCH   2   3
ENDBRANCH   1   2
BRANCH   1  12
ATOM     12  C   UNL     1      22.932  -3.755 -33.557  1.00  0.00     0.000 C 
BRANCH  12  13
ATOM     13  C   UNL     1      21.730  -2.795 -33.569  1.00  0.00    -0.000 C 
BRANCH  13  14
ATOM     14  C   UNL     1      22.093  -1.388 -33.070  1.00  0.00    -0.000 C 
BRANCH  14  15
ATOM     15  C   UNL     1      22.954  -1.412 -31.798  1.00  0.00    -0.000 C 
BRANCH  15  16
ATOM     16  C   UNL     1      22.111  -1.783 -30.572  1.00  0.00    -0.000 C 
BRANCH  16  17
ATOM     17  C   UNL     1      22.851  -2.785 -29.677  1.00  0.00    -0.000 C 
BRANCH  17  18
ATOM     18  C   UNL     1      24.373  -2.636 -29.826  1.00  0.00    -0.000 C 
BRANCH  18  19
ATOM     19  C   UNL     1      25.125  -3.944 -29.538  1.00  0.00    -0.003 C 
ATOM     20  C   UNL     1      25.518  -4.693 -30.812  1.00  0.00     0.004 C 
ENDBRANCH  18  19
ENDBRANCH  17  18
ENDBRANCH  16  17
ENDBRANCH  15  16
ENDBRANCH  14  15
ENDBRANCH  13  14
ENDBRANCH  12  13
ENDBRANCH   1  12
TORSDOF 16
ENDMDL
