MODEL 1
REMARK VINA RESULT:    -5.871      0.000      0.000
REMARK INTER + INTRA:         -15.164
REMARK INTER:                 -12.735
REMARK INTRA:                  -2.429
REMARK UNBOUND:                -2.429
REMARK SMILES CCCCCCCCCCCCCCCCCCCCCC(=O)[O-]
REMARK SMILES IDX 12 1 11 2 10 3 9 4 8 5 7 6 6 7 5 8 4 9 3 10 2 11 1 12 13 13
REMARK SMILES IDX 14 14 15 15 16 16 17 17 18 18 19 19 20 20 21 21 22 22 23 23
REMARK SMILES IDX 24 24
REMARK H PARENT
REMARK Flexibility Score: inf
ROOT
ATOM      1  C   UNL     1      10.325   3.795  21.346  1.00  0.00     0.000 C 
ENDROOT
BRANCH   1   2
ATOM      2  C   UNL     1       9.858   3.194  20.005  1.00  0.00     0.000 C 
BRANCH   2   3
ATOM      3  C   UNL     1      10.736   3.543  18.787  1.00  0.00     0.000 C 
BRANCH   3   4
ATOM      4  C   UNL     1      11.979   4.400  19.095  1.00  0.00    -0.000 C 
BRANCH   4   5
ATOM      5  C   UNL     1      12.079   5.652  18.208  1.00  0.00    -0.000 C 
BRANCH   5   6
ATOM      6  C   UNL     1      10.703   6.265  17.888  1.00  0.00    -0.000 C 
BRANCH   6   7
ATOM      7  C   UNL     1      10.310   7.477  18.755  1.00  0.00    -0.000 C 
BRANCH   7   8
ATOM      8  C   UNL     1       9.495   7.139  20.018  1.00  0.00    -0.000 C 
BRANCH   8   9
ATOM      9  C   UNL     1      10.154   7.615  21.330  1.00  0.00    -0.000 C 
BRANCH   9  10
ATOM     10  C   UNL     1      11.647   7.263  21.397  1.00  0.00    -0.000 C 
BRANCH  10  11
ATOM     11  C   UNL     1      12.507   8.528  21.495  1.00  0.00    -0.003 C 
ATOM     12  C   UNL     1      13.534   8.587  20.369  1.00  0.00     0.004 C 
ENDBRANCH  10  11
ENDBRANCH   9  10
ENDBRANCH   8   9
ENDBRANCH   7   8
ENDBRANCH   6   7
ENDBRANCH   5   6
ENDBRANCH   4   5
ENDBRANCH   3   4
ENDBRANCH   2   3
ENDBRANCH   1   2
BRANCH   1  13
ATOM     13  C   UNL     1      10.961   2.788  22.322  1.00  0.00     0.000 C 
BRANCH  13  14
ATOM     14  C   UNL     1      10.560   1.317  22.090  1.00  0.00     0.000 C 
BRANCH  14  15
ATOM     15  C   UNL     1      10.920   0.352  23.236  1.00  0.00     0.000 C 
BRANCH  15  16
ATOM     16  C   UNL     1      11.475   1.026  24.505  1.00  0.00     0.000 C 
BRANCH  16  17
ATOM     17  C   UNL     1      10.850   0.477  25.796  1.00  0.00     0.000 C 
BRANCH  17  18
ATOM     18  C   UNL     1      11.823  -0.468  26.517  1.00  0.00     0.000 C 
BRANCH  18  19
ATOM     19  C   UNL     1      12.596   0.219  27.655  1.00  0.00     0.000 C 
BRANCH  19  20
ATOM     20  C   UNL     1      14.125   0.274  27.471  1.00  0.00     0.006 C 
BRANCH  20  21
ATOM     21  C   UNL     1      14.649  -0.589  26.310  1.00  0.00     0.053 C 
BRANCH  21  22
ATOM     22  C   UNL     1      15.167  -1.921  26.763  1.00  0.00     0.041 C 
ATOM     23  O   UNL     1      15.814  -2.655  25.971  1.00  0.00    -0.550 OA
ATOM     24  O   UNL     1      14.895  -2.372  28.050  1.00  0.00    -0.550 OA
ENDBRANCH  21  22
ENDBRANCH  20  21
ENDBRANCH  19  20
ENDBRANCH  18  19
ENDBRANCH  17  18
ENDBRANCH  16  17
ENDBRANCH  15  16
ENDBRANCH  14  15
ENDBRANCH  13  14
ENDBRANCH   1  13
TORSDOF 20
ENDMDL
MODEL 2
REMARK VINA RESULT:    -5.850      1.844      2.761
REMARK INTER + INTRA:         -15.118
REMARK INTER:                 -12.579
REMARK INTRA:                  -2.539
REMARK UNBOUND:                -2.429
REMARK SMILES CCCCCCCCCCCCCCCCCCCCCC(=O)[O-]
REMARK SMILES IDX 12 1 11 2 10 3 9 4 8 5 7 6 6 7 5 8 4 9 3 10 2 11 1 12 13 13
REMARK SMILES IDX 14 14 15 15 16 16 17 17 18 18 19 19 20 20 21 21 22 22 23 23
REMARK SMILES IDX 24 24
REMARK H PARENT
REMARK Flexibility Score: inf
ROOT
ATOM      1  C   UNL     1       9.850   3.314  20.610  1.00  0.00     0.000 C 
ENDROOT
BRANCH   1   2
ATOM      2  C   UNL     1      10.262   2.724  19.246  1.00  0.00     0.000 C 
BRANCH   2   3
ATOM      3  C   UNL     1      10.946   3.714  18.282  1.00  0.00     0.000 C 
BRANCH   3   4
ATOM      4  C   UNL     1      12.072   4.564  18.901  1.00  0.00    -0.000 C 
BRANCH   4   5
ATOM      5  C   UNL     1      12.102   6.003  18.362  1.00  0.00    -0.000 C 
BRANCH   5   6
ATOM      6  C   UNL     1      12.130   7.057  19.484  1.00  0.00    -0.000 C 
BRANCH   6   7
ATOM      7  C   UNL     1      11.711   6.542  20.874  1.00  0.00    -0.000 C 
BRANCH   7   8
ATOM      8  C   UNL     1      10.334   7.031  21.364  1.00  0.00    -0.000 C 
BRANCH   8   9
ATOM      9  C   UNL     1       9.317   7.268  20.227  1.00  0.00    -0.000 C 
BRANCH   9  10
ATOM     10  C   UNL     1       8.380   6.070  20.019  1.00  0.00    -0.000 C 
BRANCH  10  11
ATOM     11  C   UNL     1       7.991   5.923  18.544  1.00  0.00    -0.003 C 
ATOM     12  C   UNL     1       8.611   7.030  17.697  1.00  0.00     0.004 C 
ENDBRANCH  10  11
ENDBRANCH   9  10
ENDBRANCH   8   9
ENDBRANCH   7   8
ENDBRANCH   6   7
ENDBRANCH   5   6
ENDBRANCH   4   5
ENDBRANCH   3   4
ENDBRANCH   2   3
ENDBRANCH   1   2
BRANCH   1  13
ATOM     13  C   UNL     1      10.681   2.818  21.809  1.00  0.00     0.000 C 
BRANCH  13  14
ATOM     14  C   UNL     1      10.529   1.317  22.128  1.00  0.00     0.000 C 
BRANCH  14  15
ATOM     15  C   UNL     1      11.173   0.861  23.452  1.00  0.00     0.000 C 
BRANCH  15  16
ATOM     16  C   UNL     1      10.179   0.419  24.542  1.00  0.00     0.000 C 
BRANCH  16  17
ATOM     17  C   UNL     1      10.735   0.589  25.963  1.00  0.00     0.000 C 
BRANCH  17  18
ATOM     18  C   UNL     1      11.224  -0.754  26.524  1.00  0.00     0.000 C 
BRANCH  18  19
ATOM     19  C   UNL     1      12.723  -0.997  26.278  1.00  0.00     0.000 C 
BRANCH  19  20
ATOM     20  C   UNL     1      13.677  -0.073  27.060  1.00  0.00     0.006 C 
BRANCH  20  21
ATOM     21  C   UNL     1      14.982   0.256  26.315  1.00  0.00     0.053 C 
BRANCH  21  22
ATOM     22  C   UNL     1      14.936   1.583  25.620  1.00  0.00     0.041 C 
ATOM     23  O   UNL     1      13.840   2.187  25.473  1.00  0.00    -0.550 OA
ATOM     24  O   UNL     1      16.099   2.133  25.091  1.00  0.00    -0.550 OA
ENDBRANCH  21  22
ENDBRANCH  20  21
ENDBRANCH  19  20
ENDBRANCH  18  19
ENDBRANCH  17  18
ENDBRANCH  16  17
ENDBRANCH  15  16
ENDBRANCH  14  15
ENDBRANCH  13  14
ENDBRANCH   1  13
TORSDOF 20
ENDMDL
MODEL 3
REMARK VINA RESULT:    -5.841      1.773      2.032
REMARK INTER + INTRA:         -15.099
REMARK INTER:                 -12.921
REMARK INTRA:                  -2.179
REMARK UNBOUND:                -2.429
REMARK SMILES CCCCCCCCCCCCCCCCCCCCCC(=O)[O-]
REMARK SMILES IDX 12 1 11 2 10 3 9 4 8 5 7 6 6 7 5 8 4 9 3 10 2 11 1 12 13 13
REMARK SMILES IDX 14 14 15 15 16 16 17 17 18 18 19 19 20 20 21 21 22 22 23 23
REMARK SMILES IDX 24 24
REMARK H PARENT
REMARK Flexibility Score: inf
ROOT
ATOM      1  C   UNL     1      10.268   3.093  20.845  1.00  0.00     0.000 C 
ENDROOT
BRANCH   1   2
ATOM      2  C   UNL     1       9.893   3.063  19.350  1.00  0.00     0.000 C 
BRANCH   2   3
ATOM      3  C   UNL     1      10.955   3.646  18.395  1.00  0.00     0.000 C 
BRANCH   3   4
ATOM      4  C   UNL     1      11.949   4.631  19.038  1.00  0.00    -0.000 C 
BRANCH   4   5
ATOM      5  C   UNL     1      11.891   6.035  18.413  1.00  0.00    -0.000 C 
BRANCH   5   6
ATOM      6  C   UNL     1      10.464   6.446  18.007  1.00  0.00    -0.000 C 
BRANCH   6   7
ATOM      7  C   UNL     1       9.709   7.298  19.046  1.00  0.00    -0.000 C 
BRANCH   7   8
ATOM      8  C   UNL     1       9.370   6.573  20.362  1.00  0.00    -0.000 C 
BRANCH   8   9
ATOM      9  C   UNL     1       9.778   7.357  21.628  1.00  0.00    -0.000 C 
BRANCH   9  10
ATOM     10  C   UNL     1      10.886   8.383  21.349  1.00  0.00    -0.000 C 
BRANCH  10  11
ATOM     11  C   UNL     1      12.272   7.779  21.604  1.00  0.00    -0.003 C 
ATOM     12  C   UNL     1      13.366   8.606  20.936  1.00  0.00     0.004 C 
ENDBRANCH  10  11
ENDBRANCH   9  10
ENDBRANCH   8   9
ENDBRANCH   7   8
ENDBRANCH   6   7
ENDBRANCH   5   6
ENDBRANCH   4   5
ENDBRANCH   3   4
ENDBRANCH   2   3
ENDBRANCH   1   2
BRANCH   1  13
ATOM     13  C   UNL     1      10.413   1.708  21.505  1.00  0.00     0.000 C 
BRANCH  13  14
ATOM     14  C   UNL     1      10.990   1.728  22.935  1.00  0.00     0.000 C 
BRANCH  14  15
ATOM     15  C   UNL     1      10.946   0.378  23.677  1.00  0.00     0.000 C 
BRANCH  15  16
ATOM     16  C   UNL     1      10.211   0.402  25.030  1.00  0.00     0.000 C 
BRANCH  16  17
ATOM     17  C   UNL     1      11.144   0.139  26.222  1.00  0.00     0.000 C 
BRANCH  17  18
ATOM     18  C   UNL     1      12.220  -0.895  25.858  1.00  0.00     0.000 C 
BRANCH  18  19
ATOM     19  C   UNL     1      13.309  -1.033  26.935  1.00  0.00     0.000 C 
BRANCH  19  20
ATOM     20  C   UNL     1      14.652  -0.354  26.603  1.00  0.00     0.006 C 
BRANCH  20  21
ATOM     21  C   UNL     1      14.670   1.162  26.865  1.00  0.00     0.053 C 
BRANCH  21  22
ATOM     22  C   UNL     1      14.720   1.969  25.602  1.00  0.00     0.041 C 
ATOM     23  O   UNL     1      13.655   2.342  25.043  1.00  0.00    -0.550 OA
ATOM     24  O   UNL     1      15.945   2.267  25.015  1.00  0.00    -0.550 OA
ENDBRANCH  21  22
ENDBRANCH  20  21
ENDBRANCH  19  20
ENDBRANCH  18  19
ENDBRANCH  17  18
ENDBRANCH  16  17
ENDBRANCH  15  16
ENDBRANCH  14  15
ENDBRANCH  13  14
ENDBRANCH   1  13
TORSDOF 20
ENDMDL
MODEL 4
REMARK VINA RESULT:    -5.839      0.892      2.071
REMARK INTER + INTRA:         -15.096
REMARK INTER:                 -12.459
REMARK INTRA:                  -2.637
REMARK UNBOUND:                -2.429
REMARK SMILES CCCCCCCCCCCCCCCCCCCCCC(=O)[O-]
REMARK SMILES IDX 12 1 11 2 10 3 9 4 8 5 7 6 6 7 5 8 4 9 3 10 2 11 1 12 13 13
REMARK SMILES IDX 14 14 15 15 16 16 17 17 18 18 19 19 20 20 21 21 22 22 23 23
REMARK SMILES IDX 24 24
REMARK H PARENT
REMARK Flexibility Score: inf
ROOT
ATOM      1  C   UNL     1      10.775   3.479  18.690  1.00  0.00     0.000 C 
ENDROOT
BRANCH   1   2
ATOM      2  C   UNL     1      11.956   4.378  19.110  1.00  0.00     0.000 C 
BRANCH   2   3
ATOM      3  C   UNL     1      12.178   5.624  18.228  1.00  0.00     0.000 C 
BRANCH   3   4
ATOM      4  C   UNL     1      10.928   6.141  17.493  1.00  0.00    -0.000 C 
BRANCH   4   5
ATOM      5  C   UNL     1      10.627   7.620  17.789  1.00  0.00    -0.000 C 
BRANCH   5   6
ATOM      6  C   UNL     1       9.406   7.805  18.710  1.00  0.00    -0.000 C 
BRANCH   6   7
ATOM      7  C   UNL     1       9.223   6.710  19.778  1.00  0.00    -0.000 C 
BRANCH   7   8
ATOM      8  C   UNL     1       9.528   7.150  21.223  1.00  0.00    -0.000 C 
BRANCH   8   9
ATOM      9  C   UNL     1      11.029   7.115  21.580  1.00  0.00    -0.000 C 
BRANCH   9  10
ATOM     10  C   UNL     1      11.637   8.521  21.689  1.00  0.00    -0.000 C 
BRANCH  10  11
ATOM     11  C   UNL     1      13.158   8.479  21.505  1.00  0.00    -0.003 C 
ATOM     12  C   UNL     1      13.536   8.486  20.026  1.00  0.00     0.004 C 
ENDBRANCH  10  11
ENDBRANCH   9  10
ENDBRANCH   8   9
ENDBRANCH   7   8
ENDBRANCH   6   7
ENDBRANCH   5   6
ENDBRANCH   4   5
ENDBRANCH   3   4
ENDBRANCH   2   3
ENDBRANCH   1   2
BRANCH   1  13
ATOM     13  C   UNL     1      10.065   2.756  19.851  1.00  0.00     0.000 C 
BRANCH  13  14
ATOM     14  C   UNL     1      10.173   3.462  21.218  1.00  0.00     0.000 C 
BRANCH  14  15
ATOM     15  C   UNL     1      10.972   2.695  22.289  1.00  0.00     0.000 C 
BRANCH  15  16
ATOM     16  C   UNL     1      10.593   1.211  22.446  1.00  0.00     0.000 C 
BRANCH  16  17
ATOM     17  C   UNL     1      11.207   0.566  23.698  1.00  0.00     0.000 C 
BRANCH  17  18
ATOM     18  C   UNL     1      12.204   1.520  24.373  1.00  0.00     0.000 C 
BRANCH  18  19
ATOM     19  C   UNL     1      12.695   1.008  25.738  1.00  0.00     0.000 C 
BRANCH  19  20
ATOM     20  C   UNL     1      12.033  -0.294  26.229  1.00  0.00     0.006 C 
BRANCH  20  21
ATOM     21  C   UNL     1      12.966  -1.518  26.207  1.00  0.00     0.053 C 
BRANCH  21  22
ATOM     22  C   UNL     1      14.276  -1.262  26.888  1.00  0.00     0.041 C 
ATOM     23  O   UNL     1      15.360  -1.490  26.289  1.00  0.00    -0.550 OA
ATOM     24  O   UNL     1      14.301  -0.817  28.205  1.00  0.00    -0.550 OA
ENDBRANCH  21  22
ENDBRANCH  20  21
ENDBRANCH  19  20
ENDBRANCH  18  19
ENDBRANCH  17  18
ENDBRANCH  16  17
ENDBRANCH  15  16
ENDBRANCH  14  15
ENDBRANCH  13  14
ENDBRANCH   1  13
TORSDOF 20
ENDMDL
MODEL 5
REMARK VINA RESULT:    -5.835      1.902      2.589
REMARK INTER + INTRA:         -15.087
REMARK INTER:                 -12.623
REMARK INTRA:                  -2.464
REMARK UNBOUND:                -2.429
REMARK SMILES CCCCCCCCCCCCCCCCCCCCCC(=O)[O-]
REMARK SMILES IDX 12 1 11 2 10 3 9 4 8 5 7 6 6 7 5 8 4 9 3 10 2 11 1 12 13 13
REMARK SMILES IDX 14 14 15 15 16 16 17 17 18 18 19 19 20 20 21 21 22 22 23 23
REMARK SMILES IDX 24 24
REMARK H PARENT
REMARK Flexibility Score: inf
ROOT
ATOM      1  C   UNL     1      10.378   3.524  20.994  1.00  0.00     0.000 C 
ENDROOT
BRANCH   1   2
ATOM      2  C   UNL     1      10.216   2.862  19.611  1.00  0.00     0.000 C 
BRANCH   2   3
ATOM      3  C   UNL     1       9.462   3.705  18.563  1.00  0.00     0.000 C 
BRANCH   3   4
ATOM      4  C   UNL     1       8.081   4.224  19.005  1.00  0.00    -0.000 C 
BRANCH   4   5
ATOM      5  C   UNL     1       8.039   5.752  19.168  1.00  0.00    -0.000 C 
BRANCH   5   6
ATOM      6  C   UNL     1       8.431   6.498  17.879  1.00  0.00    -0.000 C 
BRANCH   6   7
ATOM      7  C   UNL     1       9.561   7.533  18.041  1.00  0.00    -0.000 C 
BRANCH   7   8
ATOM      8  C   UNL     1      10.969   7.025  17.678  1.00  0.00    -0.000 C 
BRANCH   8   9
ATOM      9  C   UNL     1      11.770   6.496  18.887  1.00  0.00    -0.000 C 
BRANCH   9  10
ATOM     10  C   UNL     1      11.907   7.542  20.002  1.00  0.00    -0.000 C 
BRANCH  10  11
ATOM     11  C   UNL     1      11.354   7.009  21.329  1.00  0.00    -0.003 C 
ATOM     12  C   UNL     1       9.993   7.619  21.646  1.00  0.00     0.004 C 
ENDBRANCH  10  11
ENDBRANCH   9  10
ENDBRANCH   8   9
ENDBRANCH   7   8
ENDBRANCH   6   7
ENDBRANCH   5   6
ENDBRANCH   4   5
ENDBRANCH   3   4
ENDBRANCH   2   3
ENDBRANCH   1   2
BRANCH   1  13
ATOM     13  C   UNL     1      10.751   2.560  22.136  1.00  0.00     0.000 C 
BRANCH  13  14
ATOM     14  C   UNL     1      10.469   1.072  21.847  1.00  0.00     0.000 C 
BRANCH  14  15
ATOM     15  C   UNL     1      10.826   0.104  22.992  1.00  0.00     0.000 C 
BRANCH  15  16
ATOM     16  C   UNL     1      11.416   0.771  24.249  1.00  0.00     0.000 C 
BRANCH  16  17
ATOM     17  C   UNL     1      10.718   0.328  25.544  1.00  0.00     0.000 C 
BRANCH  17  18
ATOM     18  C   UNL     1      11.746   0.046  26.650  1.00  0.00     0.000 C 
BRANCH  18  19
ATOM     19  C   UNL     1      12.805  -0.990  26.236  1.00  0.00     0.000 C 
BRANCH  19  20
ATOM     20  C   UNL     1      14.264  -0.500  26.302  1.00  0.00     0.006 C 
BRANCH  20  21
ATOM     21  C   UNL     1      14.419   0.942  26.817  1.00  0.00     0.053 C 
BRANCH  21  22
ATOM     22  C   UNL     1      14.917   1.885  25.763  1.00  0.00     0.041 C 
ATOM     23  O   UNL     1      16.141   1.922  25.469  1.00  0.00    -0.550 OA
ATOM     24  O   UNL     1      14.034   2.759  25.138  1.00  0.00    -0.550 OA
ENDBRANCH  21  22
ENDBRANCH  20  21
ENDBRANCH  19  20
ENDBRANCH  18  19
ENDBRANCH  17  18
ENDBRANCH  16  17
ENDBRANCH  15  16
ENDBRANCH  14  15
ENDBRANCH  13  14
ENDBRANCH   1  13
TORSDOF 20
ENDMDL
MODEL 6
REMARK VINA RESULT:    -5.801      3.875      8.797
REMARK INTER + INTRA:         -15.012
REMARK INTER:                 -12.598
REMARK INTRA:                  -2.414
REMARK UNBOUND:                -2.429
REMARK SMILES CCCCCCCCCCCCCCCCCCCCCC(=O)[O-]
REMARK SMILES IDX 12 1 11 2 10 3 9 4 8 5 7 6 6 7 5 8 4 9 3 10 2 11 1 12 13 13
REMARK SMILES IDX 14 14 15 15 16 16 17 17 18 18 19 19 20 20 21 21 22 22 23 23
REMARK SMILES IDX 24 24
REMARK H PARENT
REMARK Flexibility Score: inf
ROOT
ATOM      1  C   UNL     1      11.310   3.932  20.189  1.00  0.00     0.000 C 
ENDROOT
BRANCH   1   2
ATOM      2  C   UNL     1      10.478   2.757  20.739  1.00  0.00     0.000 C 
BRANCH   2   3
ATOM      3  C   UNL     1      10.653   2.478  22.246  1.00  0.00     0.000 C 
BRANCH   3   4
ATOM      4  C   UNL     1      10.656   0.990  22.643  1.00  0.00    -0.000 C 
BRANCH   4   5
ATOM      5  C   UNL     1      11.518   0.703  23.884  1.00  0.00    -0.000 C 
BRANCH   5   6
ATOM      6  C   UNL     1      10.684   0.585  25.173  1.00  0.00    -0.000 C 
BRANCH   6   7
ATOM      7  C   UNL     1      11.281  -0.335  26.255  1.00  0.00    -0.000 C 
BRANCH   7   8
ATOM      8  C   UNL     1      12.577  -1.063  25.851  1.00  0.00    -0.000 C 
BRANCH   8   9
ATOM      9  C   UNL     1      13.829  -0.575  26.611  1.00  0.00    -0.000 C 
BRANCH   9  10
ATOM     10  C   UNL     1      13.645   0.832  27.198  1.00  0.00    -0.000 C 
BRANCH  10  11
ATOM     11  C   UNL     1      14.234   1.898  26.268  1.00  0.00    -0.003 C 
ATOM     12  C   UNL     1      15.500   1.394  25.581  1.00  0.00     0.004 C 
ENDBRANCH  10  11
ENDBRANCH   9  10
ENDBRANCH   8   9
ENDBRANCH   7   8
ENDBRANCH   6   7
ENDBRANCH   5   6
ENDBRANCH   4   5
ENDBRANCH   3   4
ENDBRANCH   2   3
ENDBRANCH   1   2
BRANCH   1  13
ATOM     13  C   UNL     1      11.267   4.097  18.657  1.00  0.00     0.000 C 
BRANCH  13  14
ATOM     14  C   UNL     1       9.852   4.084  18.043  1.00  0.00     0.000 C 
BRANCH  14  15
ATOM     15  C   UNL     1       9.339   5.452  17.555  1.00  0.00     0.000 C 
BRANCH  15  16
ATOM     16  C   UNL     1       8.323   6.137  18.488  1.00  0.00     0.000 C 
BRANCH  16  17
ATOM     17  C   UNL     1       7.877   5.237  19.650  1.00  0.00     0.000 C 
BRANCH  17  18
ATOM     18  C   UNL     1       8.342   5.811  20.997  1.00  0.00     0.000 C 
BRANCH  18  19
ATOM     19  C   UNL     1       9.222   7.063  20.845  1.00  0.00     0.000 C 
BRANCH  19  20
ATOM     20  C   UNL     1      10.540   7.041  21.644  1.00  0.00     0.006 C 
BRANCH  20  21
ATOM     21  C   UNL     1      11.724   7.703  20.918  1.00  0.00     0.053 C 
BRANCH  21  22
ATOM     22  C   UNL     1      12.495   8.639  21.799  1.00  0.00     0.041 C 
ATOM     23  O   UNL     1      11.999   9.745  22.141  1.00  0.00    -0.550 OA
ATOM     24  O   UNL     1      13.785   8.312  22.203  1.00  0.00    -0.550 OA
ENDBRANCH  21  22
ENDBRANCH  20  21
ENDBRANCH  19  20
ENDBRANCH  18  19
ENDBRANCH  17  18
ENDBRANCH  16  17
ENDBRANCH  15  16
ENDBRANCH  14  15
ENDBRANCH  13  14
ENDBRANCH   1  13
TORSDOF 20
ENDMDL
MODEL 7
REMARK VINA RESULT:    -5.798      3.390      8.669
REMARK INTER + INTRA:         -15.006
REMARK INTER:                 -12.372
REMARK INTRA:                  -2.634
REMARK UNBOUND:                -2.429
REMARK SMILES CCCCCCCCCCCCCCCCCCCCCC(=O)[O-]
REMARK SMILES IDX 12 1 11 2 10 3 9 4 8 5 7 6 6 7 5 8 4 9 3 10 2 11 1 12 13 13
REMARK SMILES IDX 14 14 15 15 16 16 17 17 18 18 19 19 20 20 21 21 22 22 23 23
REMARK SMILES IDX 24 24
REMARK H PARENT
REMARK Flexibility Score: inf
ROOT
ATOM      1  C   UNL     1      10.222   2.912  20.636  1.00  0.00     0.000 C 
ENDROOT
BRANCH   1   2
ATOM      2  C   UNL     1      10.280   1.655  21.527  1.00  0.00     0.000 C 
BRANCH   2   3
ATOM      3  C   UNL     1      11.056   1.822  22.850  1.00  0.00     0.000 C 
BRANCH   3   4
ATOM      4  C   UNL     1      11.244   0.533  23.671  1.00  0.00    -0.000 C 
BRANCH   4   5
ATOM      5  C   UNL     1      10.293   0.447  24.876  1.00  0.00    -0.000 C 
BRANCH   5   6
ATOM      6  C   UNL     1      11.014   0.033  26.173  1.00  0.00    -0.000 C 
BRANCH   6   7
ATOM      7  C   UNL     1      12.310  -0.776  25.969  1.00  0.00    -0.000 C 
BRANCH   7   8
ATOM      8  C   UNL     1      13.423  -0.496  26.997  1.00  0.00    -0.000 C 
BRANCH   8   9
ATOM      9  C   UNL     1      14.605   0.318  26.427  1.00  0.00    -0.000 C 
BRANCH   9  10
ATOM     10  C   UNL     1      14.293   1.819  26.339  1.00  0.00    -0.000 C 
BRANCH  10  11
ATOM     11  C   UNL     1      14.251   2.288  24.881  1.00  0.00    -0.003 C 
ATOM     12  C   UNL     1      13.634   3.679  24.765  1.00  0.00     0.004 C 
ENDBRANCH  10  11
ENDBRANCH   9  10
ENDBRANCH   8   9
ENDBRANCH   7   8
ENDBRANCH   6   7
ENDBRANCH   5   6
ENDBRANCH   4   5
ENDBRANCH   3   4
ENDBRANCH   2   3
ENDBRANCH   1   2
BRANCH   1  13
ATOM     13  C   UNL     1       9.879   2.644  19.158  1.00  0.00     0.000 C 
BRANCH  13  14
ATOM     14  C   UNL     1      10.543   3.608  18.153  1.00  0.00     0.000 C 
BRANCH  14  15
ATOM     15  C   UNL     1      11.810   4.318  18.668  1.00  0.00     0.000 C 
BRANCH  15  16
ATOM     16  C   UNL     1      11.907   5.814  18.315  1.00  0.00     0.000 C 
BRANCH  16  17
ATOM     17  C   UNL     1      10.642   6.349  17.627  1.00  0.00     0.000 C 
BRANCH  17  18
ATOM     18  C   UNL     1       9.861   7.282  18.564  1.00  0.00     0.000 C 
BRANCH  18  19
ATOM     19  C   UNL     1       8.913   6.527  19.510  1.00  0.00     0.000 C 
BRANCH  19  20
ATOM     20  C   UNL     1       9.405   6.392  20.964  1.00  0.00     0.006 C 
BRANCH  20  21
ATOM     21  C   UNL     1      10.374   7.504  21.404  1.00  0.00     0.053 C 
BRANCH  21  22
ATOM     22  C   UNL     1      11.746   6.987  21.720  1.00  0.00     0.041 C 
ATOM     23  O   UNL     1      11.924   5.767  21.972  1.00  0.00    -0.550 OA
ATOM     24  O   UNL     1      12.823   7.866  21.782  1.00  0.00    -0.550 OA
ENDBRANCH  21  22
ENDBRANCH  20  21
ENDBRANCH  19  20
ENDBRANCH  18  19
ENDBRANCH  17  18
ENDBRANCH  16  17
ENDBRANCH  15  16
ENDBRANCH  14  15
ENDBRANCH  13  14
ENDBRANCH   1  13
TORSDOF 20
ENDMDL
MODEL 8
REMARK VINA RESULT:    -5.796      3.755      9.338
REMARK INTER + INTRA:         -15.001
REMARK INTER:                 -12.877
REMARK INTRA:                  -2.124
REMARK UNBOUND:                -2.429
REMARK SMILES CCCCCCCCCCCCCCCCCCCCCC(=O)[O-]
REMARK SMILES IDX 12 1 11 2 10 3 9 4 8 5 7 6 6 7 5 8 4 9 3 10 2 11 1 12 13 13
REMARK SMILES IDX 14 14 15 15 16 16 17 17 18 18 19 19 20 20 21 21 22 22 23 23
REMARK SMILES IDX 24 24
REMARK H PARENT
REMARK Flexibility Score: inf
ROOT
ATOM      1  C   UNL     1      10.275   3.798  20.929  1.00  0.00     0.000 C 
ENDROOT
BRANCH   1   2
ATOM      2  C   UNL     1      10.947   3.039  22.091  1.00  0.00     0.000 C 
BRANCH   2   3
ATOM      3  C   UNL     1      10.601   1.539  22.183  1.00  0.00     0.000 C 
BRANCH   3   4
ATOM      4  C   UNL     1      11.180   0.804  23.406  1.00  0.00    -0.000 C 
BRANCH   4   5
ATOM      5  C   UNL     1      10.109   0.433  24.445  1.00  0.00    -0.000 C 
BRANCH   5   6
ATOM      6  C   UNL     1      10.637   0.492  25.890  1.00  0.00    -0.000 C 
BRANCH   6   7
ATOM      7  C   UNL     1      12.161   0.317  26.036  1.00  0.00    -0.000 C 
BRANCH   7   8
ATOM      8  C   UNL     1      12.618  -1.092  26.460  1.00  0.00    -0.000 C 
BRANCH   8   9
ATOM      9  C   UNL     1      14.055  -1.138  27.022  1.00  0.00    -0.000 C 
BRANCH   9  10
ATOM     10  C   UNL     1      14.469   0.188  27.679  1.00  0.00    -0.000 C 
BRANCH  10  11
ATOM     11  C   UNL     1      14.295   0.126  29.200  1.00  0.00    -0.003 C 
ATOM     12  C   UNL     1      12.987   0.780  29.635  1.00  0.00     0.004 C 
ENDBRANCH  10  11
ENDBRANCH   9  10
ENDBRANCH   8   9
ENDBRANCH   7   8
ENDBRANCH   6   7
ENDBRANCH   5   6
ENDBRANCH   4   5
ENDBRANCH   3   4
ENDBRANCH   2   3
ENDBRANCH   1   2
BRANCH   1  13
ATOM     13  C   UNL     1       9.989   2.946  19.677  1.00  0.00     0.000 C 
BRANCH  13  14
ATOM     14  C   UNL     1      10.598   3.491  18.369  1.00  0.00     0.000 C 
BRANCH  14  15
ATOM     15  C   UNL     1      11.935   4.241  18.533  1.00  0.00     0.000 C 
BRANCH  15  16
ATOM     16  C   UNL     1      11.906   5.723  18.115  1.00  0.00     0.000 C 
BRANCH  16  17
ATOM     17  C   UNL     1      10.481   6.259  17.913  1.00  0.00     0.000 C 
BRANCH  17  18
ATOM     18  C   UNL     1      10.235   7.504  18.779  1.00  0.00     0.000 C 
BRANCH  18  19
ATOM     19  C   UNL     1       9.634   7.169  20.154  1.00  0.00     0.000 C 
BRANCH  19  20
ATOM     20  C   UNL     1      10.440   7.677  21.366  1.00  0.00     0.006 C 
BRANCH  20  21
ATOM     21  C   UNL     1      11.906   7.209  21.385  1.00  0.00     0.053 C 
BRANCH  21  22
ATOM     22  C   UNL     1      12.880   8.348  21.377  1.00  0.00     0.041 C 
ATOM     23  O   UNL     1      13.005   9.086  22.389  1.00  0.00    -0.550 OA
ATOM     24  O   UNL     1      13.618   8.624  20.231  1.00  0.00    -0.550 OA
ENDBRANCH  21  22
ENDBRANCH  20  21
ENDBRANCH  19  20
ENDBRANCH  18  19
ENDBRANCH  17  18
ENDBRANCH  16  17
ENDBRANCH  15  16
ENDBRANCH  14  15
ENDBRANCH  13  14
ENDBRANCH   1  13
TORSDOF 20
ENDMDL
MODEL 9
REMARK VINA RESULT:    -5.769      3.921      9.046
REMARK INTER + INTRA:         -14.944
REMARK INTER:                 -12.435
REMARK INTRA:                  -2.509
REMARK UNBOUND:                -2.429
REMARK SMILES CCCCCCCCCCCCCCCCCCCCCC(=O)[O-]
REMARK SMILES IDX 12 1 11 2 10 3 9 4 8 5 7 6 6 7 5 8 4 9 3 10 2 11 1 12 13 13
REMARK SMILES IDX 14 14 15 15 16 16 17 17 18 18 19 19 20 20 21 21 22 22 23 23
REMARK SMILES IDX 24 24
REMARK H PARENT
REMARK Flexibility Score: inf
ROOT
ATOM      1  C   UNL     1      10.117   3.470  21.091  1.00  0.00     0.000 C 
ENDROOT
BRANCH   1   2
ATOM      2  C   UNL     1      10.987   2.762  22.148  1.00  0.00     0.000 C 
BRANCH   2   3
ATOM      3  C   UNL     1      10.562   1.319  22.490  1.00  0.00     0.000 C 
BRANCH   3   4
ATOM      4  C   UNL     1      11.319   0.671  23.664  1.00  0.00    -0.000 C 
BRANCH   4   5
ATOM      5  C   UNL     1      10.411   0.366  24.867  1.00  0.00    -0.000 C 
BRANCH   5   6
ATOM      6  C   UNL     1      11.196   0.235  26.185  1.00  0.00    -0.000 C 
BRANCH   6   7
ATOM      7  C   UNL     1      12.233  -0.904  26.217  1.00  0.00    -0.000 C 
BRANCH   7   8
ATOM      8  C   UNL     1      13.489  -0.620  27.065  1.00  0.00    -0.000 C 
BRANCH   8   9
ATOM      9  C   UNL     1      13.744   0.882  27.315  1.00  0.00    -0.000 C 
BRANCH   9  10
ATOM     10  C   UNL     1      14.974   1.401  26.556  1.00  0.00    -0.000 C 
BRANCH  10  11
ATOM     11  C   UNL     1      14.627   1.719  25.097  1.00  0.00    -0.003 C 
ATOM     12  C   UNL     1      13.755   2.967  24.995  1.00  0.00     0.004 C 
ENDBRANCH  10  11
ENDBRANCH   9  10
ENDBRANCH   8   9
ENDBRANCH   7   8
ENDBRANCH   6   7
ENDBRANCH   5   6
ENDBRANCH   4   5
ENDBRANCH   3   4
ENDBRANCH   2   3
ENDBRANCH   1   2
BRANCH   1  13
ATOM     13  C   UNL     1       9.822   2.635  19.829  1.00  0.00     0.000 C 
BRANCH  13  14
ATOM     14  C   UNL     1       9.128   3.407  18.689  1.00  0.00     0.000 C 
BRANCH  14  15
ATOM     15  C   UNL     1       8.116   4.477  19.144  1.00  0.00     0.000 C 
BRANCH  15  16
ATOM     16  C   UNL     1       8.222   5.827  18.411  1.00  0.00     0.000 C 
BRANCH  16  17
ATOM     17  C   UNL     1       9.265   5.816  17.283  1.00  0.00     0.000 C 
BRANCH  17  18
ATOM     18  C   UNL     1      10.430   6.764  17.605  1.00  0.00     0.000 C 
BRANCH  18  19
ATOM     19  C   UNL     1      11.691   6.025  18.084  1.00  0.00     0.000 C 
BRANCH  19  20
ATOM     20  C   UNL     1      11.946   6.079  19.603  1.00  0.00     0.006 C 
BRANCH  20  21
ATOM     21  C   UNL     1      12.096   7.505  20.164  1.00  0.00     0.053 C 
BRANCH  21  22
ATOM     22  C   UNL     1      11.051   7.840  21.186  1.00  0.00     0.041 C 
ATOM     23  O   UNL     1      10.025   7.120  21.306  1.00  0.00    -0.550 OA
ATOM     24  O   UNL     1      11.188   8.977  21.973  1.00  0.00    -0.550 OA
ENDBRANCH  21  22
ENDBRANCH  20  21
ENDBRANCH  19  20
ENDBRANCH  18  19
ENDBRANCH  17  18
ENDBRANCH  16  17
ENDBRANCH  15  16
ENDBRANCH  14  15
ENDBRANCH  13  14
ENDBRANCH   1  13
TORSDOF 20
ENDMDL
