MODEL 1
REMARK VINA RESULT:    -5.506      0.000      0.000
REMARK INTER + INTRA:         -14.393
REMARK INTER:                 -11.943
REMARK INTRA:                  -2.450
REMARK UNBOUND:                -2.450
REMARK SMILES CCCCCCCCCCCCCCCCCCCCCC(=O)[O-]
REMARK SMILES IDX 12 1 11 2 10 3 9 4 8 5 7 6 6 7 5 8 4 9 3 10 2 11 1 12 13 13
REMARK SMILES IDX 14 14 15 15 16 16 17 17 18 18 19 19 20 20 21 21 22 22 23 23
REMARK SMILES IDX 24 24
REMARK H PARENT
REMARK Flexibility Score: inf
ROOT
ATOM      1  C   UNL     1      45.891  46.484  10.550  1.00  0.00     0.000 C 
ENDROOT
BRANCH   1   2
ATOM      2  C   UNL     1      44.469  46.800  10.061  1.00  0.00     0.000 C 
BRANCH   2   3
ATOM      3  C   UNL     1      43.448  46.869  11.210  1.00  0.00     0.000 C 
BRANCH   3   4
ATOM      4  C   UNL     1      42.002  46.670  10.727  1.00  0.00    -0.000 C 
BRANCH   4   5
ATOM      5  C   UNL     1      41.012  46.464  11.884  1.00  0.00    -0.000 C 
BRANCH   5   6
ATOM      6  C   UNL     1      39.583  46.271  11.353  1.00  0.00    -0.000 C 
BRANCH   6   7
ATOM      7  C   UNL     1      39.529  45.375  10.106  1.00  0.00    -0.000 C 
BRANCH   7   8
ATOM      8  C   UNL     1      38.286  45.645   9.238  1.00  0.00    -0.000 C 
BRANCH   8   9
ATOM      9  C   UNL     1      38.592  45.523   7.735  1.00  0.00    -0.000 C 
BRANCH   9  10
ATOM     10  C   UNL     1      39.431  46.700   7.187  1.00  0.00    -0.000 C 
BRANCH  10  11
ATOM     11  C   UNL     1      39.281  46.906   5.669  1.00  0.00    -0.003 C 
ATOM     12  C   UNL     1      38.445  45.817   5.000  1.00  0.00     0.004 C 
ENDBRANCH  10  11
ENDBRANCH   9  10
ENDBRANCH   8   9
ENDBRANCH   7   8
ENDBRANCH   6   7
ENDBRANCH   5   6
ENDBRANCH   4   5
ENDBRANCH   3   4
ENDBRANCH   2   3
ENDBRANCH   1   2
BRANCH   1  13
ATOM     13  C   UNL     1      46.959  47.365   9.883  1.00  0.00     0.000 C 
BRANCH  13  14
ATOM     14  C   UNL     1      47.305  48.571  10.765  1.00  0.00     0.000 C 
BRANCH  14  15
ATOM     15  C   UNL     1      46.405  49.771  10.431  1.00  0.00     0.000 C 
BRANCH  15  16
ATOM     16  C   UNL     1      45.886  50.491  11.686  1.00  0.00     0.000 C 
BRANCH  16  17
ATOM     17  C   UNL     1      44.395  50.212  11.950  1.00  0.00     0.000 C 
BRANCH  17  18
ATOM     18  C   UNL     1      43.524  50.418  10.700  1.00  0.00     0.000 C 
BRANCH  18  19
ATOM     19  C   UNL     1      42.021  50.299  10.997  1.00  0.00     0.000 C 
BRANCH  19  20
ATOM     20  C   UNL     1      41.776  50.024  12.489  1.00  0.00     0.006 C 
BRANCH  20  21
ATOM     21  C   UNL     1      40.286  50.067  12.851  1.00  0.00     0.053 C 
BRANCH  21  22
ATOM     22  C   UNL     1      40.006  51.058  13.939  1.00  0.00     0.041 C 
ATOM     23  O   UNL     1      38.956  51.752  13.909  1.00  0.00    -0.550 OA
ATOM     24  O   UNL     1      40.889  51.191  15.004  1.00  0.00    -0.550 OA
ENDBRANCH  21  22
ENDBRANCH  20  21
ENDBRANCH  19  20
ENDBRANCH  18  19
ENDBRANCH  17  18
ENDBRANCH  16  17
ENDBRANCH  15  16
ENDBRANCH  14  15
ENDBRANCH  13  14
ENDBRANCH   1  13
TORSDOF 20
ENDMDL
MODEL 2
REMARK VINA RESULT:    -5.426      3.090      5.248
REMARK INTER + INTRA:         -14.220
REMARK INTER:                 -11.111
REMARK INTRA:                  -3.109
REMARK UNBOUND:                -2.450
REMARK SMILES CCCCCCCCCCCCCCCCCCCCCC(=O)[O-]
REMARK SMILES IDX 12 1 11 2 10 3 9 4 8 5 7 6 6 7 5 8 4 9 3 10 2 11 1 12 13 13
REMARK SMILES IDX 14 14 15 15 16 16 17 17 18 18 19 19 20 20 21 21 22 22 23 23
REMARK SMILES IDX 24 24
REMARK H PARENT
REMARK Flexibility Score: inf
ROOT
ATOM      1  C   UNL     1      42.170  46.480  12.138  1.00  0.00     0.000 C 
ENDROOT
BRANCH   1   2
ATOM      2  C   UNL     1      40.686  46.849  11.971  1.00  0.00     0.000 C 
BRANCH   2   3
ATOM      3  C   UNL     1      39.847  45.692  11.403  1.00  0.00     0.000 C 
BRANCH   3   4
ATOM      4  C   UNL     1      39.053  46.100  10.151  1.00  0.00    -0.000 C 
BRANCH   4   5
ATOM      5  C   UNL     1      39.216  45.103   8.993  1.00  0.00    -0.000 C 
BRANCH   5   6
ATOM      6  C   UNL     1      38.403  45.549   7.769  1.00  0.00    -0.000 C 
BRANCH   6   7
ATOM      7  C   UNL     1      39.244  45.599   6.483  1.00  0.00    -0.000 C 
BRANCH   7   8
ATOM      8  C   UNL     1      39.489  47.038   5.992  1.00  0.00    -0.000 C 
BRANCH   8   9
ATOM      9  C   UNL     1      40.951  47.477   6.196  1.00  0.00    -0.000 C 
BRANCH   9  10
ATOM     10  C   UNL     1      41.112  48.576   7.270  1.00  0.00    -0.000 C 
BRANCH  10  11
ATOM     11  C   UNL     1      41.702  48.060   8.594  1.00  0.00    -0.003 C 
ATOM     12  C   UNL     1      42.634  46.865   8.404  1.00  0.00     0.004 C 
ENDBRANCH  10  11
ENDBRANCH   9  10
ENDBRANCH   8   9
ENDBRANCH   7   8
ENDBRANCH   6   7
ENDBRANCH   5   6
ENDBRANCH   4   5
ENDBRANCH   3   4
ENDBRANCH   2   3
ENDBRANCH   1   2
BRANCH   1  13
ATOM     13  C   UNL     1      43.105  47.688  11.977  1.00  0.00     0.000 C 
BRANCH  13  14
ATOM     14  C   UNL     1      42.875  48.713  13.094  1.00  0.00     0.000 C 
BRANCH  14  15
ATOM     15  C   UNL     1      43.266  50.126  12.633  1.00  0.00     0.000 C 
BRANCH  15  16
ATOM     16  C   UNL     1      44.126  50.117  11.359  1.00  0.00     0.000 C 
BRANCH  16  17
ATOM     17  C   UNL     1      45.561  50.615  11.614  1.00  0.00     0.000 C 
BRANCH  17  18
ATOM     18  C   UNL     1      46.627  49.639  11.091  1.00  0.00     0.000 C 
BRANCH  18  19
ATOM     19  C   UNL     1      46.500  49.372   9.583  1.00  0.00     0.000 C 
BRANCH  19  20
ATOM     20  C   UNL     1      46.165  47.898   9.313  1.00  0.00     0.006 C 
BRANCH  20  21
ATOM     21  C   UNL     1      46.762  46.963  10.373  1.00  0.00     0.053 C 
BRANCH  21  22
ATOM     22  C   UNL     1      46.378  45.535  10.136  1.00  0.00     0.041 C 
ATOM     23  O   UNL     1      45.265  45.103  10.537  1.00  0.00    -0.550 OA
ATOM     24  O   UNL     1      47.234  44.688   9.442  1.00  0.00    -0.550 OA
ENDBRANCH  21  22
ENDBRANCH  20  21
ENDBRANCH  19  20
ENDBRANCH  18  19
ENDBRANCH  17  18
ENDBRANCH  16  17
ENDBRANCH  15  16
ENDBRANCH  14  15
ENDBRANCH  13  14
ENDBRANCH   1  13
TORSDOF 20
ENDMDL
MODEL 3
REMARK VINA RESULT:    -5.361      1.406      3.389
REMARK INTER + INTRA:         -14.078
REMARK INTER:                 -10.592
REMARK INTRA:                  -3.486
REMARK UNBOUND:                -2.450
REMARK SMILES CCCCCCCCCCCCCCCCCCCCCC(=O)[O-]
REMARK SMILES IDX 12 1 11 2 10 3 9 4 8 5 7 6 6 7 5 8 4 9 3 10 2 11 1 12 13 13
REMARK SMILES IDX 14 14 15 15 16 16 17 17 18 18 19 19 20 20 21 21 22 22 23 23
REMARK SMILES IDX 24 24
REMARK H PARENT
REMARK Flexibility Score: inf
ROOT
ATOM      1  C   UNL     1      44.598  46.109   8.966  1.00  0.00     0.000 C 
ENDROOT
BRANCH   1   2
ATOM      2  C   UNL     1      43.102  45.968   8.636  1.00  0.00     0.000 C 
BRANCH   2   3
ATOM      3  C   UNL     1      42.391  47.327   8.517  1.00  0.00     0.000 C 
BRANCH   3   4
ATOM      4  C   UNL     1      41.936  47.629   7.080  1.00  0.00    -0.000 C 
BRANCH   4   5
ATOM      5  C   UNL     1      40.458  48.042   7.000  1.00  0.00    -0.000 C 
BRANCH   5   6
ATOM      6  C   UNL     1      39.663  47.062   6.123  1.00  0.00    -0.000 C 
BRANCH   6   7
ATOM      7  C   UNL     1      38.790  46.102   6.947  1.00  0.00    -0.000 C 
BRANCH   7   8
ATOM      8  C   UNL     1      39.505  44.775   7.261  1.00  0.00    -0.000 C 
BRANCH   8   9
ATOM      9  C   UNL     1      39.718  44.577   8.772  1.00  0.00    -0.000 C 
BRANCH   9  10
ATOM     10  C   UNL     1      39.078  45.692   9.630  1.00  0.00    -0.000 C 
BRANCH  10  11
ATOM     11  C   UNL     1      39.447  45.609  11.121  1.00  0.00    -0.003 C 
ATOM     12  C   UNL     1      40.555  46.583  11.515  1.00  0.00     0.004 C 
ENDBRANCH  10  11
ENDBRANCH   9  10
ENDBRANCH   8   9
ENDBRANCH   7   8
ENDBRANCH   6   7
ENDBRANCH   5   6
ENDBRANCH   4   5
ENDBRANCH   3   4
ENDBRANCH   2   3
ENDBRANCH   1   2
BRANCH   1  13
ATOM     13  C   UNL     1      44.895  45.940  10.464  1.00  0.00     0.000 C 
BRANCH  13  14
ATOM     14  C   UNL     1      46.378  46.196  10.762  1.00  0.00     0.000 C 
BRANCH  14  15
ATOM     15  C   UNL     1      46.941  47.292   9.845  1.00  0.00     0.000 C 
BRANCH  15  16
ATOM     16  C   UNL     1      47.633  48.421  10.626  1.00  0.00     0.000 C 
BRANCH  16  17
ATOM     17  C   UNL     1      46.768  49.691  10.716  1.00  0.00     0.000 C 
BRANCH  17  18
ATOM     18  C   UNL     1      45.613  49.694   9.700  1.00  0.00     0.000 C 
BRANCH  18  19
ATOM     19  C   UNL     1      44.246  49.944  10.355  1.00  0.00     0.000 C 
BRANCH  19  20
ATOM     20  C   UNL     1      44.319  49.731  11.875  1.00  0.00     0.006 C 
BRANCH  20  21
ATOM     21  C   UNL     1      43.120  48.935  12.407  1.00  0.00     0.053 C 
BRANCH  21  22
ATOM     22  C   UNL     1      42.110  49.823  13.066  1.00  0.00     0.041 C 
ATOM     23  O   UNL     1      40.990  50.019  12.525  1.00  0.00    -0.550 OA
ATOM     24  O   UNL     1      42.393  50.409  14.294  1.00  0.00    -0.550 OA
ENDBRANCH  21  22
ENDBRANCH  20  21
ENDBRANCH  19  20
ENDBRANCH  18  19
ENDBRANCH  17  18
ENDBRANCH  16  17
ENDBRANCH  15  16
ENDBRANCH  14  15
ENDBRANCH  13  14
ENDBRANCH   1  13
TORSDOF 20
ENDMDL
MODEL 4
REMARK VINA RESULT:    -5.354      1.668      6.124
REMARK INTER + INTRA:         -14.064
REMARK INTER:                 -10.744
REMARK INTRA:                  -3.320
REMARK UNBOUND:                -2.450
REMARK SMILES CCCCCCCCCCCCCCCCCCCCCC(=O)[O-]
REMARK SMILES IDX 12 1 11 2 10 3 9 4 8 5 7 6 6 7 5 8 4 9 3 10 2 11 1 12 13 13
REMARK SMILES IDX 14 14 15 15 16 16 17 17 18 18 19 19 20 20 21 21 22 22 23 23
REMARK SMILES IDX 24 24
REMARK H PARENT
REMARK Flexibility Score: inf
ROOT
ATOM      1  C   UNL     1      41.254  47.166   8.411  1.00  0.00     0.000 C 
ENDROOT
BRANCH   1   2
ATOM      2  C   UNL     1      42.534  47.942   8.762  1.00  0.00     0.000 C 
BRANCH   2   3
ATOM      3  C   UNL     1      42.346  49.466   8.674  1.00  0.00     0.000 C 
BRANCH   3   4
ATOM      4  C   UNL     1      43.635  50.238   8.999  1.00  0.00    -0.000 C 
BRANCH   4   5
ATOM      5  C   UNL     1      43.509  51.100  10.265  1.00  0.00    -0.000 C 
BRANCH   5   6
ATOM      6  C   UNL     1      44.738  50.926  11.170  1.00  0.00    -0.000 C 
BRANCH   6   7
ATOM      7  C   UNL     1      45.309  49.500  11.130  1.00  0.00    -0.000 C 
BRANCH   7   8
ATOM      8  C   UNL     1      46.843  49.481  10.995  1.00  0.00    -0.000 C 
BRANCH   8   9
ATOM      9  C   UNL     1      47.298  48.853   9.665  1.00  0.00    -0.000 C 
BRANCH   9  10
ATOM     10  C   UNL     1      46.354  47.736   9.164  1.00  0.00    -0.000 C 
BRANCH  10  11
ATOM     11  C   UNL     1      46.844  46.318   9.507  1.00  0.00    -0.003 C 
ATOM     12  C   UNL     1      46.148  45.730  10.733  1.00  0.00     0.004 C 
ENDBRANCH  10  11
ENDBRANCH   9  10
ENDBRANCH   8   9
ENDBRANCH   7   8
ENDBRANCH   6   7
ENDBRANCH   5   6
ENDBRANCH   4   5
ENDBRANCH   3   4
ENDBRANCH   2   3
ENDBRANCH   1   2
BRANCH   1  13
ATOM     13  C   UNL     1      41.357  45.668   8.739  1.00  0.00     0.000 C 
BRANCH  13  14
ATOM     14  C   UNL     1      39.965  45.038   8.873  1.00  0.00     0.000 C 
BRANCH  14  15
ATOM     15  C   UNL     1      39.130  45.771   9.933  1.00  0.00     0.000 C 
BRANCH  15  16
ATOM     16  C   UNL     1      39.664  45.562  11.359  1.00  0.00     0.000 C 
BRANCH  16  17
ATOM     17  C   UNL     1      40.152  46.872  12.003  1.00  0.00     0.000 C 
BRANCH  17  18
ATOM     18  C   UNL     1      41.648  46.836  12.357  1.00  0.00     0.000 C 
BRANCH  18  19
ATOM     19  C   UNL     1      42.279  48.236  12.415  1.00  0.00     0.000 C 
BRANCH  19  20
ATOM     20  C   UNL     1      41.197  49.322  12.515  1.00  0.00     0.006 C 
BRANCH  20  21
ATOM     21  C   UNL     1      41.446  50.285  13.683  1.00  0.00     0.053 C 
BRANCH  21  22
ATOM     22  C   UNL     1      40.181  50.944  14.141  1.00  0.00     0.041 C 
ATOM     23  O   UNL     1      40.089  51.393  15.314  1.00  0.00    -0.550 OA
ATOM     24  O   UNL     1      39.115  51.091  13.262  1.00  0.00    -0.550 OA
ENDBRANCH  21  22
ENDBRANCH  20  21
ENDBRANCH  19  20
ENDBRANCH  18  19
ENDBRANCH  17  18
ENDBRANCH  16  17
ENDBRANCH  15  16
ENDBRANCH  14  15
ENDBRANCH  13  14
ENDBRANCH   1  13
TORSDOF 20
ENDMDL
MODEL 5
REMARK VINA RESULT:    -5.351      1.553      3.730
REMARK INTER + INTRA:         -14.058
REMARK INTER:                 -10.466
REMARK INTRA:                  -3.591
REMARK UNBOUND:                -2.450
REMARK SMILES CCCCCCCCCCCCCCCCCCCCCC(=O)[O-]
REMARK SMILES IDX 12 1 11 2 10 3 9 4 8 5 7 6 6 7 5 8 4 9 3 10 2 11 1 12 13 13
REMARK SMILES IDX 14 14 15 15 16 16 17 17 18 18 19 19 20 20 21 21 22 22 23 23
REMARK SMILES IDX 24 24
REMARK H PARENT
REMARK Flexibility Score: inf
ROOT
ATOM      1  C   UNL     1      47.041  48.167  10.563  1.00  0.00     0.000 C 
ENDROOT
BRANCH   1   2
ATOM      2  C   UNL     1      46.953  49.702  10.578  1.00  0.00     0.000 C 
BRANCH   2   3
ATOM      3  C   UNL     1      45.907  50.226  11.578  1.00  0.00     0.000 C 
BRANCH   3   4
ATOM      4  C   UNL     1      44.748  50.961  10.886  1.00  0.00    -0.000 C 
BRANCH   4   5
ATOM      5  C   UNL     1      44.371  50.337   9.534  1.00  0.00    -0.000 C 
BRANCH   5   6
ATOM      6  C   UNL     1      43.149  51.042   8.927  1.00  0.00    -0.000 C 
BRANCH   6   7
ATOM      7  C   UNL     1      41.928  50.116   8.806  1.00  0.00    -0.000 C 
BRANCH   7   8
ATOM      8  C   UNL     1      42.298  48.629   8.949  1.00  0.00    -0.000 C 
BRANCH   8   9
ATOM      9  C   UNL     1      41.423  47.727   8.059  1.00  0.00    -0.000 C 
BRANCH   9  10
ATOM     10  C   UNL     1      41.315  46.276   8.582  1.00  0.00    -0.000 C 
BRANCH  10  11
ATOM     11  C   UNL     1      40.115  46.050   9.519  1.00  0.00    -0.003 C 
ATOM     12  C   UNL     1      38.806  45.826   8.765  1.00  0.00     0.004 C 
ENDBRANCH  10  11
ENDBRANCH   9  10
ENDBRANCH   8   9
ENDBRANCH   7   8
ENDBRANCH   6   7
ENDBRANCH   5   6
ENDBRANCH   4   5
ENDBRANCH   3   4
ENDBRANCH   2   3
ENDBRANCH   1   2
BRANCH   1  13
ATOM     13  C   UNL     1      46.708  47.567   9.188  1.00  0.00     0.000 C 
BRANCH  13  14
ATOM     14  C   UNL     1      45.552  46.564   9.291  1.00  0.00     0.000 C 
BRANCH  14  15
ATOM     15  C   UNL     1      45.428  46.014  10.720  1.00  0.00     0.000 C 
BRANCH  15  16
ATOM     16  C   UNL     1      43.976  45.996  11.225  1.00  0.00     0.000 C 
BRANCH  16  17
ATOM     17  C   UNL     1      43.536  47.355  11.799  1.00  0.00     0.000 C 
BRANCH  17  18
ATOM     18  C   UNL     1      42.332  47.235  12.748  1.00  0.00     0.000 C 
BRANCH  18  19
ATOM     19  C   UNL     1      41.248  48.287  12.469  1.00  0.00     0.000 C 
BRANCH  19  20
ATOM     20  C   UNL     1      41.830  49.707  12.536  1.00  0.00     0.006 C 
BRANCH  20  21
ATOM     21  C   UNL     1      41.871  50.251  13.970  1.00  0.00     0.053 C 
BRANCH  21  22
ATOM     22  C   UNL     1      40.602  50.959  14.332  1.00  0.00     0.041 C 
ATOM     23  O   UNL     1      40.414  51.361  15.511  1.00  0.00    -0.550 OA
ATOM     24  O   UNL     1      39.639  51.205  13.360  1.00  0.00    -0.550 OA
ENDBRANCH  21  22
ENDBRANCH  20  21
ENDBRANCH  19  20
ENDBRANCH  18  19
ENDBRANCH  17  18
ENDBRANCH  16  17
ENDBRANCH  15  16
ENDBRANCH  14  15
ENDBRANCH  13  14
ENDBRANCH   1  13
TORSDOF 20
ENDMDL
MODEL 6
REMARK VINA RESULT:    -5.337      3.332      5.417
REMARK INTER + INTRA:         -14.026
REMARK INTER:                 -10.405
REMARK INTRA:                  -3.621
REMARK UNBOUND:                -2.450
REMARK SMILES CCCCCCCCCCCCCCCCCCCCCC(=O)[O-]
REMARK SMILES IDX 12 1 11 2 10 3 9 4 8 5 7 6 6 7 5 8 4 9 3 10 2 11 1 12 13 13
REMARK SMILES IDX 14 14 15 15 16 16 17 17 18 18 19 19 20 20 21 21 22 22 23 23
REMARK SMILES IDX 24 24
REMARK H PARENT
REMARK Flexibility Score: inf
ROOT
ATOM      1  C   UNL     1      42.600  46.552  12.108  1.00  0.00     0.000 C 
ENDROOT
BRANCH   1   2
ATOM      2  C   UNL     1      43.705  46.486  11.041  1.00  0.00     0.000 C 
BRANCH   2   3
ATOM      3  C   UNL     1      43.156  46.614   9.609  1.00  0.00     0.000 C 
BRANCH   3   4
ATOM      4  C   UNL     1      42.173  47.787   9.459  1.00  0.00    -0.000 C 
BRANCH   4   5
ATOM      5  C   UNL     1      42.338  48.534   8.127  1.00  0.00    -0.000 C 
BRANCH   5   6
ATOM      6  C   UNL     1      41.219  48.157   7.145  1.00  0.00    -0.000 C 
BRANCH   6   7
ATOM      7  C   UNL     1      41.505  46.848   6.392  1.00  0.00    -0.000 C 
BRANCH   7   8
ATOM      8  C   UNL     1      40.482  45.744   6.716  1.00  0.00    -0.000 C 
BRANCH   8   9
ATOM      9  C   UNL     1      39.058  46.305   6.881  1.00  0.00    -0.000 C 
BRANCH   9  10
ATOM     10  C   UNL     1      38.382  45.874   8.202  1.00  0.00    -0.000 C 
BRANCH  10  11
ATOM     11  C   UNL     1      39.359  45.257   9.219  1.00  0.00    -0.003 C 
ATOM     12  C   UNL     1      39.270  45.906  10.599  1.00  0.00     0.004 C 
ENDBRANCH  10  11
ENDBRANCH   9  10
ENDBRANCH   8   9
ENDBRANCH   7   8
ENDBRANCH   6   7
ENDBRANCH   5   6
ENDBRANCH   4   5
ENDBRANCH   3   4
ENDBRANCH   2   3
ENDBRANCH   1   2
BRANCH   1  13
ATOM     13  C   UNL     1      42.776  47.734  13.073  1.00  0.00     0.000 C 
BRANCH  13  14
ATOM     14  C   UNL     1      41.753  48.839  12.780  1.00  0.00     0.000 C 
BRANCH  14  15
ATOM     15  C   UNL     1      42.431  50.060  12.141  1.00  0.00     0.000 C 
BRANCH  15  16
ATOM     16  C   UNL     1      43.965  49.969  12.169  1.00  0.00     0.000 C 
BRANCH  16  17
ATOM     17  C   UNL     1      44.621  50.726  10.999  1.00  0.00     0.000 C 
BRANCH  17  18
ATOM     18  C   UNL     1      45.466  49.808  10.101  1.00  0.00     0.000 C 
BRANCH  18  19
ATOM     19  C   UNL     1      46.821  49.445  10.728  1.00  0.00     0.000 C 
BRANCH  19  20
ATOM     20  C   UNL     1      47.104  47.942  10.590  1.00  0.00     0.006 C 
BRANCH  20  21
ATOM     21  C   UNL     1      46.779  47.416   9.186  1.00  0.00     0.053 C 
BRANCH  21  22
ATOM     22  C   UNL     1      47.047  45.947   9.066  1.00  0.00     0.041 C 
ATOM     23  O   UNL     1      47.485  45.468   7.987  1.00  0.00    -0.550 OA
ATOM     24  O   UNL     1      46.845  45.110  10.157  1.00  0.00    -0.550 OA
ENDBRANCH  21  22
ENDBRANCH  20  21
ENDBRANCH  19  20
ENDBRANCH  18  19
ENDBRANCH  17  18
ENDBRANCH  16  17
ENDBRANCH  15  16
ENDBRANCH  14  15
ENDBRANCH  13  14
ENDBRANCH   1  13
TORSDOF 20
ENDMDL
MODEL 7
REMARK VINA RESULT:    -5.310      3.295      7.107
REMARK INTER + INTRA:         -13.969
REMARK INTER:                 -11.239
REMARK INTRA:                  -2.730
REMARK UNBOUND:                -2.450
REMARK SMILES CCCCCCCCCCCCCCCCCCCCCC(=O)[O-]
REMARK SMILES IDX 12 1 11 2 10 3 9 4 8 5 7 6 6 7 5 8 4 9 3 10 2 11 1 12 13 13
REMARK SMILES IDX 14 14 15 15 16 16 17 17 18 18 19 19 20 20 21 21 22 22 23 23
REMARK SMILES IDX 24 24
REMARK H PARENT
REMARK Flexibility Score: inf
ROOT
ATOM      1  C   UNL     1      45.680  47.248  10.529  1.00  0.00     0.000 C 
ENDROOT
BRANCH   1   2
ATOM      2  C   UNL     1      47.064  47.761  10.096  1.00  0.00     0.000 C 
BRANCH   2   3
ATOM      3  C   UNL     1      47.358  49.181  10.611  1.00  0.00     0.000 C 
BRANCH   3   4
ATOM      4  C   UNL     1      47.033  50.264   9.569  1.00  0.00    -0.000 C 
BRANCH   4   5
ATOM      5  C   UNL     1      45.747  51.038   9.898  1.00  0.00    -0.000 C 
BRANCH   5   6
ATOM      6  C   UNL     1      45.307  50.777  11.347  1.00  0.00    -0.000 C 
BRANCH   6   7
ATOM      7  C   UNL     1      43.800  50.501  11.469  1.00  0.00    -0.000 C 
BRANCH   7   8
ATOM      8  C   UNL     1      43.465  49.563  12.643  1.00  0.00    -0.000 C 
BRANCH   8   9
ATOM      9  C   UNL     1      42.052  49.815  13.200  1.00  0.00    -0.000 C 
BRANCH   9  10
ATOM     10  C   UNL     1      42.052  50.623  14.518  1.00  0.00    -0.000 C 
BRANCH  10  11
ATOM     11  C   UNL     1      40.670  51.181  14.897  1.00  0.00    -0.003 C 
ATOM     12  C   UNL     1      39.669  51.124  13.744  1.00  0.00     0.004 C 
ENDBRANCH  10  11
ENDBRANCH   9  10
ENDBRANCH   8   9
ENDBRANCH   7   8
ENDBRANCH   6   7
ENDBRANCH   5   6
ENDBRANCH   4   5
ENDBRANCH   3   4
ENDBRANCH   2   3
ENDBRANCH   1   2
BRANCH   1  13
ATOM     13  C   UNL     1      44.634  47.342   9.408  1.00  0.00     0.000 C 
BRANCH  13  14
ATOM     14  C   UNL     1      43.230  47.026   9.939  1.00  0.00     0.000 C 
BRANCH  14  15
ATOM     15  C   UNL     1      43.301  46.396  11.338  1.00  0.00     0.000 C 
BRANCH  15  16
ATOM     16  C   UNL     1      41.922  46.286  12.010  1.00  0.00     0.000 C 
BRANCH  16  17
ATOM     17  C   UNL     1      40.780  46.759  11.092  1.00  0.00     0.000 C 
BRANCH  17  18
ATOM     18  C   UNL     1      39.539  45.856  11.178  1.00  0.00     0.000 C 
BRANCH  18  19
ATOM     19  C   UNL     1      38.877  45.624   9.811  1.00  0.00     0.000 C 
BRANCH  19  20
ATOM     20  C   UNL     1      39.773  46.135   8.673  1.00  0.00     0.006 C 
BRANCH  20  21
ATOM     21  C   UNL     1      39.542  45.370   7.364  1.00  0.00     0.053 C 
BRANCH  21  22
ATOM     22  C   UNL     1      40.312  44.086   7.325  1.00  0.00     0.041 C 
ATOM     23  O   UNL     1      41.510  44.054   7.714  1.00  0.00    -0.550 OA
ATOM     24  O   UNL     1      39.698  42.918   6.892  1.00  0.00    -0.550 OA
ENDBRANCH  21  22
ENDBRANCH  20  21
ENDBRANCH  19  20
ENDBRANCH  18  19
ENDBRANCH  17  18
ENDBRANCH  16  17
ENDBRANCH  15  16
ENDBRANCH  14  15
ENDBRANCH  13  14
ENDBRANCH   1  13
TORSDOF 20
ENDMDL
MODEL 8
REMARK VINA RESULT:    -5.285      2.652      6.861
REMARK INTER + INTRA:         -13.915
REMARK INTER:                 -10.515
REMARK INTRA:                  -3.401
REMARK UNBOUND:                -2.450
REMARK SMILES CCCCCCCCCCCCCCCCCCCCCC(=O)[O-]
REMARK SMILES IDX 12 1 11 2 10 3 9 4 8 5 7 6 6 7 5 8 4 9 3 10 2 11 1 12 13 13
REMARK SMILES IDX 14 14 15 15 16 16 17 17 18 18 19 19 20 20 21 21 22 22 23 23
REMARK SMILES IDX 24 24
REMARK H PARENT
REMARK Flexibility Score: inf
ROOT
ATOM      1  C   UNL     1      41.416  47.629  11.253  1.00  0.00     0.000 C 
ENDROOT
BRANCH   1   2
ATOM      2  C   UNL     1      42.797  47.452  11.905  1.00  0.00     0.000 C 
BRANCH   2   3
ATOM      3  C   UNL     1      43.368  48.773  12.451  1.00  0.00     0.000 C 
BRANCH   3   4
ATOM      4  C   UNL     1      43.049  49.972  11.544  1.00  0.00    -0.000 C 
BRANCH   4   5
ATOM      5  C   UNL     1      44.290  50.514  10.817  1.00  0.00    -0.000 C 
BRANCH   5   6
ATOM      6  C   UNL     1      45.457  50.705  11.797  1.00  0.00    -0.000 C 
BRANCH   6   7
ATOM      7  C   UNL     1      46.829  50.642  11.105  1.00  0.00    -0.000 C 
BRANCH   7   8
ATOM      8  C   UNL     1      46.897  49.544  10.028  1.00  0.00    -0.000 C 
BRANCH   8   9
ATOM      9  C   UNL     1      47.235  48.166  10.627  1.00  0.00    -0.000 C 
BRANCH   9  10
ATOM     10  C   UNL     1      46.233  47.062  10.218  1.00  0.00    -0.000 C 
BRANCH  10  11
ATOM     11  C   UNL     1      45.255  47.499   9.113  1.00  0.00    -0.003 C 
ATOM     12  C   UNL     1      44.430  46.339   8.558  1.00  0.00     0.004 C 
ENDBRANCH  10  11
ENDBRANCH   9  10
ENDBRANCH   8   9
ENDBRANCH   7   8
ENDBRANCH   6   7
ENDBRANCH   5   6
ENDBRANCH   4   5
ENDBRANCH   3   4
ENDBRANCH   2   3
ENDBRANCH   1   2
BRANCH   1  13
ATOM     13  C   UNL     1      40.286  46.981  12.069  1.00  0.00     0.000 C 
BRANCH  13  14
ATOM     14  C   UNL     1      39.657  45.810  11.304  1.00  0.00     0.000 C 
BRANCH  14  15
ATOM     15  C   UNL     1      40.051  45.849   9.820  1.00  0.00     0.000 C 
BRANCH  15  16
ATOM     16  C   UNL     1      38.859  45.596   8.882  1.00  0.00     0.000 C 
BRANCH  16  17
ATOM     17  C   UNL     1      38.967  46.387   7.566  1.00  0.00     0.000 C 
BRANCH  17  18
ATOM     18  C   UNL     1      40.421  46.713   7.188  1.00  0.00     0.000 C 
BRANCH  18  19
ATOM     19  C   UNL     1      40.628  48.196   6.843  1.00  0.00     0.000 C 
BRANCH  19  20
ATOM     20  C   UNL     1      41.789  48.791   7.654  1.00  0.00     0.006 C 
BRANCH  20  21
ATOM     21  C   UNL     1      41.408  50.116   8.328  1.00  0.00     0.053 C 
BRANCH  21  22
ATOM     22  C   UNL     1      41.416  51.257   7.358  1.00  0.00     0.041 C 
ATOM     23  O   UNL     1      40.332  51.743   6.941  1.00  0.00    -0.550 OA
ATOM     24  O   UNL     1      42.622  51.806   6.939  1.00  0.00    -0.550 OA
ENDBRANCH  21  22
ENDBRANCH  20  21
ENDBRANCH  19  20
ENDBRANCH  18  19
ENDBRANCH  17  18
ENDBRANCH  16  17
ENDBRANCH  15  16
ENDBRANCH  14  15
ENDBRANCH  13  14
ENDBRANCH   1  13
TORSDOF 20
ENDMDL
MODEL 9
REMARK VINA RESULT:    -5.285      1.311      6.508
REMARK INTER + INTRA:         -13.914
REMARK INTER:                 -11.361
REMARK INTRA:                  -2.553
REMARK UNBOUND:                -2.450
REMARK SMILES CCCCCCCCCCCCCCCCCCCCCC(=O)[O-]
REMARK SMILES IDX 12 1 11 2 10 3 9 4 8 5 7 6 6 7 5 8 4 9 3 10 2 11 1 12 13 13
REMARK SMILES IDX 14 14 15 15 16 16 17 17 18 18 19 19 20 20 21 21 22 22 23 23
REMARK SMILES IDX 24 24
REMARK H PARENT
REMARK Flexibility Score: inf
ROOT
ATOM      1  C   UNL     1      39.392  45.823   6.807  1.00  0.00     0.000 C 
ENDROOT
BRANCH   1   2
ATOM      2  C   UNL     1      39.846  47.269   6.544  1.00  0.00     0.000 C 
BRANCH   2   3
ATOM      3  C   UNL     1      41.347  47.477   6.812  1.00  0.00     0.000 C 
BRANCH   3   4
ATOM      4  C   UNL     1      41.658  47.666   8.306  1.00  0.00    -0.000 C 
BRANCH   4   5
ATOM      5  C   UNL     1      42.713  46.677   8.823  1.00  0.00    -0.000 C 
BRANCH   5   6
ATOM      6  C   UNL     1      44.131  47.168   8.495  1.00  0.00    -0.000 C 
BRANCH   6   7
ATOM      7  C   UNL     1      44.863  47.733   9.724  1.00  0.00    -0.000 C 
BRANCH   7   8
ATOM      8  C   UNL     1      46.276  48.244   9.386  1.00  0.00    -0.000 C 
BRANCH   8   9
ATOM      9  C   UNL     1      47.005  48.789  10.628  1.00  0.00    -0.000 C 
BRANCH   9  10
ATOM     10  C   UNL     1      47.468  50.255  10.468  1.00  0.00    -0.000 C 
BRANCH  10  11
ATOM     11  C   UNL     1      46.688  51.245  11.351  1.00  0.00    -0.003 C 
ATOM     12  C   UNL     1      45.306  50.728  11.747  1.00  0.00     0.004 C 
ENDBRANCH  10  11
ENDBRANCH   9  10
ENDBRANCH   8   9
ENDBRANCH   7   8
ENDBRANCH   6   7
ENDBRANCH   5   6
ENDBRANCH   4   5
ENDBRANCH   3   4
ENDBRANCH   2   3
ENDBRANCH   1   2
BRANCH   1  13
ATOM     13  C   UNL     1      38.348  45.724   7.930  1.00  0.00     0.000 C 
BRANCH  13  14
ATOM     14  C   UNL     1      38.950  45.077   9.184  1.00  0.00     0.000 C 
BRANCH  14  15
ATOM     15  C   UNL     1      39.035  46.089  10.337  1.00  0.00     0.000 C 
BRANCH  15  16
ATOM     16  C   UNL     1      40.113  45.724  11.370  1.00  0.00     0.000 C 
BRANCH  16  17
ATOM     17  C   UNL     1      40.714  46.963  12.058  1.00  0.00     0.000 C 
BRANCH  17  18
ATOM     18  C   UNL     1      42.219  46.817  12.332  1.00  0.00     0.000 C 
BRANCH  18  19
ATOM     19  C   UNL     1      42.844  48.093  12.916  1.00  0.00     0.000 C 
BRANCH  19  20
ATOM     20  C   UNL     1      41.890  49.288  12.769  1.00  0.00     0.006 C 
BRANCH  20  21
ATOM     21  C   UNL     1      41.935  50.220  13.986  1.00  0.00     0.053 C 
BRANCH  21  22
ATOM     22  C   UNL     1      40.579  50.762  14.322  1.00  0.00     0.041 C 
ATOM     23  O   UNL     1      39.599  50.533  13.564  1.00  0.00    -0.550 OA
ATOM     24  O   UNL     1      40.389  51.491  15.489  1.00  0.00    -0.550 OA
ENDBRANCH  21  22
ENDBRANCH  20  21
ENDBRANCH  19  20
ENDBRANCH  18  19
ENDBRANCH  17  18
ENDBRANCH  16  17
ENDBRANCH  15  16
ENDBRANCH  14  15
ENDBRANCH  13  14
ENDBRANCH   1  13
TORSDOF 20
ENDMDL
