MODEL 1
REMARK VINA RESULT:    -4.799      0.000      0.000
REMARK INTER + INTRA:         -10.728
REMARK INTER:                  -9.287
REMARK INTRA:                  -1.441
REMARK UNBOUND:                -1.441
REMARK SMILES CCCCCCCCCCCCCCCCCC(=O)[O-]
REMARK SMILES IDX 10 1 11 2 12 3 13 4 14 5 15 6 16 7 17 8 18 9 19 10 20 11
REMARK SMILES IDX 9 12 8 13 7 14 6 15 5 16 4 17 3 18 2 19 1 20
REMARK H PARENT
REMARK Flexibility Score: inf
ROOT
ATOM      1  C   UNL     1       2.824  10.679  83.864  1.00  0.00     0.000 C 
ENDROOT
BRANCH   1   2
ATOM      2  C   UNL     1       2.994   9.885  82.557  1.00  0.00     0.000 C 
BRANCH   2   3
ATOM      3  C   UNL     1       4.149   8.870  82.620  1.00  0.00     0.000 C 
BRANCH   3   4
ATOM      4  C   UNL     1       5.446   9.408  81.995  1.00  0.00     0.000 C 
BRANCH   4   5
ATOM      5  C   UNL     1       6.345   8.287  81.446  1.00  0.00     0.000 C 
BRANCH   5   6
ATOM      6  C   UNL     1       7.472   8.818  80.545  1.00  0.00     0.000 C 
BRANCH   6   7
ATOM      7  C   UNL     1       7.659   7.980  79.268  1.00  0.00     0.006 C 
BRANCH   7   8
ATOM      8  C   UNL     1       8.931   7.123  79.321  1.00  0.00     0.053 C 
BRANCH   8   9
ATOM      9  C   UNL     1       8.626   5.690  79.637  1.00  0.00     0.041 C 
ATOM     10  O   UNL     1       9.549   4.833  79.645  1.00  0.00    -0.550 OA
ATOM     11  O   UNL     1       7.319   5.296  79.888  1.00  0.00    -0.550 OA
ENDBRANCH   8   9
ENDBRANCH   7   8
ENDBRANCH   6   7
ENDBRANCH   5   6
ENDBRANCH   4   5
ENDBRANCH   3   4
ENDBRANCH   2   3
ENDBRANCH   1   2
BRANCH   1  12
ATOM     12  C   UNL     1       1.351  10.958  84.229  1.00  0.00     0.000 C 
BRANCH  12  13
ATOM     13  C   UNL     1       1.213  11.665  85.589  1.00  0.00    -0.000 C 
BRANCH  13  14
ATOM     14  C   UNL     1       0.909  10.687  86.735  1.00  0.00    -0.000 C 
BRANCH  14  15
ATOM     15  C   UNL     1       2.130  10.434  87.637  1.00  0.00    -0.000 C 
BRANCH  15  16
ATOM     16  C   UNL     1       2.910   9.174  87.233  1.00  0.00    -0.000 C 
BRANCH  16  17
ATOM     17  C   UNL     1       1.989   7.990  86.894  1.00  0.00    -0.000 C 
BRANCH  17  18
ATOM     18  C   UNL     1       2.140   7.537  85.426  1.00  0.00    -0.000 C 
BRANCH  18  19
ATOM     19  C   UNL     1       3.037   6.299  85.253  1.00  0.00    -0.003 C 
ATOM     20  C   UNL     1       2.474   5.051  85.927  1.00  0.00     0.004 C 
ENDBRANCH  18  19
ENDBRANCH  17  18
ENDBRANCH  16  17
ENDBRANCH  15  16
ENDBRANCH  14  15
ENDBRANCH  13  14
ENDBRANCH  12  13
ENDBRANCH   1  12
TORSDOF 16
ENDMDL
MODEL 2
REMARK VINA RESULT:    -4.665      1.267      2.300
REMARK INTER + INTRA:         -10.470
REMARK INTER:                  -9.088
REMARK INTRA:                  -1.381
REMARK UNBOUND:                -1.441
REMARK SMILES CCCCCCCCCCCCCCCCCC(=O)[O-]
REMARK SMILES IDX 10 1 11 2 12 3 13 4 14 5 15 6 16 7 17 8 18 9 19 10 20 11
REMARK SMILES IDX 9 12 8 13 7 14 6 15 5 16 4 17 3 18 2 19 1 20
REMARK H PARENT
REMARK Flexibility Score: inf
ROOT
ATOM      1  C   UNL     1       2.295  11.415  85.041  1.00  0.00     0.000 C 
ENDROOT
BRANCH   1   2
ATOM      2  C   UNL     1       1.611  10.831  83.793  1.00  0.00     0.000 C 
BRANCH   2   3
ATOM      3  C   UNL     1       2.539   9.920  82.973  1.00  0.00     0.000 C 
BRANCH   3   4
ATOM      4  C   UNL     1       4.027  10.172  83.265  1.00  0.00     0.000 C 
BRANCH   4   5
ATOM      5  C   UNL     1       4.915   9.970  82.025  1.00  0.00     0.000 C 
BRANCH   5   6
ATOM      6  C   UNL     1       5.422   8.525  81.888  1.00  0.00     0.000 C 
BRANCH   6   7
ATOM      7  C   UNL     1       6.798   8.440  81.203  1.00  0.00     0.006 C 
BRANCH   7   8
ATOM      8  C   UNL     1       6.888   7.252  80.235  1.00  0.00     0.053 C 
BRANCH   8   9
ATOM      9  C   UNL     1       8.281   7.059  79.718  1.00  0.00     0.041 C 
ATOM     10  O   UNL     1       9.065   8.041  79.630  1.00  0.00    -0.550 OA
ATOM     11  O   UNL     1       8.700   5.803  79.299  1.00  0.00    -0.550 OA
ENDBRANCH   8   9
ENDBRANCH   7   8
ENDBRANCH   6   7
ENDBRANCH   5   6
ENDBRANCH   4   5
ENDBRANCH   3   4
ENDBRANCH   2   3
ENDBRANCH   1   2
BRANCH   1  12
ATOM     12  C   UNL     1       1.463  11.255  86.332  1.00  0.00     0.000 C 
BRANCH  12  13
ATOM     13  C   UNL     1       2.228  10.486  87.424  1.00  0.00    -0.000 C 
BRANCH  13  14
ATOM     14  C   UNL     1       2.907   9.216  86.887  1.00  0.00    -0.000 C 
BRANCH  14  15
ATOM     15  C   UNL     1       2.007   7.974  86.993  1.00  0.00    -0.000 C 
BRANCH  15  16
ATOM     16  C   UNL     1       1.371   7.589  85.649  1.00  0.00    -0.000 C 
BRANCH  16  17
ATOM     17  C   UNL     1       1.191   6.069  85.492  1.00  0.00    -0.000 C 
BRANCH  17  18
ATOM     18  C   UNL     1       2.478   5.292  85.840  1.00  0.00    -0.000 C 
BRANCH  18  19
ATOM     19  C   UNL     1       2.256   4.152  86.848  1.00  0.00    -0.003 C 
ATOM     20  C   UNL     1       3.325   3.065  86.770  1.00  0.00     0.004 C 
ENDBRANCH  18  19
ENDBRANCH  17  18
ENDBRANCH  16  17
ENDBRANCH  15  16
ENDBRANCH  14  15
ENDBRANCH  13  14
ENDBRANCH  12  13
ENDBRANCH   1  12
TORSDOF 16
ENDMDL
MODEL 3
REMARK VINA RESULT:    -4.514      2.130      3.294
REMARK INTER + INTRA:         -10.177
REMARK INTER:                  -8.451
REMARK INTRA:                  -1.726
REMARK UNBOUND:                -1.441
REMARK SMILES CCCCCCCCCCCCCCCCCC(=O)[O-]
REMARK SMILES IDX 10 1 11 2 12 3 13 4 14 5 15 6 16 7 17 8 18 9 19 10 20 11
REMARK SMILES IDX 9 12 8 13 7 14 6 15 5 16 4 17 3 18 2 19 1 20
REMARK H PARENT
REMARK Flexibility Score: inf
ROOT
ATOM      1  C   UNL     1       2.472  12.547  80.808  1.00  0.00     0.000 C 
ENDROOT
BRANCH   1   2
ATOM      2  C   UNL     1       3.407  12.110  81.950  1.00  0.00     0.000 C 
BRANCH   2   3
ATOM      3  C   UNL     1       4.596  11.267  81.460  1.00  0.00     0.000 C 
BRANCH   3   4
ATOM      4  C   UNL     1       5.122  10.303  82.535  1.00  0.00     0.000 C 
BRANCH   4   5
ATOM      5  C   UNL     1       5.309   8.871  82.002  1.00  0.00     0.000 C 
BRANCH   5   6
ATOM      6  C   UNL     1       6.749   8.594  81.540  1.00  0.00     0.000 C 
BRANCH   6   7
ATOM      7  C   UNL     1       6.826   7.516  80.445  1.00  0.00     0.006 C 
BRANCH   7   8
ATOM      8  C   UNL     1       7.595   8.003  79.208  1.00  0.00     0.053 C 
BRANCH   8   9
ATOM      9  C   UNL     1       9.071   7.794  79.352  1.00  0.00     0.041 C 
ATOM     10  O   UNL     1       9.817   8.753  79.685  1.00  0.00    -0.550 OA
ATOM     11  O   UNL     1       9.629   6.551  79.082  1.00  0.00    -0.550 OA
ENDBRANCH   8   9
ENDBRANCH   7   8
ENDBRANCH   6   7
ENDBRANCH   5   6
ENDBRANCH   4   5
ENDBRANCH   3   4
ENDBRANCH   2   3
ENDBRANCH   1   2
BRANCH   1  12
ATOM     12  C   UNL     1       1.166  11.728  80.734  1.00  0.00     0.000 C 
BRANCH  12  13
ATOM     13  C   UNL     1       0.062  12.313  81.634  1.00  0.00    -0.000 C 
BRANCH  13  14
ATOM     14  C   UNL     1      -0.876  11.232  82.195  1.00  0.00    -0.000 C 
BRANCH  14  15
ATOM     15  C   UNL     1      -0.224   9.840  82.225  1.00  0.00    -0.000 C 
BRANCH  15  16
ATOM     16  C   UNL     1       0.176   9.407  83.644  1.00  0.00    -0.000 C 
BRANCH  16  17
ATOM     17  C   UNL     1       1.697   9.452  83.871  1.00  0.00    -0.000 C 
BRANCH  17  18
ATOM     18  C   UNL     1       2.091  10.449  84.982  1.00  0.00    -0.000 C 
BRANCH  18  19
ATOM     19  C   UNL     1       2.906   9.812  86.120  1.00  0.00    -0.003 C 
ATOM     20  C   UNL     1       2.526   8.358  86.390  1.00  0.00     0.004 C 
ENDBRANCH  18  19
ENDBRANCH  17  18
ENDBRANCH  16  17
ENDBRANCH  15  16
ENDBRANCH  14  15
ENDBRANCH  13  14
ENDBRANCH  12  13
ENDBRANCH   1  12
TORSDOF 16
ENDMDL
MODEL 4
REMARK VINA RESULT:    -4.493      3.023      7.083
REMARK INTER + INTRA:         -10.137
REMARK INTER:                  -8.465
REMARK INTRA:                  -1.671
REMARK UNBOUND:                -1.441
REMARK SMILES CCCCCCCCCCCCCCCCCC(=O)[O-]
REMARK SMILES IDX 10 1 11 2 12 3 13 4 14 5 15 6 16 7 17 8 18 9 19 10 20 11
REMARK SMILES IDX 9 12 8 13 7 14 6 15 5 16 4 17 3 18 2 19 1 20
REMARK H PARENT
REMARK Flexibility Score: inf
ROOT
ATOM      1  C   UNL     1       2.155  11.783  82.152  1.00  0.00     0.000 C 
ENDROOT
BRANCH   1   2
ATOM      2  C   UNL     1       0.946  11.018  81.586  1.00  0.00     0.000 C 
BRANCH   2   3
ATOM      3  C   UNL     1       0.602   9.758  82.397  1.00  0.00     0.000 C 
BRANCH   3   4
ATOM      4  C   UNL     1       0.050  10.085  83.794  1.00  0.00     0.000 C 
BRANCH   4   5
ATOM      5  C   UNL     1       0.476   9.054  84.853  1.00  0.00     0.000 C 
BRANCH   5   6
ATOM      6  C   UNL     1       1.860   9.357  85.452  1.00  0.00     0.000 C 
BRANCH   6   7
ATOM      7  C   UNL     1       2.481   8.141  86.161  1.00  0.00     0.006 C 
BRANCH   7   8
ATOM      8  C   UNL     1       2.727   6.973  85.197  1.00  0.00     0.053 C 
BRANCH   8   9
ATOM      9  C   UNL     1       2.136   5.694  85.707  1.00  0.00     0.041 C 
ATOM     10  O   UNL     1       2.767   4.611  85.580  1.00  0.00    -0.550 OA
ATOM     11  O   UNL     1       0.876   5.692  86.288  1.00  0.00    -0.550 OA
ENDBRANCH   8   9
ENDBRANCH   7   8
ENDBRANCH   6   7
ENDBRANCH   5   6
ENDBRANCH   4   5
ENDBRANCH   3   4
ENDBRANCH   2   3
ENDBRANCH   1   2
BRANCH   1  12
ATOM     12  C   UNL     1       3.466  11.525  81.380  1.00  0.00     0.000 C 
BRANCH  12  13
ATOM     13  C   UNL     1       4.572  10.956  82.287  1.00  0.00    -0.000 C 
BRANCH  13  14
ATOM     14  C   UNL     1       4.221   9.569  82.848  1.00  0.00    -0.000 C 
BRANCH  14  15
ATOM     15  C   UNL     1       4.929   8.430  82.095  1.00  0.00    -0.000 C 
BRANCH  15  16
ATOM     16  C   UNL     1       6.394   8.760  81.768  1.00  0.00    -0.000 C 
BRANCH  16  17
ATOM     17  C   UNL     1       6.755   8.463  80.302  1.00  0.00    -0.000 C 
BRANCH  17  18
ATOM     18  C   UNL     1       7.903   7.439  80.181  1.00  0.00    -0.000 C 
BRANCH  18  19
ATOM     19  C   UNL     1       9.117   7.964  79.396  1.00  0.00    -0.003 C 
ATOM     20  C   UNL     1       9.849   9.097  80.110  1.00  0.00     0.004 C 
ENDBRANCH  18  19
ENDBRANCH  17  18
ENDBRANCH  16  17
ENDBRANCH  15  16
ENDBRANCH  14  15
ENDBRANCH  13  14
ENDBRANCH  12  13
ENDBRANCH   1  12
TORSDOF 16
ENDMDL
MODEL 5
REMARK VINA RESULT:    -4.347      2.125      3.590
REMARK INTER + INTRA:          -9.854
REMARK INTER:                  -8.580
REMARK INTRA:                  -1.274
REMARK UNBOUND:                -1.441
REMARK SMILES CCCCCCCCCCCCCCCCCC(=O)[O-]
REMARK SMILES IDX 10 1 11 2 12 3 13 4 14 5 15 6 16 7 17 8 18 9 19 10 20 11
REMARK SMILES IDX 9 12 8 13 7 14 6 15 5 16 4 17 3 18 2 19 1 20
REMARK H PARENT
REMARK Flexibility Score: inf
ROOT
ATOM      1  C   UNL     1       2.929   9.370  86.454  1.00  0.00     0.000 C 
ENDROOT
BRANCH   1   2
ATOM      2  C   UNL     1       2.986  10.218  85.172  1.00  0.00     0.000 C 
BRANCH   2   3
ATOM      3  C   UNL     1       3.044   9.366  83.893  1.00  0.00     0.000 C 
BRANCH   3   4
ATOM      4  C   UNL     1       3.341  10.201  82.637  1.00  0.00     0.000 C 
BRANCH   4   5
ATOM      5  C   UNL     1       4.817  10.625  82.547  1.00  0.00     0.000 C 
BRANCH   5   6
ATOM      6  C   UNL     1       5.562   9.938  81.391  1.00  0.00     0.000 C 
BRANCH   6   7
ATOM      7  C   UNL     1       6.391   8.727  81.854  1.00  0.00     0.006 C 
BRANCH   7   8
ATOM      8  C   UNL     1       6.717   7.773  80.696  1.00  0.00     0.053 C 
BRANCH   8   9
ATOM      9  C   UNL     1       8.041   8.088  80.071  1.00  0.00     0.041 C 
ATOM     10  O   UNL     1       8.829   8.897  80.629  1.00  0.00    -0.550 OA
ATOM     11  O   UNL     1       8.391   7.516  78.855  1.00  0.00    -0.550 OA
ENDBRANCH   8   9
ENDBRANCH   7   8
ENDBRANCH   6   7
ENDBRANCH   5   6
ENDBRANCH   4   5
ENDBRANCH   3   4
ENDBRANCH   2   3
ENDBRANCH   1   2
BRANCH   1  12
ATOM     12  C   UNL     1       2.593   7.886  86.198  1.00  0.00     0.000 C 
BRANCH  12  13
ATOM     13  C   UNL     1       1.336   7.434  86.963  1.00  0.00    -0.000 C 
BRANCH  13  14
ATOM     14  C   UNL     1       0.197   7.002  86.025  1.00  0.00    -0.000 C 
BRANCH  14  15
ATOM     15  C   UNL     1      -0.584   5.791  86.562  1.00  0.00    -0.000 C 
BRANCH  15  16
ATOM     16  C   UNL     1      -0.079   5.325  87.937  1.00  0.00    -0.000 C 
BRANCH  16  17
ATOM     17  C   UNL     1       0.177   3.809  87.990  1.00  0.00    -0.000 C 
BRANCH  17  18
ATOM     18  C   UNL     1       1.563   3.474  88.580  1.00  0.00    -0.000 C 
BRANCH  18  19
ATOM     19  C   UNL     1       2.535   2.860  87.559  1.00  0.00    -0.003 C 
ATOM     20  C   UNL     1       2.919   3.826  86.440  1.00  0.00     0.004 C 
ENDBRANCH  18  19
ENDBRANCH  17  18
ENDBRANCH  16  17
ENDBRANCH  15  16
ENDBRANCH  14  15
ENDBRANCH  13  14
ENDBRANCH  12  13
ENDBRANCH   1  12
TORSDOF 16
ENDMDL
MODEL 6
REMARK VINA RESULT:    -4.336      3.405      7.349
REMARK INTER + INTRA:          -9.833
REMARK INTER:                  -8.089
REMARK INTRA:                  -1.744
REMARK UNBOUND:                -1.441
REMARK SMILES CCCCCCCCCCCCCCCCCC(=O)[O-]
REMARK SMILES IDX 10 1 11 2 12 3 13 4 14 5 15 6 16 7 17 8 18 9 19 10 20 11
REMARK SMILES IDX 9 12 8 13 7 14 6 15 5 16 4 17 3 18 2 19 1 20
REMARK H PARENT
REMARK Flexibility Score: inf
ROOT
ATOM      1  C   UNL     1       4.666  12.153  80.715  1.00  0.00     0.000 C 
ENDROOT
BRANCH   1   2
ATOM      2  C   UNL     1       3.356  12.790  80.222  1.00  0.00     0.000 C 
BRANCH   2   3
ATOM      3  C   UNL     1       2.212  12.673  81.243  1.00  0.00     0.000 C 
BRANCH   3   4
ATOM      4  C   UNL     1       1.126  11.677  80.806  1.00  0.00     0.000 C 
BRANCH   4   5
ATOM      5  C   UNL     1       0.875  10.581  81.855  1.00  0.00     0.000 C 
BRANCH   5   6
ATOM      6  C   UNL     1       1.415  10.955  83.245  1.00  0.00     0.000 C 
BRANCH   6   7
ATOM      7  C   UNL     1       1.851   9.727  84.065  1.00  0.00     0.006 C 
BRANCH   7   8
ATOM      8  C   UNL     1       1.627   9.928  85.570  1.00  0.00     0.053 C 
BRANCH   8   9
ATOM      9  C   UNL     1       2.467   8.995  86.388  1.00  0.00     0.041 C 
ATOM     10  O   UNL     1       2.649   7.809  86.006  1.00  0.00    -0.550 OA
ATOM     11  O   UNL     1       3.017   9.424  87.588  1.00  0.00    -0.550 OA
ENDBRANCH   8   9
ENDBRANCH   7   8
ENDBRANCH   6   7
ENDBRANCH   5   6
ENDBRANCH   4   5
ENDBRANCH   3   4
ENDBRANCH   2   3
ENDBRANCH   1   2
BRANCH   1  12
ATOM     12  C   UNL     1       4.921  12.355  82.224  1.00  0.00     0.000 C 
BRANCH  12  13
ATOM     13  C   UNL     1       5.079  11.018  82.970  1.00  0.00    -0.000 C 
BRANCH  13  14
ATOM     14  C   UNL     1       4.967   9.803  82.036  1.00  0.00    -0.000 C 
BRANCH  14  15
ATOM     15  C   UNL     1       6.110   8.794  82.237  1.00  0.00    -0.000 C 
BRANCH  15  16
ATOM     16  C   UNL     1       6.501   8.079  80.934  1.00  0.00    -0.000 C 
BRANCH  16  17
ATOM     17  C   UNL     1       7.872   8.528  80.400  1.00  0.00    -0.000 C 
BRANCH  17  18
ATOM     18  C   UNL     1       8.476   7.507  79.413  1.00  0.00    -0.000 C 
BRANCH  18  19
ATOM     19  C   UNL     1       8.042   6.057  79.686  1.00  0.00    -0.003 C 
ATOM     20  C   UNL     1       9.211   5.074  79.706  1.00  0.00     0.004 C 
ENDBRANCH  18  19
ENDBRANCH  17  18
ENDBRANCH  16  17
ENDBRANCH  15  16
ENDBRANCH  14  15
ENDBRANCH  13  14
ENDBRANCH  12  13
ENDBRANCH   1  12
TORSDOF 16
ENDMDL
MODEL 7
REMARK VINA RESULT:    -4.329      2.771      4.900
REMARK INTER + INTRA:          -9.820
REMARK INTER:                  -7.883
REMARK INTRA:                  -1.936
REMARK UNBOUND:                -1.441
REMARK SMILES CCCCCCCCCCCCCCCCCC(=O)[O-]
REMARK SMILES IDX 10 1 11 2 12 3 13 4 14 5 15 6 16 7 17 8 18 9 19 10 20 11
REMARK SMILES IDX 9 12 8 13 7 14 6 15 5 16 4 17 3 18 2 19 1 20
REMARK H PARENT
REMARK Flexibility Score: inf
ROOT
ATOM      1  C   UNL     1       6.205  12.843  78.383  1.00  0.00     0.000 C 
ENDROOT
BRANCH   1   2
ATOM      2  C   UNL     1       7.305  11.909  78.918  1.00  0.00     0.000 C 
BRANCH   2   3
ATOM      3  C   UNL     1       6.741  10.652  79.601  1.00  0.00     0.000 C 
BRANCH   3   4
ATOM      4  C   UNL     1       7.829   9.615  79.924  1.00  0.00     0.000 C 
BRANCH   4   5
ATOM      5  C   UNL     1       7.491   8.773  81.167  1.00  0.00     0.000 C 
BRANCH   5   6
ATOM      6  C   UNL     1       6.538   7.608  80.852  1.00  0.00     0.000 C 
BRANCH   6   7
ATOM      7  C   UNL     1       6.878   6.902  79.527  1.00  0.00     0.006 C 
BRANCH   7   8
ATOM      8  C   UNL     1       7.522   5.528  79.753  1.00  0.00     0.053 C 
BRANCH   8   9
ATOM      9  C   UNL     1       9.009   5.572  79.571  1.00  0.00     0.041 C 
ATOM     10  O   UNL     1       9.544   6.537  78.964  1.00  0.00    -0.550 OA
ATOM     11  O   UNL     1       9.799   4.530  80.038  1.00  0.00    -0.550 OA
ENDBRANCH   8   9
ENDBRANCH   7   8
ENDBRANCH   6   7
ENDBRANCH   5   6
ENDBRANCH   4   5
ENDBRANCH   3   4
ENDBRANCH   2   3
ENDBRANCH   1   2
BRANCH   1  12
ATOM     12  C   UNL     1       5.992  14.104  79.246  1.00  0.00     0.000 C 
BRANCH  12  13
ATOM     13  C   UNL     1       4.514  14.307  79.624  1.00  0.00    -0.000 C 
BRANCH  13  14
ATOM     14  C   UNL     1       3.822  12.996  80.029  1.00  0.00    -0.000 C 
BRANCH  14  15
ATOM     15  C   UNL     1       3.593  12.891  81.546  1.00  0.00    -0.000 C 
BRANCH  15  16
ATOM     16  C   UNL     1       4.860  12.468  82.306  1.00  0.00    -0.000 C 
BRANCH  16  17
ATOM     17  C   UNL     1       4.607  11.300  83.275  1.00  0.00    -0.000 C 
BRANCH  17  18
ATOM     18  C   UNL     1       4.476   9.950  82.537  1.00  0.00    -0.000 C 
BRANCH  18  19
ATOM     19  C   UNL     1       3.278   9.107  83.004  1.00  0.00    -0.003 C 
ATOM     20  C   UNL     1       1.977   9.904  83.081  1.00  0.00     0.004 C 
ENDBRANCH  18  19
ENDBRANCH  17  18
ENDBRANCH  16  17
ENDBRANCH  15  16
ENDBRANCH  14  15
ENDBRANCH  13  14
ENDBRANCH  12  13
ENDBRANCH   1  12
TORSDOF 16
ENDMDL
MODEL 8
REMARK VINA RESULT:    -4.319      1.438      2.265
REMARK INTER + INTRA:          -9.800
REMARK INTER:                  -8.352
REMARK INTRA:                  -1.448
REMARK UNBOUND:                -1.441
REMARK SMILES CCCCCCCCCCCCCCCCCC(=O)[O-]
REMARK SMILES IDX 10 1 11 2 12 3 13 4 14 5 15 6 16 7 17 8 18 9 19 10 20 11
REMARK SMILES IDX 9 12 8 13 7 14 6 15 5 16 4 17 3 18 2 19 1 20
REMARK H PARENT
REMARK Flexibility Score: inf
ROOT
ATOM      1  C   UNL     1       2.685  10.948  83.406  1.00  0.00     0.000 C 
ENDROOT
BRANCH   1   2
ATOM      2  C   UNL     1       3.213  11.667  82.153  1.00  0.00     0.000 C 
BRANCH   2   3
ATOM      3  C   UNL     1       4.585  11.144  81.697  1.00  0.00     0.000 C 
BRANCH   3   4
ATOM      4  C   UNL     1       5.107   9.998  82.580  1.00  0.00     0.000 C 
BRANCH   4   5
ATOM      5  C   UNL     1       5.537   8.771  81.758  1.00  0.00     0.000 C 
BRANCH   5   6
ATOM      6  C   UNL     1       7.044   8.763  81.450  1.00  0.00     0.000 C 
BRANCH   6   7
ATOM      7  C   UNL     1       7.362   8.209  80.050  1.00  0.00     0.006 C 
BRANCH   7   8
ATOM      8  C   UNL     1       7.268   6.678  79.999  1.00  0.00     0.053 C 
BRANCH   8   9
ATOM      9  C   UNL     1       8.546   6.056  79.525  1.00  0.00     0.041 C 
ATOM     10  O   UNL     1       8.826   4.868  79.838  1.00  0.00    -0.550 OA
ATOM     11  O   UNL     1       9.444   6.798  78.771  1.00  0.00    -0.550 OA
ENDBRANCH   8   9
ENDBRANCH   7   8
ENDBRANCH   6   7
ENDBRANCH   5   6
ENDBRANCH   4   5
ENDBRANCH   3   4
ENDBRANCH   2   3
ENDBRANCH   1   2
BRANCH   1  12
ATOM     12  C   UNL     1       1.697   9.804  83.092  1.00  0.00     0.000 C 
BRANCH  12  13
ATOM     13  C   UNL     1       0.253  10.157  83.491  1.00  0.00    -0.000 C 
BRANCH  13  14
ATOM     14  C   UNL     1       0.124  10.524  84.977  1.00  0.00    -0.000 C 
BRANCH  14  15
ATOM     15  C   UNL     1      -0.870   9.620  85.726  1.00  0.00    -0.000 C 
BRANCH  15  16
ATOM     16  C   UNL     1      -0.450   8.142  85.711  1.00  0.00    -0.000 C 
BRANCH  16  17
ATOM     17  C   UNL     1       0.373   7.748  86.950  1.00  0.00    -0.000 C 
BRANCH  17  18
ATOM     18  C   UNL     1       1.839   7.422  86.595  1.00  0.00    -0.000 C 
BRANCH  18  19
ATOM     19  C   UNL     1       2.755   8.658  86.566  1.00  0.00    -0.003 C 
ATOM     20  C   UNL     1       2.676   9.493  87.842  1.00  0.00     0.004 C 
ENDBRANCH  18  19
ENDBRANCH  17  18
ENDBRANCH  16  17
ENDBRANCH  15  16
ENDBRANCH  14  15
ENDBRANCH  13  14
ENDBRANCH  12  13
ENDBRANCH   1  12
TORSDOF 16
ENDMDL
MODEL 9
REMARK VINA RESULT:    -4.281      3.405      6.934
REMARK INTER + INTRA:          -9.727
REMARK INTER:                  -7.421
REMARK INTRA:                  -2.306
REMARK UNBOUND:                -1.441
REMARK SMILES CCCCCCCCCCCCCCCCCC(=O)[O-]
REMARK SMILES IDX 10 1 11 2 12 3 13 4 14 5 15 6 16 7 17 8 18 9 19 10 20 11
REMARK SMILES IDX 9 12 8 13 7 14 6 15 5 16 4 17 3 18 2 19 1 20
REMARK H PARENT
REMARK Flexibility Score: inf
ROOT
ATOM      1  C   UNL     1       2.159   9.413  83.879  1.00  0.00     0.000 C 
ENDROOT
BRANCH   1   2
ATOM      2  C   UNL     1       2.732  10.552  84.739  1.00  0.00     0.000 C 
BRANCH   2   3
ATOM      3  C   UNL     1       2.208  10.533  86.184  1.00  0.00     0.000 C 
BRANCH   3   4
ATOM      4  C   UNL     1       2.936   9.506  87.066  1.00  0.00     0.000 C 
BRANCH   4   5
ATOM      5  C   UNL     1       1.977   8.742  87.995  1.00  0.00     0.000 C 
BRANCH   5   6
ATOM      6  C   UNL     1       0.742   8.199  87.256  1.00  0.00     0.000 C 
BRANCH   6   7
ATOM      7  C   UNL     1       0.683   6.661  87.247  1.00  0.00     0.006 C 
BRANCH   7   8
ATOM      8  C   UNL     1       0.929   6.082  85.847  1.00  0.00     0.053 C 
BRANCH   8   9
ATOM      9  C   UNL     1       2.334   5.587  85.688  1.00  0.00     0.041 C 
ATOM     10  O   UNL     1       2.638   4.418  86.049  1.00  0.00    -0.550 OA
ATOM     11  O   UNL     1       3.314   6.426  85.176  1.00  0.00    -0.550 OA
ENDBRANCH   8   9
ENDBRANCH   7   8
ENDBRANCH   6   7
ENDBRANCH   5   6
ENDBRANCH   4   5
ENDBRANCH   3   4
ENDBRANCH   2   3
ENDBRANCH   1   2
BRANCH   1  12
ATOM     12  C   UNL     1       0.617   9.418  83.797  1.00  0.00     0.000 C 
BRANCH  12  13
ATOM     13  C   UNL     1       0.110   9.918  82.432  1.00  0.00    -0.000 C 
BRANCH  13  14
ATOM     14  C   UNL     1      -0.445  11.349  82.496  1.00  0.00    -0.000 C 
BRANCH  14  15
ATOM     15  C   UNL     1       0.218  12.288  81.474  1.00  0.00    -0.000 C 
BRANCH  15  16
ATOM     16  C   UNL     1       1.508  11.699  80.883  1.00  0.00    -0.000 C 
BRANCH  16  17
ATOM     17  C   UNL     1       2.735  12.594  81.129  1.00  0.00    -0.000 C 
BRANCH  17  18
ATOM     18  C   UNL     1       4.058  11.875  80.787  1.00  0.00    -0.000 C 
BRANCH  18  19
ATOM     19  C   UNL     1       4.846  11.414  82.024  1.00  0.00    -0.003 C 
ATOM     20  C   UNL     1       5.281   9.952  81.949  1.00  0.00     0.004 C 
ENDBRANCH  18  19
ENDBRANCH  17  18
ENDBRANCH  16  17
ENDBRANCH  15  16
ENDBRANCH  14  15
ENDBRANCH  13  14
ENDBRANCH  12  13
ENDBRANCH   1  12
TORSDOF 16
ENDMDL
