MODEL 1
REMARK VINA RESULT:    14.342      0.000      0.000
REMARK INTER + INTRA:          34.294
REMARK INTER:                  36.140
REMARK INTRA:                  -1.846
REMARK UNBOUND:                -1.846
REMARK SMILES CCCCCCCCCCCCCCCCCCCCCCCCCCCC(=O)[O-]
REMARK SMILES IDX 15 1 16 2 17 3 18 4 19 5 20 6 21 7 22 8 23 9 24 10 25 11
REMARK SMILES IDX 26 12 27 13 28 14 29 15 30 16 14 17 13 18 12 19 11 20 10 21
REMARK SMILES IDX 9 22 8 23 7 24 6 25 5 26 4 27 3 28 2 29 1 30
REMARK H PARENT
REMARK Flexibility Score: inf
ROOT
ATOM      1  C   UNL     1      34.283  12.721  39.991  1.00  0.00     0.000 C 
ENDROOT
BRANCH   1   2
ATOM      2  C   UNL     1      32.849  12.318  40.373  1.00  0.00     0.000 C 
BRANCH   2   3
ATOM      3  C   UNL     1      32.803  11.054  41.250  1.00  0.00     0.000 C 
BRANCH   3   4
ATOM      4  C   UNL     1      32.479   9.786  40.432  1.00  0.00     0.000 C 
BRANCH   4   5
ATOM      5  C   UNL     1      33.493   9.491  39.307  1.00  0.00     0.000 C 
BRANCH   5   6
ATOM      6  C   UNL     1      34.797   8.816  39.763  1.00  0.00     0.000 C 
BRANCH   6   7
ATOM      7  C   UNL     1      34.724   8.285  41.204  1.00  0.00     0.000 C 
BRANCH   7   8
ATOM      8  C   UNL     1      35.657   7.087  41.448  1.00  0.00     0.000 C 
BRANCH   8   9
ATOM      9  C   UNL     1      34.935   5.722  41.421  1.00  0.00     0.000 C 
BRANCH   9  10
ATOM     10  C   UNL     1      33.511   5.833  40.856  1.00  0.00     0.000 C 
BRANCH  10  11
ATOM     11  C   UNL     1      32.661   4.620  41.255  1.00  0.00     0.000 C 
BRANCH  11  12
ATOM     12  C   UNL     1      31.171   4.897  41.029  1.00  0.00     0.006 C 
BRANCH  12  13
ATOM     13  C   UNL     1      30.532   5.524  42.270  1.00  0.00     0.053 C 
BRANCH  13  14
ATOM     14  C   UNL     1      29.184   6.082  41.938  1.00  0.00     0.041 C 
ATOM     15  O   UNL     1      28.164   5.348  41.986  1.00  0.00    -0.550 OA
ATOM     16  O   UNL     1      29.065   7.400  41.509  1.00  0.00    -0.550 OA
ENDBRANCH  13  14
ENDBRANCH  12  13
ENDBRANCH  11  12
ENDBRANCH  10  11
ENDBRANCH   9  10
ENDBRANCH   8   9
ENDBRANCH   7   8
ENDBRANCH   6   7
ENDBRANCH   5   6
ENDBRANCH   4   5
ENDBRANCH   3   4
ENDBRANCH   2   3
ENDBRANCH   1   2
BRANCH   1  17
ATOM     17  C   UNL     1      35.284  12.469  41.131  1.00  0.00     0.000 C 
BRANCH  17  18
ATOM     18  C   UNL     1      35.187  13.514  42.254  1.00  0.00     0.000 C 
BRANCH  18  19
ATOM     19  C   UNL     1      36.507  13.692  43.018  1.00  0.00     0.000 C 
BRANCH  19  20
ATOM     20  C   UNL     1      36.462  14.939  43.911  1.00  0.00     0.000 C 
BRANCH  20  21
ATOM     21  C   UNL     1      35.074  15.593  43.873  1.00  0.00     0.000 C 
BRANCH  21  22
ATOM     22  C   UNL     1      35.125  17.109  44.138  1.00  0.00    -0.000 C 
BRANCH  22  23
ATOM     23  C   UNL     1      35.032  17.993  42.875  1.00  0.00    -0.000 C 
BRANCH  23  24
ATOM     24  C   UNL     1      34.131  17.442  41.752  1.00  0.00    -0.000 C 
BRANCH  24  25
ATOM     25  C   UNL     1      34.561  17.831  40.325  1.00  0.00    -0.000 C 
BRANCH  25  26
ATOM     26  C   UNL     1      33.572  17.343  39.253  1.00  0.00    -0.000 C 
BRANCH  26  27
ATOM     27  C   UNL     1      32.578  18.436  38.828  1.00  0.00    -0.000 C 
BRANCH  27  28
ATOM     28  C   UNL     1      31.742  18.025  37.604  1.00  0.00    -0.000 C 
BRANCH  28  29
ATOM     29  C   UNL     1      30.586  18.998  37.325  1.00  0.00    -0.003 C 
ATOM     30  C   UNL     1      30.865  20.414  37.830  1.00  0.00     0.004 C 
ENDBRANCH  28  29
ENDBRANCH  27  28
ENDBRANCH  26  27
ENDBRANCH  25  26
ENDBRANCH  24  25
ENDBRANCH  23  24
ENDBRANCH  22  23
ENDBRANCH  21  22
ENDBRANCH  20  21
ENDBRANCH  19  20
ENDBRANCH  18  19
ENDBRANCH  17  18
ENDBRANCH   1  17
TORSDOF 26
ENDMDL
MODEL 2
REMARK VINA RESULT:    15.035      3.298     10.465
REMARK INTER + INTRA:          36.041
REMARK INTER:                  38.438
REMARK INTRA:                  -2.398
REMARK UNBOUND:                -1.846
REMARK SMILES CCCCCCCCCCCCCCCCCCCCCCCCCCCC(=O)[O-]
REMARK SMILES IDX 15 1 16 2 17 3 18 4 19 5 20 6 21 7 22 8 23 9 24 10 25 11
REMARK SMILES IDX 26 12 27 13 28 14 29 15 30 16 14 17 13 18 12 19 11 20 10 21
REMARK SMILES IDX 9 22 8 23 7 24 6 25 5 26 4 27 3 28 2 29 1 30
REMARK H PARENT
REMARK Flexibility Score: inf
ROOT
ATOM      1  C   UNL     1      33.342  12.350  39.826  1.00  0.00     0.000 C 
ENDROOT
BRANCH   1   2
ATOM      2  C   UNL     1      34.546  13.179  40.303  1.00  0.00     0.000 C 
BRANCH   2   3
ATOM      3  C   UNL     1      35.312  12.503  41.454  1.00  0.00     0.000 C 
BRANCH   3   4
ATOM      4  C   UNL     1      35.252  13.325  42.759  1.00  0.00     0.000 C 
BRANCH   4   5
ATOM      5  C   UNL     1      36.629  13.815  43.253  1.00  0.00     0.000 C 
BRANCH   5   6
ATOM      6  C   UNL     1      36.688  15.296  43.663  1.00  0.00     0.000 C 
BRANCH   6   7
ATOM      7  C   UNL     1      35.312  15.866  44.045  1.00  0.00     0.000 C 
BRANCH   7   8
ATOM      8  C   UNL     1      34.900  17.067  43.176  1.00  0.00     0.000 C 
BRANCH   8   9
ATOM      9  C   UNL     1      34.013  16.687  41.971  1.00  0.00     0.000 C 
BRANCH   9  10
ATOM     10  C   UNL     1      33.869  17.844  40.971  1.00  0.00     0.000 C 
BRANCH  10  11
ATOM     11  C   UNL     1      34.312  17.419  39.565  1.00  0.00     0.000 C 
BRANCH  11  12
ATOM     12  C   UNL     1      33.138  17.468  38.582  1.00  0.00     0.006 C 
BRANCH  12  13
ATOM     13  C   UNL     1      32.291  18.726  38.796  1.00  0.00     0.053 C 
BRANCH  13  14
ATOM     14  C   UNL     1      31.210  18.809  37.766  1.00  0.00     0.041 C 
ATOM     15  O   UNL     1      30.555  19.873  37.619  1.00  0.00    -0.550 OA
ATOM     16  O   UNL     1      30.879  17.686  37.014  1.00  0.00    -0.550 OA
ENDBRANCH  13  14
ENDBRANCH  12  13
ENDBRANCH  11  12
ENDBRANCH  10  11
ENDBRANCH   9  10
ENDBRANCH   8   9
ENDBRANCH   7   8
ENDBRANCH   6   7
ENDBRANCH   5   6
ENDBRANCH   4   5
ENDBRANCH   3   4
ENDBRANCH   2   3
ENDBRANCH   1   2
BRANCH   1  17
ATOM     17  C   UNL     1      32.621  11.646  40.988  1.00  0.00     0.000 C 
BRANCH  17  18
ATOM     18  C   UNL     1      32.820  10.122  40.980  1.00  0.00     0.000 C 
BRANCH  18  19
ATOM     19  C   UNL     1      33.456   9.611  39.679  1.00  0.00     0.000 C 
BRANCH  19  20
ATOM     20  C   UNL     1      34.863   9.057  39.935  1.00  0.00     0.000 C 
BRANCH  20  21
ATOM     21  C   UNL     1      34.960   8.421  41.328  1.00  0.00     0.000 C 
BRANCH  21  22
ATOM     22  C   UNL     1      35.895   7.198  41.358  1.00  0.00    -0.000 C 
BRANCH  22  23
ATOM     23  C   UNL     1      35.178   5.833  41.427  1.00  0.00    -0.000 C 
BRANCH  23  24
ATOM     24  C   UNL     1      33.734   5.820  40.887  1.00  0.00    -0.000 C 
BRANCH  24  25
ATOM     25  C   UNL     1      32.935   4.542  41.200  1.00  0.00    -0.000 C 
BRANCH  25  26
ATOM     26  C   UNL     1      31.419   4.732  41.025  1.00  0.00    -0.000 C 
BRANCH  26  27
ATOM     27  C   UNL     1      30.792   5.551  42.166  1.00  0.00    -0.000 C 
BRANCH  27  28
ATOM     28  C   UNL     1      29.262   5.403  42.221  1.00  0.00    -0.000 C 
BRANCH  28  29
ATOM     29  C   UNL     1      28.534   6.509  41.441  1.00  0.00    -0.003 C 
ATOM     30  C   UNL     1      29.350   7.798  41.334  1.00  0.00     0.004 C 
ENDBRANCH  28  29
ENDBRANCH  27  28
ENDBRANCH  26  27
ENDBRANCH  25  26
ENDBRANCH  24  25
ENDBRANCH  23  24
ENDBRANCH  22  23
ENDBRANCH  21  22
ENDBRANCH  20  21
ENDBRANCH  19  20
ENDBRANCH  18  19
ENDBRANCH  17  18
ENDBRANCH   1  17
TORSDOF 26
ENDMDL
MODEL 3
REMARK VINA RESULT:    15.407      3.263     10.726
REMARK INTER + INTRA:          36.980
REMARK INTER:                  38.816
REMARK INTRA:                  -1.836
REMARK UNBOUND:                -1.846
REMARK SMILES CCCCCCCCCCCCCCCCCCCCCCCCCCCC(=O)[O-]
REMARK SMILES IDX 15 1 16 2 17 3 18 4 19 5 20 6 21 7 22 8 23 9 24 10 25 11
REMARK SMILES IDX 26 12 27 13 28 14 29 15 30 16 14 17 13 18 12 19 11 20 10 21
REMARK SMILES IDX 9 22 8 23 7 24 6 25 5 26 4 27 3 28 2 29 1 30
REMARK H PARENT
REMARK Flexibility Score: inf
ROOT
ATOM      1  C   UNL     1      33.617  12.202  40.321  1.00  0.00     0.000 C 
ENDROOT
BRANCH   1   2
ATOM      2  C   UNL     1      34.983  12.715  40.805  1.00  0.00     0.000 C 
BRANCH   2   3
ATOM      3  C   UNL     1      34.914  13.357  42.202  1.00  0.00     0.000 C 
BRANCH   3   4
ATOM      4  C   UNL     1      36.284  13.365  42.911  1.00  0.00     0.000 C 
BRANCH   4   5
ATOM      5  C   UNL     1      36.490  14.564  43.860  1.00  0.00     0.000 C 
BRANCH   5   6
ATOM      6  C   UNL     1      35.300  15.533  43.958  1.00  0.00     0.000 C 
BRANCH   6   7
ATOM      7  C   UNL     1      35.733  16.995  44.153  1.00  0.00     0.000 C 
BRANCH   7   8
ATOM      8  C   UNL     1      34.937  17.976  43.275  1.00  0.00     0.000 C 
BRANCH   8   9
ATOM      9  C   UNL     1      34.147  17.292  42.138  1.00  0.00     0.000 C 
BRANCH   9  10
ATOM     10  C   UNL     1      34.365  17.987  40.785  1.00  0.00     0.000 C 
BRANCH  10  11
ATOM     11  C   UNL     1      33.849  17.121  39.629  1.00  0.00     0.000 C 
BRANCH  11  12
ATOM     12  C   UNL     1      33.340  17.992  38.476  1.00  0.00     0.006 C 
BRANCH  12  13
ATOM     13  C   UNL     1      32.029  18.689  38.848  1.00  0.00     0.053 C 
BRANCH  13  14
ATOM     14  C   UNL     1      31.132  18.784  37.655  1.00  0.00     0.041 C 
ATOM     15  O   UNL     1      30.795  19.909  37.203  1.00  0.00    -0.550 OA
ATOM     16  O   UNL     1      30.612  17.628  37.083  1.00  0.00    -0.550 OA
ENDBRANCH  13  14
ENDBRANCH  12  13
ENDBRANCH  11  12
ENDBRANCH  10  11
ENDBRANCH   9  10
ENDBRANCH   8   9
ENDBRANCH   7   8
ENDBRANCH   6   7
ENDBRANCH   5   6
ENDBRANCH   4   5
ENDBRANCH   3   4
ENDBRANCH   2   3
ENDBRANCH   1   2
BRANCH   1  17
ATOM     17  C   UNL     1      32.895  11.365  41.391  1.00  0.00     0.000 C 
BRANCH  17  18
ATOM     18  C   UNL     1      32.510   9.963  40.893  1.00  0.00     0.000 C 
BRANCH  18  19
ATOM     19  C   UNL     1      33.110   9.632  39.519  1.00  0.00     0.000 C 
BRANCH  19  20
ATOM     20  C   UNL     1      34.401   8.816  39.665  1.00  0.00     0.000 C 
BRANCH  20  21
ATOM     21  C   UNL     1      34.862   8.771  41.128  1.00  0.00     0.000 C 
BRANCH  21  22
ATOM     22  C   UNL     1      36.004   7.765  41.360  1.00  0.00    -0.000 C 
BRANCH  22  23
ATOM     23  C   UNL     1      35.551   6.362  41.816  1.00  0.00    -0.000 C 
BRANCH  23  24
ATOM     24  C   UNL     1      34.507   5.680  40.909  1.00  0.00    -0.000 C 
BRANCH  24  25
ATOM     25  C   UNL     1      33.066   5.695  41.451  1.00  0.00    -0.000 C 
BRANCH  25  26
ATOM     26  C   UNL     1      32.176   4.622  40.801  1.00  0.00    -0.000 C 
BRANCH  26  27
ATOM     27  C   UNL     1      30.767   4.576  41.415  1.00  0.00    -0.000 C 
BRANCH  27  28
ATOM     28  C   UNL     1      30.281   5.962  41.871  1.00  0.00    -0.000 C 
BRANCH  28  29
ATOM     29  C   UNL     1      28.755   6.026  42.043  1.00  0.00    -0.003 C 
ATOM     30  C   UNL     1      28.134   4.663  42.351  1.00  0.00     0.004 C 
ENDBRANCH  28  29
ENDBRANCH  27  28
ENDBRANCH  26  27
ENDBRANCH  25  26
ENDBRANCH  24  25
ENDBRANCH  23  24
ENDBRANCH  22  23
ENDBRANCH  21  22
ENDBRANCH  20  21
ENDBRANCH  19  20
ENDBRANCH  18  19
ENDBRANCH  17  18
ENDBRANCH   1  17
TORSDOF 26
ENDMDL
MODEL 4
REMARK VINA RESULT:    15.717      1.916      3.268
REMARK INTER + INTRA:          37.761
REMARK INTER:                  39.666
REMARK INTRA:                  -1.906
REMARK UNBOUND:                -1.846
REMARK SMILES CCCCCCCCCCCCCCCCCCCCCCCCCCCC(=O)[O-]
REMARK SMILES IDX 15 1 16 2 17 3 18 4 19 5 20 6 21 7 22 8 23 9 24 10 25 11
REMARK SMILES IDX 26 12 27 13 28 14 29 15 30 16 14 17 13 18 12 19 11 20 10 21
REMARK SMILES IDX 9 22 8 23 7 24 6 25 5 26 4 27 3 28 2 29 1 30
REMARK H PARENT
REMARK Flexibility Score: inf
ROOT
ATOM      1  C   UNL     1      32.346  10.783  41.327  1.00  0.00     0.000 C 
ENDROOT
BRANCH   1   2
ATOM      2  C   UNL     1      32.533   9.732  40.220  1.00  0.00     0.000 C 
BRANCH   2   3
ATOM      3  C   UNL     1      34.014   9.472  39.893  1.00  0.00     0.000 C 
BRANCH   3   4
ATOM      4  C   UNL     1      34.522   8.145  40.495  1.00  0.00     0.000 C 
BRANCH   4   5
ATOM      5  C   UNL     1      33.760   6.900  39.994  1.00  0.00     0.000 C 
BRANCH   5   6
ATOM      6  C   UNL     1      33.784   5.692  40.945  1.00  0.00     0.000 C 
BRANCH   6   7
ATOM      7  C   UNL     1      32.446   4.937  40.987  1.00  0.00     0.000 C 
BRANCH   7   8
ATOM      8  C   UNL     1      31.431   5.572  41.953  1.00  0.00     0.000 C 
BRANCH   8   9
ATOM      9  C   UNL     1      29.964   5.198  41.648  1.00  0.00     0.000 C 
BRANCH   9  10
ATOM     10  C   UNL     1      29.016   6.393  41.816  1.00  0.00     0.000 C 
BRANCH  10  11
ATOM     11  C   UNL     1      29.605   7.661  41.184  1.00  0.00     0.000 C 
BRANCH  11  12
ATOM     12  C   UNL     1      28.700   8.186  40.064  1.00  0.00     0.006 C 
BRANCH  12  13
ATOM     13  C   UNL     1      29.437   8.199  38.722  1.00  0.00     0.053 C 
BRANCH  13  14
ATOM     14  C   UNL     1      28.493   8.544  37.613  1.00  0.00     0.041 C 
ATOM     15  O   UNL     1      28.369   7.776  36.625  1.00  0.00    -0.550 OA
ATOM     16  O   UNL     1      27.801   9.751  37.639  1.00  0.00    -0.550 OA
ENDBRANCH  13  14
ENDBRANCH  12  13
ENDBRANCH  11  12
ENDBRANCH  10  11
ENDBRANCH   9  10
ENDBRANCH   8   9
ENDBRANCH   7   8
ENDBRANCH   6   7
ENDBRANCH   5   6
ENDBRANCH   4   5
ENDBRANCH   3   4
ENDBRANCH   2   3
ENDBRANCH   1   2
BRANCH   1  17
ATOM     17  C   UNL     1      33.675  11.438  41.739  1.00  0.00     0.000 C 
BRANCH  17  18
ATOM     18  C   UNL     1      34.218  12.408  40.678  1.00  0.00     0.000 C 
BRANCH  18  19
ATOM     19  C   UNL     1      35.383  13.265  41.194  1.00  0.00     0.000 C 
BRANCH  19  20
ATOM     20  C   UNL     1      35.437  13.254  42.727  1.00  0.00     0.000 C 
BRANCH  20  21
ATOM     21  C   UNL     1      36.635  14.064  43.242  1.00  0.00     0.000 C 
BRANCH  21  22
ATOM     22  C   UNL     1      36.218  15.409  43.865  1.00  0.00    -0.000 C 
BRANCH  22  23
ATOM     23  C   UNL     1      34.822  15.914  43.445  1.00  0.00    -0.000 C 
BRANCH  23  24
ATOM     24  C   UNL     1      34.812  17.228  42.637  1.00  0.00    -0.000 C 
BRANCH  24  25
ATOM     25  C   UNL     1      33.641  17.373  41.648  1.00  0.00    -0.000 C 
BRANCH  25  26
ATOM     26  C   UNL     1      34.019  16.956  40.217  1.00  0.00    -0.000 C 
BRANCH  26  27
ATOM     27  C   UNL     1      33.998  18.139  39.234  1.00  0.00    -0.000 C 
BRANCH  27  28
ATOM     28  C   UNL     1      32.573  18.654  38.966  1.00  0.00    -0.000 C 
BRANCH  28  29
ATOM     29  C   UNL     1      31.977  18.092  37.666  1.00  0.00    -0.003 C 
ATOM     30  C   UNL     1      30.630  18.720  37.309  1.00  0.00     0.004 C 
ENDBRANCH  28  29
ENDBRANCH  27  28
ENDBRANCH  26  27
ENDBRANCH  25  26
ENDBRANCH  24  25
ENDBRANCH  23  24
ENDBRANCH  22  23
ENDBRANCH  21  22
ENDBRANCH  20  21
ENDBRANCH  19  20
ENDBRANCH  18  19
ENDBRANCH  17  18
ENDBRANCH   1  17
TORSDOF 26
ENDMDL
MODEL 5
REMARK VINA RESULT:    16.193      3.889     10.313
REMARK INTER + INTRA:          38.960
REMARK INTER:                  40.516
REMARK INTRA:                  -1.556
REMARK UNBOUND:                -1.846
REMARK SMILES CCCCCCCCCCCCCCCCCCCCCCCCCCCC(=O)[O-]
REMARK SMILES IDX 15 1 16 2 17 3 18 4 19 5 20 6 21 7 22 8 23 9 24 10 25 11
REMARK SMILES IDX 26 12 27 13 28 14 29 15 30 16 14 17 13 18 12 19 11 20 10 21
REMARK SMILES IDX 9 22 8 23 7 24 6 25 5 26 4 27 3 28 2 29 1 30
REMARK H PARENT
REMARK Flexibility Score: inf
ROOT
ATOM      1  C   UNL     1      34.231   9.150  39.917  1.00  0.00     0.000 C 
ENDROOT
BRANCH   1   2
ATOM      2  C   UNL     1      32.953   9.998  40.018  1.00  0.00     0.000 C 
BRANCH   2   3
ATOM      3  C   UNL     1      32.988  10.983  41.200  1.00  0.00     0.000 C 
BRANCH   3   4
ATOM      4  C   UNL     1      33.516  12.373  40.788  1.00  0.00     0.000 C 
BRANCH   4   5
ATOM      5  C   UNL     1      34.979  12.634  41.201  1.00  0.00     0.000 C 
BRANCH   5   6
ATOM      6  C   UNL     1      35.174  13.110  42.650  1.00  0.00     0.000 C 
BRANCH   6   7
ATOM      7  C   UNL     1      35.757  14.530  42.740  1.00  0.00     0.000 C 
BRANCH   7   8
ATOM      8  C   UNL     1      34.879  15.484  43.568  1.00  0.00     0.000 C 
BRANCH   8   9
ATOM      9  C   UNL     1      34.507  16.786  42.826  1.00  0.00     0.000 C 
BRANCH   9  10
ATOM     10  C   UNL     1      34.006  16.515  41.400  1.00  0.00     0.000 C 
BRANCH  10  11
ATOM     11  C   UNL     1      34.228  17.733  40.494  1.00  0.00     0.000 C 
BRANCH  11  12
ATOM     12  C   UNL     1      33.425  17.603  39.195  1.00  0.00     0.006 C 
BRANCH  12  13
ATOM     13  C   UNL     1      32.339  18.678  39.108  1.00  0.00     0.053 C 
BRANCH  13  14
ATOM     14  C   UNL     1      31.564  18.536  37.836  1.00  0.00     0.041 C 
ATOM     15  O   UNL     1      30.995  19.535  37.326  1.00  0.00    -0.550 OA
ATOM     16  O   UNL     1      31.414  17.283  37.251  1.00  0.00    -0.550 OA
ENDBRANCH  13  14
ENDBRANCH  12  13
ENDBRANCH  11  12
ENDBRANCH  10  11
ENDBRANCH   9  10
ENDBRANCH   8   9
ENDBRANCH   7   8
ENDBRANCH   6   7
ENDBRANCH   5   6
ENDBRANCH   4   5
ENDBRANCH   3   4
ENDBRANCH   2   3
ENDBRANCH   1   2
BRANCH   1  17
ATOM     17  C   UNL     1      33.932   7.681  39.571  1.00  0.00     0.000 C 
BRANCH  17  18
ATOM     18  C   UNL     1      34.276   6.715  40.716  1.00  0.00     0.000 C 
BRANCH  18  19
ATOM     19  C   UNL     1      33.364   5.480  40.749  1.00  0.00     0.000 C 
BRANCH  19  20
ATOM     20  C   UNL     1      32.233   5.658  41.769  1.00  0.00     0.000 C 
BRANCH  20  21
ATOM     21  C   UNL     1      30.957   4.941  41.308  1.00  0.00     0.000 C 
BRANCH  21  22
ATOM     22  C   UNL     1      29.751   5.226  42.223  1.00  0.00    -0.000 C 
BRANCH  22  23
ATOM     23  C   UNL     1      28.847   6.389  41.761  1.00  0.00    -0.000 C 
BRANCH  23  24
ATOM     24  C   UNL     1      29.512   7.401  40.806  1.00  0.00    -0.000 C 
BRANCH  24  25
ATOM     25  C   UNL     1      28.787   7.597  39.462  1.00  0.00    -0.000 C 
BRANCH  25  26
ATOM     26  C   UNL     1      29.377   8.750  38.633  1.00  0.00    -0.000 C 
BRANCH  26  27
ATOM     27  C   UNL     1      28.393   9.278  37.575  1.00  0.00    -0.000 C 
BRANCH  27  28
ATOM     28  C   UNL     1      27.466   8.176  37.034  1.00  0.00    -0.000 C 
BRANCH  28  29
ATOM     29  C   UNL     1      28.239   7.044  36.340  1.00  0.00    -0.003 C 
ATOM     30  C   UNL     1      27.442   5.741  36.262  1.00  0.00     0.004 C 
ENDBRANCH  28  29
ENDBRANCH  27  28
ENDBRANCH  26  27
ENDBRANCH  25  26
ENDBRANCH  24  25
ENDBRANCH  23  24
ENDBRANCH  22  23
ENDBRANCH  21  22
ENDBRANCH  20  21
ENDBRANCH  19  20
ENDBRANCH  18  19
ENDBRANCH  17  18
ENDBRANCH   1  17
TORSDOF 26
ENDMDL
MODEL 6
REMARK VINA RESULT:    16.327      3.617     10.397
REMARK INTER + INTRA:          39.296
REMARK INTER:                  41.039
REMARK INTRA:                  -1.743
REMARK UNBOUND:                -1.846
REMARK SMILES CCCCCCCCCCCCCCCCCCCCCCCCCCCC(=O)[O-]
REMARK SMILES IDX 15 1 16 2 17 3 18 4 19 5 20 6 21 7 22 8 23 9 24 10 25 11
REMARK SMILES IDX 26 12 27 13 28 14 29 15 30 16 14 17 13 18 12 19 11 20 10 21
REMARK SMILES IDX 9 22 8 23 7 24 6 25 5 26 4 27 3 28 2 29 1 30
REMARK H PARENT
REMARK Flexibility Score: inf
ROOT
ATOM      1  C   UNL     1      33.026  10.793  40.518  1.00  0.00     0.000 C 
ENDROOT
BRANCH   1   2
ATOM      2  C   UNL     1      33.163  12.239  40.013  1.00  0.00     0.000 C 
BRANCH   2   3
ATOM      3  C   UNL     1      34.486  12.895  40.446  1.00  0.00     0.000 C 
BRANCH   3   4
ATOM      4  C   UNL     1      34.707  12.813  41.972  1.00  0.00     0.000 C 
BRANCH   4   5
ATOM      5  C   UNL     1      36.127  13.216  42.420  1.00  0.00     0.000 C 
BRANCH   5   6
ATOM      6  C   UNL     1      36.189  14.354  43.452  1.00  0.00     0.000 C 
BRANCH   6   7
ATOM      7  C   UNL     1      35.017  15.342  43.325  1.00  0.00     0.000 C 
BRANCH   7   8
ATOM      8  C   UNL     1      35.448  16.808  43.506  1.00  0.00     0.000 C 
BRANCH   8   9
ATOM      9  C   UNL     1      34.533  17.818  42.780  1.00  0.00     0.000 C 
BRANCH   9  10
ATOM     10  C   UNL     1      33.916  17.225  41.505  1.00  0.00     0.000 C 
BRANCH  10  11
ATOM     11  C   UNL     1      34.054  18.192  40.322  1.00  0.00     0.000 C 
BRANCH  11  12
ATOM     12  C   UNL     1      33.150  17.770  39.159  1.00  0.00     0.006 C 
BRANCH  12  13
ATOM     13  C   UNL     1      32.133  18.864  38.826  1.00  0.00     0.053 C 
BRANCH  13  14
ATOM     14  C   UNL     1      31.377  18.513  37.583  1.00  0.00     0.041 C 
ATOM     15  O   UNL     1      30.903  17.358  37.435  1.00  0.00    -0.550 OA
ATOM     16  O   UNL     1      31.255  19.445  36.558  1.00  0.00    -0.550 OA
ENDBRANCH  13  14
ENDBRANCH  12  13
ENDBRANCH  11  12
ENDBRANCH  10  11
ENDBRANCH   9  10
ENDBRANCH   8   9
ENDBRANCH   7   8
ENDBRANCH   6   7
ENDBRANCH   5   6
ENDBRANCH   4   5
ENDBRANCH   3   4
ENDBRANCH   2   3
ENDBRANCH   1   2
BRANCH   1  17
ATOM     17  C   UNL     1      34.178   9.895  40.035  1.00  0.00     0.000 C 
BRANCH  17  18
ATOM     18  C   UNL     1      33.744   8.437  39.808  1.00  0.00     0.000 C 
BRANCH  18  19
ATOM     19  C   UNL     1      34.558   7.437  40.641  1.00  0.00     0.000 C 
BRANCH  19  20
ATOM     20  C   UNL     1      34.070   6.001  40.407  1.00  0.00     0.000 C 
BRANCH  20  21
ATOM     21  C   UNL     1      32.956   5.630  41.395  1.00  0.00     0.000 C 
BRANCH  21  22
ATOM     22  C   UNL     1      32.124   4.423  40.925  1.00  0.00    -0.000 C 
BRANCH  22  23
ATOM     23  C   UNL     1      30.595   4.614  41.014  1.00  0.00    -0.000 C 
BRANCH  23  24
ATOM     24  C   UNL     1      30.111   5.528  42.158  1.00  0.00    -0.000 C 
BRANCH  24  25
ATOM     25  C   UNL     1      28.951   6.470  41.790  1.00  0.00    -0.000 C 
BRANCH  25  26
ATOM     26  C   UNL     1      29.398   7.642  40.899  1.00  0.00    -0.000 C 
BRANCH  26  27
ATOM     27  C   UNL     1      28.957   7.471  39.436  1.00  0.00    -0.000 C 
BRANCH  27  28
ATOM     28  C   UNL     1      29.198   8.739  38.599  1.00  0.00    -0.000 C 
BRANCH  28  29
ATOM     29  C   UNL     1      28.238   8.849  37.404  1.00  0.00    -0.003 C 
ATOM     30  C   UNL     1      28.129   7.547  36.608  1.00  0.00     0.004 C 
ENDBRANCH  28  29
ENDBRANCH  27  28
ENDBRANCH  26  27
ENDBRANCH  25  26
ENDBRANCH  24  25
ENDBRANCH  23  24
ENDBRANCH  22  23
ENDBRANCH  21  22
ENDBRANCH  20  21
ENDBRANCH  19  20
ENDBRANCH  18  19
ENDBRANCH  17  18
ENDBRANCH   1  17
TORSDOF 26
ENDMDL
MODEL 7
REMARK VINA RESULT:    16.418      4.131      9.979
REMARK INTER + INTRA:          39.526
REMARK INTER:                  41.748
REMARK INTRA:                  -2.222
REMARK UNBOUND:                -1.846
REMARK SMILES CCCCCCCCCCCCCCCCCCCCCCCCCCCC(=O)[O-]
REMARK SMILES IDX 15 1 16 2 17 3 18 4 19 5 20 6 21 7 22 8 23 9 24 10 25 11
REMARK SMILES IDX 26 12 27 13 28 14 29 15 30 16 14 17 13 18 12 19 11 20 10 21
REMARK SMILES IDX 9 22 8 23 7 24 6 25 5 26 4 27 3 28 2 29 1 30
REMARK H PARENT
REMARK Flexibility Score: inf
ROOT
ATOM      1  C   UNL     1      34.086   6.487  40.344  1.00  0.00     0.000 C 
ENDROOT
BRANCH   1   2
ATOM      2  C   UNL     1      35.059   7.384  41.126  1.00  0.00     0.000 C 
BRANCH   2   3
ATOM      3  C   UNL     1      34.983   8.859  40.692  1.00  0.00     0.000 C 
BRANCH   3   4
ATOM      4  C   UNL     1      33.975   9.080  39.545  1.00  0.00     0.000 C 
BRANCH   4   5
ATOM      5  C   UNL     1      32.693   9.823  39.974  1.00  0.00     0.000 C 
BRANCH   5   6
ATOM      6  C   UNL     1      32.905  10.971  40.974  1.00  0.00     0.000 C 
BRANCH   6   7
ATOM      7  C   UNL     1      32.838  12.358  40.315  1.00  0.00     0.000 C 
BRANCH   7   8
ATOM      8  C   UNL     1      34.226  12.915  39.952  1.00  0.00     0.000 C 
BRANCH   8   9
ATOM      9  C   UNL     1      35.391  12.190  40.660  1.00  0.00     0.000 C 
BRANCH   9  10
ATOM     10  C   UNL     1      36.186  13.131  41.576  1.00  0.00     0.000 C 
BRANCH  10  11
ATOM     11  C   UNL     1      35.475  13.327  42.921  1.00  0.00     0.000 C 
BRANCH  11  12
ATOM     12  C   UNL     1      36.344  14.138  43.888  1.00  0.00     0.006 C 
BRANCH  12  13
ATOM     13  C   UNL     1      36.572  15.559  43.366  1.00  0.00     0.053 C 
BRANCH  13  14
ATOM     14  C   UNL     1      35.429  16.445  43.747  1.00  0.00     0.041 C 
ATOM     15  O   UNL     1      35.631  17.655  44.026  1.00  0.00    -0.550 OA
ATOM     16  O   UNL     1      34.148  15.917  43.861  1.00  0.00    -0.550 OA
ENDBRANCH  13  14
ENDBRANCH  12  13
ENDBRANCH  11  12
ENDBRANCH  10  11
ENDBRANCH   9  10
ENDBRANCH   8   9
ENDBRANCH   7   8
ENDBRANCH   6   7
ENDBRANCH   5   6
ENDBRANCH   4   5
ENDBRANCH   3   4
ENDBRANCH   2   3
ENDBRANCH   1   2
BRANCH   1  17
ATOM     17  C   UNL     1      33.440   5.411  41.234  1.00  0.00     0.000 C 
BRANCH  17  18
ATOM     18  C   UNL     1      32.485   4.489  40.459  1.00  0.00     0.000 C 
BRANCH  18  19
ATOM     19  C   UNL     1      31.110   4.357  41.130  1.00  0.00     0.000 C 
BRANCH  19  20
ATOM     20  C   UNL     1      30.816   5.567  42.026  1.00  0.00     0.000 C 
BRANCH  20  21
ATOM     21  C   UNL     1      29.334   5.614  42.420  1.00  0.00     0.000 C 
BRANCH  21  22
ATOM     22  C   UNL     1      28.547   6.684  41.642  1.00  0.00    -0.000 C 
BRANCH  22  23
ATOM     23  C   UNL     1      29.403   7.836  41.074  1.00  0.00    -0.000 C 
BRANCH  23  24
ATOM     24  C   UNL     1      29.554   7.850  39.540  1.00  0.00    -0.000 C 
BRANCH  24  25
ATOM     25  C   UNL     1      28.371   8.472  38.777  1.00  0.00    -0.000 C 
BRANCH  25  26
ATOM     26  C   UNL     1      28.732   8.852  37.330  1.00  0.00    -0.000 C 
BRANCH  26  27
ATOM     27  C   UNL     1      28.363   7.751  36.323  1.00  0.00    -0.000 C 
BRANCH  27  28
ATOM     28  C   UNL     1      27.365   6.735  36.904  1.00  0.00    -0.000 C 
BRANCH  28  29
ATOM     29  C   UNL     1      27.442   5.367  36.207  1.00  0.00    -0.003 C 
ATOM     30  C   UNL     1      27.525   4.201  37.192  1.00  0.00     0.004 C 
ENDBRANCH  28  29
ENDBRANCH  27  28
ENDBRANCH  26  27
ENDBRANCH  25  26
ENDBRANCH  24  25
ENDBRANCH  23  24
ENDBRANCH  22  23
ENDBRANCH  21  22
ENDBRANCH  20  21
ENDBRANCH  19  20
ENDBRANCH  18  19
ENDBRANCH  17  18
ENDBRANCH   1  17
TORSDOF 26
ENDMDL
MODEL 8
REMARK VINA RESULT:    16.438      4.079     10.872
REMARK INTER + INTRA:          39.576
REMARK INTER:                  41.306
REMARK INTRA:                  -1.731
REMARK UNBOUND:                -1.846
REMARK SMILES CCCCCCCCCCCCCCCCCCCCCCCCCCCC(=O)[O-]
REMARK SMILES IDX 15 1 16 2 17 3 18 4 19 5 20 6 21 7 22 8 23 9 24 10 25 11
REMARK SMILES IDX 26 12 27 13 28 14 29 15 30 16 14 17 13 18 12 19 11 20 10 21
REMARK SMILES IDX 9 22 8 23 7 24 6 25 5 26 4 27 3 28 2 29 1 30
REMARK H PARENT
REMARK Flexibility Score: inf
ROOT
ATOM      1  C   UNL     1      33.372  11.745  40.130  1.00  0.00     0.000 C 
ENDROOT
BRANCH   1   2
ATOM      2  C   UNL     1      34.388  12.832  40.519  1.00  0.00     0.000 C 
BRANCH   2   3
ATOM      3  C   UNL     1      34.737  12.807  42.018  1.00  0.00     0.000 C 
BRANCH   3   4
ATOM      4  C   UNL     1      36.149  13.362  42.299  1.00  0.00     0.000 C 
BRANCH   4   5
ATOM      5  C   UNL     1      36.183  14.470  43.371  1.00  0.00     0.000 C 
BRANCH   5   6
ATOM      6  C   UNL     1      34.820  15.099  43.705  1.00  0.00     0.000 C 
BRANCH   6   7
ATOM      7  C   UNL     1      34.939  16.538  44.233  1.00  0.00     0.000 C 
BRANCH   7   8
ATOM      8  C   UNL     1      35.826  17.429  43.346  1.00  0.00     0.000 C 
BRANCH   8   9
ATOM      9  C   UNL     1      35.029  18.407  42.455  1.00  0.00     0.000 C 
BRANCH   9  10
ATOM     10  C   UNL     1      34.152  17.672  41.431  1.00  0.00     0.000 C 
BRANCH  10  11
ATOM     11  C   UNL     1      34.264  18.314  40.043  1.00  0.00     0.000 C 
BRANCH  11  12
ATOM     12  C   UNL     1      33.160  17.803  39.111  1.00  0.00     0.006 C 
BRANCH  12  13
ATOM     13  C   UNL     1      32.052  18.846  38.945  1.00  0.00     0.053 C 
BRANCH  13  14
ATOM     14  C   UNL     1      31.351  18.659  37.636  1.00  0.00     0.041 C 
ATOM     15  O   UNL     1      30.851  19.646  37.038  1.00  0.00    -0.550 OA
ATOM     16  O   UNL     1      31.190  17.381  37.110  1.00  0.00    -0.550 OA
ENDBRANCH  13  14
ENDBRANCH  12  13
ENDBRANCH  11  12
ENDBRANCH  10  11
ENDBRANCH   9  10
ENDBRANCH   8   9
ENDBRANCH   7   8
ENDBRANCH   6   7
ENDBRANCH   5   6
ENDBRANCH   4   5
ENDBRANCH   3   4
ENDBRANCH   2   3
ENDBRANCH   1   2
BRANCH   1  17
ATOM     17  C   UNL     1      33.902  10.327  40.403  1.00  0.00     0.000 C 
BRANCH  17  18
ATOM     18  C   UNL     1      33.010   9.229  39.801  1.00  0.00     0.000 C 
BRANCH  18  19
ATOM     19  C   UNL     1      31.541   9.351  40.234  1.00  0.00     0.000 C 
BRANCH  19  20
ATOM     20  C   UNL     1      31.121   8.154  41.097  1.00  0.00     0.000 C 
BRANCH  20  21
ATOM     21  C   UNL     1      29.685   7.720  40.775  1.00  0.00     0.000 C 
BRANCH  21  22
ATOM     22  C   UNL     1      29.197   6.568  41.673  1.00  0.00    -0.000 C 
BRANCH  22  23
ATOM     23  C   UNL     1      28.571   5.376  40.918  1.00  0.00    -0.000 C 
BRANCH  23  24
ATOM     24  C   UNL     1      28.718   5.418  39.384  1.00  0.00    -0.000 C 
BRANCH  24  25
ATOM     25  C   UNL     1      27.737   4.516  38.613  1.00  0.00    -0.000 C 
BRANCH  25  26
ATOM     26  C   UNL     1      27.849   4.684  37.088  1.00  0.00    -0.000 C 
BRANCH  26  27
ATOM     27  C   UNL     1      27.146   5.956  36.583  1.00  0.00    -0.000 C 
BRANCH  27  28
ATOM     28  C   UNL     1      28.143   7.051  36.167  1.00  0.00    -0.000 C 
BRANCH  28  29
ATOM     29  C   UNL     1      27.641   8.464  36.505  1.00  0.00    -0.003 C 
ATOM     30  C   UNL     1      28.354   9.076  37.711  1.00  0.00     0.004 C 
ENDBRANCH  28  29
ENDBRANCH  27  28
ENDBRANCH  26  27
ENDBRANCH  25  26
ENDBRANCH  24  25
ENDBRANCH  23  24
ENDBRANCH  22  23
ENDBRANCH  21  22
ENDBRANCH  20  21
ENDBRANCH  19  20
ENDBRANCH  18  19
ENDBRANCH  17  18
ENDBRANCH   1  17
TORSDOF 26
ENDMDL
MODEL 9
REMARK VINA RESULT:    16.449      2.979      6.242
REMARK INTER + INTRA:          39.605
REMARK INTER:                  41.538
REMARK INTRA:                  -1.932
REMARK UNBOUND:                -1.846
REMARK SMILES CCCCCCCCCCCCCCCCCCCCCCCCCCCC(=O)[O-]
REMARK SMILES IDX 15 1 16 2 17 3 18 4 19 5 20 6 21 7 22 8 23 9 24 10 25 11
REMARK SMILES IDX 26 12 27 13 28 14 29 15 30 16 14 17 13 18 12 19 11 20 10 21
REMARK SMILES IDX 9 22 8 23 7 24 6 25 5 26 4 27 3 28 2 29 1 30
REMARK H PARENT
REMARK Flexibility Score: inf
ROOT
ATOM      1  C   UNL     1      34.024   6.651  40.016  1.00  0.00     0.000 C 
ENDROOT
BRANCH   1   2
ATOM      2  C   UNL     1      33.386   5.923  41.210  1.00  0.00     0.000 C 
BRANCH   2   3
ATOM      3  C   UNL     1      32.535   4.714  40.780  1.00  0.00     0.000 C 
BRANCH   3   4
ATOM      4  C   UNL     1      31.203   4.631  41.554  1.00  0.00     0.000 C 
BRANCH   4   5
ATOM      5  C   UNL     1      30.514   5.996  41.761  1.00  0.00     0.000 C 
BRANCH   5   6
ATOM      6  C   UNL     1      29.064   5.928  42.268  1.00  0.00     0.000 C 
BRANCH   6   7
ATOM      7  C   UNL     1      28.136   5.149  41.322  1.00  0.00     0.000 C 
BRANCH   7   8
ATOM      8  C   UNL     1      28.424   5.430  39.837  1.00  0.00     0.000 C 
BRANCH   8   9
ATOM      9  C   UNL     1      27.421   4.760  38.872  1.00  0.00     0.000 C 
BRANCH   9  10
ATOM     10  C   UNL     1      28.030   4.515  37.484  1.00  0.00     0.000 C 
BRANCH  10  11
ATOM     11  C   UNL     1      27.397   5.434  36.432  1.00  0.00     0.000 C 
BRANCH  11  12
ATOM     12  C   UNL     1      28.220   6.715  36.255  1.00  0.00     0.006 C 
BRANCH  12  13
ATOM     13  C   UNL     1      27.369   7.959  36.520  1.00  0.00     0.053 C 
BRANCH  13  14
ATOM     14  C   UNL     1      28.160   8.982  37.272  1.00  0.00     0.041 C 
ATOM     15  O   UNL     1      29.239   8.662  37.833  1.00  0.00    -0.550 OA
ATOM     16  O   UNL     1      27.670  10.277  37.409  1.00  0.00    -0.550 OA
ENDBRANCH  13  14
ENDBRANCH  12  13
ENDBRANCH  11  12
ENDBRANCH  10  11
ENDBRANCH   9  10
ENDBRANCH   8   9
ENDBRANCH   7   8
ENDBRANCH   6   7
ENDBRANCH   5   6
ENDBRANCH   4   5
ENDBRANCH   3   4
ENDBRANCH   2   3
ENDBRANCH   1   2
BRANCH   1  17
ATOM     17  C   UNL     1      34.525   8.057  40.390  1.00  0.00     0.000 C 
BRANCH  17  18
ATOM     18  C   UNL     1      33.820   9.172  39.602  1.00  0.00     0.000 C 
BRANCH  18  19
ATOM     19  C   UNL     1      32.546   9.677  40.294  1.00  0.00     0.000 C 
BRANCH  19  20
ATOM     20  C   UNL     1      32.779  11.045  40.948  1.00  0.00     0.000 C 
BRANCH  20  21
ATOM     21  C   UNL     1      33.105  12.111  39.893  1.00  0.00     0.000 C 
BRANCH  21  22
ATOM     22  C   UNL     1      34.396  12.886  40.212  1.00  0.00    -0.000 C 
BRANCH  22  23
ATOM     23  C   UNL     1      35.102  12.464  41.518  1.00  0.00    -0.000 C 
BRANCH  23  24
ATOM     24  C   UNL     1      36.492  13.091  41.748  1.00  0.00    -0.000 C 
BRANCH  24  25
ATOM     25  C   UNL     1      36.616  13.946  43.023  1.00  0.00    -0.000 C 
BRANCH  25  26
ATOM     26  C   UNL     1      35.256  14.461  43.526  1.00  0.00    -0.000 C 
BRANCH  26  27
ATOM     27  C   UNL     1      35.361  15.842  44.195  1.00  0.00    -0.000 C 
BRANCH  27  28
ATOM     28  C   UNL     1      35.036  16.990  43.224  1.00  0.00    -0.000 C 
BRANCH  28  29
ATOM     29  C   UNL     1      35.142  18.371  43.887  1.00  0.00    -0.003 C 
ATOM     30  C   UNL     1      35.667  19.448  42.937  1.00  0.00     0.004 C 
ENDBRANCH  28  29
ENDBRANCH  27  28
ENDBRANCH  26  27
ENDBRANCH  25  26
ENDBRANCH  24  25
ENDBRANCH  23  24
ENDBRANCH  22  23
ENDBRANCH  21  22
ENDBRANCH  20  21
ENDBRANCH  19  20
ENDBRANCH  18  19
ENDBRANCH  17  18
ENDBRANCH   1  17
TORSDOF 26
ENDMDL
