MODEL 1
REMARK VINA RESULT:    -6.455      0.000      0.000
REMARK INTER + INTRA:          -8.179
REMARK INTER:                  -7.775
REMARK INTRA:                  -0.403
REMARK UNBOUND:                -0.403
REMARK SMILES O=c1c(O)c(-c2ccc(O)cc2O)oc2cc(O)cc(O)c12
REMARK SMILES IDX 5 1 3 2 2 3 1 4 22 5 20 6 19 7 17 8 16 9 15 10 14 11 6 12
REMARK SMILES IDX 8 13 7 14 9 15 11 16 12 17 10 18 13 20 4 22 21 24 18 26
REMARK H PARENT 10 19 13 21 4 23 21 25 18 27
REMARK Flexibility Score: inf
ROOT
ATOM      1  C   UNL     1      68.209  47.961   9.046  1.00  0.00     0.184 A 
ATOM      2  C   UNL     1      67.188  48.776   9.562  1.00  0.00     0.208 A 
ATOM      3  C   UNL     1      65.863  48.309   9.532  1.00  0.00     0.238 A 
ATOM      4  O   UNL     1      64.961  49.020  10.046  1.00  0.00    -0.285 OA
ATOM      5  C   UNL     1      65.576  47.042   8.969  1.00  0.00     0.111 A 
ATOM      6  C   UNL     1      64.266  46.487   8.849  1.00  0.00     0.134 A 
ATOM      7  C   UNL     1      64.113  45.172   8.393  1.00  0.00     0.093 A 
ATOM      8  C   UNL     1      65.217  44.417   7.989  1.00  0.00     0.123 A 
ATOM      9  C   UNL     1      66.493  44.971   8.046  1.00  0.00     0.094 A 
ATOM     10  C   UNL     1      66.681  46.268   8.532  1.00  0.00     0.146 A 
ATOM     11  O   UNL     1      67.916  46.752   8.581  1.00  0.00    -0.451 OA
ENDROOT
BRANCH   1  12
ATOM     12  C   UNL     1      69.624  48.401   9.025  1.00  0.00     0.063 A 
ATOM     13  C   UNL     1      71.793  48.581  10.115  1.00  0.00     0.047 A 
ATOM     14  C   UNL     1      70.466  48.141  10.121  1.00  0.00     0.020 A 
ATOM     15  C   UNL     1      72.293  49.293   9.022  1.00  0.00     0.119 A 
ATOM     16  C   UNL     1      71.459  49.570   7.932  1.00  0.00     0.093 A 
ATOM     17  C   UNL     1      70.126  49.130   7.929  1.00  0.00     0.130 A 
BRANCH  15  18
ATOM     18  O   UNL     1      73.617  49.726   9.031  1.00  0.00    -0.508 OA
ATOM     19  H   UNL     1      74.306  49.310   9.649  1.00  0.00     0.293 HD
ENDBRANCH  15  18
BRANCH  17  20
ATOM     20  O   UNL     1      69.308  49.407   6.834  1.00  0.00    -0.507 OA
ATOM     21  H   UNL     1      69.121  48.712   6.120  1.00  0.00     0.293 HD
ENDBRANCH  17  20
ENDBRANCH   1  12
BRANCH   2  22
ATOM     22  O   UNL     1      67.498  50.017  10.125  1.00  0.00    -0.502 OA
ATOM     23  H   UNL     1      68.438  50.266  10.406  1.00  0.00     0.293 HD
ENDBRANCH   2  22
BRANCH   6  24
ATOM     24  O   UNL     1      63.092  47.188   9.138  1.00  0.00    -0.507 OA
ATOM     25  H   UNL     1      62.426  46.928   9.850  1.00  0.00     0.293 HD
ENDBRANCH   6  24
BRANCH   8  26
ATOM     26  O   UNL     1      65.054  43.114   7.522  1.00  0.00    -0.508 OA
ATOM     27  H   UNL     1      65.318  42.853   6.579  1.00  0.00     0.293 HD
ENDBRANCH   8  26
TORSDOF 6
ENDMDL
MODEL 2
REMARK VINA RESULT:    -5.944      2.206      6.925
REMARK INTER + INTRA:          -7.564
REMARK INTER:                  -7.152
REMARK INTRA:                  -0.412
REMARK UNBOUND:                -0.403
REMARK SMILES O=c1c(O)c(-c2ccc(O)cc2O)oc2cc(O)cc(O)c12
REMARK SMILES IDX 5 1 3 2 2 3 1 4 22 5 20 6 19 7 17 8 16 9 15 10 14 11 6 12
REMARK SMILES IDX 8 13 7 14 9 15 11 16 12 17 10 18 13 20 4 22 21 24 18 26
REMARK H PARENT 10 19 13 21 4 23 21 25 18 27
REMARK Flexibility Score: inf
ROOT
ATOM      1  C   UNL     1      69.443  48.146   8.114  1.00  0.00     0.184 A 
ATOM      2  C   UNL     1      69.710  48.351   6.751  1.00  0.00     0.208 A 
ATOM      3  C   UNL     1      71.038  48.278   6.299  1.00  0.00     0.238 A 
ATOM      4  O   UNL     1      71.265  48.407   5.067  1.00  0.00    -0.285 OA
ATOM      5  C   UNL     1      72.082  48.020   7.219  1.00  0.00     0.111 A 
ATOM      6  C   UNL     1      73.468  47.964   6.879  1.00  0.00     0.134 A 
ATOM      7  C   UNL     1      74.401  47.576   7.848  1.00  0.00     0.093 A 
ATOM      8  C   UNL     1      74.007  47.306   9.160  1.00  0.00     0.123 A 
ATOM      9  C   UNL     1      72.665  47.415   9.517  1.00  0.00     0.094 A 
ATOM     10  C   UNL     1      71.705  47.765   8.563  1.00  0.00     0.146 A 
ATOM     11  O   UNL     1      70.436  47.846   8.943  1.00  0.00    -0.451 OA
ENDROOT
BRANCH   1  12
ATOM     12  C   UNL     1      68.069  48.232   8.662  1.00  0.00     0.063 A 
ATOM     13  C   UNL     1      65.812  47.339   8.844  1.00  0.00     0.047 A 
ATOM     14  C   UNL     1      67.116  47.245   8.352  1.00  0.00     0.020 A 
ATOM     15  C   UNL     1      65.437  48.423   9.642  1.00  0.00     0.119 A 
ATOM     16  C   UNL     1      66.374  49.419   9.945  1.00  0.00     0.093 A 
ATOM     17  C   UNL     1      67.687  49.331   9.457  1.00  0.00     0.130 A 
BRANCH  15  18
ATOM     18  O   UNL     1      64.133  48.504  10.125  1.00  0.00    -0.508 OA
ATOM     19  H   UNL     1      63.583  49.350  10.027  1.00  0.00     0.293 HD
ENDBRANCH  15  18
BRANCH  17  20
ATOM     20  O   UNL     1      68.612  50.326   9.772  1.00  0.00    -0.507 OA
ATOM     21  H   UNL     1      68.320  51.265  10.021  1.00  0.00     0.293 HD
ENDBRANCH  17  20
ENDBRANCH   1  12
BRANCH   2  22
ATOM     22  O   UNL     1      68.661  48.590   5.858  1.00  0.00    -0.502 OA
ATOM     23  H   UNL     1      68.807  49.010   4.948  1.00  0.00     0.293 HD
ENDBRANCH   2  22
BRANCH   6  24
ATOM     24  O   UNL     1      73.976  48.304   5.622  1.00  0.00    -0.507 OA
ATOM     25  H   UNL     1      73.458  48.254   4.758  1.00  0.00     0.293 HD
ENDBRANCH   6  24
BRANCH   8  26
ATOM     26  O   UNL     1      74.945  46.934  10.122  1.00  0.00    -0.508 OA
ATOM     27  H   UNL     1      75.856  46.575   9.862  1.00  0.00     0.293 HD
ENDBRANCH   8  26
TORSDOF 6
ENDMDL
MODEL 3
REMARK VINA RESULT:    -5.831      2.800      3.895
REMARK INTER + INTRA:          -7.428
REMARK INTER:                  -7.004
REMARK INTRA:                  -0.424
REMARK UNBOUND:                -0.403
REMARK SMILES O=c1c(O)c(-c2ccc(O)cc2O)oc2cc(O)cc(O)c12
REMARK SMILES IDX 5 1 3 2 2 3 1 4 22 5 20 6 19 7 17 8 16 9 15 10 14 11 6 12
REMARK SMILES IDX 8 13 7 14 9 15 11 16 12 17 10 18 13 20 4 22 21 24 18 26
REMARK H PARENT 10 19 13 21 4 23 21 25 18 27
REMARK Flexibility Score: inf
ROOT
ATOM      1  C   UNL     1      70.456  47.776   7.217  1.00  0.00     0.184 A 
ATOM      2  C   UNL     1      70.561  48.771   8.203  1.00  0.00     0.208 A 
ATOM      3  C   UNL     1      69.394  49.228   8.836  1.00  0.00     0.238 A 
ATOM      4  O   UNL     1      69.499  50.078   9.758  1.00  0.00    -0.285 OA
ATOM      5  C   UNL     1      68.135  48.699   8.459  1.00  0.00     0.111 A 
ATOM      6  C   UNL     1      66.884  49.117   9.005  1.00  0.00     0.134 A 
ATOM      7  C   UNL     1      65.713  48.435   8.650  1.00  0.00     0.093 A 
ATOM      8  C   UNL     1      65.741  47.393   7.720  1.00  0.00     0.123 A 
ATOM      9  C   UNL     1      66.949  47.017   7.137  1.00  0.00     0.094 A 
ATOM     10  C   UNL     1      68.139  47.654   7.499  1.00  0.00     0.146 A 
ATOM     11  O   UNL     1      69.269  47.256   6.929  1.00  0.00    -0.451 OA
ENDROOT
BRANCH   1  12
ATOM     12  C   UNL     1      71.644  47.265   6.494  1.00  0.00     0.063 A 
ATOM     13  C   UNL     1      73.697  45.957   6.470  1.00  0.00     0.047 A 
ATOM     14  C   UNL     1      72.561  46.416   7.141  1.00  0.00     0.020 A 
ATOM     15  C   UNL     1      73.940  46.345   5.149  1.00  0.00     0.119 A 
ATOM     16  C   UNL     1      73.042  47.201   4.501  1.00  0.00     0.093 A 
ATOM     17  C   UNL     1      71.897  47.666   5.166  1.00  0.00     0.130 A 
BRANCH  15  18
ATOM     18  O   UNL     1      75.077  45.879   4.494  1.00  0.00    -0.508 OA
ATOM     19  H   UNL     1      75.994  46.269   4.682  1.00  0.00     0.293 HD
ENDBRANCH  15  18
BRANCH  17  20
ATOM     20  O   UNL     1      71.007  48.512   4.506  1.00  0.00    -0.507 OA
ATOM     21  H   UNL     1      71.060  48.665   3.506  1.00  0.00     0.293 HD
ENDBRANCH  17  20
ENDBRANCH   1  12
BRANCH   2  22
ATOM     22  O   UNL     1      71.816  49.268   8.568  1.00  0.00    -0.502 OA
ATOM     23  H   UNL     1      72.187  50.133   8.195  1.00  0.00     0.293 HD
ENDBRANCH   2  22
BRANCH   6  24
ATOM     24  O   UNL     1      66.735  50.205   9.870  1.00  0.00    -0.507 OA
ATOM     25  H   UNL     1      66.139  51.000   9.698  1.00  0.00     0.293 HD
ENDBRANCH   6  24
BRANCH   8  26
ATOM     26  O   UNL     1      64.569  46.730   7.361  1.00  0.00    -0.508 OA
ATOM     27  H   UNL     1      63.660  47.162   7.476  1.00  0.00     0.293 HD
ENDBRANCH   8  26
TORSDOF 6
ENDMDL
MODEL 4
REMARK VINA RESULT:    -5.800      2.083      6.396
REMARK INTER + INTRA:          -7.391
REMARK INTER:                  -6.933
REMARK INTRA:                  -0.457
REMARK UNBOUND:                -0.403
REMARK SMILES O=c1c(O)c(-c2ccc(O)cc2O)oc2cc(O)cc(O)c12
REMARK SMILES IDX 5 1 3 2 2 3 1 4 22 5 20 6 19 7 17 8 16 9 15 10 14 11 6 12
REMARK SMILES IDX 8 13 7 14 9 15 11 16 12 17 10 18 13 20 4 22 21 24 18 26
REMARK H PARENT 10 19 13 21 4 23 21 25 18 27
REMARK Flexibility Score: inf
ROOT
ATOM      1  C   UNL     1      68.391  47.731   8.542  1.00  0.00     0.184 A 
ATOM      2  C   UNL     1      68.906  48.892   9.142  1.00  0.00     0.208 A 
ATOM      3  C   UNL     1      70.262  49.209   8.958  1.00  0.00     0.238 A 
ATOM      4  O   UNL     1      70.704  50.280   9.451  1.00  0.00    -0.285 OA
ATOM      5  C   UNL     1      71.088  48.351   8.193  1.00  0.00     0.111 A 
ATOM      6  C   UNL     1      72.485  48.554   7.974  1.00  0.00     0.134 A 
ATOM      7  C   UNL     1      73.175  47.710   7.095  1.00  0.00     0.093 A 
ATOM      8  C   UNL     1      72.534  46.633   6.479  1.00  0.00     0.123 A 
ATOM      9  C   UNL     1      71.187  46.392   6.732  1.00  0.00     0.094 A 
ATOM     10  C   UNL     1      70.462  47.238   7.575  1.00  0.00     0.146 A 
ATOM     11  O   UNL     1      69.176  46.979   7.780  1.00  0.00    -0.451 OA
ENDROOT
BRANCH   1  12
ATOM     12  C   UNL     1      66.977  47.325   8.714  1.00  0.00     0.063 A 
ATOM     13  C   UNL     1      65.184  46.475  10.124  1.00  0.00     0.047 A 
ATOM     14  C   UNL     1      66.510  46.885   9.966  1.00  0.00     0.020 A 
ATOM     15  C   UNL     1      64.309  46.487   9.035  1.00  0.00     0.119 A 
ATOM     16  C   UNL     1      64.767  46.909   7.781  1.00  0.00     0.093 A 
ATOM     17  C   UNL     1      66.096  47.325   7.614  1.00  0.00     0.130 A 
BRANCH  15  18
ATOM     18  O   UNL     1      62.990  46.074   9.208  1.00  0.00    -0.508 OA
ATOM     19  H   UNL     1      62.433  46.393   9.993  1.00  0.00     0.293 HD
ENDBRANCH  15  18
BRANCH  17  20
ATOM     20  O   UNL     1      66.538  47.750   6.361  1.00  0.00    -0.507 OA
ATOM     21  H   UNL     1      65.984  47.604   5.524  1.00  0.00     0.293 HD
ENDBRANCH  17  20
ENDBRANCH   1  12
BRANCH   2  22
ATOM     22  O   UNL     1      68.068  49.731   9.882  1.00  0.00    -0.502 OA
ATOM     23  H   UNL     1      67.704  50.600   9.511  1.00  0.00     0.293 HD
ENDBRANCH   2  22
BRANCH   6  24
ATOM     24  O   UNL     1      73.239  49.543   8.612  1.00  0.00    -0.507 OA
ATOM     25  H   UNL     1      72.892  50.455   8.869  1.00  0.00     0.293 HD
ENDBRANCH   6  24
BRANCH   8  26
ATOM     26  O   UNL     1      73.233  45.790   5.617  1.00  0.00    -0.508 OA
ATOM     27  H   UNL     1      72.817  45.446   4.759  1.00  0.00     0.293 HD
ENDBRANCH   8  26
TORSDOF 6
ENDMDL
MODEL 5
REMARK VINA RESULT:    -5.756      3.292      6.836
REMARK INTER + INTRA:          -7.337
REMARK INTER:                  -6.948
REMARK INTRA:                  -0.389
REMARK UNBOUND:                -0.403
REMARK SMILES O=c1c(O)c(-c2ccc(O)cc2O)oc2cc(O)cc(O)c12
REMARK SMILES IDX 5 1 3 2 2 3 1 4 22 5 20 6 19 7 17 8 16 9 15 10 14 11 6 12
REMARK SMILES IDX 8 13 7 14 9 15 11 16 12 17 10 18 13 20 4 22 21 24 18 26
REMARK H PARENT 10 19 13 21 4 23 21 25 18 27
REMARK Flexibility Score: inf
ROOT
ATOM      1  C   UNL     1      69.094  44.642   7.182  1.00  0.00     0.184 A 
ATOM      2  C   UNL     1      67.943  45.446   7.229  1.00  0.00     0.208 A 
ATOM      3  C   UNL     1      68.088  46.834   7.385  1.00  0.00     0.238 A 
ATOM      4  O   UNL     1      67.057  47.555   7.369  1.00  0.00    -0.285 OA
ATOM      5  C   UNL     1      69.381  47.397   7.514  1.00  0.00     0.111 A 
ATOM      6  C   UNL     1      69.644  48.786   7.717  1.00  0.00     0.134 A 
ATOM      7  C   UNL     1      70.966  49.247   7.702  1.00  0.00     0.093 A 
ATOM      8  C   UNL     1      72.036  48.361   7.557  1.00  0.00     0.123 A 
ATOM      9  C   UNL     1      71.793  46.997   7.417  1.00  0.00     0.094 A 
ATOM     10  C   UNL     1      70.482  46.511   7.391  1.00  0.00     0.146 A 
ATOM     11  O   UNL     1      70.294  45.205   7.244  1.00  0.00    -0.451 OA
ENDROOT
BRANCH   1  12
ATOM     12  C   UNL     1      69.012  43.169   7.042  1.00  0.00     0.063 A 
ATOM     13  C   UNL     1      68.299  41.006   7.901  1.00  0.00     0.047 A 
ATOM     14  C   UNL     1      68.353  42.397   8.016  1.00  0.00     0.020 A 
ATOM     15  C   UNL     1      68.911  40.365   6.820  1.00  0.00     0.119 A 
ATOM     16  C   UNL     1      69.582  41.123   5.852  1.00  0.00     0.093 A 
ATOM     17  C   UNL     1      69.639  42.521   5.959  1.00  0.00     0.130 A 
BRANCH  15  18
ATOM     18  O   UNL     1      68.849  38.977   6.719  1.00  0.00    -0.508 OA
ATOM     19  H   UNL     1      68.101  38.515   6.215  1.00  0.00     0.293 HD
ENDBRANCH  15  18
BRANCH  17  20
ATOM     20  O   UNL     1      70.305  43.264   4.985  1.00  0.00    -0.507 OA
ATOM     21  H   UNL     1      70.079  43.175   4.001  1.00  0.00     0.293 HD
ENDBRANCH  17  20
ENDBRANCH   1  12
BRANCH   2  22
ATOM     22  O   UNL     1      66.678  44.869   7.086  1.00  0.00    -0.502 OA
ATOM     23  H   UNL     1      66.351  44.488   6.206  1.00  0.00     0.293 HD
ENDBRANCH   2  22
BRANCH   6  24
ATOM     24  O   UNL     1      68.653  49.740   7.963  1.00  0.00    -0.507 OA
ATOM     25  H   UNL     1      68.278  50.372   7.272  1.00  0.00     0.293 HD
ENDBRANCH   6  24
BRANCH   8  26
ATOM     26  O   UNL     1      73.350  48.827   7.558  1.00  0.00    -0.508 OA
ATOM     27  H   UNL     1      74.004  48.569   6.828  1.00  0.00     0.293 HD
ENDBRANCH   8  26
TORSDOF 6
ENDMDL
MODEL 6
REMARK VINA RESULT:    -5.708      2.052      7.287
REMARK INTER + INTRA:          -7.279
REMARK INTER:                  -6.888
REMARK INTRA:                  -0.391
REMARK UNBOUND:                -0.403
REMARK SMILES O=c1c(O)c(-c2ccc(O)cc2O)oc2cc(O)cc(O)c12
REMARK SMILES IDX 5 1 3 2 2 3 1 4 22 5 20 6 19 7 17 8 16 9 15 10 14 11 6 12
REMARK SMILES IDX 8 13 7 14 9 15 11 16 12 17 10 18 13 20 4 22 21 24 18 26
REMARK H PARENT 10 19 13 21 4 23 21 25 18 27
REMARK Flexibility Score: inf
ROOT
ATOM      1  C   UNL     1      65.906  45.312   8.565  1.00  0.00     0.184 A 
ATOM      2  C   UNL     1      67.081  44.839   7.957  1.00  0.00     0.208 A 
ATOM      3  C   UNL     1      68.185  45.700   7.847  1.00  0.00     0.238 A 
ATOM      4  O   UNL     1      69.253  45.253   7.352  1.00  0.00    -0.285 OA
ATOM      5  C   UNL     1      68.092  47.029   8.328  1.00  0.00     0.111 A 
ATOM      6  C   UNL     1      69.134  48.000   8.232  1.00  0.00     0.134 A 
ATOM      7  C   UNL     1      68.978  49.244   8.857  1.00  0.00     0.093 A 
ATOM      8  C   UNL     1      67.792  49.574   9.516  1.00  0.00     0.123 A 
ATOM      9  C   UNL     1      66.747  48.656   9.564  1.00  0.00     0.094 A 
ATOM     10  C   UNL     1      66.887  47.392   8.982  1.00  0.00     0.146 A 
ATOM     11  O   UNL     1      65.870  46.543   9.061  1.00  0.00    -0.451 OA
ENDROOT
BRANCH   1  12
ATOM     12  C   UNL     1      64.698  44.464   8.693  1.00  0.00     0.063 A 
ATOM     13  C   UNL     1      63.583  42.507   9.615  1.00  0.00     0.047 A 
ATOM     14  C   UNL     1      64.712  43.323   9.515  1.00  0.00     0.020 A 
ATOM     15  C   UNL     1      62.428  42.810   8.888  1.00  0.00     0.119 A 
ATOM     16  C   UNL     1      62.408  43.936   8.055  1.00  0.00     0.093 A 
ATOM     17  C   UNL     1      63.537  44.762   7.951  1.00  0.00     0.130 A 
BRANCH  15  18
ATOM     18  O   UNL     1      61.311  41.986   8.997  1.00  0.00    -0.508 OA
ATOM     19  H   UNL     1      61.301  41.052   8.604  1.00  0.00     0.293 HD
ENDBRANCH  15  18
BRANCH  17  20
ATOM     20  O   UNL     1      63.501  45.884   7.123  1.00  0.00    -0.507 OA
ATOM     21  H   UNL     1      62.628  46.342   6.884  1.00  0.00     0.293 HD
ENDBRANCH  17  20
ENDBRANCH   1  12
BRANCH   2  22
ATOM     22  O   UNL     1      67.153  43.519   7.502  1.00  0.00    -0.502 OA
ATOM     23  H   UNL     1      67.104  43.280   6.519  1.00  0.00     0.293 HD
ENDBRANCH   2  22
BRANCH   6  24
ATOM     24  O   UNL     1      70.320  47.804   7.519  1.00  0.00    -0.507 OA
ATOM     25  H   UNL     1      70.373  47.467   6.570  1.00  0.00     0.293 HD
ENDBRANCH   6  24
BRANCH   8  26
ATOM     26  O   UNL     1      67.639  50.820  10.121  1.00  0.00    -0.508 OA
ATOM     27  H   UNL     1      68.167  51.076  10.948  1.00  0.00     0.293 HD
ENDBRANCH   8  26
TORSDOF 6
ENDMDL
MODEL 7
REMARK VINA RESULT:    -5.666      4.895      8.592
REMARK INTER + INTRA:          -7.229
REMARK INTER:                  -6.826
REMARK INTRA:                  -0.402
REMARK UNBOUND:                -0.403
REMARK SMILES O=c1c(O)c(-c2ccc(O)cc2O)oc2cc(O)cc(O)c12
REMARK SMILES IDX 5 1 3 2 2 3 1 4 22 5 20 6 19 7 17 8 16 9 15 10 14 11 6 12
REMARK SMILES IDX 8 13 7 14 9 15 11 16 12 17 10 18 13 20 4 22 21 24 18 26
REMARK H PARENT 10 19 13 21 4 23 21 25 18 27
REMARK Flexibility Score: inf
ROOT
ATOM      1  C   UNL     1      71.440  43.995   6.422  1.00  0.00     0.184 A 
ATOM      2  C   UNL     1      71.868  44.241   5.106  1.00  0.00     0.208 A 
ATOM      3  C   UNL     1      72.608  45.404   4.837  1.00  0.00     0.238 A 
ATOM      4  O   UNL     1      73.037  45.590   3.669  1.00  0.00    -0.285 OA
ATOM      5  C   UNL     1      72.892  46.315   5.883  1.00  0.00     0.111 A 
ATOM      6  C   UNL     1      73.599  47.545   5.717  1.00  0.00     0.134 A 
ATOM      7  C   UNL     1      73.934  48.306   6.844  1.00  0.00     0.093 A 
ATOM      8  C   UNL     1      73.531  47.914   8.123  1.00  0.00     0.123 A 
ATOM      9  C   UNL     1      72.790  46.747   8.289  1.00  0.00     0.094 A 
ATOM     10  C   UNL     1      72.472  45.948   7.188  1.00  0.00     0.146 A 
ATOM     11  O   UNL     1      71.775  44.837   7.392  1.00  0.00    -0.451 OA
ENDROOT
BRANCH   1  12
ATOM     12  C   UNL     1      70.636  42.800   6.771  1.00  0.00     0.063 A 
ATOM     13  C   UNL     1      70.513  40.452   7.401  1.00  0.00     0.047 A 
ATOM     14  C   UNL     1      71.269  41.587   7.099  1.00  0.00     0.020 A 
ATOM     15  C   UNL     1      69.117  40.507   7.368  1.00  0.00     0.119 A 
ATOM     16  C   UNL     1      68.477  41.705   7.027  1.00  0.00     0.093 A 
ATOM     17  C   UNL     1      69.229  42.851   6.726  1.00  0.00     0.130 A 
BRANCH  15  18
ATOM     18  O   UNL     1      68.377  39.366   7.670  1.00  0.00    -0.508 OA
ATOM     19  H   UNL     1      67.841  39.294   8.527  1.00  0.00     0.293 HD
ENDBRANCH  15  18
BRANCH  17  20
ATOM     20  O   UNL     1      68.578  44.039   6.395  1.00  0.00    -0.507 OA
ATOM     21  H   UNL     1      67.567  44.104   6.373  1.00  0.00     0.293 HD
ENDBRANCH  17  20
ENDBRANCH   1  12
BRANCH   2  22
ATOM     22  O   UNL     1      71.587  43.319   4.093  1.00  0.00    -0.502 OA
ATOM     23  H   UNL     1      70.677  43.257   3.653  1.00  0.00     0.293 HD
ENDBRANCH   2  22
BRANCH   6  24
ATOM     24  O   UNL     1      73.968  48.071   4.476  1.00  0.00    -0.507 OA
ATOM     25  H   UNL     1      73.980  49.053   4.248  1.00  0.00     0.293 HD
ENDBRANCH   6  24
BRANCH   8  26
ATOM     26  O   UNL     1      73.856  48.686   9.237  1.00  0.00    -0.508 OA
ATOM     27  H   UNL     1      73.414  49.582   9.408  1.00  0.00     0.293 HD
ENDBRANCH   8  26
TORSDOF 6
ENDMDL
MODEL 8
REMARK VINA RESULT:    -5.658      1.657      3.060
REMARK INTER + INTRA:          -7.219
REMARK INTER:                  -6.770
REMARK INTRA:                  -0.449
REMARK UNBOUND:                -0.403
REMARK SMILES O=c1c(O)c(-c2ccc(O)cc2O)oc2cc(O)cc(O)c12
REMARK SMILES IDX 5 1 3 2 2 3 1 4 22 5 20 6 19 7 17 8 16 9 15 10 14 11 6 12
REMARK SMILES IDX 8 13 7 14 9 15 11 16 12 17 10 18 13 20 4 22 21 24 18 26
REMARK H PARENT 10 19 13 21 4 23 21 25 18 27
REMARK Flexibility Score: inf
ROOT
ATOM      1  C   UNL     1      68.416  46.797   7.991  1.00  0.00     0.184 A 
ATOM      2  C   UNL     1      68.702  45.421   7.961  1.00  0.00     0.208 A 
ATOM      3  C   UNL     1      67.638  44.505   7.942  1.00  0.00     0.238 A 
ATOM      4  O   UNL     1      67.900  43.277   7.858  1.00  0.00    -0.285 OA
ATOM      5  C   UNL     1      66.303  44.976   7.973  1.00  0.00     0.111 A 
ATOM      6  C   UNL     1      65.148  44.136   7.997  1.00  0.00     0.134 A 
ATOM      7  C   UNL     1      63.875  44.711   7.898  1.00  0.00     0.093 A 
ATOM      8  C   UNL     1      63.714  46.097   7.842  1.00  0.00     0.123 A 
ATOM      9  C   UNL     1      64.831  46.927   7.877  1.00  0.00     0.094 A 
ATOM     10  C   UNL     1      66.117  46.382   7.939  1.00  0.00     0.146 A 
ATOM     11  O   UNL     1      67.155  47.208   7.958  1.00  0.00    -0.451 OA
ENDROOT
BRANCH   1  12
ATOM     12  C   UNL     1      69.491  47.816   8.037  1.00  0.00     0.063 A 
ATOM     13  C   UNL     1      71.302  48.919   9.231  1.00  0.00     0.047 A 
ATOM     14  C   UNL     1      70.308  47.939   9.175  1.00  0.00     0.020 A 
ATOM     15  C   UNL     1      71.488  49.795   8.158  1.00  0.00     0.119 A 
ATOM     16  C   UNL     1      70.671  49.691   7.026  1.00  0.00     0.093 A 
ATOM     17  C   UNL     1      69.671  48.709   6.961  1.00  0.00     0.130 A 
BRANCH  15  18
ATOM     18  O   UNL     1      72.483  50.767   8.230  1.00  0.00    -0.508 OA
ATOM     19  H   UNL     1      73.448  50.556   7.999  1.00  0.00     0.293 HD
ENDBRANCH  15  18
BRANCH  17  20
ATOM     20  O   UNL     1      68.868  48.612   5.825  1.00  0.00    -0.507 OA
ATOM     21  H   UNL     1      68.197  49.332   5.584  1.00  0.00     0.293 HD
ENDBRANCH  17  20
ENDBRANCH   1  12
BRANCH   2  22
ATOM     22  O   UNL     1      70.028  44.981   7.917  1.00  0.00    -0.502 OA
ATOM     23  H   UNL     1      70.583  44.841   8.753  1.00  0.00     0.293 HD
ENDBRANCH   2  22
BRANCH   6  24
ATOM     24  O   UNL     1      65.197  42.747   8.143  1.00  0.00    -0.507 OA
ATOM     25  H   UNL     1      64.639  42.093   7.616  1.00  0.00     0.293 HD
ENDBRANCH   6  24
BRANCH   8  26
ATOM     26  O   UNL     1      62.442  46.662   7.759  1.00  0.00    -0.508 OA
ATOM     27  H   UNL     1      62.009  47.112   8.557  1.00  0.00     0.293 HD
ENDBRANCH   8  26
TORSDOF 6
ENDMDL
MODEL 9
REMARK VINA RESULT:    -5.632      2.060      6.971
REMARK INTER + INTRA:          -7.188
REMARK INTER:                  -7.208
REMARK INTRA:                   0.020
REMARK UNBOUND:                -0.403
REMARK SMILES O=c1c(O)c(-c2ccc(O)cc2O)oc2cc(O)cc(O)c12
REMARK SMILES IDX 5 1 3 2 2 3 1 4 22 5 20 6 19 7 17 8 16 9 15 10 14 11 6 12
REMARK SMILES IDX 8 13 7 14 9 15 11 16 12 17 10 18 13 20 4 22 21 24 18 26
REMARK H PARENT 10 19 13 21 4 23 21 25 18 27
REMARK Flexibility Score: inf
ROOT
ATOM      1  C   UNL     1      64.739  45.930   8.952  1.00  0.00     0.184 A 
ATOM      2  C   UNL     1      64.512  47.184   9.544  1.00  0.00     0.208 A 
ATOM      3  C   UNL     1      65.534  48.147   9.511  1.00  0.00     0.238 A 
ATOM      4  O   UNL     1      65.305  49.287   9.993  1.00  0.00    -0.285 OA
ATOM      5  C   UNL     1      66.776  47.836   8.906  1.00  0.00     0.111 A 
ATOM      6  C   UNL     1      67.895  48.720   8.851  1.00  0.00     0.134 A 
ATOM      7  C   UNL     1      69.029  48.355   8.114  1.00  0.00     0.093 A 
ATOM      8  C   UNL     1      69.108  47.109   7.487  1.00  0.00     0.123 A 
ATOM      9  C   UNL     1      68.045  46.215   7.584  1.00  0.00     0.094 A 
ATOM     10  C   UNL     1      66.886  46.567   8.281  1.00  0.00     0.146 A 
ATOM     11  O   UNL     1      65.891  45.689   8.338  1.00  0.00    -0.451 OA
ENDROOT
BRANCH   1  12
ATOM     12  C   UNL     1      63.713  44.861   8.971  1.00  0.00     0.063 A 
ATOM     13  C   UNL     1      61.934  43.666  10.125  1.00  0.00     0.047 A 
ATOM     14  C   UNL     1      62.882  44.691  10.094  1.00  0.00     0.020 A 
ATOM     15  C   UNL     1      61.808  42.790   9.044  1.00  0.00     0.119 A 
ATOM     16  C   UNL     1      62.641  42.940   7.928  1.00  0.00     0.093 A 
ATOM     17  C   UNL     1      63.594  43.969   7.887  1.00  0.00     0.130 A 
BRANCH  15  18
ATOM     18  O   UNL     1      60.859  41.772   9.091  1.00  0.00    -0.508 OA
ATOM     19  H   UNL     1      61.089  40.848   9.438  1.00  0.00     0.293 HD
ENDBRANCH  15  18
BRANCH  17  20
ATOM     20  O   UNL     1      64.412  44.111   6.766  1.00  0.00    -0.507 OA
ATOM     21  H   UNL     1      64.899  44.978   6.569  1.00  0.00     0.293 HD
ENDBRANCH  17  20
ENDBRANCH   1  12
BRANCH   2  22
ATOM     22  O   UNL     1      63.274  47.472  10.124  1.00  0.00    -0.502 OA
ATOM     23  H   UNL     1      62.616  46.749  10.389  1.00  0.00     0.293 HD
ENDBRANCH   2  22
BRANCH   6  24
ATOM     24  O   UNL     1      67.953  49.947   9.518  1.00  0.00    -0.507 OA
ATOM     25  H   UNL     1      68.277  50.073  10.465  1.00  0.00     0.293 HD
ENDBRANCH   6  24
BRANCH   8  26
ATOM     26  O   UNL     1      70.247  46.747   6.769  1.00  0.00    -0.508 OA
ATOM     27  H   UNL     1      71.029  46.282   7.215  1.00  0.00     0.293 HD
ENDBRANCH   8  26
TORSDOF 6
ENDMDL
