MODEL 1
REMARK VINA RESULT:    -3.692      0.000      0.000
REMARK INTER + INTRA:          -6.905
REMARK INTER:                  -5.419
REMARK INTRA:                  -1.486
REMARK UNBOUND:                -1.486
REMARK SMILES O=c1c(O[C@@H]2O[C@H](CO)[C@H](O)[C@H](O)[C@@H]2O)c(-c2ccc(O)c(O)c2)oc2cc(O)cc(O)c12
REMARK SMILES IDX 4 1 3 2 16 3 25 4 2 5 26 6 1 7 33 8 27 9 31 10 28 11 30 12
REMARK SMILES IDX 17 13 18 14 19 15 20 16 24 17 22 18 21 19 23 21 32 23 29 25
REMARK SMILES IDX 5 27 14 28 6 29 12 30 7 31 10 32 15 33 13 35 8 37 9 38 11 40
REMARK H PARENT 21 20 23 22 32 24 29 26 15 34 13 36 9 39 11 41
REMARK Flexibility Score: inf
ROOT
ATOM      1  O   UNL     1     -20.710  26.639  21.002  1.00  0.00    -0.454 OA
ENDROOT
BRANCH   1   2
ATOM      2  C   UNL     1     -19.570  25.856  21.230  1.00  0.00     0.214 A 
ATOM      3  C   UNL     1     -19.346  24.645  20.542  1.00  0.00     0.180 A 
ATOM      4  O   UNL     1     -18.296  23.891  20.857  1.00  0.00    -0.452 OA
ATOM      5  C   UNL     1     -18.625  26.283  22.169  1.00  0.00     0.239 A 
ATOM      6  C   UNL     1     -17.400  24.238  21.773  1.00  0.00     0.146 A 
ATOM      7  O   UNL     1     -18.793  27.389  22.750  1.00  0.00    -0.285 OA
ATOM      8  C   UNL     1     -17.514  25.466  22.464  1.00  0.00     0.111 A 
ATOM      9  C   UNL     1     -16.329  23.378  22.038  1.00  0.00     0.094 A 
ATOM     10  C   UNL     1     -16.531  25.815  23.421  1.00  0.00     0.134 A 
ATOM     11  C   UNL     1     -15.361  23.727  22.985  1.00  0.00     0.123 A 
ATOM     12  C   UNL     1     -15.463  24.940  23.670  1.00  0.00     0.093 A 
BRANCH   3  13
ATOM     13  C   UNL     1     -20.231  24.181  19.450  1.00  0.00     0.025 A 
ATOM     14  C   UNL     1     -21.506  23.667  19.724  1.00  0.00     0.016 A 
ATOM     15  C   UNL     1     -22.330  23.237  18.683  1.00  0.00     0.051 A 
ATOM     16  C   UNL     1     -21.907  23.328  17.354  1.00  0.00     0.157 A 
ATOM     17  C   UNL     1     -19.811  24.298  18.118  1.00  0.00     0.062 A 
ATOM     18  C   UNL     1     -20.632  23.871  17.066  1.00  0.00     0.158 A 
BRANCH  16  19
ATOM     19  O   UNL     1     -22.777  22.875  16.358  1.00  0.00    -0.504 OA
ATOM     20  H   UNL     1     -23.208  21.963  16.358  1.00  0.00     0.293 HD
ENDBRANCH  16  19
BRANCH  18  21
ATOM     21  O   UNL     1     -20.145  24.005  15.764  1.00  0.00    -0.504 OA
ATOM     22  H   UNL     1     -20.570  23.574  14.954  1.00  0.00     0.293 HD
ENDBRANCH  18  21
ENDBRANCH   3  13
BRANCH  10  23
ATOM     23  O   UNL     1     -16.607  27.017  24.124  1.00  0.00    -0.507 OA
ATOM     24  H   UNL     1     -17.492  27.482  24.292  1.00  0.00     0.293 HD
ENDBRANCH  10  23
BRANCH  11  25
ATOM     25  O   UNL     1     -14.292  22.875  23.253  1.00  0.00    -0.508 OA
ATOM     26  H   UNL     1     -13.463  23.201  23.736  1.00  0.00     0.293 HD
ENDBRANCH  11  25
ENDBRANCH   1   2
BRANCH   1  27
ATOM     27  C   UNL     1     -22.011  26.287  21.482  1.00  0.00     0.339 C 
ATOM     28  C   UNL     1     -22.311  26.937  22.846  1.00  0.00     0.214 C 
ATOM     29  O   UNL     1     -23.006  26.581  20.515  1.00  0.00    -0.332 OA
ATOM     30  C   UNL     1     -22.444  28.458  22.713  1.00  0.00     0.180 C 
ATOM     31  C   UNL     1     -23.228  27.970  20.297  1.00  0.00     0.179 C 
ATOM     32  C   UNL     1     -23.446  28.796  21.597  1.00  0.00     0.177 C 
BRANCH  28  33
ATOM     33  O   UNL     1     -21.306  26.624  23.777  1.00  0.00    -0.384 OA
ATOM     34  H   UNL     1     -20.822  25.833  23.422  1.00  0.00     0.211 HD
ENDBRANCH  28  33
BRANCH  30  35
ATOM     35  O   UNL     1     -21.198  29.055  22.457  1.00  0.00    -0.387 OA
ATOM     36  H   UNL     1     -20.996  29.652  23.226  1.00  0.00     0.211 HD
ENDBRANCH  30  35
BRANCH  31  37
ATOM     37  C   UNL     1     -22.262  28.572  19.250  1.00  0.00     0.191 C 
BRANCH  37  38
ATOM     38  O   UNL     1     -21.096  29.078  19.832  1.00  0.00    -0.394 OA
ATOM     39  H   UNL     1     -20.964  29.983  19.447  1.00  0.00     0.210 HD
ENDBRANCH  37  38
ENDBRANCH  31  37
BRANCH  32  40
ATOM     40  O   UNL     1     -23.426  30.172  21.312  1.00  0.00    -0.387 OA
ATOM     41  H   UNL     1     -24.353  30.428  21.062  1.00  0.00     0.211 HD
ENDBRANCH  32  40
ENDBRANCH   1  27
TORSDOF 12
ENDMDL
MODEL 2
REMARK VINA RESULT:    -3.485      1.930      6.524
REMARK INTER + INTRA:          -6.601
REMARK INTER:                  -5.065
REMARK INTRA:                  -1.537
REMARK UNBOUND:                -1.486
REMARK SMILES O=c1c(O[C@@H]2O[C@H](CO)[C@H](O)[C@H](O)[C@@H]2O)c(-c2ccc(O)c(O)c2)oc2cc(O)cc(O)c12
REMARK SMILES IDX 4 1 3 2 16 3 25 4 2 5 26 6 1 7 33 8 27 9 31 10 28 11 30 12
REMARK SMILES IDX 17 13 18 14 19 15 20 16 24 17 22 18 21 19 23 21 32 23 29 25
REMARK SMILES IDX 5 27 14 28 6 29 12 30 7 31 10 32 15 33 13 35 8 37 9 38 11 40
REMARK H PARENT 21 20 23 22 32 24 29 26 15 34 13 36 9 39 11 41
REMARK Flexibility Score: inf
ROOT
ATOM      1  O   UNL     1     -21.430  25.634  19.477  1.00  0.00    -0.454 OA
ENDROOT
BRANCH   1   2
ATOM      2  C   UNL     1     -21.321  26.816  20.222  1.00  0.00     0.214 A 
ATOM      3  C   UNL     1     -20.418  26.940  21.299  1.00  0.00     0.180 A 
ATOM      4  O   UNL     1     -20.416  28.048  22.035  1.00  0.00    -0.452 OA
ATOM      5  C   UNL     1     -22.134  27.907  19.895  1.00  0.00     0.239 A 
ATOM      6  C   UNL     1     -21.201  29.089  21.785  1.00  0.00     0.146 A 
ATOM      7  O   UNL     1     -22.907  27.821  18.902  1.00  0.00    -0.285 OA
ATOM      8  C   UNL     1     -22.092  29.073  20.686  1.00  0.00     0.111 A 
ATOM      9  C   UNL     1     -21.129  30.211  22.616  1.00  0.00     0.094 A 
ATOM     10  C   UNL     1     -22.902  30.206  20.436  1.00  0.00     0.134 A 
ATOM     11  C   UNL     1     -21.933  31.328  22.366  1.00  0.00     0.123 A 
ATOM     12  C   UNL     1     -22.812  31.324  21.281  1.00  0.00     0.093 A 
BRANCH   3  13
ATOM     13  C   UNL     1     -19.441  25.881  21.636  1.00  0.00     0.025 A 
ATOM     14  C   UNL     1     -18.166  25.862  21.052  1.00  0.00     0.016 A 
ATOM     15  C   UNL     1     -17.255  24.859  21.383  1.00  0.00     0.051 A 
ATOM     16  C   UNL     1     -17.589  23.869  22.312  1.00  0.00     0.157 A 
ATOM     17  C   UNL     1     -19.773  24.905  22.587  1.00  0.00     0.062 A 
ATOM     18  C   UNL     1     -18.864  23.895  22.927  1.00  0.00     0.158 A 
BRANCH  16  19
ATOM     19  O   UNL     1     -16.635  22.889  22.596  1.00  0.00    -0.504 OA
ATOM     20  H   UNL     1     -15.860  22.664  21.990  1.00  0.00     0.293 HD
ENDBRANCH  16  19
BRANCH  18  21
ATOM     21  O   UNL     1     -19.266  22.949  23.872  1.00  0.00    -0.504 OA
ATOM     22  H   UNL     1     -20.055  22.329  23.750  1.00  0.00     0.293 HD
ENDBRANCH  18  21
ENDBRANCH   3  13
BRANCH  10  23
ATOM     23  O   UNL     1     -23.792  30.231  19.363  1.00  0.00    -0.507 OA
ATOM     24  H   UNL     1     -24.755  30.527  19.474  1.00  0.00     0.293 HD
ENDBRANCH  10  23
BRANCH  11  25
ATOM     25  O   UNL     1     -21.865  32.450  23.189  1.00  0.00    -0.508 OA
ATOM     26  H   UNL     1     -22.435  32.530  24.024  1.00  0.00     0.293 HD
ENDBRANCH  11  25
ENDBRANCH   1   2
BRANCH   1  27
ATOM     27  C   UNL     1     -21.969  24.420  20.007  1.00  0.00     0.339 C 
ATOM     28  C   UNL     1     -23.495  24.339  19.811  1.00  0.00     0.214 C 
ATOM     29  O   UNL     1     -21.297  23.290  19.474  1.00  0.00    -0.332 OA
ATOM     30  C   UNL     1     -23.852  24.201  18.327  1.00  0.00     0.180 C 
ATOM     31  C   UNL     1     -21.547  23.049  18.094  1.00  0.00     0.179 C 
ATOM     32  C   UNL     1     -23.054  23.042  17.707  1.00  0.00     0.177 C 
BRANCH  28  33
ATOM     33  O   UNL     1     -24.125  25.473  20.351  1.00  0.00    -0.384 OA
ATOM     34  H   UNL     1     -24.987  25.579  19.869  1.00  0.00     0.211 HD
ENDBRANCH  28  33
BRANCH  30  35
ATOM     35  O   UNL     1     -23.606  25.398  17.633  1.00  0.00    -0.387 OA
ATOM     36  H   UNL     1     -24.415  25.592  17.090  1.00  0.00     0.211 HD
ENDBRANCH  30  35
BRANCH  31  37
ATOM     37  C   UNL     1     -20.601  23.847  17.168  1.00  0.00     0.191 C 
BRANCH  37  38
ATOM     38  O   UNL     1     -19.433  24.252  17.821  1.00  0.00    -0.394 OA
ATOM     39  H   UNL     1     -18.880  23.435  17.934  1.00  0.00     0.210 HD
ENDBRANCH  37  38
ENDBRANCH  31  37
BRANCH  32  40
ATOM     40  O   UNL     1     -23.201  23.029  16.309  1.00  0.00    -0.387 OA
ATOM     41  H   UNL     1     -22.688  22.248  15.973  1.00  0.00     0.211 HD
ENDBRANCH  32  40
ENDBRANCH   1  27
TORSDOF 12
ENDMDL
MODEL 3
REMARK VINA RESULT:    -3.406      2.356      6.358
REMARK INTER + INTRA:          -6.485
REMARK INTER:                  -5.206
REMARK INTRA:                  -1.279
REMARK UNBOUND:                -1.486
REMARK SMILES O=c1c(O[C@@H]2O[C@H](CO)[C@H](O)[C@H](O)[C@@H]2O)c(-c2ccc(O)c(O)c2)oc2cc(O)cc(O)c12
REMARK SMILES IDX 4 1 3 2 16 3 25 4 2 5 26 6 1 7 33 8 27 9 31 10 28 11 30 12
REMARK SMILES IDX 17 13 18 14 19 15 20 16 24 17 22 18 21 19 23 21 32 23 29 25
REMARK SMILES IDX 5 27 14 28 6 29 12 30 7 31 10 32 15 33 13 35 8 37 9 38 11 40
REMARK H PARENT 21 20 23 22 32 24 29 26 15 34 13 36 9 39 11 41
REMARK Flexibility Score: inf
ROOT
ATOM      1  O   UNL     1     -20.132  27.252  21.851  1.00  0.00    -0.454 OA
ENDROOT
BRANCH   1   2
ATOM      2  C   UNL     1     -21.014  28.303  21.561  1.00  0.00     0.214 A 
ATOM      3  C   UNL     1     -22.216  28.095  20.852  1.00  0.00     0.180 A 
ATOM      4  O   UNL     1     -22.975  29.136  20.521  1.00  0.00    -0.452 OA
ATOM      5  C   UNL     1     -20.694  29.598  21.983  1.00  0.00     0.239 A 
ATOM      6  C   UNL     1     -22.686  30.386  20.863  1.00  0.00     0.146 A 
ATOM      7  O   UNL     1     -19.647  29.784  22.660  1.00  0.00    -0.285 OA
ATOM      8  C   UNL     1     -21.532  30.675  21.628  1.00  0.00     0.111 A 
ATOM      9  C   UNL     1     -23.545  31.416  20.467  1.00  0.00     0.094 A 
ATOM     10  C   UNL     1     -21.263  32.017  21.992  1.00  0.00     0.134 A 
ATOM     11  C   UNL     1     -23.273  32.740  20.828  1.00  0.00     0.123 A 
ATOM     12  C   UNL     1     -22.139  33.035  21.587  1.00  0.00     0.093 A 
BRANCH   3  13
ATOM     13  C   UNL     1     -22.687  26.744  20.476  1.00  0.00     0.025 A 
ATOM     14  C   UNL     1     -23.524  26.008  21.326  1.00  0.00     0.016 A 
ATOM     15  C   UNL     1     -23.963  24.736  20.955  1.00  0.00     0.051 A 
ATOM     16  C   UNL     1     -23.591  24.184  19.725  1.00  0.00     0.157 A 
ATOM     17  C   UNL     1     -22.332  26.206  19.231  1.00  0.00     0.062 A 
ATOM     18  C   UNL     1     -22.769  24.931  18.848  1.00  0.00     0.158 A 
BRANCH  16  19
ATOM     19  O   UNL     1     -24.059  22.905  19.416  1.00  0.00    -0.504 OA
ATOM     20  H   UNL     1     -23.462  22.102  19.285  1.00  0.00     0.293 HD
ENDBRANCH  16  19
BRANCH  18  21
ATOM     21  O   UNL     1     -22.366  24.451  17.600  1.00  0.00    -0.504 OA
ATOM     22  H   UNL     1     -22.079  23.498  17.427  1.00  0.00     0.293 HD
ENDBRANCH  18  21
ENDBRANCH   3  13
BRANCH  10  23
ATOM     23  O   UNL     1     -20.137  32.344  22.748  1.00  0.00    -0.507 OA
ATOM     24  H   UNL     1     -19.326  31.738  22.786  1.00  0.00     0.293 HD
ENDBRANCH  10  23
BRANCH  11  25
ATOM     25  O   UNL     1     -24.125  33.771  20.437  1.00  0.00    -0.508 OA
ATOM     26  H   UNL     1     -25.110  33.608  20.265  1.00  0.00     0.293 HD
ENDBRANCH  11  25
ENDBRANCH   1   2
BRANCH   1  27
ATOM     27  C   UNL     1     -20.315  26.357  22.951  1.00  0.00     0.339 C 
ATOM     28  C   UNL     1     -19.851  24.929  22.608  1.00  0.00     0.214 C 
ATOM     29  O   UNL     1     -19.692  26.859  24.123  1.00  0.00    -0.332 OA
ATOM     30  C   UNL     1     -18.330  24.873  22.428  1.00  0.00     0.180 C 
ATOM     31  C   UNL     1     -18.269  26.860  24.083  1.00  0.00     0.179 C 
ATOM     32  C   UNL     1     -17.639  25.506  23.647  1.00  0.00     0.177 C 
BRANCH  28  33
ATOM     33  O   UNL     1     -20.488  24.466  21.445  1.00  0.00    -0.384 OA
ATOM     34  H   UNL     1     -21.461  24.438  21.642  1.00  0.00     0.211 HD
ENDBRANCH  28  33
BRANCH  30  35
ATOM     35  O   UNL     1     -17.936  25.520  21.244  1.00  0.00    -0.387 OA
ATOM     36  H   UNL     1     -18.191  24.927  20.489  1.00  0.00     0.211 HD
ENDBRANCH  30  35
BRANCH  31  37
ATOM     37  C   UNL     1     -17.691  28.134  23.425  1.00  0.00     0.191 C 
BRANCH  37  38
ATOM     38  O   UNL     1     -17.532  27.994  22.043  1.00  0.00    -0.394 OA
ATOM     39  H   UNL     1     -16.678  27.506  21.910  1.00  0.00     0.210 HD
ENDBRANCH  37  38
ENDBRANCH  31  37
BRANCH  32  40
ATOM     40  O   UNL     1     -16.262  25.660  23.413  1.00  0.00    -0.387 OA
ATOM     41  H   UNL     1     -16.142  25.725  22.429  1.00  0.00     0.211 HD
ENDBRANCH  32  40
ENDBRANCH   1  27
TORSDOF 12
ENDMDL
MODEL 4
REMARK VINA RESULT:    -3.184      2.067      6.826
REMARK INTER + INTRA:          -6.160
REMARK INTER:                  -4.759
REMARK INTRA:                  -1.401
REMARK UNBOUND:                -1.486
REMARK SMILES O=c1c(O[C@@H]2O[C@H](CO)[C@H](O)[C@H](O)[C@@H]2O)c(-c2ccc(O)c(O)c2)oc2cc(O)cc(O)c12
REMARK SMILES IDX 4 1 3 2 16 3 25 4 2 5 26 6 1 7 33 8 27 9 31 10 28 11 30 12
REMARK SMILES IDX 17 13 18 14 19 15 20 16 24 17 22 18 21 19 23 21 32 23 29 25
REMARK SMILES IDX 5 27 14 28 6 29 12 30 7 31 10 32 15 33 13 35 8 37 9 38 11 40
REMARK H PARENT 21 20 23 22 32 24 29 26 15 34 13 36 9 39 11 41
REMARK Flexibility Score: inf
ROOT
ATOM      1  O   UNL     1     -21.313  26.520  20.380  1.00  0.00    -0.454 OA
ENDROOT
BRANCH   1   2
ATOM      2  C   UNL     1     -21.246  27.831  20.874  1.00  0.00     0.214 A 
ATOM      3  C   UNL     1     -20.288  28.218  21.836  1.00  0.00     0.180 A 
ATOM      4  O   UNL     1     -20.322  29.447  22.343  1.00  0.00    -0.452 OA
ATOM      5  C   UNL     1     -22.156  28.784  20.406  1.00  0.00     0.239 A 
ATOM      6  C   UNL     1     -21.196  30.369  21.958  1.00  0.00     0.146 A 
ATOM      7  O   UNL     1     -22.981  28.459  19.510  1.00  0.00    -0.285 OA
ATOM      8  C   UNL     1     -22.150  30.084  20.954  1.00  0.00     0.111 A 
ATOM      9  C   UNL     1     -21.155  31.635  22.551  1.00  0.00     0.094 A 
ATOM     10  C   UNL     1     -23.056  31.095  20.554  1.00  0.00     0.134 A 
ATOM     11  C   UNL     1     -22.054  32.631  22.152  1.00  0.00     0.123 A 
ATOM     12  C   UNL     1     -22.996  32.360  21.158  1.00  0.00     0.093 A 
BRANCH   3  13
ATOM     13  C   UNL     1     -19.216  27.307  22.294  1.00  0.00     0.025 A 
ATOM     14  C   UNL     1     -18.889  27.204  23.653  1.00  0.00     0.016 A 
ATOM     15  C   UNL     1     -17.877  26.337  24.070  1.00  0.00     0.051 A 
ATOM     16  C   UNL     1     -17.189  25.547  23.145  1.00  0.00     0.157 A 
ATOM     17  C   UNL     1     -18.546  26.498  21.365  1.00  0.00     0.062 A 
ATOM     18  C   UNL     1     -17.531  25.624  21.774  1.00  0.00     0.158 A 
BRANCH  16  19
ATOM     19  O   UNL     1     -16.183  24.704  23.626  1.00  0.00    -0.504 OA
ATOM     20  H   UNL     1     -15.847  23.889  23.135  1.00  0.00     0.293 HD
ENDBRANCH  16  19
BRANCH  18  21
ATOM     21  O   UNL     1     -16.896  24.858  20.793  1.00  0.00    -0.504 OA
ATOM     22  H   UNL     1     -16.155  24.199  20.984  1.00  0.00     0.293 HD
ENDBRANCH  18  21
ENDBRANCH   3  13
BRANCH  10  23
ATOM     23  O   UNL     1     -24.011  30.854  19.566  1.00  0.00    -0.507 OA
ATOM     24  H   UNL     1     -24.432  31.609  19.036  1.00  0.00     0.293 HD
ENDBRANCH  10  23
BRANCH  11  25
ATOM     25  O   UNL     1     -22.018  33.894  22.738  1.00  0.00    -0.508 OA
ATOM     26  H   UNL     1     -22.288  34.725  22.224  1.00  0.00     0.293 HD
ENDBRANCH  11  25
ENDBRANCH   1   2
BRANCH   1  27
ATOM     27  C   UNL     1     -21.903  25.438  21.106  1.00  0.00     0.339 C 
ATOM     28  C   UNL     1     -23.342  25.154  20.638  1.00  0.00     0.214 C 
ATOM     29  O   UNL     1     -21.081  24.283  21.052  1.00  0.00    -0.332 OA
ATOM     30  C   UNL     1     -23.357  24.598  19.211  1.00  0.00     0.180 C 
ATOM     31  C   UNL     1     -21.009  23.666  19.771  1.00  0.00     0.179 C 
ATOM     32  C   UNL     1     -22.392  23.405  19.108  1.00  0.00     0.177 C 
BRANCH  28  33
ATOM     33  O   UNL     1     -24.125  26.318  20.706  1.00  0.00    -0.384 OA
ATOM     34  H   UNL     1     -25.015  26.046  21.051  1.00  0.00     0.211 HD
ENDBRANCH  28  33
BRANCH  30  35
ATOM     35  O   UNL     1     -23.016  25.591  18.276  1.00  0.00    -0.387 OA
ATOM     36  H   UNL     1     -23.696  26.311  18.355  1.00  0.00     0.211 HD
ENDBRANCH  30  35
BRANCH  31  37
ATOM     37  C   UNL     1     -19.918  24.288  18.870  1.00  0.00     0.191 C 
BRANCH  37  38
ATOM     38  O   UNL     1     -18.705  23.596  18.947  1.00  0.00    -0.394 OA
ATOM     39  H   UNL     1     -18.621  23.288  19.887  1.00  0.00     0.210 HD
ENDBRANCH  37  38
ENDBRANCH  31  37
BRANCH  32  40
ATOM     40  O   UNL     1     -22.226  23.013  17.769  1.00  0.00    -0.387 OA
ATOM     41  H   UNL     1     -22.165  22.022  17.763  1.00  0.00     0.211 HD
ENDBRANCH  32  40
ENDBRANCH   1  27
TORSDOF 12
ENDMDL
MODEL 5
REMARK VINA RESULT:    -3.119      2.529      5.215
REMARK INTER + INTRA:          -6.064
REMARK INTER:                  -6.194
REMARK INTRA:                   0.130
REMARK UNBOUND:                -1.486
REMARK SMILES O=c1c(O[C@@H]2O[C@H](CO)[C@H](O)[C@H](O)[C@@H]2O)c(-c2ccc(O)c(O)c2)oc2cc(O)cc(O)c12
REMARK SMILES IDX 4 1 3 2 16 3 25 4 2 5 26 6 1 7 33 8 27 9 31 10 28 11 30 12
REMARK SMILES IDX 17 13 18 14 19 15 20 16 24 17 22 18 21 19 23 21 32 23 29 25
REMARK SMILES IDX 5 27 14 28 6 29 12 30 7 31 10 32 15 33 13 35 8 37 9 38 11 40
REMARK H PARENT 21 20 23 22 32 24 29 26 15 34 13 36 9 39 11 41
REMARK Flexibility Score: inf
ROOT
ATOM      1  O   UNL     1     -21.191  27.708  21.737  1.00  0.00    -0.454 OA
ENDROOT
BRANCH   1   2
ATOM      2  C   UNL     1     -19.973  27.093  22.060  1.00  0.00     0.214 A 
ATOM      3  C   UNL     1     -18.881  27.824  22.574  1.00  0.00     0.180 A 
ATOM      4  O   UNL     1     -17.716  27.214  22.778  1.00  0.00    -0.452 OA
ATOM      5  C   UNL     1     -19.831  25.715  21.866  1.00  0.00     0.239 A 
ATOM      6  C   UNL     1     -17.527  25.918  22.565  1.00  0.00     0.146 A 
ATOM      7  O   UNL     1     -20.818  25.047  21.455  1.00  0.00    -0.285 OA
ATOM      8  C   UNL     1     -18.587  25.099  22.111  1.00  0.00     0.111 A 
ATOM      9  C   UNL     1     -16.265  25.365  22.809  1.00  0.00     0.094 A 
ATOM     10  C   UNL     1     -18.356  23.717  21.912  1.00  0.00     0.134 A 
ATOM     11  C   UNL     1     -16.042  23.999  22.609  1.00  0.00     0.123 A 
ATOM     12  C   UNL     1     -17.084  23.181  22.165  1.00  0.00     0.093 A 
BRANCH   3  13
ATOM     13  C   UNL     1     -18.984  29.259  22.921  1.00  0.00     0.025 A 
ATOM     14  C   UNL     1     -18.077  29.853  23.810  1.00  0.00     0.016 A 
ATOM     15  C   UNL     1     -18.185  31.208  24.125  1.00  0.00     0.051 A 
ATOM     16  C   UNL     1     -19.185  31.997  23.547  1.00  0.00     0.157 A 
ATOM     17  C   UNL     1     -19.973  30.050  22.320  1.00  0.00     0.062 A 
ATOM     18  C   UNL     1     -20.088  31.412  22.629  1.00  0.00     0.158 A 
BRANCH  16  19
ATOM     19  O   UNL     1     -19.244  33.345  23.909  1.00  0.00    -0.504 OA
ATOM     20  H   UNL     1     -19.960  33.983  23.595  1.00  0.00     0.293 HD
ENDBRANCH  16  19
BRANCH  18  21
ATOM     21  O   UNL     1     -21.105  32.137  22.003  1.00  0.00    -0.504 OA
ATOM     22  H   UNL     1     -21.934  32.469  22.475  1.00  0.00     0.293 HD
ENDBRANCH  18  21
ENDBRANCH   3  13
BRANCH  10  23
ATOM     23  O   UNL     1     -19.375  22.875  21.466  1.00  0.00    -0.507 OA
ATOM     24  H   UNL     1     -19.306  22.371  20.589  1.00  0.00     0.293 HD
ENDBRANCH  10  23
BRANCH  11  25
ATOM     25  O   UNL     1     -14.788  23.442  22.850  1.00  0.00    -0.508 OA
ATOM     26  H   UNL     1     -14.107  23.905  23.441  1.00  0.00     0.293 HD
ENDBRANCH  11  25
ENDBRANCH   1   2
BRANCH   1  27
ATOM     27  C   UNL     1     -22.332  26.986  21.265  1.00  0.00     0.339 C 
ATOM     28  C   UNL     1     -23.627  27.448  21.958  1.00  0.00     0.214 C 
ATOM     29  O   UNL     1     -22.425  27.052  19.851  1.00  0.00    -0.332 OA
ATOM     30  C   UNL     1     -23.989  28.879  21.548  1.00  0.00     0.180 C 
ATOM     31  C   UNL     1     -22.759  28.337  19.338  1.00  0.00     0.179 C 
ATOM     32  C   UNL     1     -23.996  28.995  20.015  1.00  0.00     0.177 C 
BRANCH  28  33
ATOM     33  O   UNL     1     -23.497  27.369  23.355  1.00  0.00    -0.384 OA
ATOM     34  H   UNL     1     -24.411  27.235  23.721  1.00  0.00     0.211 HD
ENDBRANCH  28  33
BRANCH  30  35
ATOM     35  O   UNL     1     -23.098  29.809  22.111  1.00  0.00    -0.387 OA
ATOM     36  H   UNL     1     -22.641  30.268  21.357  1.00  0.00     0.211 HD
ENDBRANCH  30  35
BRANCH  31  37
ATOM     37  C   UNL     1     -21.520  29.240  19.138  1.00  0.00     0.191 C 
BRANCH  37  38
ATOM     38  O   UNL     1     -20.364  28.504  18.861  1.00  0.00    -0.394 OA
ATOM     39  H   UNL     1     -20.665  27.581  18.655  1.00  0.00     0.210 HD
ENDBRANCH  37  38
ENDBRANCH  31  37
BRANCH  32  40
ATOM     40  O   UNL     1     -24.114  30.338  19.618  1.00  0.00    -0.387 OA
ATOM     41  H   UNL     1     -23.596  30.878  20.270  1.00  0.00     0.211 HD
ENDBRANCH  32  40
ENDBRANCH   1  27
TORSDOF 12
ENDMDL
MODEL 6
REMARK VINA RESULT:    -3.097      2.627      6.121
REMARK INTER + INTRA:          -6.031
REMARK INTER:                  -5.319
REMARK INTRA:                  -0.713
REMARK UNBOUND:                -1.486
REMARK SMILES O=c1c(O[C@@H]2O[C@H](CO)[C@H](O)[C@H](O)[C@@H]2O)c(-c2ccc(O)c(O)c2)oc2cc(O)cc(O)c12
REMARK SMILES IDX 4 1 3 2 16 3 25 4 2 5 26 6 1 7 33 8 27 9 31 10 28 11 30 12
REMARK SMILES IDX 17 13 18 14 19 15 20 16 24 17 22 18 21 19 23 21 32 23 29 25
REMARK SMILES IDX 5 27 14 28 6 29 12 30 7 31 10 32 15 33 13 35 8 37 9 38 11 40
REMARK H PARENT 21 20 23 22 32 24 29 26 15 34 13 36 9 39 11 41
REMARK Flexibility Score: inf
ROOT
ATOM      1  O   UNL     1     -21.716  26.969  21.347  1.00  0.00    -0.454 OA
ENDROOT
BRANCH   1   2
ATOM      2  C   UNL     1     -20.965  28.048  21.836  1.00  0.00     0.214 A 
ATOM      3  C   UNL     1     -19.672  27.875  22.373  1.00  0.00     0.180 A 
ATOM      4  O   UNL     1     -19.036  28.912  22.910  1.00  0.00    -0.452 OA
ATOM      5  C   UNL     1     -21.513  29.335  21.797  1.00  0.00     0.239 A 
ATOM      6  C   UNL     1     -19.537  30.141  22.932  1.00  0.00     0.146 A 
ATOM      7  O   UNL     1     -22.646  29.504  21.272  1.00  0.00    -0.285 OA
ATOM      8  C   UNL     1     -20.801  30.414  22.358  1.00  0.00     0.111 A 
ATOM      9  C   UNL     1     -18.794  31.170  23.520  1.00  0.00     0.094 A 
ATOM     10  C   UNL     1     -21.299  31.739  22.382  1.00  0.00     0.134 A 
ATOM     11  C   UNL     1     -19.291  32.477  23.542  1.00  0.00     0.123 A 
ATOM     12  C   UNL     1     -20.536  32.757  22.974  1.00  0.00     0.093 A 
BRANCH   3  13
ATOM     13  C   UNL     1     -18.973  26.571  22.344  1.00  0.00     0.025 A 
ATOM     14  C   UNL     1     -17.892  26.350  21.479  1.00  0.00     0.016 A 
ATOM     15  C   UNL     1     -17.241  25.116  21.466  1.00  0.00     0.051 A 
ATOM     16  C   UNL     1     -17.642  24.089  22.325  1.00  0.00     0.157 A 
ATOM     17  C   UNL     1     -19.363  25.553  23.226  1.00  0.00     0.062 A 
ATOM     18  C   UNL     1     -18.714  24.311  23.221  1.00  0.00     0.158 A 
BRANCH  16  19
ATOM     19  O   UNL     1     -16.953  22.875  22.259  1.00  0.00    -0.504 OA
ATOM     20  H   UNL     1     -16.093  22.742  21.748  1.00  0.00     0.293 HD
ENDBRANCH  16  19
BRANCH  18  21
ATOM     21  O   UNL     1     -19.164  23.338  24.117  1.00  0.00    -0.504 OA
ATOM     22  H   UNL     1     -19.737  22.549  23.853  1.00  0.00     0.293 HD
ENDBRANCH  18  21
ENDBRANCH   3  13
BRANCH  10  23
ATOM     23  O   UNL     1     -22.540  32.051  21.826  1.00  0.00    -0.507 OA
ATOM     24  H   UNL     1     -23.299  32.419  22.387  1.00  0.00     0.293 HD
ENDBRANCH  10  23
BRANCH  11  25
ATOM     25  O   UNL     1     -18.556  33.506  24.125  1.00  0.00    -0.508 OA
ATOM     26  H   UNL     1     -18.566  33.664  25.126  1.00  0.00     0.293 HD
ENDBRANCH  11  25
ENDBRANCH   1   2
BRANCH   1  27
ATOM     27  C   UNL     1     -23.103  27.068  21.014  1.00  0.00     0.339 C 
ATOM     28  C   UNL     1     -23.332  26.991  19.493  1.00  0.00     0.214 C 
ATOM     29  O   UNL     1     -23.865  26.104  21.723  1.00  0.00    -0.332 OA
ATOM     30  C   UNL     1     -22.995  25.596  18.956  1.00  0.00     0.180 C 
ATOM     31  C   UNL     1     -23.643  24.758  21.315  1.00  0.00     0.179 C 
ATOM     32  C   UNL     1     -23.736  24.530  19.779  1.00  0.00     0.177 C 
BRANCH  28  33
ATOM     33  O   UNL     1     -22.563  27.960  18.826  1.00  0.00    -0.384 OA
ATOM     34  H   UNL     1     -21.619  27.814  19.098  1.00  0.00     0.211 HD
ENDBRANCH  28  33
BRANCH  30  35
ATOM     35  O   UNL     1     -21.609  25.366  18.979  1.00  0.00    -0.387 OA
ATOM     36  H   UNL     1     -21.186  26.074  18.425  1.00  0.00     0.211 HD
ENDBRANCH  30  35
BRANCH  31  37
ATOM     37  C   UNL     1     -22.443  24.105  22.039  1.00  0.00     0.191 C 
BRANCH  37  38
ATOM     38  O   UNL     1     -21.351  23.911  21.189  1.00  0.00    -0.394 OA
ATOM     39  H   UNL     1     -20.981  23.017  21.412  1.00  0.00     0.210 HD
ENDBRANCH  37  38
ENDBRANCH  31  37
BRANCH  32  40
ATOM     40  O   UNL     1     -23.281  23.242  19.448  1.00  0.00    -0.387 OA
ATOM     41  H   UNL     1     -23.083  23.247  18.474  1.00  0.00     0.211 HD
ENDBRANCH  32  40
ENDBRANCH   1  27
TORSDOF 12
ENDMDL
MODEL 7
REMARK VINA RESULT:    -3.056      2.269      5.908
REMARK INTER + INTRA:          -5.971
REMARK INTER:                  -4.869
REMARK INTRA:                  -1.102
REMARK UNBOUND:                -1.486
REMARK SMILES O=c1c(O[C@@H]2O[C@H](CO)[C@H](O)[C@H](O)[C@@H]2O)c(-c2ccc(O)c(O)c2)oc2cc(O)cc(O)c12
REMARK SMILES IDX 4 1 3 2 16 3 25 4 2 5 26 6 1 7 33 8 27 9 31 10 28 11 30 12
REMARK SMILES IDX 17 13 18 14 19 15 20 16 24 17 22 18 21 19 23 21 32 23 29 25
REMARK SMILES IDX 5 27 14 28 6 29 12 30 7 31 10 32 15 33 13 35 8 37 9 38 11 40
REMARK H PARENT 21 20 23 22 32 24 29 26 15 34 13 36 9 39 11 41
REMARK Flexibility Score: inf
ROOT
ATOM      1  O   UNL     1     -18.997  25.678  21.914  1.00  0.00    -0.454 OA
ENDROOT
BRANCH   1   2
ATOM      2  C   UNL     1     -19.634  26.927  21.943  1.00  0.00     0.214 A 
ATOM      3  C   UNL     1     -20.901  27.132  21.356  1.00  0.00     0.180 A 
ATOM      4  O   UNL     1     -21.425  28.355  21.328  1.00  0.00    -0.452 OA
ATOM      5  C   UNL     1     -18.997  28.004  22.567  1.00  0.00     0.239 A 
ATOM      6  C   UNL     1     -20.833  29.412  21.870  1.00  0.00     0.146 A 
ATOM      7  O   UNL     1     -17.888  27.817  23.137  1.00  0.00    -0.285 OA
ATOM      8  C   UNL     1     -19.591  29.283  22.533  1.00  0.00     0.111 A 
ATOM      9  C   UNL     1     -21.461  30.659  21.788  1.00  0.00     0.094 A 
ATOM     10  C   UNL     1     -18.996  30.427  23.117  1.00  0.00     0.134 A 
ATOM     11  C   UNL     1     -20.868  31.787  22.365  1.00  0.00     0.123 A 
ATOM     12  C   UNL     1     -19.644  31.669  23.026  1.00  0.00     0.093 A 
BRANCH   3  13
ATOM     13  C   UNL     1     -21.695  26.023  20.782  1.00  0.00     0.025 A 
ATOM     14  C   UNL     1     -22.612  25.310  21.568  1.00  0.00     0.016 A 
ATOM     15  C   UNL     1     -23.355  24.268  21.011  1.00  0.00     0.051 A 
ATOM     16  C   UNL     1     -23.212  23.932  19.661  1.00  0.00     0.157 A 
ATOM     17  C   UNL     1     -21.566  25.706  19.423  1.00  0.00     0.062 A 
ATOM     18  C   UNL     1     -22.309  24.664  18.854  1.00  0.00     0.158 A 
BRANCH  16  19
ATOM     19  O   UNL     1     -23.981  22.876  19.166  1.00  0.00    -0.504 OA
ATOM     20  H   UNL     1     -23.605  22.104  18.636  1.00  0.00     0.293 HD
ENDBRANCH  16  19
BRANCH  18  21
ATOM     21  O   UNL     1     -22.121  24.395  17.497  1.00  0.00    -0.504 OA
ATOM     22  H   UNL     1     -22.852  24.456  16.802  1.00  0.00     0.293 HD
ENDBRANCH  18  21
ENDBRANCH   3  13
BRANCH  10  23
ATOM     23  O   UNL     1     -17.773  30.341  23.781  1.00  0.00    -0.507 OA
ATOM     24  H   UNL     1     -16.921  30.719  23.382  1.00  0.00     0.293 HD
ENDBRANCH  10  23
BRANCH  11  25
ATOM     25  O   UNL     1     -21.489  33.032  22.289  1.00  0.00    -0.508 OA
ATOM     26  H   UNL     1     -22.482  33.141  22.460  1.00  0.00     0.293 HD
ENDBRANCH  11  25
ENDBRANCH   1   2
BRANCH   1  27
ATOM     27  C   UNL     1     -19.521  24.516  22.561  1.00  0.00     0.339 C 
ATOM     28  C   UNL     1     -19.190  23.230  21.780  1.00  0.00     0.214 C 
ATOM     29  O   UNL     1     -19.095  24.450  23.912  1.00  0.00    -0.332 OA
ATOM     30  C   UNL     1     -17.687  22.937  21.815  1.00  0.00     0.180 C 
ATOM     31  C   UNL     1     -17.708  24.181  24.083  1.00  0.00     0.179 C 
ATOM     32  C   UNL     1     -17.186  22.963  23.269  1.00  0.00     0.177 C 
BRANCH  28  33
ATOM     33  O   UNL     1     -19.627  23.331  20.449  1.00  0.00    -0.384 OA
ATOM     34  H   UNL     1     -20.411  23.941  20.449  1.00  0.00     0.211 HD
ENDBRANCH  28  33
BRANCH  30  35
ATOM     35  O   UNL     1     -16.973  23.858  21.030  1.00  0.00    -0.387 OA
ATOM     36  H   UNL     1     -17.023  24.736  21.491  1.00  0.00     0.211 HD
ENDBRANCH  30  35
BRANCH  31  37
ATOM     37  C   UNL     1     -16.842  25.461  24.040  1.00  0.00     0.191 C 
BRANCH  37  38
ATOM     38  O   UNL     1     -16.087  25.554  22.867  1.00  0.00    -0.394 OA
ATOM     39  H   UNL     1     -15.288  26.099  23.093  1.00  0.00     0.210 HD
ENDBRANCH  37  38
ENDBRANCH  31  37
BRANCH  32  40
ATOM     40  O   UNL     1     -15.782  22.910  23.312  1.00  0.00    -0.387 OA
ATOM     41  H   UNL     1     -15.449  23.456  22.553  1.00  0.00     0.211 HD
ENDBRANCH  32  40
ENDBRANCH   1  27
TORSDOF 12
ENDMDL
