MODEL 1
REMARK VINA RESULT:    -5.034      0.000      0.000
REMARK INTER + INTRA:          -7.189
REMARK INTER:                  -6.799
REMARK INTRA:                  -0.390
REMARK UNBOUND:                -0.390
REMARK SMILES C=C[C@](C)(CCC=C(C)C)OC(C)=O
REMARK SMILES IDX 3 1 4 2 5 3 6 4 7 5 9 6 8 7 10 8 2 9 1 10 11 11 12 12 14 13
REMARK SMILES IDX 13 14
REMARK H PARENT
REMARK Flexibility Score: inf
ROOT
ATOM      1  C   UNL     1      68.988  51.356  19.281  1.00  0.00     0.127 C 
ATOM      2  C   UNL     1      68.411  52.556  20.057  1.00  0.00     0.061 C 
ENDROOT
BRANCH   1   3
ATOM      3  C   UNL     1      70.031  51.848  18.237  1.00  0.00     0.057 C 
BRANCH   3   4
ATOM      4  C   UNL     1      70.132  53.381  18.131  1.00  0.00     0.032 C 
BRANCH   4   5
ATOM      5  C   UNL     1      70.453  53.793  16.716  1.00  0.00    -0.028 C 
ATOM      6  C   UNL     1      71.828  54.630  14.859  1.00  0.00     0.039 C 
ATOM      7  C   UNL     1      71.668  54.211  16.297  1.00  0.00    -0.080 C 
ATOM      8  C   UNL     1      72.863  54.250  17.222  1.00  0.00     0.039 C 
ENDBRANCH   4   5
ENDBRANCH   3   4
ENDBRANCH   1   3
BRANCH   1   9
ATOM      9  C   UNL     1      67.842  50.659  18.561  1.00  0.00     0.013 C 
ATOM     10  C   UNL     1      66.883  49.996  19.217  1.00  0.00     0.008 C 
ENDBRANCH   1   9
BRANCH   1  11
ATOM     11  O   UNL     1      69.597  50.467  20.229  1.00  0.00    -0.455 OA
BRANCH  11  12
ATOM     12  C   UNL     1      70.022  50.823  21.519  1.00  0.00     0.303 C 
ATOM     13  O   UNL     1      70.882  51.727  21.696  1.00  0.00    -0.253 OA
ATOM     14  C   UNL     1      69.414  50.146  22.699  1.00  0.00     0.139 C 
ENDBRANCH  11  12
ENDBRANCH   1  11
TORSDOF 6
ENDMDL
MODEL 2
REMARK VINA RESULT:    -4.684      2.103      5.713
REMARK INTER + INTRA:          -6.717
REMARK INTER:                  -6.095
REMARK INTRA:                  -0.621
REMARK UNBOUND:                -0.390
REMARK SMILES C=C[C@](C)(CCC=C(C)C)OC(C)=O
REMARK SMILES IDX 3 1 4 2 5 3 6 4 7 5 9 6 8 7 10 8 2 9 1 10 11 11 12 12 14 13
REMARK SMILES IDX 13 14
REMARK H PARENT
REMARK Flexibility Score: inf
ROOT
ATOM      1  C   UNL     1      69.284  51.638  19.993  1.00  0.00     0.127 C 
ATOM      2  C   UNL     1      69.878  52.942  20.560  1.00  0.00     0.061 C 
ENDROOT
BRANCH   1   3
ATOM      3  C   UNL     1      69.746  50.425  20.850  1.00  0.00     0.057 C 
BRANCH   3   4
ATOM      4  C   UNL     1      69.317  50.504  22.326  1.00  0.00     0.032 C 
BRANCH   4   5
ATOM      5  C   UNL     1      70.262  49.713  23.196  1.00  0.00    -0.028 C 
ATOM      6  C   UNL     1      72.089  49.342  24.797  1.00  0.00     0.039 C 
ATOM      7  C   UNL     1      71.185  50.261  24.017  1.00  0.00    -0.080 C 
ATOM      8  C   UNL     1      71.321  51.757  24.184  1.00  0.00     0.039 C 
ENDBRANCH   4   5
ENDBRANCH   3   4
ENDBRANCH   1   3
BRANCH   1   9
ATOM      9  C   UNL     1      69.785  51.468  18.565  1.00  0.00     0.013 C 
ATOM     10  C   UNL     1      70.009  52.510  17.757  1.00  0.00     0.008 C 
ENDBRANCH   1   9
BRANCH   1  11
ATOM     11  O   UNL     1      67.854  51.757  20.010  1.00  0.00    -0.455 OA
BRANCH  11  12
ATOM     12  C   UNL     1      66.966  50.984  19.247  1.00  0.00     0.303 C 
ATOM     13  O   UNL     1      66.875  49.739  19.415  1.00  0.00    -0.253 OA
ATOM     14  C   UNL     1      66.087  51.656  18.249  1.00  0.00     0.139 C 
ENDBRANCH  11  12
ENDBRANCH   1  11
TORSDOF 6
ENDMDL
MODEL 3
REMARK VINA RESULT:    -4.638      2.457      5.352
REMARK INTER + INTRA:          -6.654
REMARK INTER:                  -6.050
REMARK INTRA:                  -0.604
REMARK UNBOUND:                -0.390
REMARK SMILES C=C[C@](C)(CCC=C(C)C)OC(C)=O
REMARK SMILES IDX 3 1 4 2 5 3 6 4 7 5 9 6 8 7 10 8 2 9 1 10 11 11 12 12 14 13
REMARK SMILES IDX 13 14
REMARK H PARENT
REMARK Flexibility Score: inf
ROOT
ATOM      1  C   UNL     1      68.901  51.377  19.622  1.00  0.00     0.127 C 
ATOM      2  C   UNL     1      69.817  51.874  18.487  1.00  0.00     0.061 C 
ENDROOT
BRANCH   1   3
ATOM      3  C   UNL     1      69.713  50.493  20.613  1.00  0.00     0.057 C 
BRANCH   3   4
ATOM      4  C   UNL     1      69.200  50.550  22.063  1.00  0.00     0.032 C 
BRANCH   4   5
ATOM      5  C   UNL     1      70.128  49.798  22.983  1.00  0.00    -0.028 C 
ATOM      6  C   UNL     1      71.873  49.501  24.688  1.00  0.00     0.039 C 
ATOM      7  C   UNL     1      70.975  50.383  23.861  1.00  0.00    -0.080 C 
ATOM      8  C   UNL     1      71.028  51.882  24.044  1.00  0.00     0.039 C 
ENDBRANCH   4   5
ENDBRANCH   3   4
ENDBRANCH   1   3
BRANCH   1   9
ATOM      9  C   UNL     1      67.784  50.547  19.005  1.00  0.00     0.013 C 
ATOM     10  C   UNL     1      66.548  51.030  18.829  1.00  0.00     0.008 C 
ENDBRANCH   1   9
BRANCH   1  11
ATOM     11  O   UNL     1      68.360  52.526  20.291  1.00  0.00    -0.455 OA
BRANCH  11  12
ATOM     12  C   UNL     1      68.895  53.822  20.238  1.00  0.00     0.303 C 
ATOM     13  O   UNL     1      68.474  54.666  19.402  1.00  0.00    -0.253 OA
ATOM     14  C   UNL     1      69.948  54.217  21.215  1.00  0.00     0.139 C 
ENDBRANCH  11  12
ENDBRANCH   1  11
TORSDOF 6
ENDMDL
MODEL 4
REMARK VINA RESULT:    -4.614      2.060      5.388
REMARK INTER + INTRA:          -6.623
REMARK INTER:                  -6.078
REMARK INTRA:                  -0.545
REMARK UNBOUND:                -0.390
REMARK SMILES C=C[C@](C)(CCC=C(C)C)OC(C)=O
REMARK SMILES IDX 3 1 4 2 5 3 6 4 7 5 9 6 8 7 10 8 2 9 1 10 11 11 12 12 14 13
REMARK SMILES IDX 13 14
REMARK H PARENT
REMARK Flexibility Score: inf
ROOT
ATOM      1  C   UNL     1      69.017  52.472  18.630  1.00  0.00     0.127 C 
ATOM      2  C   UNL     1      68.218  53.639  19.243  1.00  0.00     0.061 C 
ENDROOT
BRANCH   1   3
ATOM      3  C   UNL     1      69.814  51.731  19.742  1.00  0.00     0.057 C 
BRANCH   3   4
ATOM      4  C   UNL     1      69.405  52.127  21.172  1.00  0.00     0.032 C 
BRANCH   4   5
ATOM      5  C   UNL     1      70.371  51.551  22.178  1.00  0.00    -0.028 C 
ATOM      6  C   UNL     1      71.180  50.012  23.914  1.00  0.00     0.039 C 
ATOM      7  C   UNL     1      70.135  50.446  22.919  1.00  0.00    -0.080 C 
ATOM      8  C   UNL     1      68.871  49.633  22.764  1.00  0.00     0.039 C 
ENDBRANCH   4   5
ENDBRANCH   3   4
ENDBRANCH   1   3
BRANCH   1   9
ATOM      9  C   UNL     1      69.989  53.044  17.608  1.00  0.00     0.013 C 
ATOM     10  C   UNL     1      71.306  52.816  17.668  1.00  0.00     0.008 C 
ENDBRANCH   1   9
BRANCH   1  11
ATOM     11  O   UNL     1      68.086  51.584  17.993  1.00  0.00    -0.455 OA
BRANCH  11  12
ATOM     12  C   UNL     1      66.900  51.103  18.568  1.00  0.00     0.303 C 
ATOM     13  O   UNL     1      65.796  51.676  18.360  1.00  0.00    -0.253 OA
ATOM     14  C   UNL     1      66.942  49.871  19.405  1.00  0.00     0.139 C 
ENDBRANCH  11  12
ENDBRANCH   1  11
TORSDOF 6
ENDMDL
MODEL 5
REMARK VINA RESULT:    -4.610      1.857      2.915
REMARK INTER + INTRA:          -6.618
REMARK INTER:                  -6.072
REMARK INTRA:                  -0.546
REMARK UNBOUND:                -0.390
REMARK SMILES C=C[C@](C)(CCC=C(C)C)OC(C)=O
REMARK SMILES IDX 3 1 4 2 5 3 6 4 7 5 9 6 8 7 10 8 2 9 1 10 11 11 12 12 14 13
REMARK SMILES IDX 13 14
REMARK H PARENT
REMARK Flexibility Score: inf
ROOT
ATOM      1  C   UNL     1      68.273  51.899  19.132  1.00  0.00     0.127 C 
ATOM      2  C   UNL     1      67.092  50.916  19.021  1.00  0.00     0.061 C 
ENDROOT
BRANCH   1   3
ATOM      3  C   UNL     1      69.325  51.595  18.026  1.00  0.00     0.057 C 
BRANCH   3   4
ATOM      4  C   UNL     1      69.814  52.844  17.271  1.00  0.00     0.032 C 
BRANCH   4   5
ATOM      5  C   UNL     1      71.182  53.255  17.755  1.00  0.00    -0.028 C 
ATOM      6  C   UNL     1      73.426  54.246  17.621  1.00  0.00     0.039 C 
ATOM      7  C   UNL     1      72.081  53.940  17.015  1.00  0.00    -0.080 C 
ATOM      8  C   UNL     1      71.768  54.419  15.616  1.00  0.00     0.039 C 
ENDBRANCH   4   5
ENDBRANCH   3   4
ENDBRANCH   1   3
BRANCH   1   9
ATOM      9  C   UNL     1      68.915  51.721  20.501  1.00  0.00     0.013 C 
ATOM     10  C   UNL     1      69.374  50.538  20.927  1.00  0.00     0.008 C 
ENDBRANCH   1   9
BRANCH   1  11
ATOM     11  O   UNL     1      67.757  53.231  18.991  1.00  0.00    -0.455 OA
BRANCH  11  12
ATOM     12  C   UNL     1      67.911  54.264  19.927  1.00  0.00     0.303 C 
ATOM     13  O   UNL     1      68.989  54.912  20.010  1.00  0.00    -0.253 OA
ATOM     14  C   UNL     1      66.766  54.627  20.809  1.00  0.00     0.139 C 
ENDBRANCH  11  12
ENDBRANCH   1  11
TORSDOF 6
ENDMDL
MODEL 6
REMARK VINA RESULT:    -4.600      2.046      5.667
REMARK INTER + INTRA:          -6.603
REMARK INTER:                  -6.103
REMARK INTRA:                  -0.500
REMARK UNBOUND:                -0.390
REMARK SMILES C=C[C@](C)(CCC=C(C)C)OC(C)=O
REMARK SMILES IDX 3 1 4 2 5 3 6 4 7 5 9 6 8 7 10 8 2 9 1 10 11 11 12 12 14 13
REMARK SMILES IDX 13 14
REMARK H PARENT
REMARK Flexibility Score: inf
ROOT
ATOM      1  C   UNL     1      69.020  51.282  19.874  1.00  0.00     0.127 C 
ATOM      2  C   UNL     1      67.736  50.721  19.234  1.00  0.00     0.061 C 
ENDROOT
BRANCH   1   3
ATOM      3  C   UNL     1      69.445  50.397  21.081  1.00  0.00     0.057 C 
BRANCH   3   4
ATOM      4  C   UNL     1      70.020  51.193  22.267  1.00  0.00     0.032 C 
BRANCH   4   5
ATOM      5  C   UNL     1      70.526  50.257  23.336  1.00  0.00    -0.028 C 
ATOM      6  C   UNL     1      71.987  49.473  25.149  1.00  0.00     0.039 C 
ATOM      7  C   UNL     1      71.570  50.522  24.153  1.00  0.00    -0.080 C 
ATOM      8  C   UNL     1      72.310  51.839  24.104  1.00  0.00     0.039 C 
ENDBRANCH   4   5
ENDBRANCH   3   4
ENDBRANCH   1   3
BRANCH   1   9
ATOM      9  C   UNL     1      68.731  52.695  20.362  1.00  0.00     0.013 C 
ATOM     10  C   UNL     1      67.579  53.321  20.098  1.00  0.00     0.008 C 
ENDBRANCH   1   9
BRANCH   1  11
ATOM     11  O   UNL     1      70.045  51.300  18.870  1.00  0.00    -0.455 OA
BRANCH  11  12
ATOM     12  C   UNL     1      70.361  52.395  18.051  1.00  0.00     0.303 C 
ATOM     13  O   UNL     1      69.612  52.731  17.095  1.00  0.00    -0.253 OA
ATOM     14  C   UNL     1      71.582  53.196  18.344  1.00  0.00     0.139 C 
ENDBRANCH  11  12
ENDBRANCH   1  11
TORSDOF 6
ENDMDL
MODEL 7
REMARK VINA RESULT:    -4.328      2.439      4.336
REMARK INTER + INTRA:          -6.236
REMARK INTER:                  -5.534
REMARK INTRA:                  -0.702
REMARK UNBOUND:                -0.390
REMARK SMILES C=C[C@](C)(CCC=C(C)C)OC(C)=O
REMARK SMILES IDX 3 1 4 2 5 3 6 4 7 5 9 6 8 7 10 8 2 9 1 10 11 11 12 12 14 13
REMARK SMILES IDX 13 14
REMARK H PARENT
REMARK Flexibility Score: inf
ROOT
ATOM      1  C   UNL     1      69.083  51.504  19.760  1.00  0.00     0.127 C 
ATOM      2  C   UNL     1      69.340  50.408  20.812  1.00  0.00     0.061 C 
ENDROOT
BRANCH   1   3
ATOM      3  C   UNL     1      68.876  52.877  20.460  1.00  0.00     0.057 C 
BRANCH   3   4
ATOM      4  C   UNL     1      67.568  53.588  20.068  1.00  0.00     0.032 C 
BRANCH   4   5
ATOM      5  C   UNL     1      67.841  55.016  19.665  1.00  0.00    -0.028 C 
ATOM      6  C   UNL     1      67.656  57.464  19.749  1.00  0.00     0.039 C 
ATOM      7  C   UNL     1      67.326  56.098  20.290  1.00  0.00    -0.080 C 
ATOM      8  C   UNL     1      66.450  55.973  21.516  1.00  0.00     0.039 C 
ENDBRANCH   4   5
ENDBRANCH   3   4
ENDBRANCH   1   3
BRANCH   1   9
ATOM      9  C   UNL     1      67.824  51.137  18.987  1.00  0.00     0.013 C 
ATOM     10  C   UNL     1      67.124  50.026  19.245  1.00  0.00     0.008 C 
ENDBRANCH   1   9
BRANCH   1  11
ATOM     11  O   UNL     1      70.215  51.547  18.879  1.00  0.00    -0.455 OA
BRANCH  11  12
ATOM     12  C   UNL     1      70.745  52.708  18.294  1.00  0.00     0.303 C 
ATOM     13  O   UNL     1      71.772  53.266  18.767  1.00  0.00    -0.253 OA
ATOM     14  C   UNL     1      70.103  53.266  17.071  1.00  0.00     0.139 C 
ENDBRANCH  11  12
ENDBRANCH   1  11
TORSDOF 6
ENDMDL
MODEL 8
REMARK VINA RESULT:    -4.307      1.524      3.059
REMARK INTER + INTRA:          -6.208
REMARK INTER:                  -5.677
REMARK INTRA:                  -0.532
REMARK UNBOUND:                -0.390
REMARK SMILES C=C[C@](C)(CCC=C(C)C)OC(C)=O
REMARK SMILES IDX 3 1 4 2 5 3 6 4 7 5 9 6 8 7 10 8 2 9 1 10 11 11 12 12 14 13
REMARK SMILES IDX 13 14
REMARK H PARENT
REMARK Flexibility Score: inf
ROOT
ATOM      1  C   UNL     1      69.063  52.200  19.745  1.00  0.00     0.127 C 
ATOM      2  C   UNL     1      70.102  52.014  20.867  1.00  0.00     0.061 C 
ENDROOT
BRANCH   1   3
ATOM      3  C   UNL     1      69.637  51.681  18.396  1.00  0.00     0.057 C 
BRANCH   3   4
ATOM      4  C   UNL     1      70.087  52.799  17.437  1.00  0.00     0.032 C 
BRANCH   4   5
ATOM      5  C   UNL     1      71.506  53.214  17.735  1.00  0.00    -0.028 C 
ATOM      6  C   UNL     1      73.688  54.268  17.327  1.00  0.00     0.039 C 
ATOM      7  C   UNL     1      72.271  53.966  16.913  1.00  0.00    -0.080 C 
ATOM      8  C   UNL     1      71.740  54.522  15.612  1.00  0.00     0.039 C 
ENDBRANCH   4   5
ENDBRANCH   3   4
ENDBRANCH   1   3
BRANCH   1   9
ATOM      9  C   UNL     1      68.754  53.686  19.623  1.00  0.00     0.013 C 
ATOM     10  C   UNL     1      67.843  54.292  20.394  1.00  0.00     0.008 C 
ENDBRANCH   1   9
BRANCH   1  11
ATOM     11  O   UNL     1      67.881  51.471  20.109  1.00  0.00    -0.455 OA
BRANCH  11  12
ATOM     12  C   UNL     1      67.009  50.839  19.209  1.00  0.00     0.303 C 
ATOM     13  O   UNL     1      67.047  49.591  19.033  1.00  0.00    -0.253 OA
ATOM     14  C   UNL     1      65.995  51.652  18.483  1.00  0.00     0.139 C 
ENDBRANCH  11  12
ENDBRANCH   1  11
TORSDOF 6
ENDMDL
MODEL 9
REMARK VINA RESULT:    -4.220      2.884      5.645
REMARK INTER + INTRA:          -6.090
REMARK INTER:                  -5.365
REMARK INTRA:                  -0.725
REMARK UNBOUND:                -0.390
REMARK SMILES C=C[C@](C)(CCC=C(C)C)OC(C)=O
REMARK SMILES IDX 3 1 4 2 5 3 6 4 7 5 9 6 8 7 10 8 2 9 1 10 11 11 12 12 14 13
REMARK SMILES IDX 13 14
REMARK H PARENT
REMARK Flexibility Score: inf
ROOT
ATOM      1  C   UNL     1      69.457  51.374  20.674  1.00  0.00     0.127 C 
ATOM      2  C   UNL     1      70.147  51.236  19.303  1.00  0.00     0.061 C 
ENDROOT
BRANCH   1   3
ATOM      3  C   UNL     1      70.023  52.607  21.434  1.00  0.00     0.057 C 
BRANCH   3   4
ATOM      4  C   UNL     1      71.404  52.368  22.071  1.00  0.00     0.032 C 
BRANCH   4   5
ATOM      5  C   UNL     1      71.431  52.884  23.488  1.00  0.00    -0.028 C 
ATOM      6  C   UNL     1      71.623  52.769  25.935  1.00  0.00     0.039 C 
ATOM      7  C   UNL     1      71.668  52.119  24.577  1.00  0.00    -0.080 C 
ATOM      8  C   UNL     1      71.993  50.647  24.465  1.00  0.00     0.039 C 
ENDBRANCH   4   5
ENDBRANCH   3   4
ENDBRANCH   1   3
BRANCH   1   9
ATOM      9  C   UNL     1      69.739  50.112  21.478  1.00  0.00     0.013 C 
ATOM     10  C   UNL     1      69.002  49.761  22.538  1.00  0.00     0.008 C 
ENDBRANCH   1   9
BRANCH   1  11
ATOM     11  O   UNL     1      68.047  51.519  20.449  1.00  0.00    -0.455 OA
BRANCH  11  12
ATOM     12  C   UNL     1      67.335  50.961  19.376  1.00  0.00     0.303 C 
ATOM     13  O   UNL     1      66.983  49.751  19.386  1.00  0.00    -0.253 OA
ATOM     14  C   UNL     1      66.954  51.827  18.225  1.00  0.00     0.139 C 
ENDBRANCH  11  12
ENDBRANCH   1  11
TORSDOF 6
ENDMDL
