MODEL 1
REMARK VINA RESULT:    -4.156      0.000      0.000
REMARK INTER + INTRA:          -6.164
REMARK INTER:                  -6.099
REMARK INTRA:                  -0.065
REMARK UNBOUND:                -0.065
REMARK SMILES O=c1c(O[C@@H]2O[C@@H](CO)[C@H](O)[C@@H](O)[C@@H]2O)c(-c2ccc(O)c(O)c2)oc2cc(O)cc(O)c12
REMARK SMILES IDX 4 1 3 2 16 3 25 4 2 5 26 6 1 7 33 8 27 9 31 10 28 11 30 12
REMARK SMILES IDX 17 13 18 14 19 15 20 16 24 17 22 18 21 19 23 21 32 23 29 25
REMARK SMILES IDX 5 27 14 28 6 29 12 30 7 31 10 32 15 33 13 35 8 37 9 38 11 40
REMARK H PARENT 21 20 23 22 32 24 29 26 15 34 13 36 9 39 11 41
REMARK Flexibility Score: inf
ROOT
ATOM      1  O   UNL     1      48.101  34.033 101.255  1.00  0.00    -0.454 OA
ENDROOT
BRANCH   1   2
ATOM      2  C   UNL     1      47.690  35.354 100.998  1.00  0.00     0.214 A 
ATOM      3  C   UNL     1      47.221  35.830  99.739  1.00  0.00     0.180 A 
ATOM      4  O   UNL     1      46.730  37.061  99.641  1.00  0.00    -0.452 OA
ATOM      5  C   UNL     1      47.676  36.243 102.080  1.00  0.00     0.239 A 
ATOM      6  C   UNL     1      46.670  37.912 100.651  1.00  0.00     0.146 A 
ATOM      7  O   UNL     1      48.110  35.846 103.199  1.00  0.00    -0.285 OA
ATOM      8  C   UNL     1      47.148  37.538 101.929  1.00  0.00     0.111 A 
ATOM      9  C   UNL     1      46.129  39.186 100.448  1.00  0.00     0.094 A 
ATOM     10  C   UNL     1      47.148  38.495 102.970  1.00  0.00     0.134 A 
ATOM     11  C   UNL     1      46.000  40.067 101.523  1.00  0.00     0.123 A 
ATOM     12  C   UNL     1      46.473  39.707 102.793  1.00  0.00     0.093 A 
BRANCH   3  13
ATOM     13  C   UNL     1      47.219  35.007  98.524  1.00  0.00     0.025 A 
ATOM     14  C   UNL     1      48.119  33.941  98.417  1.00  0.00     0.016 A 
ATOM     15  C   UNL     1      48.122  33.136  97.279  1.00  0.00     0.051 A 
ATOM     16  C   UNL     1      47.216  33.377  96.234  1.00  0.00     0.157 A 
ATOM     17  C   UNL     1      46.346  35.288  97.467  1.00  0.00     0.062 A 
ATOM     18  C   UNL     1      46.318  34.467  96.327  1.00  0.00     0.158 A 
BRANCH  16  19
ATOM     19  O   UNL     1      47.165  32.520  95.132  1.00  0.00    -0.504 OA
ATOM     20  H   UNL     1      47.992  32.326  94.580  1.00  0.00     0.293 HD
ENDBRANCH  16  19
BRANCH  18  21
ATOM     21  O   UNL     1      45.398  34.734  95.320  1.00  0.00    -0.504 OA
ATOM     22  H   UNL     1      44.796  34.013  94.955  1.00  0.00     0.293 HD
ENDBRANCH  18  21
ENDBRANCH   3  13
BRANCH  10  23
ATOM     23  O   UNL     1      47.899  38.282 104.125  1.00  0.00    -0.507 OA
ATOM     24  H   UNL     1      48.169  39.044 104.735  1.00  0.00     0.293 HD
ENDBRANCH  10  23
BRANCH  11  25
ATOM     25  O   UNL     1      45.420  41.309 101.335  1.00  0.00    -0.508 OA
ATOM     26  H   UNL     1      45.724  41.892 100.546  1.00  0.00     0.293 HD
ENDBRANCH  11  25
ENDBRANCH   1   2
BRANCH   1  27
ATOM     27  C   UNL     1      47.310  32.843 101.227  1.00  0.00     0.339 C 
ATOM     28  C   UNL     1      47.081  32.329 102.652  1.00  0.00     0.214 C 
ATOM     29  O   UNL     1      46.073  33.153 100.625  1.00  0.00    -0.332 OA
ATOM     30  C   UNL     1      46.215  31.043 102.665  1.00  0.00     0.180 C 
ATOM     31  C   UNL     1      45.246  32.026 100.386  1.00  0.00     0.179 C 
ATOM     32  C   UNL     1      45.070  31.031 101.598  1.00  0.00     0.177 C 
BRANCH  28  33
ATOM     33  O   UNL     1      46.518  33.357 103.431  1.00  0.00    -0.384 OA
ATOM     34  H   UNL     1      45.729  33.730 102.955  1.00  0.00     0.211 HD
ENDBRANCH  28  33
BRANCH  30  35
ATOM     35  O   UNL     1      47.017  29.897 102.547  1.00  0.00    -0.387 OA
ATOM     36  H   UNL     1      47.967  30.187 102.509  1.00  0.00     0.211 HD
ENDBRANCH  30  35
BRANCH  31  37
ATOM     37  C   UNL     1      45.514  31.375  98.995  1.00  0.00     0.191 C 
BRANCH  37  38
ATOM     38  O   UNL     1      46.641  30.535  98.953  1.00  0.00    -0.394 OA
ATOM     39  H   UNL     1      46.499  29.826  99.656  1.00  0.00     0.210 HD
ENDBRANCH  37  38
ENDBRANCH  31  37
BRANCH  32  40
ATOM     40  O   UNL     1      43.830  31.238 102.213  1.00  0.00    -0.387 OA
ATOM     41  H   UNL     1      43.976  31.352 103.184  1.00  0.00     0.211 HD
ENDBRANCH  32  40
ENDBRANCH   1  27
TORSDOF 12
ENDMDL
MODEL 2
REMARK VINA RESULT:    -2.498      6.952     13.374
REMARK INTER + INTRA:          -3.732
REMARK INTER:                  -5.291
REMARK INTRA:                   1.559
REMARK UNBOUND:                -0.065
REMARK SMILES O=c1c(O[C@@H]2O[C@@H](CO)[C@H](O)[C@@H](O)[C@@H]2O)c(-c2ccc(O)c(O)c2)oc2cc(O)cc(O)c12
REMARK SMILES IDX 4 1 3 2 16 3 25 4 2 5 26 6 1 7 33 8 27 9 31 10 28 11 30 12
REMARK SMILES IDX 17 13 18 14 19 15 20 16 24 17 22 18 21 19 23 21 32 23 29 25
REMARK SMILES IDX 5 27 14 28 6 29 12 30 7 31 10 32 15 33 13 35 8 37 9 38 11 40
REMARK H PARENT 21 20 23 22 32 24 29 26 15 34 13 36 9 39 11 41
REMARK Flexibility Score: inf
ROOT
ATOM      1  O   UNL     1      45.250  46.640 103.142  1.00  0.00    -0.454 OA
ENDROOT
BRANCH   1   2
ATOM      2  C   UNL     1      45.075  45.380 102.537  1.00  0.00     0.214 A 
ATOM      3  C   UNL     1      43.923  44.986 101.798  1.00  0.00     0.180 A 
ATOM      4  O   UNL     1      43.919  43.823 101.155  1.00  0.00    -0.452 OA
ATOM      5  C   UNL     1      46.145  44.480 102.610  1.00  0.00     0.239 A 
ATOM      6  C   UNL     1      44.926  42.967 101.174  1.00  0.00     0.146 A 
ATOM      7  O   UNL     1      47.168  44.803 103.282  1.00  0.00    -0.285 OA
ATOM      8  C   UNL     1      46.097  43.260 101.913  1.00  0.00     0.111 A 
ATOM      9  C   UNL     1      44.828  41.770 100.457  1.00  0.00     0.094 A 
ATOM     10  C   UNL     1      47.124  42.291 101.985  1.00  0.00     0.134 A 
ATOM     11  C   UNL     1      45.912  40.892 100.418  1.00  0.00     0.123 A 
ATOM     12  C   UNL     1      47.076  41.171 101.149  1.00  0.00     0.093 A 
BRANCH   3  13
ATOM     13  C   UNL     1      42.724  45.825 101.677  1.00  0.00     0.025 A 
ATOM     14  C   UNL     1      41.463  45.221 101.681  1.00  0.00     0.016 A 
ATOM     15  C   UNL     1      40.311  46.001 101.585  1.00  0.00     0.051 A 
ATOM     16  C   UNL     1      40.403  47.399 101.497  1.00  0.00     0.157 A 
ATOM     17  C   UNL     1      42.831  47.214 101.539  1.00  0.00     0.062 A 
ATOM     18  C   UNL     1      41.678  48.014 101.471  1.00  0.00     0.158 A 
BRANCH  16  19
ATOM     19  O   UNL     1      39.248  48.184 101.484  1.00  0.00    -0.504 OA
ATOM     20  H   UNL     1      39.125  48.925 100.804  1.00  0.00     0.293 HD
ENDBRANCH  16  19
BRANCH  18  21
ATOM     21  O   UNL     1      41.813  49.395 101.396  1.00  0.00    -0.504 OA
ATOM     22  H   UNL     1      42.217  49.924 102.151  1.00  0.00     0.293 HD
ENDBRANCH  18  21
ENDBRANCH   3  13
BRANCH  10  23
ATOM     23  O   UNL     1      48.125  42.394 102.950  1.00  0.00    -0.507 OA
ATOM     24  H   UNL     1      47.934  42.250 103.935  1.00  0.00     0.293 HD
ENDBRANCH  10  23
BRANCH  11  25
ATOM     25  O   UNL     1      45.836  39.731  99.670  1.00  0.00    -0.508 OA
ATOM     26  H   UNL     1      44.920  39.296  99.506  1.00  0.00     0.293 HD
ENDBRANCH  11  25
ENDBRANCH   1   2
BRANCH   1  27
ATOM     27  C   UNL     1      45.812  47.822 102.570  1.00  0.00     0.339 C 
ATOM     28  C   UNL     1      47.334  47.816 102.739  1.00  0.00     0.214 C 
ATOM     29  O   UNL     1      45.483  47.844 101.199  1.00  0.00    -0.332 OA
ATOM     30  C   UNL     1      47.984  49.080 102.118  1.00  0.00     0.180 C 
ATOM     31  C   UNL     1      45.842  49.045 100.536  1.00  0.00     0.179 C 
ATOM     32  C   UNL     1      47.312  49.559 100.789  1.00  0.00     0.177 C 
BRANCH  28  33
ATOM     33  O   UNL     1      47.858  46.628 102.196  1.00  0.00    -0.384 OA
ATOM     34  H   UNL     1      47.188  45.900 102.302  1.00  0.00     0.211 HD
ENDBRANCH  28  33
BRANCH  30  35
ATOM     35  O   UNL     1      48.041  50.125 103.053  1.00  0.00    -0.387 OA
ATOM     36  H   UNL     1      48.046  49.727 103.963  1.00  0.00     0.211 HD
ENDBRANCH  30  35
BRANCH  31  37
ATOM     37  C   UNL     1      44.716  50.121 100.602  1.00  0.00     0.191 C 
BRANCH  37  38
ATOM     38  O   UNL     1      43.832  50.105  99.508  1.00  0.00    -0.394 OA
ATOM     39  H   UNL     1      42.925  49.859  99.874  1.00  0.00     0.210 HD
ENDBRANCH  37  38
ENDBRANCH  31  37
BRANCH  32  40
ATOM     40  O   UNL     1      48.125  49.248  99.693  1.00  0.00    -0.387 OA
ATOM     41  H   UNL     1      48.509  50.087  99.338  1.00  0.00     0.211 HD
ENDBRANCH  32  40
ENDBRANCH   1  27
TORSDOF 12
ENDMDL
MODEL 3
REMARK VINA RESULT:    -2.408      6.560     12.817
REMARK INTER + INTRA:          -3.600
REMARK INTER:                  -2.817
REMARK INTRA:                  -0.782
REMARK UNBOUND:                -0.065
REMARK SMILES O=c1c(O[C@@H]2O[C@@H](CO)[C@H](O)[C@@H](O)[C@@H]2O)c(-c2ccc(O)c(O)c2)oc2cc(O)cc(O)c12
REMARK SMILES IDX 4 1 3 2 16 3 25 4 2 5 26 6 1 7 33 8 27 9 31 10 28 11 30 12
REMARK SMILES IDX 17 13 18 14 19 15 20 16 24 17 22 18 21 19 23 21 32 23 29 25
REMARK SMILES IDX 5 27 14 28 6 29 12 30 7 31 10 32 15 33 13 35 8 37 9 38 11 40
REMARK H PARENT 21 20 23 22 32 24 29 26 15 34 13 36 9 39 11 41
REMARK Flexibility Score: inf
ROOT
ATOM      1  O   UNL     1      44.375  45.391 100.723  1.00  0.00    -0.454 OA
ENDROOT
BRANCH   1   2
ATOM      2  C   UNL     1      45.270  44.465 101.291  1.00  0.00     0.214 A 
ATOM      3  C   UNL     1      46.349  44.804 102.157  1.00  0.00     0.180 A 
ATOM      4  O   UNL     1      47.050  43.840 102.746  1.00  0.00    -0.452 OA
ATOM      5  C   UNL     1      45.034  43.108 101.040  1.00  0.00     0.239 A 
ATOM      6  C   UNL     1      46.830  42.550 102.558  1.00  0.00     0.146 A 
ATOM      7  O   UNL     1      44.095  42.788 100.255  1.00  0.00    -0.285 OA
ATOM      8  C   UNL     1      45.802  42.121 101.685  1.00  0.00     0.111 A 
ATOM      9  C   UNL     1      47.619  41.610 103.230  1.00  0.00     0.094 A 
ATOM     10  C   UNL     1      45.642  40.738 101.438  1.00  0.00     0.134 A 
ATOM     11  C   UNL     1      47.350  40.248 103.090  1.00  0.00     0.123 A 
ATOM     12  C   UNL     1      46.335  39.813 102.225  1.00  0.00     0.093 A 
BRANCH   3  13
ATOM     13  C   UNL     1      46.719  46.190 102.469  1.00  0.00     0.025 A 
ATOM     14  C   UNL     1      46.785  46.597 103.806  1.00  0.00     0.016 A 
ATOM     15  C   UNL     1      47.151  47.904 104.125  1.00  0.00     0.051 A 
ATOM     16  C   UNL     1      47.469  48.822 103.111  1.00  0.00     0.157 A 
ATOM     17  C   UNL     1      46.984  47.110 101.448  1.00  0.00     0.062 A 
ATOM     18  C   UNL     1      47.383  48.421 101.756  1.00  0.00     0.158 A 
BRANCH  16  19
ATOM     19  O   UNL     1      47.915  50.105 103.434  1.00  0.00    -0.504 OA
ATOM     20  H   UNL     1      48.458  50.652 102.777  1.00  0.00     0.293 HD
ENDBRANCH  16  19
BRANCH  18  21
ATOM     21  O   UNL     1      47.700  49.295 100.722  1.00  0.00    -0.504 OA
ATOM     22  H   UNL     1      48.643  49.382 100.379  1.00  0.00     0.293 HD
ENDBRANCH  18  21
ENDBRANCH   3  13
BRANCH  10  23
ATOM     23  O   UNL     1      44.882  40.298 100.356  1.00  0.00    -0.507 OA
ATOM     24  H   UNL     1      44.041  40.780 100.062  1.00  0.00     0.293 HD
ENDBRANCH  10  23
BRANCH  11  25
ATOM     25  O   UNL     1      48.097  39.319 103.791  1.00  0.00    -0.508 OA
ATOM     26  H   UNL     1      48.099  39.345 104.817  1.00  0.00     0.293 HD
ENDBRANCH  11  25
ENDBRANCH   1   2
BRANCH   1  27
ATOM     27  C   UNL     1      43.376  46.171 101.383  1.00  0.00     0.339 C 
ATOM     28  C   UNL     1      43.736  47.657 101.310  1.00  0.00     0.214 C 
ATOM     29  O   UNL     1      42.144  45.943 100.737  1.00  0.00    -0.332 OA
ATOM     30  C   UNL     1      42.668  48.540 102.006  1.00  0.00     0.180 C 
ATOM     31  C   UNL     1      41.031  46.533 101.388  1.00  0.00     0.179 C 
ATOM     32  C   UNL     1      41.197  48.044 101.806  1.00  0.00     0.177 C 
BRANCH  28  33
ATOM     33  O   UNL     1      43.931  48.022  99.964  1.00  0.00    -0.384 OA
ATOM     34  H   UNL     1      44.900  48.192  99.812  1.00  0.00     0.211 HD
ENDBRANCH  28  33
BRANCH  30  35
ATOM     35  O   UNL     1      42.960  48.698 103.370  1.00  0.00    -0.387 OA
ATOM     36  H   UNL     1      42.205  49.187 103.794  1.00  0.00     0.211 HD
ENDBRANCH  30  35
BRANCH  31  37
ATOM     37  C   UNL     1      40.398  45.589 102.456  1.00  0.00     0.191 C 
BRANCH  37  38
ATOM     38  O   UNL     1      41.277  45.198 103.481  1.00  0.00    -0.394 OA
ATOM     39  H   UNL     1      40.884  44.368 103.897  1.00  0.00     0.210 HD
ENDBRANCH  37  38
ENDBRANCH  31  37
BRANCH  32  40
ATOM     40  O   UNL     1      40.524  48.871 100.899  1.00  0.00    -0.387 OA
ATOM     41  H   UNL     1      40.684  49.813 101.154  1.00  0.00     0.211 HD
ENDBRANCH  32  40
ENDBRANCH   1  27
TORSDOF 12
ENDMDL
