MODEL 1
REMARK VINA RESULT:    31.049      0.000      0.000
REMARK INTER + INTRA:          37.131
REMARK INTER:                  37.401
REMARK INTRA:                  -0.270
REMARK UNBOUND:                -0.270
REMARK SMILES O=c1c(O)c(-c2ccc(O)c(O)c2)oc2cc(O)cc(O)c12
REMARK SMILES IDX 5 1 3 2 2 3 1 4 22 5 20 6 19 7 17 8 16 9 15 10 14 11 6 12
REMARK SMILES IDX 7 13 8 14 9 15 13 16 11 17 10 18 12 20 4 22 21 24 18 26
REMARK H PARENT 10 19 12 21 4 23 21 25 18 27
REMARK Flexibility Score: inf
ROOT
ATOM      1  C   UNL     1      12.805   5.175  18.317  1.00  0.00     0.180 A 
ATOM      2  C   UNL     1      13.692   6.085  18.918  1.00  0.00     0.208 A 
ATOM      3  C   UNL     1      13.591   7.448  18.594  1.00  0.00     0.238 A 
ATOM      4  O   UNL     1      14.423   8.251  19.094  1.00  0.00    -0.285 OA
ATOM      5  C   UNL     1      12.595   7.886  17.688  1.00  0.00     0.111 A 
ATOM      6  C   UNL     1      12.376   9.247  17.320  1.00  0.00     0.134 A 
ATOM      7  C   UNL     1      11.448   9.551  16.317  1.00  0.00     0.093 A 
ATOM      8  C   UNL     1      10.686   8.551  15.715  1.00  0.00     0.123 A 
ATOM      9  C   UNL     1      10.850   7.223  16.109  1.00  0.00     0.094 A 
ATOM     10  C   UNL     1      11.793   6.884  17.083  1.00  0.00     0.146 A 
ATOM     11  O   UNL     1      11.925   5.608  17.421  1.00  0.00    -0.452 OA
ENDROOT
BRANCH   1  12
ATOM     12  C   UNL     1      12.834   3.727  18.626  1.00  0.00     0.025 A 
ATOM     13  C   UNL     1      12.315   3.272  19.849  1.00  0.00     0.016 A 
ATOM     14  C   UNL     1      12.351   1.913  20.171  1.00  0.00     0.051 A 
ATOM     15  C   UNL     1      12.919   0.992  19.286  1.00  0.00     0.157 A 
ATOM     16  C   UNL     1      13.424   2.802  17.747  1.00  0.00     0.062 A 
ATOM     17  C   UNL     1      13.462   1.437  18.069  1.00  0.00     0.158 A 
BRANCH  15  18
ATOM     18  O   UNL     1      12.938  -0.359  19.633  1.00  0.00    -0.504 OA
ATOM     19  H   UNL     1      13.152  -1.085  18.960  1.00  0.00     0.293 HD
ENDBRANCH  15  18
BRANCH  17  20
ATOM     20  O   UNL     1      14.042   0.526  17.188  1.00  0.00    -0.504 OA
ATOM     21  H   UNL     1      13.633   0.330  16.282  1.00  0.00     0.293 HD
ENDBRANCH  17  20
ENDBRANCH   1  12
BRANCH   2  22
ATOM     22  O   UNL     1      14.681   5.630  19.792  1.00  0.00    -0.502 OA
ATOM     23  H   UNL     1      14.634   4.724  20.244  1.00  0.00     0.293 HD
ENDBRANCH   2  22
BRANCH   6  24
ATOM     24  O   UNL     1      13.019  10.333  17.925  1.00  0.00    -0.507 OA
ATOM     25  H   UNL     1      12.595  11.234  18.085  1.00  0.00     0.293 HD
ENDBRANCH   6  24
BRANCH   8  26
ATOM     26  O   UNL     1       9.761   8.890  14.730  1.00  0.00    -0.508 OA
ATOM     27  H   UNL     1       9.277   9.781  14.740  1.00  0.00     0.293 HD
ENDBRANCH   8  26
TORSDOF 6
ENDMDL
MODEL 2
REMARK VINA RESULT:    31.912      4.724      8.149
REMARK INTER + INTRA:          38.171
REMARK INTER:                  38.434
REMARK INTRA:                  -0.263
REMARK UNBOUND:                -0.270
REMARK SMILES O=c1c(O)c(-c2ccc(O)c(O)c2)oc2cc(O)cc(O)c12
REMARK SMILES IDX 5 1 3 2 2 3 1 4 22 5 20 6 19 7 17 8 16 9 15 10 14 11 6 12
REMARK SMILES IDX 7 13 8 14 9 15 13 16 11 17 10 18 12 20 4 22 21 24 18 26
REMARK H PARENT 10 19 12 21 4 23 21 25 18 27
REMARK Flexibility Score: inf
ROOT
ATOM      1  C   UNL     1       9.353   9.952  19.412  1.00  0.00     0.180 A 
ATOM      2  C   UNL     1       8.854   9.453  18.196  1.00  0.00     0.208 A 
ATOM      3  C   UNL     1       9.758   8.963  17.240  1.00  0.00     0.238 A 
ATOM      4  O   UNL     1       9.310   8.567  16.131  1.00  0.00    -0.285 OA
ATOM      5  C   UNL     1      11.147   8.962  17.517  1.00  0.00     0.111 A 
ATOM      6  C   UNL     1      12.148   8.453  16.638  1.00  0.00     0.134 A 
ATOM      7  C   UNL     1      13.501   8.622  16.958  1.00  0.00     0.093 A 
ATOM      8  C   UNL     1      13.886   9.224  18.155  1.00  0.00     0.123 A 
ATOM      9  C   UNL     1      12.914   9.673  19.050  1.00  0.00     0.094 A 
ATOM     10  C   UNL     1      11.557   9.550  18.742  1.00  0.00     0.146 A 
ATOM     11  O   UNL     1      10.665   9.999  19.615  1.00  0.00    -0.452 OA
ENDROOT
BRANCH   1  12
ATOM     12  C   UNL     1       8.461  10.463  20.478  1.00  0.00     0.025 A 
ATOM     13  C   UNL     1       7.720   9.556  21.251  1.00  0.00     0.016 A 
ATOM     14  C   UNL     1       6.856  10.016  22.248  1.00  0.00     0.051 A 
ATOM     15  C   UNL     1       6.708  11.387  22.477  1.00  0.00     0.157 A 
ATOM     16  C   UNL     1       8.295  11.842  20.695  1.00  0.00     0.062 A 
ATOM     17  C   UNL     1       7.427  12.307  21.695  1.00  0.00     0.158 A 
BRANCH  15  18
ATOM     18  O   UNL     1       5.841  11.818  23.482  1.00  0.00    -0.504 OA
ATOM     19  H   UNL     1       4.901  12.136  23.281  1.00  0.00     0.293 HD
ENDBRANCH  15  18
BRANCH  17  20
ATOM     20  O   UNL     1       7.274  13.675  21.909  1.00  0.00    -0.504 OA
ATOM     21  H   UNL     1       7.049  14.049  22.824  1.00  0.00     0.293 HD
ENDBRANCH  17  20
ENDBRANCH   1  12
BRANCH   2  22
ATOM     22  O   UNL     1       7.482   9.482  17.934  1.00  0.00    -0.502 OA
ATOM     23  H   UNL     1       6.989  10.338  17.707  1.00  0.00     0.293 HD
ENDBRANCH   2  22
BRANCH   6  24
ATOM     24  O   UNL     1      11.870   7.752  15.459  1.00  0.00    -0.507 OA
ATOM     25  H   UNL     1      12.302   6.879  15.195  1.00  0.00     0.293 HD
ENDBRANCH   6  24
BRANCH   8  26
ATOM     26  O   UNL     1      15.241   9.363  18.450  1.00  0.00    -0.508 OA
ATOM     27  H   UNL     1      15.682   8.825  19.186  1.00  0.00     0.293 HD
ENDBRANCH   8  26
TORSDOF 6
ENDMDL
MODEL 3
REMARK VINA RESULT:    32.283      1.194      2.826
REMARK INTER + INTRA:          38.618
REMARK INTER:                  38.850
REMARK INTRA:                  -0.231
REMARK UNBOUND:                -0.270
REMARK SMILES O=c1c(O)c(-c2ccc(O)c(O)c2)oc2cc(O)cc(O)c12
REMARK SMILES IDX 5 1 3 2 2 3 1 4 22 5 20 6 19 7 17 8 16 9 15 10 14 11 6 12
REMARK SMILES IDX 7 13 8 14 9 15 13 16 11 17 10 18 12 20 4 22 21 24 18 26
REMARK H PARENT 10 19 12 21 4 23 21 25 18 27
REMARK Flexibility Score: inf
ROOT
ATOM      1  C   UNL     1      12.294   5.189  17.855  1.00  0.00     0.180 A 
ATOM      2  C   UNL     1      11.392   5.445  16.807  1.00  0.00     0.208 A 
ATOM      3  C   UNL     1      11.193   6.770  16.390  1.00  0.00     0.238 A 
ATOM      4  O   UNL     1      10.344   6.999  15.487  1.00  0.00    -0.285 OA
ATOM      5  C   UNL     1      11.907   7.822  17.013  1.00  0.00     0.111 A 
ATOM      6  C   UNL     1      11.813   9.196  16.643  1.00  0.00     0.134 A 
ATOM      7  C   UNL     1      12.467  10.166  17.413  1.00  0.00     0.093 A 
ATOM      8  C   UNL     1      13.264   9.805  18.499  1.00  0.00     0.123 A 
ATOM      9  C   UNL     1      13.410   8.459  18.834  1.00  0.00     0.094 A 
ATOM     10  C   UNL     1      12.742   7.471  18.105  1.00  0.00     0.146 A 
ATOM     11  O   UNL     1      12.900   6.203  18.463  1.00  0.00    -0.452 OA
ENDROOT
BRANCH   1  12
ATOM     12  C   UNL     1      12.576   3.817  18.334  1.00  0.00     0.025 A 
ATOM     13  C   UNL     1      12.195   3.447  19.633  1.00  0.00     0.016 A 
ATOM     14  C   UNL     1      12.470   2.164  20.113  1.00  0.00     0.051 A 
ATOM     15  C   UNL     1      13.142   1.238  19.311  1.00  0.00     0.157 A 
ATOM     16  C   UNL     1      13.271   2.891  17.536  1.00  0.00     0.062 A 
ATOM     17  C   UNL     1      13.550   1.603  18.016  1.00  0.00     0.158 A 
BRANCH  15  18
ATOM     18  O   UNL     1      13.400  -0.037  19.816  1.00  0.00    -0.504 OA
ATOM     19  H   UNL     1      13.827  -0.180  20.723  1.00  0.00     0.293 HD
ENDBRANCH  15  18
BRANCH  17  20
ATOM     20  O   UNL     1      14.232   0.689  17.215  1.00  0.00    -0.504 OA
ATOM     21  H   UNL     1      14.762   0.985  16.404  1.00  0.00     0.293 HD
ENDBRANCH  17  20
ENDBRANCH   1  12
BRANCH   2  22
ATOM     22  O   UNL     1      10.681   4.396  16.220  1.00  0.00    -0.502 OA
ATOM     23  H   UNL     1      11.058   3.838  15.463  1.00  0.00     0.293 HD
ENDBRANCH   2  22
BRANCH   6  24
ATOM     24  O   UNL     1      11.118   9.657  15.519  1.00  0.00    -0.507 OA
ATOM     25  H   UNL     1      10.404   9.137  15.033  1.00  0.00     0.293 HD
ENDBRANCH   6  24
BRANCH   8  26
ATOM     26  O   UNL     1      13.912  10.794  19.235  1.00  0.00    -0.508 OA
ATOM     27  H   UNL     1      14.917  10.918  19.188  1.00  0.00     0.293 HD
ENDBRANCH   8  26
TORSDOF 6
ENDMDL
MODEL 4
REMARK VINA RESULT:    32.821      4.685      7.510
REMARK INTER + INTRA:          39.266
REMARK INTER:                  39.503
REMARK INTRA:                  -0.237
REMARK UNBOUND:                -0.270
REMARK SMILES O=c1c(O)c(-c2ccc(O)c(O)c2)oc2cc(O)cc(O)c12
REMARK SMILES IDX 5 1 3 2 2 3 1 4 22 5 20 6 19 7 17 8 16 9 15 10 14 11 6 12
REMARK SMILES IDX 7 13 8 14 9 15 13 16 11 17 10 18 12 20 4 22 21 24 18 26
REMARK H PARENT 10 19 12 21 4 23 21 25 18 27
REMARK Flexibility Score: inf
ROOT
ATOM      1  C   UNL     1      10.026   9.993  19.646  1.00  0.00     0.180 A 
ATOM      2  C   UNL     1      11.372  10.199  19.996  1.00  0.00     0.208 A 
ATOM      3  C   UNL     1      12.377   9.749  19.125  1.00  0.00     0.238 A 
ATOM      4  O   UNL     1      13.581   9.887  19.468  1.00  0.00    -0.285 OA
ATOM      5  C   UNL     1      12.026   9.115  17.909  1.00  0.00     0.111 A 
ATOM      6  C   UNL     1      12.961   8.657  16.933  1.00  0.00     0.134 A 
ATOM      7  C   UNL     1      12.506   7.927  15.828  1.00  0.00     0.093 A 
ATOM      8  C   UNL     1      11.145   7.696  15.629  1.00  0.00     0.123 A 
ATOM      9  C   UNL     1      10.217   8.191  16.546  1.00  0.00     0.094 A 
ATOM     10  C   UNL     1      10.643   8.892  17.677  1.00  0.00     0.146 A 
ATOM     11  O   UNL     1       9.729   9.337  18.530  1.00  0.00    -0.452 OA
ENDROOT
BRANCH   1  12
ATOM     12  C   UNL     1       8.911  10.461  20.500  1.00  0.00     0.025 A 
ATOM     13  C   UNL     1       8.077   9.519  21.124  1.00  0.00     0.016 A 
ATOM     14  C   UNL     1       7.005   9.937  21.917  1.00  0.00     0.051 A 
ATOM     15  C   UNL     1       6.742  11.299  22.087  1.00  0.00     0.157 A 
ATOM     16  C   UNL     1       8.630  11.830  20.655  1.00  0.00     0.062 A 
ATOM     17  C   UNL     1       7.554  12.252  21.450  1.00  0.00     0.158 A 
BRANCH  15  18
ATOM     18  O   UNL     1       5.667  11.687  22.887  1.00  0.00    -0.504 OA
ATOM     19  H   UNL     1       5.799  12.130  23.788  1.00  0.00     0.293 HD
ENDBRANCH  15  18
BRANCH  17  20
ATOM     20  O   UNL     1       7.289  13.612  21.604  1.00  0.00    -0.504 OA
ATOM     21  H   UNL     1       7.723  14.158  22.339  1.00  0.00     0.293 HD
ENDBRANCH  17  20
ENDBRANCH   1  12
BRANCH   2  22
ATOM     22  O   UNL     1      11.698  10.807  21.210  1.00  0.00    -0.502 OA
ATOM     23  H   UNL     1      11.426  10.417  22.105  1.00  0.00     0.293 HD
ENDBRANCH   2  22
BRANCH   6  24
ATOM     24  O   UNL     1      14.335   8.913  16.988  1.00  0.00    -0.507 OA
ATOM     25  H   UNL     1      14.799   9.663  16.498  1.00  0.00     0.293 HD
ENDBRANCH   6  24
BRANCH   8  26
ATOM     26  O   UNL     1      10.725   6.980  14.511  1.00  0.00    -0.508 OA
ATOM     27  H   UNL     1      10.598   5.975  14.542  1.00  0.00     0.293 HD
ENDBRANCH   8  26
TORSDOF 6
ENDMDL
