MODEL 1
REMARK VINA RESULT:    -4.878      0.000      0.000
REMARK INTER + INTRA:          -9.182
REMARK INTER:                  -8.299
REMARK INTRA:                  -0.882
REMARK UNBOUND:                -0.882
REMARK SMILES CCCCCCCCCCCCCC(=O)[O-]
REMARK SMILES IDX 8 1 9 2 10 3 11 4 12 5 13 6 14 7 15 8 16 9 7 10 6 11 5 12
REMARK SMILES IDX 4 13 3 14 2 15 1 16
REMARK H PARENT
REMARK Flexibility Score: inf
ROOT
ATOM      1  C   UNL     1      28.447   4.065  32.008  1.00  0.00     0.000 C 
ENDROOT
BRANCH   1   2
ATOM      2  C   UNL     1      28.658   5.359  31.206  1.00  0.00     0.000 C 
BRANCH   2   3
ATOM      3  C   UNL     1      27.738   5.449  29.976  1.00  0.00     0.000 C 
BRANCH   3   4
ATOM      4  C   UNL     1      26.887   6.731  29.959  1.00  0.00     0.000 C 
BRANCH   4   5
ATOM      5  C   UNL     1      27.681   8.037  30.141  1.00  0.00     0.006 C 
BRANCH   5   6
ATOM      6  C   UNL     1      26.782   9.278  30.219  1.00  0.00     0.053 C 
BRANCH   6   7
ATOM      7  C   UNL     1      26.647   9.736  31.637  1.00  0.00     0.041 C 
ATOM      8  O   UNL     1      27.226  10.786  32.021  1.00  0.00    -0.550 OA
ATOM      9  O   UNL     1      25.922   8.978  32.547  1.00  0.00    -0.550 OA
ENDBRANCH   6   7
ENDBRANCH   5   6
ENDBRANCH   4   5
ENDBRANCH   3   4
ENDBRANCH   2   3
ENDBRANCH   1   2
BRANCH   1  10
ATOM     10  C   UNL     1      28.300   2.829  31.106  1.00  0.00     0.000 C 
BRANCH  10  11
ATOM     11  C   UNL     1      29.167   1.672  31.617  1.00  0.00    -0.000 C 
BRANCH  11  12
ATOM     12  C   UNL     1      29.750   0.864  30.446  1.00  0.00    -0.000 C 
BRANCH  12  13
ATOM     13  C   UNL     1      28.992   1.088  29.126  1.00  0.00    -0.000 C 
BRANCH  13  14
ATOM     14  C   UNL     1      27.951   0.006  28.782  1.00  0.00    -0.000 C 
BRANCH  14  15
ATOM     15  C   UNL     1      26.506   0.523  28.851  1.00  0.00    -0.003 C 
ATOM     16  C   UNL     1      25.822   0.075  30.139  1.00  0.00     0.004 C 
ENDBRANCH  14  15
ENDBRANCH  13  14
ENDBRANCH  12  13
ENDBRANCH  11  12
ENDBRANCH  10  11
ENDBRANCH   1  10
TORSDOF 12
ENDMDL
MODEL 2
REMARK VINA RESULT:    -4.817      7.438     10.792
REMARK INTER + INTRA:          -9.078
REMARK INTER:                  -8.141
REMARK INTRA:                  -0.937
REMARK UNBOUND:                -0.882
REMARK SMILES CCCCCCCCCCCCCC(=O)[O-]
REMARK SMILES IDX 8 1 9 2 10 3 11 4 12 5 13 6 14 7 15 8 16 9 7 10 6 11 5 12
REMARK SMILES IDX 4 13 3 14 2 15 1 16
REMARK H PARENT
REMARK Flexibility Score: inf
ROOT
ATOM      1  C   UNL     1      29.919  -0.818  30.171  1.00  0.00     0.000 C 
ENDROOT
BRANCH   1   2
ATOM      2  C   UNL     1      28.928  -1.956  29.882  1.00  0.00     0.000 C 
BRANCH   2   3
ATOM      3  C   UNL     1      29.617  -3.327  29.768  1.00  0.00     0.000 C 
BRANCH   3   4
ATOM      4  C   UNL     1      28.664  -4.500  30.057  1.00  0.00     0.000 C 
BRANCH   4   5
ATOM      5  C   UNL     1      29.358  -5.814  30.459  1.00  0.00     0.006 C 
BRANCH   5   6
ATOM      6  C   UNL     1      28.535  -7.059  30.102  1.00  0.00     0.053 C 
BRANCH   6   7
ATOM      7  C   UNL     1      28.965  -8.225  30.935  1.00  0.00     0.041 C 
ATOM      8  O   UNL     1      28.466  -8.408  32.076  1.00  0.00    -0.550 OA
ATOM      9  O   UNL     1      29.953  -9.084  30.471  1.00  0.00    -0.550 OA
ENDBRANCH   6   7
ENDBRANCH   5   6
ENDBRANCH   4   5
ENDBRANCH   3   4
ENDBRANCH   2   3
ENDBRANCH   1   2
BRANCH   1  10
ATOM     10  C   UNL     1      29.472   0.070  31.342  1.00  0.00     0.000 C 
BRANCH  10  11
ATOM     11  C   UNL     1      28.045  -0.277  31.781  1.00  0.00    -0.000 C 
BRANCH  11  12
ATOM     12  C   UNL     1      27.078   0.874  31.465  1.00  0.00    -0.000 C 
BRANCH  12  13
ATOM     13  C   UNL     1      26.310   0.668  30.147  1.00  0.00    -0.000 C 
BRANCH  13  14
ATOM     14  C   UNL     1      26.863   1.453  28.942  1.00  0.00    -0.000 C 
BRANCH  14  15
ATOM     15  C   UNL     1      27.829   2.575  29.352  1.00  0.00    -0.003 C 
ATOM     16  C   UNL     1      27.298   3.941  28.924  1.00  0.00     0.004 C 
ENDBRANCH  14  15
ENDBRANCH  13  14
ENDBRANCH  12  13
ENDBRANCH  11  12
ENDBRANCH  10  11
ENDBRANCH   1  10
TORSDOF 12
ENDMDL
MODEL 3
REMARK VINA RESULT:    -4.806      1.281      1.852
REMARK INTER + INTRA:          -9.060
REMARK INTER:                  -8.098
REMARK INTRA:                  -0.962
REMARK UNBOUND:                -0.882
REMARK SMILES CCCCCCCCCCCCCC(=O)[O-]
REMARK SMILES IDX 8 1 9 2 10 3 11 4 12 5 13 6 14 7 15 8 16 9 7 10 6 11 5 12
REMARK SMILES IDX 4 13 3 14 2 15 1 16
REMARK H PARENT
REMARK Flexibility Score: inf
ROOT
ATOM      1  C   UNL     1      28.334   2.771  31.125  1.00  0.00     0.000 C 
ENDROOT
BRANCH   1   2
ATOM      2  C   UNL     1      28.586   4.085  31.881  1.00  0.00     0.000 C 
BRANCH   2   3
ATOM      3  C   UNL     1      27.580   5.187  31.504  1.00  0.00     0.000 C 
BRANCH   3   4
ATOM      4  C   UNL     1      27.558   5.483  29.994  1.00  0.00     0.000 C 
BRANCH   4   5
ATOM      5  C   UNL     1      28.110   6.864  29.598  1.00  0.00     0.006 C 
BRANCH   5   6
ATOM      6  C   UNL     1      27.468   8.014  30.386  1.00  0.00     0.053 C 
BRANCH   6   7
ATOM      7  C   UNL     1      28.134   9.311  30.052  1.00  0.00     0.041 C 
ATOM      8  O   UNL     1      28.079  10.277  30.858  1.00  0.00    -0.550 OA
ATOM      9  O   UNL     1      28.774   9.470  28.830  1.00  0.00    -0.550 OA
ENDBRANCH   6   7
ENDBRANCH   5   6
ENDBRANCH   4   5
ENDBRANCH   3   4
ENDBRANCH   2   3
ENDBRANCH   1   2
BRANCH   1  10
ATOM     10  C   UNL     1      29.226   1.623  31.622  1.00  0.00     0.000 C 
BRANCH  10  11
ATOM     11  C   UNL     1      29.948   0.944  30.453  1.00  0.00    -0.000 C 
BRANCH  11  12
ATOM     12  C   UNL     1      29.763  -0.581  30.504  1.00  0.00    -0.000 C 
BRANCH  12  13
ATOM     13  C   UNL     1      28.578  -1.071  29.652  1.00  0.00    -0.000 C 
BRANCH  13  14
ATOM     14  C   UNL     1      28.035  -0.044  28.643  1.00  0.00    -0.000 C 
BRANCH  14  15
ATOM     15  C   UNL     1      26.549   0.280  28.860  1.00  0.00    -0.003 C 
ATOM     16  C   UNL     1      26.099  -0.113  30.265  1.00  0.00     0.004 C 
ENDBRANCH  14  15
ENDBRANCH  13  14
ENDBRANCH  12  13
ENDBRANCH  11  12
ENDBRANCH  10  11
ENDBRANCH   1  10
TORSDOF 12
ENDMDL
MODEL 4
REMARK VINA RESULT:    -4.784      3.616      7.730
REMARK INTER + INTRA:          -9.022
REMARK INTER:                  -8.239
REMARK INTRA:                  -0.782
REMARK UNBOUND:                -0.882
REMARK SMILES CCCCCCCCCCCCCC(=O)[O-]
REMARK SMILES IDX 8 1 9 2 10 3 11 4 12 5 13 6 14 7 15 8 16 9 7 10 6 11 5 12
REMARK SMILES IDX 4 13 3 14 2 15 1 16
REMARK H PARENT
REMARK Flexibility Score: inf
ROOT
ATOM      1  C   UNL     1      28.067   2.669  31.174  1.00  0.00     0.000 C 
ENDROOT
BRANCH   1   2
ATOM      2  C   UNL     1      29.150   1.758  31.771  1.00  0.00     0.000 C 
BRANCH   2   3
ATOM      3  C   UNL     1      29.843   0.887  30.708  1.00  0.00     0.000 C 
BRANCH   3   4
ATOM      4  C   UNL     1      29.270   1.101  29.296  1.00  0.00     0.000 C 
BRANCH   4   5
ATOM      5  C   UNL     1      28.511  -0.106  28.715  1.00  0.00     0.006 C 
BRANCH   5   6
ATOM      6  C   UNL     1      26.990   0.097  28.695  1.00  0.00     0.053 C 
BRANCH   6   7
ATOM      7  C   UNL     1      26.379  -0.403  29.966  1.00  0.00     0.041 C 
ATOM      8  O   UNL     1      26.702  -1.531  30.422  1.00  0.00    -0.550 OA
ATOM      9  O   UNL     1      25.418   0.356  30.621  1.00  0.00    -0.550 OA
ENDBRANCH   6   7
ENDBRANCH   5   6
ENDBRANCH   4   5
ENDBRANCH   3   4
ENDBRANCH   2   3
ENDBRANCH   1   2
BRANCH   1  10
ATOM     10  C   UNL     1      28.297   4.153  31.502  1.00  0.00     0.000 C 
BRANCH  10  11
ATOM     11  C   UNL     1      27.771   5.052  30.377  1.00  0.00    -0.000 C 
BRANCH  11  12
ATOM     12  C   UNL     1      28.189   6.513  30.600  1.00  0.00    -0.000 C 
BRANCH  12  13
ATOM     13  C   UNL     1      27.075   7.516  30.253  1.00  0.00    -0.000 C 
BRANCH  13  14
ATOM     14  C   UNL     1      27.500   8.996  30.279  1.00  0.00    -0.000 C 
BRANCH  14  15
ATOM     15  C   UNL     1      28.529   9.342  29.192  1.00  0.00    -0.003 C 
ATOM     16  C   UNL     1      28.129  10.608  28.439  1.00  0.00     0.004 C 
ENDBRANCH  14  15
ENDBRANCH  13  14
ENDBRANCH  12  13
ENDBRANCH  11  12
ENDBRANCH  10  11
ENDBRANCH   1  10
TORSDOF 12
ENDMDL
MODEL 5
REMARK VINA RESULT:    -4.780      1.369      2.539
REMARK INTER + INTRA:          -9.016
REMARK INTER:                  -8.133
REMARK INTRA:                  -0.883
REMARK UNBOUND:                -0.882
REMARK SMILES CCCCCCCCCCCCCC(=O)[O-]
REMARK SMILES IDX 8 1 9 2 10 3 11 4 12 5 13 6 14 7 15 8 16 9 7 10 6 11 5 12
REMARK SMILES IDX 4 13 3 14 2 15 1 16
REMARK H PARENT
REMARK Flexibility Score: inf
ROOT
ATOM      1  C   UNL     1      27.527   4.250  29.295  1.00  0.00     0.000 C 
ENDROOT
BRANCH   1   2
ATOM      2  C   UNL     1      27.631   4.948  30.661  1.00  0.00     0.000 C 
BRANCH   2   3
ATOM      3  C   UNL     1      28.320   6.321  30.573  1.00  0.00     0.000 C 
BRANCH   3   4
ATOM      4  C   UNL     1      27.340   7.460  30.243  1.00  0.00     0.000 C 
BRANCH   4   5
ATOM      5  C   UNL     1      28.001   8.760  29.751  1.00  0.00     0.006 C 
BRANCH   5   6
ATOM      6  C   UNL     1      28.011   9.866  30.815  1.00  0.00     0.053 C 
BRANCH   6   7
ATOM      7  C   UNL     1      26.621  10.140  31.295  1.00  0.00     0.041 C 
ATOM      8  O   UNL     1      25.778  10.673  30.526  1.00  0.00    -0.550 OA
ATOM      9  O   UNL     1      26.268   9.852  32.608  1.00  0.00    -0.550 OA
ENDBRANCH   6   7
ENDBRANCH   5   6
ENDBRANCH   4   5
ENDBRANCH   3   4
ENDBRANCH   2   3
ENDBRANCH   1   2
BRANCH   1  10
ATOM     10  C   UNL     1      27.941   2.772  29.354  1.00  0.00     0.000 C 
BRANCH  10  11
ATOM     11  C   UNL     1      26.785   1.861  28.926  1.00  0.00    -0.000 C 
BRANCH  11  12
ATOM     12  C   UNL     1      26.532   0.765  29.974  1.00  0.00    -0.000 C 
BRANCH  12  13
ATOM     13  C   UNL     1      27.175   1.078  31.337  1.00  0.00    -0.000 C 
BRANCH  13  14
ATOM     14  C   UNL     1      28.125  -0.009  31.873  1.00  0.00    -0.000 C 
BRANCH  14  15
ATOM     15  C   UNL     1      29.600   0.420  31.848  1.00  0.00    -0.003 C 
ATOM     16  C   UNL     1      30.231   0.143  30.486  1.00  0.00     0.004 C 
ENDBRANCH  14  15
ENDBRANCH  13  14
ENDBRANCH  12  13
ENDBRANCH  11  12
ENDBRANCH  10  11
ENDBRANCH   1  10
TORSDOF 12
ENDMDL
MODEL 6
REMARK VINA RESULT:    -4.780      1.745      2.937
REMARK INTER + INTRA:          -9.016
REMARK INTER:                  -8.250
REMARK INTRA:                  -0.766
REMARK UNBOUND:                -0.882
REMARK SMILES CCCCCCCCCCCCCC(=O)[O-]
REMARK SMILES IDX 8 1 9 2 10 3 11 4 12 5 13 6 14 7 15 8 16 9 7 10 6 11 5 12
REMARK SMILES IDX 4 13 3 14 2 15 1 16
REMARK H PARENT
REMARK Flexibility Score: inf
ROOT
ATOM      1  C   UNL     1      27.530   4.287  28.844  1.00  0.00     0.000 C 
ENDROOT
BRANCH   1   2
ATOM      2  C   UNL     1      26.981   5.460  29.672  1.00  0.00     0.000 C 
BRANCH   2   3
ATOM      3  C   UNL     1      28.095   6.299  30.322  1.00  0.00     0.000 C 
BRANCH   3   4
ATOM      4  C   UNL     1      27.996   7.795  29.975  1.00  0.00     0.000 C 
BRANCH   4   5
ATOM      5  C   UNL     1      26.886   8.560  30.720  1.00  0.00     0.006 C 
BRANCH   5   6
ATOM      6  C   UNL     1      26.573   9.923  30.089  1.00  0.00     0.053 C 
BRANCH   6   7
ATOM      7  C   UNL     1      27.838  10.628  29.716  1.00  0.00     0.041 C 
ATOM      8  O   UNL     1      28.576  11.121  30.609  1.00  0.00    -0.550 OA
ATOM      9  O   UNL     1      28.180  10.784  28.379  1.00  0.00    -0.550 OA
ENDBRANCH   6   7
ENDBRANCH   5   6
ENDBRANCH   4   5
ENDBRANCH   3   4
ENDBRANCH   2   3
ENDBRANCH   1   2
BRANCH   1  10
ATOM     10  C   UNL     1      27.645   2.991  29.661  1.00  0.00     0.000 C 
BRANCH  10  11
ATOM     11  C   UNL     1      26.895   1.843  28.975  1.00  0.00    -0.000 C 
BRANCH  11  12
ATOM     12  C   UNL     1      26.499   0.760  29.992  1.00  0.00    -0.000 C 
BRANCH  12  13
ATOM     13  C   UNL     1      27.110   0.992  31.385  1.00  0.00    -0.000 C 
BRANCH  13  14
ATOM     14  C   UNL     1      28.180  -0.033  31.805  1.00  0.00    -0.000 C 
BRANCH  14  15
ATOM     15  C   UNL     1      29.603   0.545  31.786  1.00  0.00    -0.003 C 
ATOM     16  C   UNL     1      30.253   0.362  30.417  1.00  0.00     0.004 C 
ENDBRANCH  14  15
ENDBRANCH  13  14
ENDBRANCH  12  13
ENDBRANCH  11  12
ENDBRANCH  10  11
ENDBRANCH   1  10
TORSDOF 12
ENDMDL
MODEL 7
REMARK VINA RESULT:    -4.753      3.991      7.904
REMARK INTER + INTRA:          -8.969
REMARK INTER:                  -8.147
REMARK INTRA:                  -0.822
REMARK UNBOUND:                -0.882
REMARK SMILES CCCCCCCCCCCCCC(=O)[O-]
REMARK SMILES IDX 8 1 9 2 10 3 11 4 12 5 13 6 14 7 15 8 16 9 7 10 6 11 5 12
REMARK SMILES IDX 4 13 3 14 2 15 1 16
REMARK H PARENT
REMARK Flexibility Score: inf
ROOT
ATOM      1  C   UNL     1      27.693   2.634  29.447  1.00  0.00     0.000 C 
ENDROOT
BRANCH   1   2
ATOM      2  C   UNL     1      26.966   1.396  28.901  1.00  0.00     0.000 C 
BRANCH   2   3
ATOM      3  C   UNL     1      26.280   0.576  30.008  1.00  0.00     0.000 C 
BRANCH   3   4
ATOM      4  C   UNL     1      26.869   0.847  31.403  1.00  0.00     0.000 C 
BRANCH   4   5
ATOM      5  C   UNL     1      27.836  -0.235  31.919  1.00  0.00     0.006 C 
BRANCH   5   6
ATOM      6  C   UNL     1      29.301   0.223  31.917  1.00  0.00     0.053 C 
BRANCH   6   7
ATOM      7  C   UNL     1      29.973  -0.186  30.644  1.00  0.00     0.041 C 
ATOM      8  O   UNL     1      29.669  -1.274  30.088  1.00  0.00    -0.550 OA
ATOM      9  O   UNL     1      30.970   0.611  30.097  1.00  0.00    -0.550 OA
ENDBRANCH   6   7
ENDBRANCH   5   6
ENDBRANCH   4   5
ENDBRANCH   3   4
ENDBRANCH   2   3
ENDBRANCH   1   2
BRANCH   1  10
ATOM     10  C   UNL     1      27.153   3.945  28.854  1.00  0.00     0.000 C 
BRANCH  10  11
ATOM     11  C   UNL     1      28.036   5.133  29.254  1.00  0.00    -0.000 C 
BRANCH  11  12
ATOM     12  C   UNL     1      27.355   5.984  30.337  1.00  0.00    -0.000 C 
BRANCH  12  13
ATOM     13  C   UNL     1      27.874   7.432  30.377  1.00  0.00    -0.000 C 
BRANCH  13  14
ATOM     14  C   UNL     1      26.780   8.514  30.420  1.00  0.00    -0.000 C 
BRANCH  14  15
ATOM     15  C   UNL     1      27.330   9.931  30.196  1.00  0.00    -0.003 C 
ATOM     16  C   UNL     1      28.610   9.900  29.366  1.00  0.00     0.004 C 
ENDBRANCH  14  15
ENDBRANCH  13  14
ENDBRANCH  12  13
ENDBRANCH  11  12
ENDBRANCH  10  11
ENDBRANCH   1  10
TORSDOF 12
ENDMDL
MODEL 8
REMARK VINA RESULT:    -4.735      1.549      2.894
REMARK INTER + INTRA:          -8.940
REMARK INTER:                  -7.847
REMARK INTRA:                  -1.092
REMARK UNBOUND:                -0.882
REMARK SMILES CCCCCCCCCCCCCC(=O)[O-]
REMARK SMILES IDX 8 1 9 2 10 3 11 4 12 5 13 6 14 7 15 8 16 9 7 10 6 11 5 12
REMARK SMILES IDX 4 13 3 14 2 15 1 16
REMARK H PARENT
REMARK Flexibility Score: inf
ROOT
ATOM      1  C   UNL     1      27.609   2.792  29.463  1.00  0.00     0.000 C 
ENDROOT
BRANCH   1   2
ATOM      2  C   UNL     1      27.779   2.934  30.983  1.00  0.00     0.000 C 
BRANCH   2   3
ATOM      3  C   UNL     1      28.115   4.374  31.409  1.00  0.00     0.000 C 
BRANCH   3   4
ATOM      4  C   UNL     1      27.708   5.419  30.354  1.00  0.00     0.000 C 
BRANCH   4   5
ATOM      5  C   UNL     1      28.250   6.837  30.606  1.00  0.00     0.006 C 
BRANCH   5   6
ATOM      6  C   UNL     1      27.221   7.933  30.299  1.00  0.00     0.053 C 
BRANCH   6   7
ATOM      7  C   UNL     1      27.910   9.228  30.003  1.00  0.00     0.041 C 
ATOM      8  O   UNL     1      28.304   9.483  28.835  1.00  0.00    -0.550 OA
ATOM      9  O   UNL     1      28.160  10.133  31.027  1.00  0.00    -0.550 OA
ENDBRANCH   6   7
ENDBRANCH   5   6
ENDBRANCH   4   5
ENDBRANCH   3   4
ENDBRANCH   2   3
ENDBRANCH   1   2
BRANCH   1  10
ATOM     10  C   UNL     1      26.945   1.464  29.064  1.00  0.00     0.000 C 
BRANCH  10  11
ATOM     11  C   UNL     1      26.396   0.735  30.296  1.00  0.00    -0.000 C 
BRANCH  11  12
ATOM     12  C   UNL     1      26.821  -0.742  30.295  1.00  0.00    -0.000 C 
BRANCH  12  13
ATOM     13  C   UNL     1      28.139  -0.987  31.052  1.00  0.00    -0.000 C 
BRANCH  13  14
ATOM     14  C   UNL     1      29.414  -0.840  30.202  1.00  0.00    -0.000 C 
BRANCH  14  15
ATOM     15  C   UNL     1      30.299   0.334  30.647  1.00  0.00    -0.003 C 
ATOM     16  C   UNL     1      30.012   0.721  32.095  1.00  0.00     0.004 C 
ENDBRANCH  14  15
ENDBRANCH  13  14
ENDBRANCH  12  13
ENDBRANCH  11  12
ENDBRANCH  10  11
ENDBRANCH   1  10
TORSDOF 12
ENDMDL
MODEL 9
REMARK VINA RESULT:    -4.697      2.560      4.517
REMARK INTER + INTRA:          -8.875
REMARK INTER:                  -7.634
REMARK INTRA:                  -1.240
REMARK UNBOUND:                -0.882
REMARK SMILES CCCCCCCCCCCCCC(=O)[O-]
REMARK SMILES IDX 8 1 9 2 10 3 11 4 12 5 13 6 14 7 15 8 16 9 7 10 6 11 5 12
REMARK SMILES IDX 4 13 3 14 2 15 1 16
REMARK H PARENT
REMARK Flexibility Score: inf
ROOT
ATOM      1  C   UNL     1      29.144   0.947  29.232  1.00  0.00     0.000 C 
ENDROOT
BRANCH   1   2
ATOM      2  C   UNL     1      30.030   0.684  30.461  1.00  0.00     0.000 C 
BRANCH   2   3
ATOM      3  C   UNL     1      29.465   1.317  31.744  1.00  0.00     0.000 C 
BRANCH   3   4
ATOM      4  C   UNL     1      28.382   2.373  31.462  1.00  0.00     0.000 C 
BRANCH   4   5
ATOM      5  C   UNL     1      28.778   3.817  31.818  1.00  0.00     0.006 C 
BRANCH   5   6
ATOM      6  C   UNL     1      27.583   4.780  31.825  1.00  0.00     0.053 C 
BRANCH   6   7
ATOM      7  C   UNL     1      27.693   5.756  30.696  1.00  0.00     0.041 C 
ATOM      8  O   UNL     1      28.464   6.747  30.788  1.00  0.00    -0.550 OA
ATOM      9  O   UNL     1      26.909   5.598  29.561  1.00  0.00    -0.550 OA
ENDBRANCH   6   7
ENDBRANCH   5   6
ENDBRANCH   4   5
ENDBRANCH   3   4
ENDBRANCH   2   3
ENDBRANCH   1   2
BRANCH   1  10
ATOM     10  C   UNL     1      28.309  -0.279  28.833  1.00  0.00     0.000 C 
BRANCH  10  11
ATOM     11  C   UNL     1      26.844  -0.105  29.250  1.00  0.00    -0.000 C 
BRANCH  11  12
ATOM     12  C   UNL     1      26.462  -1.109  30.349  1.00  0.00    -0.000 C 
BRANCH  12  13
ATOM     13  C   UNL     1      27.626  -2.034  30.747  1.00  0.00    -0.000 C 
BRANCH  13  14
ATOM     14  C   UNL     1      27.251  -3.519  30.904  1.00  0.00    -0.000 C 
BRANCH  14  15
ATOM     15  C   UNL     1      28.328  -4.470  30.361  1.00  0.00    -0.003 C 
ATOM     16  C   UNL     1      29.508  -3.692  29.783  1.00  0.00     0.004 C 
ENDBRANCH  14  15
ENDBRANCH  13  14
ENDBRANCH  12  13
ENDBRANCH  11  12
ENDBRANCH  10  11
ENDBRANCH   1  10
TORSDOF 12
ENDMDL
