MODEL 1
REMARK VINA RESULT:    -4.651      0.000      0.000
REMARK INTER + INTRA:          -5.893
REMARK INTER:                  -5.602
REMARK INTRA:                  -0.291
REMARK UNBOUND:                -0.291
REMARK SMILES O=c1c(O)c(-c2ccc(O)cc2O)oc2cc(O)cc(O)c12
REMARK SMILES IDX 5 1 3 2 2 3 1 4 22 5 20 6 19 7 17 8 16 9 15 10 14 11 6 12
REMARK SMILES IDX 8 13 7 14 9 15 11 16 12 17 10 18 13 20 4 22 21 24 18 26
REMARK H PARENT 10 19 13 21 4 23 21 25 18 27
REMARK Flexibility Score: inf
ROOT
ATOM      1  C   UNL     1      36.361  -3.594   6.628  1.00  0.00     0.184 A 
ATOM      2  C   UNL     1      36.902  -4.801   7.094  1.00  0.00     0.208 A 
ATOM      3  C   UNL     1      36.482  -5.301   8.338  1.00  0.00     0.238 A 
ATOM      4  O   UNL     1      36.926  -6.414   8.722  1.00  0.00    -0.285 OA
ATOM      5  C   UNL     1      35.548  -4.569   9.111  1.00  0.00     0.111 A 
ATOM      6  C   UNL     1      35.080  -4.960  10.402  1.00  0.00     0.134 A 
ATOM      7  C   UNL     1      34.063  -4.222  11.020  1.00  0.00     0.093 A 
ATOM      8  C   UNL     1      33.542  -3.071  10.423  1.00  0.00     0.123 A 
ATOM      9  C   UNL     1      34.032  -2.650   9.190  1.00  0.00     0.094 A 
ATOM     10  C   UNL     1      35.020  -3.384   8.530  1.00  0.00     0.146 A 
ATOM     11  O   UNL     1      35.449  -2.954   7.350  1.00  0.00    -0.451 OA
ENDROOT
BRANCH   1  12
ATOM     12  C   UNL     1      36.783  -3.008   5.338  1.00  0.00     0.063 A 
ATOM     13  C   UNL     1      37.803  -1.163   4.121  1.00  0.00     0.047 A 
ATOM     14  C   UNL     1      37.442  -1.766   5.328  1.00  0.00     0.020 A 
ATOM     15  C   UNL     1      37.504  -1.790   2.906  1.00  0.00     0.119 A 
ATOM     16  C   UNL     1      36.848  -3.023   2.905  1.00  0.00     0.093 A 
ATOM     17  C   UNL     1      36.491  -3.643   4.109  1.00  0.00     0.130 A 
BRANCH  15  18
ATOM     18  O   UNL     1      37.854  -1.196   1.696  1.00  0.00    -0.508 OA
ATOM     19  H   UNL     1      38.325  -1.718   0.966  1.00  0.00     0.293 HD
ENDBRANCH  15  18
BRANCH  17  20
ATOM     20  O   UNL     1      35.870  -4.893   4.049  1.00  0.00    -0.507 OA
ATOM     21  H   UNL     1      35.984  -5.530   3.271  1.00  0.00     0.293 HD
ENDBRANCH  17  20
ENDBRANCH   1  12
BRANCH   2  22
ATOM     22  O   UNL     1      37.826  -5.500   6.313  1.00  0.00    -0.502 OA
ATOM     23  H   UNL     1      38.751  -5.739   6.648  1.00  0.00     0.293 HD
ENDBRANCH   2  22
BRANCH   6  24
ATOM     24  O   UNL     1      35.597  -6.039  11.125  1.00  0.00    -0.507 OA
ATOM     25  H   UNL     1      35.627  -6.991  10.795  1.00  0.00     0.293 HD
ENDBRANCH   6  24
BRANCH   8  26
ATOM     26  O   UNL     1      32.543  -2.335  11.054  1.00  0.00    -0.508 OA
ATOM     27  H   UNL     1      32.390  -1.356  10.842  1.00  0.00     0.293 HD
ENDBRANCH   8  26
TORSDOF 6
ENDMDL
MODEL 2
REMARK VINA RESULT:    -4.327     10.874     13.471
REMARK INTER + INTRA:          -5.503
REMARK INTER:                  -5.153
REMARK INTRA:                  -0.350
REMARK UNBOUND:                -0.291
REMARK SMILES O=c1c(O)c(-c2ccc(O)cc2O)oc2cc(O)cc(O)c12
REMARK SMILES IDX 5 1 3 2 2 3 1 4 22 5 20 6 19 7 17 8 16 9 15 10 14 11 6 12
REMARK SMILES IDX 8 13 7 14 9 15 11 16 12 17 10 18 13 20 4 22 21 24 18 26
REMARK H PARENT 10 19 13 21 4 23 21 25 18 27
REMARK Flexibility Score: inf
ROOT
ATOM      1  C   UNL     1      30.334   6.426   4.394  1.00  0.00     0.184 A 
ATOM      2  C   UNL     1      29.102   6.272   3.743  1.00  0.00     0.208 A 
ATOM      3  C   UNL     1      29.077   5.712   2.455  1.00  0.00     0.238 A 
ATOM      4  O   UNL     1      27.963   5.520   1.902  1.00  0.00    -0.285 OA
ATOM      5  C   UNL     1      30.290   5.344   1.825  1.00  0.00     0.111 A 
ATOM      6  C   UNL     1      30.389   4.804   0.507  1.00  0.00     0.134 A 
ATOM      7  C   UNL     1      31.630   4.361   0.034  1.00  0.00     0.093 A 
ATOM      8  C   UNL     1      32.787   4.497   0.806  1.00  0.00     0.123 A 
ATOM      9  C   UNL     1      32.710   5.074   2.070  1.00  0.00     0.094 A 
ATOM     10  C   UNL     1      31.482   5.492   2.586  1.00  0.00     0.146 A 
ATOM     11  O   UNL     1      31.452   6.025   3.801  1.00  0.00    -0.451 OA
ENDROOT
BRANCH   1  12
ATOM     12  C   UNL     1      30.423   7.030   5.741  1.00  0.00     0.063 A 
ATOM     13  C   UNL     1      29.901   6.914   8.115  1.00  0.00     0.047 A 
ATOM     14  C   UNL     1      29.880   6.343   6.841  1.00  0.00     0.020 A 
ATOM     15  C   UNL     1      30.458   8.183   8.307  1.00  0.00     0.119 A 
ATOM     16  C   UNL     1      30.998   8.875   7.221  1.00  0.00     0.093 A 
ATOM     17  C   UNL     1      30.993   8.309   5.940  1.00  0.00     0.130 A 
BRANCH  15  18
ATOM     18  O   UNL     1      30.479   8.766   9.573  1.00  0.00    -0.508 OA
ATOM     19  H   UNL     1      30.866   8.279  10.373  1.00  0.00     0.293 HD
ENDBRANCH  15  18
BRANCH  17  20
ATOM     20  O   UNL     1      31.580   9.030   4.898  1.00  0.00    -0.507 OA
ATOM     21  H   UNL     1      31.640  10.040   4.889  1.00  0.00     0.293 HD
ENDBRANCH  17  20
ENDBRANCH   1  12
BRANCH   2  22
ATOM     22  O   UNL     1      27.919   6.648   4.387  1.00  0.00    -0.502 OA
ATOM     23  H   UNL     1      27.912   7.251   5.199  1.00  0.00     0.293 HD
ENDBRANCH   2  22
BRANCH   6  24
ATOM     24  O   UNL     1      29.313   4.709  -0.379  1.00  0.00    -0.507 OA
ATOM     25  H   UNL     1      28.770   5.490  -0.713  1.00  0.00     0.293 HD
ENDBRANCH   6  24
BRANCH   8  26
ATOM     26  O   UNL     1      34.019   4.068   0.319  1.00  0.00    -0.508 OA
ATOM     27  H   UNL     1      34.591   4.659  -0.273  1.00  0.00     0.293 HD
ENDBRANCH   8  26
TORSDOF 6
ENDMDL
MODEL 3
REMARK VINA RESULT:    -4.317      2.161      3.013
REMARK INTER + INTRA:          -5.491
REMARK INTER:                  -5.084
REMARK INTRA:                  -0.407
REMARK UNBOUND:                -0.291
REMARK SMILES O=c1c(O)c(-c2ccc(O)cc2O)oc2cc(O)cc(O)c12
REMARK SMILES IDX 5 1 3 2 2 3 1 4 22 5 20 6 19 7 17 8 16 9 15 10 14 11 6 12
REMARK SMILES IDX 8 13 7 14 9 15 11 16 12 17 10 18 13 20 4 22 21 24 18 26
REMARK H PARENT 10 19 13 21 4 23 21 25 18 27
REMARK Flexibility Score: inf
ROOT
ATOM      1  C   UNL     1      36.850  -3.808   4.714  1.00  0.00     0.184 A 
ATOM      2  C   UNL     1      36.112  -4.921   4.285  1.00  0.00     0.208 A 
ATOM      3  C   UNL     1      35.046  -5.378   5.077  1.00  0.00     0.238 A 
ATOM      4  O   UNL     1      34.350  -6.339   4.657  1.00  0.00    -0.285 OA
ATOM      5  C   UNL     1      34.753  -4.732   6.303  1.00  0.00     0.111 A 
ATOM      6  C   UNL     1      33.722  -5.133   7.205  1.00  0.00     0.134 A 
ATOM      7  C   UNL     1      33.443  -4.345   8.328  1.00  0.00     0.093 A 
ATOM      8  C   UNL     1      34.199  -3.207   8.617  1.00  0.00     0.123 A 
ATOM      9  C   UNL     1      35.245  -2.839   7.774  1.00  0.00     0.094 A 
ATOM     10  C   UNL     1      35.525  -3.583   6.625  1.00  0.00     0.146 A 
ATOM     11  O   UNL     1      36.521  -3.190   5.842  1.00  0.00    -0.451 OA
ENDROOT
BRANCH   1  12
ATOM     12  C   UNL     1      37.996  -3.297   3.933  1.00  0.00     0.063 A 
ATOM     13  C   UNL     1      40.385  -3.338   3.468  1.00  0.00     0.047 A 
ATOM     14  C   UNL     1      39.275  -3.839   4.151  1.00  0.00     0.020 A 
ATOM     15  C   UNL     1      40.234  -2.282   2.562  1.00  0.00     0.119 A 
ATOM     16  C   UNL     1      38.968  -1.735   2.339  1.00  0.00     0.093 A 
ATOM     17  C   UNL     1      37.846  -2.236   3.010  1.00  0.00     0.130 A 
BRANCH  15  18
ATOM     18  O   UNL     1      41.335  -1.770   1.878  1.00  0.00    -0.508 OA
ATOM     19  H   UNL     1      41.665  -0.825   2.038  1.00  0.00     0.293 HD
ENDBRANCH  15  18
BRANCH  17  20
ATOM     20  O   UNL     1      36.600  -1.675   2.721  1.00  0.00    -0.507 OA
ATOM     21  H   UNL     1      35.901  -1.488   3.428  1.00  0.00     0.293 HD
ENDBRANCH  17  20
ENDBRANCH   1  12
BRANCH   2  22
ATOM     22  O   UNL     1      36.425  -5.542   3.073  1.00  0.00    -0.502 OA
ATOM     23  H   UNL     1      37.207  -5.251   2.500  1.00  0.00     0.293 HD
ENDBRANCH   2  22
BRANCH   6  24
ATOM     24  O   UNL     1      32.968  -6.301   7.059  1.00  0.00    -0.507 OA
ATOM     25  H   UNL     1      33.347  -7.205   6.819  1.00  0.00     0.293 HD
ENDBRANCH   6  24
BRANCH   8  26
ATOM     26  O   UNL     1      33.924  -2.439   9.746  1.00  0.00    -0.508 OA
ATOM     27  H   UNL     1      34.626  -1.839  10.164  1.00  0.00     0.293 HD
ENDBRANCH   8  26
TORSDOF 6
ENDMDL
MODEL 4
REMARK VINA RESULT:    -4.315     11.579     12.537
REMARK INTER + INTRA:          -5.489
REMARK INTER:                  -5.168
REMARK INTRA:                  -0.321
REMARK UNBOUND:                -0.291
REMARK SMILES O=c1c(O)c(-c2ccc(O)cc2O)oc2cc(O)cc(O)c12
REMARK SMILES IDX 5 1 3 2 2 3 1 4 22 5 20 6 19 7 17 8 16 9 15 10 14 11 6 12
REMARK SMILES IDX 8 13 7 14 9 15 11 16 12 17 10 18 13 20 4 22 21 24 18 26
REMARK H PARENT 10 19 13 21 4 23 21 25 18 27
REMARK Flexibility Score: inf
ROOT
ATOM      1  C   UNL     1      29.406   3.187  -0.140  1.00  0.00     0.184 A 
ATOM      2  C   UNL     1      28.475   3.319   0.901  1.00  0.00     0.208 A 
ATOM      3  C   UNL     1      27.545   2.289   1.117  1.00  0.00     0.238 A 
ATOM      4  O   UNL     1      26.752   2.386   2.090  1.00  0.00    -0.285 OA
ATOM      5  C   UNL     1      27.541   1.155   0.269  1.00  0.00     0.111 A 
ATOM      6  C   UNL     1      26.619   0.069   0.370  1.00  0.00     0.134 A 
ATOM      7  C   UNL     1      26.788  -1.057  -0.445  1.00  0.00     0.093 A 
ATOM      8  C   UNL     1      27.805  -1.110  -1.401  1.00  0.00     0.123 A 
ATOM      9  C   UNL     1      28.674  -0.032  -1.547  1.00  0.00     0.094 A 
ATOM     10  C   UNL     1      28.556   1.091  -0.724  1.00  0.00     0.146 A 
ATOM     11  O   UNL     1      29.413   2.090  -0.888  1.00  0.00    -0.451 OA
ENDROOT
BRANCH   1  12
ATOM     12  C   UNL     1      30.394   4.249  -0.429  1.00  0.00     0.063 A 
ATOM     13  C   UNL     1      31.266   5.920  -1.967  1.00  0.00     0.047 A 
ATOM     14  C   UNL     1      30.315   4.951  -1.644  1.00  0.00     0.020 A 
ATOM     15  C   UNL     1      32.315   6.197  -1.083  1.00  0.00     0.119 A 
ATOM     16  C   UNL     1      32.403   5.504   0.126  1.00  0.00     0.093 A 
ATOM     17  C   UNL     1      31.450   4.538   0.467  1.00  0.00     0.130 A 
BRANCH  15  18
ATOM     18  O   UNL     1      33.273   7.159  -1.397  1.00  0.00    -0.508 OA
ATOM     19  H   UNL     1      33.710   7.725  -0.679  1.00  0.00     0.293 HD
ENDBRANCH  15  18
BRANCH  17  20
ATOM     20  O   UNL     1      31.567   3.902   1.705  1.00  0.00    -0.507 OA
ATOM     21  H   UNL     1      32.048   3.021   1.831  1.00  0.00     0.293 HD
ENDBRANCH  17  20
ENDBRANCH   1  12
BRANCH   2  22
ATOM     22  O   UNL     1      28.499   4.450   1.720  1.00  0.00    -0.502 OA
ATOM     23  H   UNL     1      27.656   4.939   1.996  1.00  0.00     0.293 HD
ENDBRANCH   2  22
BRANCH   6  24
ATOM     24  O   UNL     1      25.516   0.060   1.227  1.00  0.00    -0.507 OA
ATOM     25  H   UNL     1      24.595   0.392   0.984  1.00  0.00     0.293 HD
ENDBRANCH   6  24
BRANCH   8  26
ATOM     26  O   UNL     1      27.954  -2.228  -2.218  1.00  0.00    -0.508 OA
ATOM     27  H   UNL     1      28.397  -3.075  -1.883  1.00  0.00     0.293 HD
ENDBRANCH   8  26
TORSDOF 6
ENDMDL
MODEL 5
REMARK VINA RESULT:    -4.286      2.227      2.911
REMARK INTER + INTRA:          -5.454
REMARK INTER:                  -5.084
REMARK INTRA:                  -0.369
REMARK UNBOUND:                -0.291
REMARK SMILES O=c1c(O)c(-c2ccc(O)cc2O)oc2cc(O)cc(O)c12
REMARK SMILES IDX 5 1 3 2 2 3 1 4 22 5 20 6 19 7 17 8 16 9 15 10 14 11 6 12
REMARK SMILES IDX 8 13 7 14 9 15 11 16 12 17 10 18 13 20 4 22 21 24 18 26
REMARK H PARENT 10 19 13 21 4 23 21 25 18 27
REMARK Flexibility Score: inf
ROOT
ATOM      1  C   UNL     1      36.335  -2.993   6.640  1.00  0.00     0.184 A 
ATOM      2  C   UNL     1      35.833  -4.020   5.827  1.00  0.00     0.208 A 
ATOM      3  C   UNL     1      34.686  -4.717   6.241  1.00  0.00     0.238 A 
ATOM      4  O   UNL     1      34.206  -5.596   5.478  1.00  0.00    -0.285 OA
ATOM      5  C   UNL     1      34.075  -4.395   7.477  1.00  0.00     0.111 A 
ATOM      6  C   UNL     1      32.932  -5.061   8.014  1.00  0.00     0.134 A 
ATOM      7  C   UNL     1      32.339  -4.576   9.187  1.00  0.00     0.093 A 
ATOM      8  C   UNL     1      32.886  -3.490   9.876  1.00  0.00     0.123 A 
ATOM      9  C   UNL     1      34.034  -2.870   9.390  1.00  0.00     0.094 A 
ATOM     10  C   UNL     1      34.627  -3.306   8.203  1.00  0.00     0.146 A 
ATOM     11  O   UNL     1      35.713  -2.678   7.769  1.00  0.00    -0.451 OA
ENDROOT
BRANCH   1  12
ATOM     12  C   UNL     1      37.552  -2.241   6.267  1.00  0.00     0.063 A 
ATOM     13  C   UNL     1      38.617  -0.566   4.859  1.00  0.00     0.047 A 
ATOM     14  C   UNL     1      37.473  -1.253   5.270  1.00  0.00     0.020 A 
ATOM     15  C   UNL     1      39.858  -0.862   5.432  1.00  0.00     0.119 A 
ATOM     16  C   UNL     1      39.948  -1.844   6.422  1.00  0.00     0.093 A 
ATOM     17  C   UNL     1      38.807  -2.532   6.851  1.00  0.00     0.130 A 
BRANCH  15  18
ATOM     18  O   UNL     1      41.007  -0.187   5.026  1.00  0.00    -0.508 OA
ATOM     19  H   UNL     1      41.805  -0.081   5.643  1.00  0.00     0.293 HD
ENDBRANCH  15  18
BRANCH  17  20
ATOM     20  O   UNL     1      38.950  -3.477   7.869  1.00  0.00    -0.507 OA
ATOM     21  H   UNL     1      38.461  -4.363   7.873  1.00  0.00     0.293 HD
ENDBRANCH  17  20
ENDBRANCH   1  12
BRANCH   2  22
ATOM     22  O   UNL     1      36.458  -4.320   4.614  1.00  0.00    -0.502 OA
ATOM     23  H   UNL     1      36.070  -4.979   3.951  1.00  0.00     0.293 HD
ENDBRANCH   2  22
BRANCH   6  24
ATOM     24  O   UNL     1      32.363  -6.208   7.456  1.00  0.00    -0.507 OA
ATOM     25  H   UNL     1      31.494  -6.229   6.943  1.00  0.00     0.293 HD
ENDBRANCH   6  24
BRANCH   8  26
ATOM     26  O   UNL     1      32.298  -3.027  11.050  1.00  0.00    -0.508 OA
ATOM     27  H   UNL     1      31.400  -2.558  11.045  1.00  0.00     0.293 HD
ENDBRANCH   8  26
TORSDOF 6
ENDMDL
MODEL 6
REMARK VINA RESULT:    -4.260     11.740     13.741
REMARK INTER + INTRA:          -5.422
REMARK INTER:                  -5.022
REMARK INTRA:                  -0.400
REMARK UNBOUND:                -0.291
REMARK SMILES O=c1c(O)c(-c2ccc(O)cc2O)oc2cc(O)cc(O)c12
REMARK SMILES IDX 5 1 3 2 2 3 1 4 22 5 20 6 19 7 17 8 16 9 15 10 14 11 6 12
REMARK SMILES IDX 8 13 7 14 9 15 11 16 12 17 10 18 13 20 4 22 21 24 18 26
REMARK H PARENT 10 19 13 21 4 23 21 25 18 27
REMARK Flexibility Score: inf
ROOT
ATOM      1  C   UNL     1      29.150   3.309  -0.679  1.00  0.00     0.184 A 
ATOM      2  C   UNL     1      29.085   3.888  -1.955  1.00  0.00     0.208 A 
ATOM      3  C   UNL     1      28.850   3.063  -3.067  1.00  0.00     0.238 A 
ATOM      4  O   UNL     1      28.732   3.597  -4.200  1.00  0.00    -0.285 OA
ATOM      5  C   UNL     1      28.712   1.665  -2.888  1.00  0.00     0.111 A 
ATOM      6  C   UNL     1      28.510   0.729  -3.947  1.00  0.00     0.134 A 
ATOM      7  C   UNL     1      28.265  -0.616  -3.641  1.00  0.00     0.093 A 
ATOM      8  C   UNL     1      28.278  -1.069  -2.320  1.00  0.00     0.123 A 
ATOM      9  C   UNL     1      28.531  -0.173  -1.284  1.00  0.00     0.094 A 
ATOM     10  C   UNL     1      28.743   1.181  -1.553  1.00  0.00     0.146 A 
ATOM     11  O   UNL     1      28.967   2.002  -0.535  1.00  0.00    -0.451 OA
ENDROOT
BRANCH   1  12
ATOM     12  C   UNL     1      29.418   4.124   0.524  1.00  0.00     0.063 A 
ATOM     13  C   UNL     1      28.561   5.448   2.378  1.00  0.00     0.047 A 
ATOM     14  C   UNL     1      28.338   4.629   1.270  1.00  0.00     0.020 A 
ATOM     15  C   UNL     1      29.867   5.781   2.755  1.00  0.00     0.119 A 
ATOM     16  C   UNL     1      30.948   5.286   2.020  1.00  0.00     0.093 A 
ATOM     17  C   UNL     1      30.738   4.455   0.913  1.00  0.00     0.130 A 
BRANCH  15  18
ATOM     18  O   UNL     1      30.102   6.601   3.856  1.00  0.00    -0.508 OA
ATOM     19  H   UNL     1      29.589   7.464   3.992  1.00  0.00     0.293 HD
ENDBRANCH  15  18
BRANCH  17  20
ATOM     20  O   UNL     1      31.855   3.960   0.238  1.00  0.00    -0.507 OA
ATOM     21  H   UNL     1      32.045   2.971   0.134  1.00  0.00     0.293 HD
ENDBRANCH  17  20
ENDBRANCH   1  12
BRANCH   2  22
ATOM     22  O   UNL     1      29.229   5.271  -2.102  1.00  0.00    -0.502 OA
ATOM     23  H   UNL     1      29.666   5.850  -1.397  1.00  0.00     0.293 HD
ENDBRANCH   2  22
BRANCH   6  24
ATOM     24  O   UNL     1      28.568   1.060  -5.303  1.00  0.00    -0.507 OA
ATOM     25  H   UNL     1      28.141   1.875  -5.716  1.00  0.00     0.293 HD
ENDBRANCH   6  24
BRANCH   8  26
ATOM     26  O   UNL     1      28.049  -2.411  -2.027  1.00  0.00    -0.508 OA
ATOM     27  H   UNL     1      27.147  -2.737  -1.700  1.00  0.00     0.293 HD
ENDBRANCH   8  26
TORSDOF 6
ENDMDL
MODEL 7
REMARK VINA RESULT:    -4.248     11.592     13.482
REMARK INTER + INTRA:          -5.408
REMARK INTER:                  -5.005
REMARK INTRA:                  -0.403
REMARK UNBOUND:                -0.291
REMARK SMILES O=c1c(O)c(-c2ccc(O)cc2O)oc2cc(O)cc(O)c12
REMARK SMILES IDX 5 1 3 2 2 3 1 4 22 5 20 6 19 7 17 8 16 9 15 10 14 11 6 12
REMARK SMILES IDX 8 13 7 14 9 15 11 16 12 17 10 18 13 20 4 22 21 24 18 26
REMARK H PARENT 10 19 13 21 4 23 21 25 18 27
REMARK Flexibility Score: inf
ROOT
ATOM      1  C   UNL     1      27.275  -2.515  -1.783  1.00  0.00     0.184 A 
ATOM      2  C   UNL     1      26.410  -2.718  -2.868  1.00  0.00     0.208 A 
ATOM      3  C   UNL     1      26.298  -4.006  -3.418  1.00  0.00     0.238 A 
ATOM      4  O   UNL     1      25.476  -4.194  -4.352  1.00  0.00    -0.285 OA
ATOM      5  C   UNL     1      27.076  -5.065  -2.892  1.00  0.00     0.111 A 
ATOM      6  C   UNL     1      27.073  -6.401  -3.395  1.00  0.00     0.134 A 
ATOM      7  C   UNL     1      27.790  -7.396  -2.718  1.00  0.00     0.093 A 
ATOM      8  C   UNL     1      28.561  -7.090  -1.594  1.00  0.00     0.123 A 
ATOM      9  C   UNL     1      28.616  -5.778  -1.129  1.00  0.00     0.094 A 
ATOM     10  C   UNL     1      27.883  -4.771  -1.760  1.00  0.00     0.146 A 
ATOM     11  O   UNL     1      27.954  -3.537  -1.276  1.00  0.00    -0.451 OA
ENDROOT
BRANCH   1  12
ATOM     12  C   UNL     1      27.451  -1.177  -1.179  1.00  0.00     0.063 A 
ATOM     13  C   UNL     1      26.718   0.495   0.430  1.00  0.00     0.047 A 
ATOM     14  C   UNL     1      26.610  -0.782  -0.122  1.00  0.00     0.020 A 
ATOM     15  C   UNL     1      27.661   1.400  -0.069  1.00  0.00     0.119 A 
ATOM     16  C   UNL     1      28.499   1.019  -1.120  1.00  0.00     0.093 A 
ATOM     17  C   UNL     1      28.409  -0.263  -1.675  1.00  0.00     0.130 A 
BRANCH  15  18
ATOM     18  O   UNL     1      27.773   2.680   0.470  1.00  0.00    -0.508 OA
ATOM     19  H   UNL     1      28.036   2.825   1.438  1.00  0.00     0.293 HD
ENDBRANCH  15  18
BRANCH  17  20
ATOM     20  O   UNL     1      29.297  -0.603  -2.698  1.00  0.00    -0.507 OA
ATOM     21  H   UNL     1      29.822   0.083  -3.225  1.00  0.00     0.293 HD
ENDBRANCH  17  20
ENDBRANCH   1  12
BRANCH   2  22
ATOM     22  O   UNL     1      25.657  -1.653  -3.371  1.00  0.00    -0.502 OA
ATOM     23  H   UNL     1      24.942  -1.189  -2.826  1.00  0.00     0.293 HD
ENDBRANCH   2  22
BRANCH   6  24
ATOM     24  O   UNL     1      26.411  -6.795  -4.561  1.00  0.00    -0.507 OA
ATOM     25  H   UNL     1      25.451  -7.103  -4.602  1.00  0.00     0.293 HD
ENDBRANCH   6  24
BRANCH   8  26
ATOM     26  O   UNL     1      29.284  -8.083  -0.937  1.00  0.00    -0.508 OA
ATOM     27  H   UNL     1      29.454  -8.043   0.061  1.00  0.00     0.293 HD
ENDBRANCH   8  26
TORSDOF 6
ENDMDL
MODEL 8
REMARK VINA RESULT:    -4.230      1.599      6.862
REMARK INTER + INTRA:          -5.386
REMARK INTER:                  -4.983
REMARK INTRA:                  -0.403
REMARK UNBOUND:                -0.291
REMARK SMILES O=c1c(O)c(-c2ccc(O)cc2O)oc2cc(O)cc(O)c12
REMARK SMILES IDX 5 1 3 2 2 3 1 4 22 5 20 6 19 7 17 8 16 9 15 10 14 11 6 12
REMARK SMILES IDX 8 13 7 14 9 15 11 16 12 17 10 18 13 20 4 22 21 24 18 26
REMARK H PARENT 10 19 13 21 4 23 21 25 18 27
REMARK Flexibility Score: inf
ROOT
ATOM      1  C   UNL     1      36.835  -3.411   6.410  1.00  0.00     0.184 A 
ATOM      2  C   UNL     1      36.329  -3.788   5.157  1.00  0.00     0.208 A 
ATOM      3  C   UNL     1      36.811  -3.143   4.006  1.00  0.00     0.238 A 
ATOM      4  O   UNL     1      36.398  -3.528   2.881  1.00  0.00    -0.285 OA
ATOM      5  C   UNL     1      37.770  -2.109   4.128  1.00  0.00     0.111 A 
ATOM      6  C   UNL     1      38.300  -1.360   3.034  1.00  0.00     0.134 A 
ATOM      7  C   UNL     1      39.335  -0.445   3.262  1.00  0.00     0.093 A 
ATOM      8  C   UNL     1      39.816  -0.205   4.551  1.00  0.00     0.123 A 
ATOM      9  C   UNL     1      39.266  -0.889   5.633  1.00  0.00     0.094 A 
ATOM     10  C   UNL     1      38.258  -1.835   5.435  1.00  0.00     0.146 A 
ATOM     11  O   UNL     1      37.771  -2.474   6.491  1.00  0.00    -0.451 OA
ENDROOT
BRANCH   1  12
ATOM     12  C   UNL     1      36.348  -4.038   7.657  1.00  0.00     0.063 A 
ATOM     13  C   UNL     1      36.537  -5.819   9.305  1.00  0.00     0.047 A 
ATOM     14  C   UNL     1      37.007  -5.174   8.160  1.00  0.00     0.020 A 
ATOM     15  C   UNL     1      35.395  -5.344   9.960  1.00  0.00     0.119 A 
ATOM     16  C   UNL     1      34.731  -4.218   9.467  1.00  0.00     0.093 A 
ATOM     17  C   UNL     1      35.200  -3.555   8.326  1.00  0.00     0.130 A 
BRANCH  15  18
ATOM     18  O   UNL     1      34.913  -5.983  11.100  1.00  0.00    -0.508 OA
ATOM     19  H   UNL     1      34.395  -6.853  11.041  1.00  0.00     0.293 HD
ENDBRANCH  15  18
BRANCH  17  20
ATOM     20  O   UNL     1      34.518  -2.413   7.900  1.00  0.00    -0.507 OA
ATOM     21  H   UNL     1      34.639  -2.008   6.981  1.00  0.00     0.293 HD
ENDBRANCH  17  20
ENDBRANCH   1  12
BRANCH   2  22
ATOM     22  O   UNL     1      35.379  -4.809   5.065  1.00  0.00    -0.502 OA
ATOM     23  H   UNL     1      35.524  -5.636   4.500  1.00  0.00     0.293 HD
ENDBRANCH   2  22
BRANCH   6  24
ATOM     24  O   UNL     1      37.830  -1.457   1.722  1.00  0.00    -0.507 OA
ATOM     25  H   UNL     1      37.073  -0.910   1.340  1.00  0.00     0.293 HD
ENDBRANCH   6  24
BRANCH   8  26
ATOM     26  O   UNL     1      40.834   0.720   4.769  1.00  0.00    -0.508 OA
ATOM     27  H   UNL     1      41.810   0.450   4.743  1.00  0.00     0.293 HD
ENDBRANCH   8  26
TORSDOF 6
ENDMDL
MODEL 9
REMARK VINA RESULT:    -4.198      3.389      6.482
REMARK INTER + INTRA:          -5.347
REMARK INTER:                  -4.971
REMARK INTRA:                  -0.376
REMARK UNBOUND:                -0.291
REMARK SMILES O=c1c(O)c(-c2ccc(O)cc2O)oc2cc(O)cc(O)c12
REMARK SMILES IDX 5 1 3 2 2 3 1 4 22 5 20 6 19 7 17 8 16 9 15 10 14 11 6 12
REMARK SMILES IDX 8 13 7 14 9 15 11 16 12 17 10 18 13 20 4 22 21 24 18 26
REMARK H PARENT 10 19 13 21 4 23 21 25 18 27
REMARK Flexibility Score: inf
ROOT
ATOM      1  C   UNL     1      35.231  -5.617   4.439  1.00  0.00     0.184 A 
ATOM      2  C   UNL     1      35.384  -5.207   5.772  1.00  0.00     0.208 A 
ATOM      3  C   UNL     1      36.077  -4.016   6.044  1.00  0.00     0.238 A 
ATOM      4  O   UNL     1      36.157  -3.624   7.237  1.00  0.00    -0.285 OA
ATOM      5  C   UNL     1      36.633  -3.268   4.978  1.00  0.00     0.111 A 
ATOM      6  C   UNL     1      37.389  -2.067   5.139  1.00  0.00     0.134 A 
ATOM      7  C   UNL     1      37.785  -1.345   4.006  1.00  0.00     0.093 A 
ATOM      8  C   UNL     1      37.509  -1.813   2.719  1.00  0.00     0.123 A 
ATOM      9  C   UNL     1      36.823  -3.013   2.552  1.00  0.00     0.094 A 
ATOM     10  C   UNL     1      36.381  -3.738   3.661  1.00  0.00     0.146 A 
ATOM     11  O   UNL     1      35.718  -4.870   3.457  1.00  0.00    -0.451 OA
ENDROOT
BRANCH   1  12
ATOM     12  C   UNL     1      34.531  -6.873   4.095  1.00  0.00     0.063 A 
ATOM     13  C   UNL     1      34.487  -9.306   4.114  1.00  0.00     0.047 A 
ATOM     14  C   UNL     1      35.097  -8.103   4.474  1.00  0.00     0.020 A 
ATOM     15  C   UNL     1      33.305  -9.298   3.365  1.00  0.00     0.119 A 
ATOM     16  C   UNL     1      32.736  -8.081   2.981  1.00  0.00     0.093 A 
ATOM     17  C   UNL     1      33.332  -6.868   3.345  1.00  0.00     0.130 A 
BRANCH  15  18
ATOM     18  O   UNL     1      32.690 -10.492   2.995  1.00  0.00    -0.508 OA
ATOM     19  H   UNL     1      32.915 -10.956   2.123  1.00  0.00     0.293 HD
ENDBRANCH  15  18
BRANCH  17  20
ATOM     20  O   UNL     1      32.699  -5.682   2.966  1.00  0.00    -0.507 OA
ATOM     21  H   UNL     1      32.801  -5.270   2.048  1.00  0.00     0.293 HD
ENDBRANCH  17  20
ENDBRANCH   1  12
BRANCH   2  22
ATOM     22  O   UNL     1      34.828  -5.968   6.805  1.00  0.00    -0.502 OA
ATOM     23  H   UNL     1      34.947  -5.728   7.781  1.00  0.00     0.293 HD
ENDBRANCH   2  22
BRANCH   6  24
ATOM     24  O   UNL     1      37.796  -1.561   6.376  1.00  0.00    -0.507 OA
ATOM     25  H   UNL     1      38.352  -2.064   7.050  1.00  0.00     0.293 HD
ENDBRANCH   6  24
BRANCH   8  26
ATOM     26  O   UNL     1      37.922  -1.096   1.599  1.00  0.00    -0.508 OA
ATOM     27  H   UNL     1      38.463  -0.243   1.684  1.00  0.00     0.293 HD
ENDBRANCH   8  26
TORSDOF 6
ENDMDL
