MODEL 1
REMARK VINA RESULT:    -8.221      0.000      0.000
REMARK INTER + INTRA:         -16.795
REMARK INTER:                 -13.508
REMARK INTRA:                  -3.287
REMARK UNBOUND:                -3.287
REMARK SMILES C[C@H]1O[C@@H](OC[C@@H]2O[C@@H](Oc3c(-c4ccc(O)c(O)c4)oc4cc(O)cc(O)c4c3=O)[C@H](O)[C@H](O)[C@H]2O)[C@@H](O)[C@@H](O)[C@H]1O
REMARK SMILES IDX 7 1 36 2 34 3 32 4 9 5 8 6 6 7 5 8 4 9 1 10 2 11 42 12 3 13
REMARK SMILES IDX 40 14 38 15 43 16 41 18 39 20 37 22 35 24 10 26 11 27 12 28
REMARK SMILES IDX 30 29 21 30 29 31 31 32 22 33 27 34 23 35 26 36 24 37 13 38
REMARK SMILES IDX 20 39 14 40 18 41 15 42 16 43 19 44 17 46 28 48 25 50 33 52
REMARK H PARENT 43 17 41 19 39 21 37 23 35 25 19 45 17 47 28 49 25 51 33 53
REMARK Flexibility Score: inf
ROOT
ATOM      1  C   UNL     1      11.755  40.895  41.560  1.00  0.00     0.180 C 
ATOM      2  C   UNL     1      13.107  40.128  41.577  1.00  0.00     0.177 C 
ATOM      3  C   UNL     1      13.171  39.139  42.748  1.00  0.00     0.180 C 
ATOM      4  C   UNL     1      12.628  39.794  44.016  1.00  0.00     0.214 C 
ATOM      5  C   UNL     1      11.166  40.282  43.792  1.00  0.00     0.339 C 
ATOM      6  O   UNL     1      10.780  40.305  42.423  1.00  0.00    -0.332 OA
ENDROOT
BRANCH   1   7
ATOM      7  C   UNL     1      11.903  42.417  41.786  1.00  0.00     0.198 C 
BRANCH   7   8
ATOM      8  O   UNL     1      10.619  42.959  42.019  1.00  0.00    -0.347 OA
BRANCH   8   9
ATOM      9  C   UNL     1       9.846  43.095  40.828  1.00  0.00     0.281 C 
ATOM     10  C   UNL     1      10.298  46.293  41.922  1.00  0.00     0.041 C 
ATOM     11  C   UNL     1       9.232  45.351  41.362  1.00  0.00     0.150 C 
ATOM     12  C   UNL     1       8.354  44.704  42.476  1.00  0.00     0.174 C 
ATOM     13  O   UNL     1       9.838  44.454  40.419  1.00  0.00    -0.344 OA
ATOM     14  C   UNL     1       7.535  43.518  41.886  1.00  0.00     0.179 C 
ATOM     15  C   UNL     1       8.377  42.600  40.962  1.00  0.00     0.202 C 
BRANCH  12  16
ATOM     16  O   UNL     1       9.149  44.357  43.590  1.00  0.00    -0.388 OA
ATOM     17  H   UNL     1       9.066  43.388  43.783  1.00  0.00     0.211 HD
ENDBRANCH  12  16
BRANCH  14  18
ATOM     18  O   UNL     1       6.907  42.774  42.898  1.00  0.00    -0.387 OA
ATOM     19  H   UNL     1       7.619  42.254  43.361  1.00  0.00     0.211 HD
ENDBRANCH  14  18
BRANCH  15  20
ATOM     20  O   UNL     1       8.320  41.263  41.370  1.00  0.00    -0.385 OA
ATOM     21  H   UNL     1       7.374  40.967  41.303  1.00  0.00     0.211 HD
ENDBRANCH  15  20
ENDBRANCH   8   9
ENDBRANCH   7   8
ENDBRANCH   1   7
BRANCH   2  22
ATOM     22  O   UNL     1      13.267  39.426  40.367  1.00  0.00    -0.387 OA
ATOM     23  H   UNL     1      12.526  38.767  40.325  1.00  0.00     0.211 HD
ENDBRANCH   2  22
BRANCH   3  24
ATOM     24  O   UNL     1      14.504  38.732  42.971  1.00  0.00    -0.387 OA
ATOM     25  H   UNL     1      14.492  38.179  43.795  1.00  0.00     0.211 HD
ENDBRANCH   3  24
BRANCH   5  26
ATOM     26  O   UNL     1      10.241  39.434  44.497  1.00  0.00    -0.454 OA
BRANCH  26  27
ATOM     27  C   UNL     1       9.439  39.854  45.575  1.00  0.00     0.214 A 
ATOM     28  C   UNL     1       9.859  39.771  46.919  1.00  0.00     0.180 A 
ATOM     29  C   UNL     1       8.154  40.340  45.297  1.00  0.00     0.239 A 
ATOM     30  O   UNL     1       9.014  40.088  47.896  1.00  0.00    -0.452 OA
ATOM     31  C   UNL     1       7.276  40.676  46.358  1.00  0.00     0.111 A 
ATOM     32  O   UNL     1       7.810  40.428  44.088  1.00  0.00    -0.285 OA
ATOM     33  C   UNL     1       7.773  40.519  47.683  1.00  0.00     0.146 A 
ATOM     34  C   UNL     1       5.929  41.136  46.196  1.00  0.00     0.134 A 
ATOM     35  C   UNL     1       6.968  40.803  48.784  1.00  0.00     0.094 A 
ATOM     36  C   UNL     1       5.146  41.404  47.322  1.00  0.00     0.093 A 
ATOM     37  C   UNL     1       5.659  41.231  48.612  1.00  0.00     0.123 A 
BRANCH  28  38
ATOM     38  C   UNL     1      11.228  39.360  47.283  1.00  0.00     0.025 A 
ATOM     39  C   UNL     1      11.568  38.001  47.280  1.00  0.00     0.062 A 
ATOM     40  C   UNL     1      12.212  40.308  47.614  1.00  0.00     0.016 A 
ATOM     41  C   UNL     1      12.881  37.594  47.557  1.00  0.00     0.158 A 
ATOM     42  C   UNL     1      13.513  39.906  47.911  1.00  0.00     0.051 A 
ATOM     43  C   UNL     1      13.858  38.551  47.885  1.00  0.00     0.157 A 
BRANCH  41  44
ATOM     44  O   UNL     1      13.215  36.243  47.500  1.00  0.00    -0.504 OA
ATOM     45  H   UNL     1      13.473  35.731  48.335  1.00  0.00     0.293 HD
ENDBRANCH  41  44
BRANCH  43  46
ATOM     46  O   UNL     1      15.171  38.184  48.192  1.00  0.00    -0.504 OA
ATOM     47  H   UNL     1      15.896  38.877  48.348  1.00  0.00     0.293 HD
ENDBRANCH  43  46
ENDBRANCH  28  38
BRANCH  34  48
ATOM     48  O   UNL     1       5.299  41.321  44.959  1.00  0.00    -0.507 OA
ATOM     49  H   UNL     1       4.382  41.705  44.800  1.00  0.00     0.293 HD
ENDBRANCH  34  48
BRANCH  37  50
ATOM     50  O   UNL     1       4.863  41.490  49.734  1.00  0.00    -0.508 OA
ATOM     51  H   UNL     1       4.537  40.742  50.339  1.00  0.00     0.293 HD
ENDBRANCH  37  50
ENDBRANCH  26  27
ENDBRANCH   5  26
BRANCH   4  52
ATOM     52  O   UNL     1      13.450  40.875  44.374  1.00  0.00    -0.384 OA
ATOM     53  H   UNL     1      12.945  41.705  44.158  1.00  0.00     0.211 HD
ENDBRANCH   4  52
TORSDOF 16
ENDMDL
MODEL 2
REMARK VINA RESULT:    -7.671      3.138      4.631
REMARK INTER + INTRA:         -15.891
REMARK INTER:                 -13.864
REMARK INTRA:                  -2.027
REMARK UNBOUND:                -3.287
REMARK SMILES C[C@H]1O[C@@H](OC[C@@H]2O[C@@H](Oc3c(-c4ccc(O)c(O)c4)oc4cc(O)cc(O)c4c3=O)[C@H](O)[C@H](O)[C@H]2O)[C@@H](O)[C@@H](O)[C@H]1O
REMARK SMILES IDX 7 1 36 2 34 3 32 4 9 5 8 6 6 7 5 8 4 9 1 10 2 11 42 12 3 13
REMARK SMILES IDX 40 14 38 15 43 16 41 18 39 20 37 22 35 24 10 26 11 27 12 28
REMARK SMILES IDX 30 29 21 30 29 31 31 32 22 33 27 34 23 35 26 36 24 37 13 38
REMARK SMILES IDX 20 39 14 40 18 41 15 42 16 43 19 44 17 46 28 48 25 50 33 52
REMARK H PARENT 43 17 41 19 39 21 37 23 35 25 19 45 17 47 28 49 25 51 33 53
REMARK Flexibility Score: inf
ROOT
ATOM      1  C   UNL     1      11.128  40.224  42.839  1.00  0.00     0.180 C 
ATOM      2  C   UNL     1      12.304  41.151  43.256  1.00  0.00     0.177 C 
ATOM      3  C   UNL     1      13.107  40.544  44.414  1.00  0.00     0.180 C 
ATOM      4  C   UNL     1      12.159  39.965  45.462  1.00  0.00     0.214 C 
ATOM      5  C   UNL     1      11.230  38.892  44.820  1.00  0.00     0.339 C 
ATOM      6  O   UNL     1      11.240  38.912  43.398  1.00  0.00    -0.332 OA
ENDROOT
BRANCH   1   7
ATOM      7  C   UNL     1       9.733  40.848  43.072  1.00  0.00     0.198 C 
BRANCH   7   8
ATOM      8  O   UNL     1       9.752  42.174  42.582  1.00  0.00    -0.347 OA
BRANCH   8   9
ATOM      9  C   UNL     1       9.026  42.329  41.364  1.00  0.00     0.281 C 
ATOM     10  C   UNL     1      11.825  44.232  40.940  1.00  0.00     0.041 C 
ATOM     11  C   UNL     1      10.311  44.251  40.725  1.00  0.00     0.150 C 
ATOM     12  C   UNL     1       9.547  44.974  41.876  1.00  0.00     0.174 C 
ATOM     13  O   UNL     1       9.862  42.930  40.386  1.00  0.00    -0.344 OA
ATOM     14  C   UNL     1       8.024  44.666  41.779  1.00  0.00     0.179 C 
ATOM     15  C   UNL     1       7.725  43.169  41.500  1.00  0.00     0.202 C 
BRANCH  12  16
ATOM     16  O   UNL     1      10.122  44.654  43.125  1.00  0.00    -0.388 OA
ATOM     17  H   UNL     1      10.513  45.465  43.541  1.00  0.00     0.211 HD
ENDBRANCH  12  16
BRANCH  14  18
ATOM     18  O   UNL     1       7.337  45.112  42.919  1.00  0.00    -0.387 OA
ATOM     19  H   UNL     1       8.019  45.479  43.545  1.00  0.00     0.211 HD
ENDBRANCH  14  18
BRANCH  15  20
ATOM     20  O   UNL     1       6.860  42.628  42.457  1.00  0.00    -0.385 OA
ATOM     21  H   UNL     1       6.057  43.210  42.503  1.00  0.00     0.211 HD
ENDBRANCH  15  20
ENDBRANCH   8   9
ENDBRANCH   7   8
ENDBRANCH   1   7
BRANCH   2  22
ATOM     22  O   UNL     1      13.157  41.354  42.155  1.00  0.00    -0.387 OA
ATOM     23  H   UNL     1      12.668  41.946  41.526  1.00  0.00     0.211 HD
ENDBRANCH   2  22
BRANCH   3  24
ATOM     24  O   UNL     1      13.917  41.531  45.017  1.00  0.00    -0.387 OA
ATOM     25  H   UNL     1      14.731  41.605  44.453  1.00  0.00     0.211 HD
ENDBRANCH   3  24
BRANCH   5  26
ATOM     26  O   UNL     1      11.619  37.573  45.245  1.00  0.00    -0.454 OA
BRANCH  26  27
ATOM     27  C   UNL     1      10.735  36.618  45.785  1.00  0.00     0.214 A 
ATOM     28  C   UNL     1      10.212  36.712  47.091  1.00  0.00     0.180 A 
ATOM     29  C   UNL     1      10.396  35.509  44.998  1.00  0.00     0.239 A 
ATOM     30  O   UNL     1       9.466  35.724  47.576  1.00  0.00    -0.452 OA
ATOM     31  C   UNL     1       9.594  34.473  45.538  1.00  0.00     0.111 A 
ATOM     32  O   UNL     1      10.856  35.460  43.825  1.00  0.00    -0.285 OA
ATOM     33  C   UNL     1       9.146  34.635  46.881  1.00  0.00     0.146 A 
ATOM     34  C   UNL     1       9.223  33.275  44.846  1.00  0.00     0.134 A 
ATOM     35  C   UNL     1       8.375  33.653  47.497  1.00  0.00     0.094 A 
ATOM     36  C   UNL     1       8.454  32.306  45.497  1.00  0.00     0.093 A 
ATOM     37  C   UNL     1       8.037  32.489  46.820  1.00  0.00     0.123 A 
BRANCH  28  38
ATOM     38  C   UNL     1      10.448  37.893  47.942  1.00  0.00     0.025 A 
ATOM     39  C   UNL     1       9.441  38.857  48.084  1.00  0.00     0.062 A 
ATOM     40  C   UNL     1      11.657  38.064  48.636  1.00  0.00     0.016 A 
ATOM     41  C   UNL     1       9.619  39.953  48.942  1.00  0.00     0.158 A 
ATOM     42  C   UNL     1      11.847  39.162  49.474  1.00  0.00     0.051 A 
ATOM     43  C   UNL     1      10.833  40.113  49.634  1.00  0.00     0.157 A 
BRANCH  41  44
ATOM     44  O   UNL     1       8.589  40.875  49.112  1.00  0.00    -0.504 OA
ATOM     45  H   UNL     1       8.591  41.759  48.617  1.00  0.00     0.293 HD
ENDBRANCH  41  44
BRANCH  43  46
ATOM     46  O   UNL     1      11.059  41.203  50.477  1.00  0.00    -0.504 OA
ATOM     47  H   UNL     1      10.540  41.325  51.342  1.00  0.00     0.293 HD
ENDBRANCH  43  46
ENDBRANCH  28  38
BRANCH  34  48
ATOM     48  O   UNL     1       9.601  32.969  43.533  1.00  0.00    -0.507 OA
ATOM     49  H   UNL     1      10.467  33.213  43.082  1.00  0.00     0.293 HD
ENDBRANCH  34  48
BRANCH  37  50
ATOM     50  O   UNL     1       7.278  31.508  47.468  1.00  0.00    -0.508 OA
ATOM     51  H   UNL     1       6.300  31.656  47.698  1.00  0.00     0.293 HD
ENDBRANCH  37  50
ENDBRANCH  26  27
ENDBRANCH   5  26
BRANCH   4  52
ATOM     52  O   UNL     1      11.391  41.000  46.021  1.00  0.00    -0.384 OA
ATOM     53  H   UNL     1      10.880  41.415  45.274  1.00  0.00     0.211 HD
ENDBRANCH   4  52
TORSDOF 16
ENDMDL
MODEL 3
REMARK VINA RESULT:    -7.596      3.078      4.825
REMARK INTER + INTRA:         -15.768
REMARK INTER:                 -13.803
REMARK INTRA:                  -1.964
REMARK UNBOUND:                -3.287
REMARK SMILES C[C@H]1O[C@@H](OC[C@@H]2O[C@@H](Oc3c(-c4ccc(O)c(O)c4)oc4cc(O)cc(O)c4c3=O)[C@H](O)[C@H](O)[C@H]2O)[C@@H](O)[C@@H](O)[C@H]1O
REMARK SMILES IDX 7 1 36 2 34 3 32 4 9 5 8 6 6 7 5 8 4 9 1 10 2 11 42 12 3 13
REMARK SMILES IDX 40 14 38 15 43 16 41 18 39 20 37 22 35 24 10 26 11 27 12 28
REMARK SMILES IDX 30 29 21 30 29 31 31 32 22 33 27 34 23 35 26 36 24 37 13 38
REMARK SMILES IDX 20 39 14 40 18 41 15 42 16 43 19 44 17 46 28 48 25 50 33 52
REMARK H PARENT 43 17 41 19 39 21 37 23 35 25 19 45 17 47 28 49 25 51 33 53
REMARK Flexibility Score: inf
ROOT
ATOM      1  C   UNL     1      11.030  40.545  42.831  1.00  0.00     0.180 C 
ATOM      2  C   UNL     1      12.214  41.477  43.214  1.00  0.00     0.177 C 
ATOM      3  C   UNL     1      13.091  40.843  44.302  1.00  0.00     0.180 C 
ATOM      4  C   UNL     1      12.214  40.213  45.380  1.00  0.00     0.214 C 
ATOM      5  C   UNL     1      11.266  39.147  44.754  1.00  0.00     0.339 C 
ATOM      6  O   UNL     1      11.194  39.217  43.335  1.00  0.00    -0.332 OA
ENDROOT
BRANCH   1   7
ATOM      7  C   UNL     1       9.642  41.137  43.164  1.00  0.00     0.198 C 
BRANCH   7   8
ATOM      8  O   UNL     1       9.429  42.263  42.339  1.00  0.00    -0.347 OA
BRANCH   8   9
ATOM      9  C   UNL     1       9.774  43.494  42.973  1.00  0.00     0.281 C 
ATOM     10  C   UNL     1       6.405  43.219  43.422  1.00  0.00     0.041 C 
ATOM     11  C   UNL     1       7.491  44.222  43.033  1.00  0.00     0.150 C 
ATOM     12  C   UNL     1       7.643  44.378  41.490  1.00  0.00     0.174 C 
ATOM     13  O   UNL     1       8.688  43.939  43.772  1.00  0.00    -0.344 OA
ATOM     14  C   UNL     1       8.964  45.133  41.158  1.00  0.00     0.179 C 
ATOM     15  C   UNL     1      10.174  44.628  41.988  1.00  0.00     0.202 C 
BRANCH  12  16
ATOM     16  O   UNL     1       7.521  43.123  40.854  1.00  0.00    -0.388 OA
ATOM     17  H   UNL     1       6.659  42.696  41.099  1.00  0.00     0.211 HD
ENDBRANCH  12  16
BRANCH  14  18
ATOM     18  O   UNL     1       9.245  45.095  39.783  1.00  0.00    -0.387 OA
ATOM     19  H   UNL     1       8.386  44.911  39.315  1.00  0.00     0.211 HD
ENDBRANCH  14  18
BRANCH  15  20
ATOM     20  O   UNL     1      11.241  44.246  41.167  1.00  0.00    -0.385 OA
ATOM     21  H   UNL     1      10.910  43.540  40.552  1.00  0.00     0.211 HD
ENDBRANCH  15  20
ENDBRANCH   8   9
ENDBRANCH   7   8
ENDBRANCH   1   7
BRANCH   2  22
ATOM     22  O   UNL     1      13.000  41.733  42.075  1.00  0.00    -0.387 OA
ATOM     23  H   UNL     1      13.783  41.125  42.131  1.00  0.00     0.211 HD
ENDBRANCH   2  22
BRANCH   3  24
ATOM     24  O   UNL     1      13.919  41.823  44.893  1.00  0.00    -0.387 OA
ATOM     25  H   UNL     1      14.815  41.408  44.991  1.00  0.00     0.211 HD
ENDBRANCH   3  24
BRANCH   5  26
ATOM     26  O   UNL     1      11.698  37.821  45.109  1.00  0.00    -0.454 OA
BRANCH  26  27
ATOM     27  C   UNL     1      10.854  36.821  45.631  1.00  0.00     0.214 A 
ATOM     28  C   UNL     1      10.343  36.861  46.945  1.00  0.00     0.180 A 
ATOM     29  C   UNL     1      10.543  35.723  44.817  1.00  0.00     0.239 A 
ATOM     30  O   UNL     1       9.637  35.835  47.410  1.00  0.00    -0.452 OA
ATOM     31  C   UNL     1       9.783  34.646  45.337  1.00  0.00     0.111 A 
ATOM     32  O   UNL     1      10.991  35.723  43.639  1.00  0.00    -0.285 OA
ATOM     33  C   UNL     1       9.346  34.755  46.688  1.00  0.00     0.146 A 
ATOM     34  C   UNL     1       9.445  33.455  44.616  1.00  0.00     0.134 A 
ATOM     35  C   UNL     1       8.616  33.731  47.285  1.00  0.00     0.094 A 
ATOM     36  C   UNL     1       8.717  32.443  45.247  1.00  0.00     0.093 A 
ATOM     37  C   UNL     1       8.310  32.575  46.579  1.00  0.00     0.123 A 
BRANCH  28  38
ATOM     38  C   UNL     1      10.549  38.025  47.826  1.00  0.00     0.025 A 
ATOM     39  C   UNL     1       9.506  38.941  48.019  1.00  0.00     0.062 A 
ATOM     40  C   UNL     1      11.765  38.226  48.500  1.00  0.00     0.016 A 
ATOM     41  C   UNL     1       9.657  40.018  48.905  1.00  0.00     0.158 A 
ATOM     42  C   UNL     1      11.928  39.307  49.366  1.00  0.00     0.051 A 
ATOM     43  C   UNL     1      10.879  40.209  49.576  1.00  0.00     0.157 A 
BRANCH  41  44
ATOM     44  O   UNL     1       8.594  40.890  49.124  1.00  0.00    -0.504 OA
ATOM     45  H   UNL     1       8.332  41.171  50.061  1.00  0.00     0.293 HD
ENDBRANCH  41  44
BRANCH  43  46
ATOM     46  O   UNL     1      11.078  41.282  50.447  1.00  0.00    -0.504 OA
ATOM     47  H   UNL     1      10.522  42.130  50.386  1.00  0.00     0.293 HD
ENDBRANCH  43  46
ENDBRANCH  28  38
BRANCH  34  48
ATOM     48  O   UNL     1       9.818  33.199  43.291  1.00  0.00    -0.507 OA
ATOM     49  H   UNL     1       9.235  32.826  42.561  1.00  0.00     0.293 HD
ENDBRANCH  34  48
BRANCH  37  50
ATOM     50  O   UNL     1       7.593  31.550  47.208  1.00  0.00    -0.508 OA
ATOM     51  H   UNL     1       8.030  30.933  47.886  1.00  0.00     0.293 HD
ENDBRANCH  37  50
ENDBRANCH  26  27
ENDBRANCH   5  26
BRANCH   4  52
ATOM     52  O   UNL     1      11.462  41.213  46.018  1.00  0.00    -0.384 OA
ATOM     53  H   UNL     1      12.037  42.025  46.056  1.00  0.00     0.211 HD
ENDBRANCH   4  52
TORSDOF 16
ENDMDL
MODEL 4
REMARK VINA RESULT:    -7.585      1.767      2.963
REMARK INTER + INTRA:         -15.750
REMARK INTER:                 -12.889
REMARK INTRA:                  -2.861
REMARK UNBOUND:                -3.287
REMARK SMILES C[C@H]1O[C@@H](OC[C@@H]2O[C@@H](Oc3c(-c4ccc(O)c(O)c4)oc4cc(O)cc(O)c4c3=O)[C@H](O)[C@H](O)[C@H]2O)[C@@H](O)[C@@H](O)[C@H]1O
REMARK SMILES IDX 7 1 36 2 34 3 32 4 9 5 8 6 6 7 5 8 4 9 1 10 2 11 42 12 3 13
REMARK SMILES IDX 40 14 38 15 43 16 41 18 39 20 37 22 35 24 10 26 11 27 12 28
REMARK SMILES IDX 30 29 21 30 29 31 31 32 22 33 27 34 23 35 26 36 24 37 13 38
REMARK SMILES IDX 20 39 14 40 18 41 15 42 16 43 19 44 17 46 28 48 25 50 33 52
REMARK H PARENT 43 17 41 19 39 21 37 23 35 25 19 45 17 47 28 49 25 51 33 53
REMARK Flexibility Score: inf
ROOT
ATOM      1  C   UNL     1      12.719  40.298  42.843  1.00  0.00     0.180 C 
ATOM      2  C   UNL     1      12.811  41.678  43.553  1.00  0.00     0.177 C 
ATOM      3  C   UNL     1      11.507  42.013  44.289  1.00  0.00     0.180 C 
ATOM      4  C   UNL     1      10.307  41.664  43.413  1.00  0.00     0.214 C 
ATOM      5  C   UNL     1      10.342  40.156  43.020  1.00  0.00     0.339 C 
ATOM      6  O   UNL     1      11.593  39.533  43.279  1.00  0.00    -0.332 OA
ENDROOT
BRANCH   1   7
ATOM      7  C   UNL     1      12.816  40.385  41.303  1.00  0.00     0.198 C 
BRANCH   7   8
ATOM      8  O   UNL     1      12.927  41.746  40.940  1.00  0.00    -0.347 OA
BRANCH   8   9
ATOM      9  C   UNL     1      12.920  41.950  39.528  1.00  0.00     0.281 C 
ATOM     10  C   UNL     1      15.096  44.292  40.718  1.00  0.00     0.041 C 
ATOM     11  C   UNL     1      13.941  44.111  39.732  1.00  0.00     0.150 C 
ATOM     12  C   UNL     1      12.568  44.552  40.324  1.00  0.00     0.174 C 
ATOM     13  O   UNL     1      14.002  42.794  39.164  1.00  0.00    -0.344 OA
ATOM     14  C   UNL     1      11.408  44.034  39.423  1.00  0.00     0.179 C 
ATOM     15  C   UNL     1      11.598  42.560  38.979  1.00  0.00     0.202 C 
BRANCH  12  16
ATOM     16  O   UNL     1      12.466  44.161  41.676  1.00  0.00    -0.388 OA
ATOM     17  H   UNL     1      12.791  44.886  42.270  1.00  0.00     0.211 HD
ENDBRANCH  12  16
BRANCH  14  18
ATOM     18  O   UNL     1      10.160  44.218  40.038  1.00  0.00    -0.387 OA
ATOM     19  H   UNL     1       9.990  45.199  40.066  1.00  0.00     0.211 HD
ENDBRANCH  14  18
BRANCH  15  20
ATOM     20  O   UNL     1      10.491  41.773  39.312  1.00  0.00    -0.385 OA
ATOM     21  H   UNL     1      10.170  41.335  38.481  1.00  0.00     0.211 HD
ENDBRANCH  15  20
ENDBRANCH   8   9
ENDBRANCH   7   8
ENDBRANCH   1   7
BRANCH   2  22
ATOM     22  O   UNL     1      13.875  41.665  44.475  1.00  0.00    -0.387 OA
ATOM     23  H   UNL     1      14.201  40.728  44.513  1.00  0.00     0.211 HD
ENDBRANCH   2  22
BRANCH   3  24
ATOM     24  O   UNL     1      11.465  43.388  44.606  1.00  0.00    -0.387 OA
ATOM     25  H   UNL     1      10.546  43.570  44.934  1.00  0.00     0.211 HD
ENDBRANCH   3  24
BRANCH   5  26
ATOM     26  O   UNL     1       9.329  39.428  43.738  1.00  0.00    -0.454 OA
BRANCH  26  27
ATOM     27  C   UNL     1       8.666  39.906  44.885  1.00  0.00     0.214 A 
ATOM     28  C   UNL     1       9.103  39.620  46.195  1.00  0.00     0.180 A 
ATOM     29  C   UNL     1       7.502  40.666  44.711  1.00  0.00     0.239 A 
ATOM     30  O   UNL     1       8.373  40.014  47.235  1.00  0.00    -0.452 OA
ATOM     31  C   UNL     1       6.747  41.079  45.838  1.00  0.00     0.111 A 
ATOM     32  O   UNL     1       7.146  40.929  43.531  1.00  0.00    -0.285 OA
ATOM     33  C   UNL     1       7.242  40.707  47.120  1.00  0.00     0.146 A 
ATOM     34  C   UNL     1       5.520  41.816  45.779  1.00  0.00     0.134 A 
ATOM     35  C   UNL     1       6.550  41.050  48.278  1.00  0.00     0.094 A 
ATOM     36  C   UNL     1       4.846  42.138  46.961  1.00  0.00     0.093 A 
ATOM     37  C   UNL     1       5.354  41.750  48.206  1.00  0.00     0.123 A 
BRANCH  28  38
ATOM     38  C   UNL     1      10.367  38.908  46.458  1.00  0.00     0.025 A 
ATOM     39  C   UNL     1      11.520  39.638  46.773  1.00  0.00     0.062 A 
ATOM     40  C   UNL     1      10.437  37.505  46.421  1.00  0.00     0.016 A 
ATOM     41  C   UNL     1      12.717  38.978  47.093  1.00  0.00     0.158 A 
ATOM     42  C   UNL     1      11.629  36.845  46.718  1.00  0.00     0.051 A 
ATOM     43  C   UNL     1      12.776  37.573  47.055  1.00  0.00     0.157 A 
BRANCH  41  44
ATOM     44  O   UNL     1      13.841  39.716  47.454  1.00  0.00    -0.504 OA
ATOM     45  H   UNL     1      14.746  39.528  47.040  1.00  0.00     0.293 HD
ENDBRANCH  41  44
BRANCH  43  46
ATOM     46  O   UNL     1      13.954  36.880  47.342  1.00  0.00    -0.504 OA
ATOM     47  H   UNL     1      14.057  36.330  48.189  1.00  0.00     0.293 HD
ENDBRANCH  43  46
ENDBRANCH  28  38
BRANCH  34  48
ATOM     48  O   UNL     1       4.903  42.235  44.594  1.00  0.00    -0.507 OA
ATOM     49  H   UNL     1       4.568  41.649  43.848  1.00  0.00     0.293 HD
ENDBRANCH  34  48
BRANCH  37  50
ATOM     50  O   UNL     1       4.665  42.065  49.383  1.00  0.00    -0.508 OA
ATOM     51  H   UNL     1       3.955  41.448  49.766  1.00  0.00     0.293 HD
ENDBRANCH  37  50
ENDBRANCH  26  27
ENDBRANCH   5  26
BRANCH   4  52
ATOM     52  O   UNL     1      10.320  42.465  42.259  1.00  0.00    -0.384 OA
ATOM     53  H   UNL     1       9.425  42.898  42.198  1.00  0.00     0.211 HD
ENDBRANCH   4  52
TORSDOF 16
ENDMDL
MODEL 5
REMARK VINA RESULT:    -7.281      1.839      7.396
REMARK INTER + INTRA:         -15.251
REMARK INTER:                 -13.844
REMARK INTRA:                  -1.407
REMARK UNBOUND:                -3.287
REMARK SMILES C[C@H]1O[C@@H](OC[C@@H]2O[C@@H](Oc3c(-c4ccc(O)c(O)c4)oc4cc(O)cc(O)c4c3=O)[C@H](O)[C@H](O)[C@H]2O)[C@@H](O)[C@@H](O)[C@H]1O
REMARK SMILES IDX 7 1 36 2 34 3 32 4 9 5 8 6 6 7 5 8 4 9 1 10 2 11 42 12 3 13
REMARK SMILES IDX 40 14 38 15 43 16 41 18 39 20 37 22 35 24 10 26 11 27 12 28
REMARK SMILES IDX 30 29 21 30 29 31 31 32 22 33 27 34 23 35 26 36 24 37 13 38
REMARK SMILES IDX 20 39 14 40 18 41 15 42 16 43 19 44 17 46 28 48 25 50 33 52
REMARK H PARENT 43 17 41 19 39 21 37 23 35 25 19 45 17 47 28 49 25 51 33 53
REMARK Flexibility Score: inf
ROOT
ATOM      1  C   UNL     1      12.317  40.462  44.375  1.00  0.00     0.180 C 
ATOM      2  C   UNL     1      12.440  38.917  44.261  1.00  0.00     0.177 C 
ATOM      3  C   UNL     1      11.229  38.314  43.536  1.00  0.00     0.180 C 
ATOM      4  C   UNL     1       9.941  38.960  44.044  1.00  0.00     0.214 C 
ATOM      5  C   UNL     1       9.990  40.503  43.837  1.00  0.00     0.339 C 
ATOM      6  O   UNL     1      11.290  40.993  43.534  1.00  0.00    -0.332 OA
ENDROOT
BRANCH   1   7
ATOM      7  C   UNL     1      12.210  40.969  45.832  1.00  0.00     0.198 C 
BRANCH   7   8
ATOM      8  O   UNL     1      12.034  39.854  46.680  1.00  0.00    -0.347 OA
BRANCH   8   9
ATOM      9  C   UNL     1      11.774  40.217  48.035  1.00  0.00     0.281 C 
ATOM     10  C   UNL     1      14.030  37.669  48.252  1.00  0.00     0.041 C 
ATOM     11  C   UNL     1      12.730  38.183  48.871  1.00  0.00     0.150 C 
ATOM     12  C   UNL     1      11.464  37.501  48.269  1.00  0.00     0.174 C 
ATOM     13  O   UNL     1      12.743  39.618  48.882  1.00  0.00    -0.344 OA
ATOM     14  C   UNL     1      10.187  38.293  48.679  1.00  0.00     0.179 C 
ATOM     15  C   UNL     1      10.355  39.828  48.538  1.00  0.00     0.202 C 
BRANCH  12  16
ATOM     16  O   UNL     1      11.614  37.330  46.876  1.00  0.00    -0.388 OA
ATOM     17  H   UNL     1      11.897  38.182  46.453  1.00  0.00     0.211 HD
ENDBRANCH  12  16
BRANCH  14  18
ATOM     18  O   UNL     1       9.058  37.843  47.976  1.00  0.00    -0.387 OA
ATOM     19  H   UNL     1       9.270  37.915  47.006  1.00  0.00     0.211 HD
ENDBRANCH  14  18
BRANCH  15  20
ATOM     20  O   UNL     1       9.354  40.387  47.736  1.00  0.00    -0.385 OA
ATOM     21  H   UNL     1       8.655  40.754  48.338  1.00  0.00     0.211 HD
ENDBRANCH  15  20
ENDBRANCH   8   9
ENDBRANCH   7   8
ENDBRANCH   1   7
BRANCH   2  22
ATOM     22  O   UNL     1      13.613  38.588  43.556  1.00  0.00    -0.387 OA
ATOM     23  H   UNL     1      13.424  37.741  43.074  1.00  0.00     0.211 HD
ENDBRANCH   2  22
BRANCH   3  24
ATOM     24  O   UNL     1      11.169  36.922  43.762  1.00  0.00    -0.387 OA
ATOM     25  H   UNL     1      11.827  36.728  44.478  1.00  0.00     0.211 HD
ENDBRANCH   3  24
BRANCH   5  26
ATOM     26  O   UNL     1       9.111  40.893  42.766  1.00  0.00    -0.454 OA
BRANCH  26  27
ATOM     27  C   UNL     1       8.714  42.219  42.504  1.00  0.00     0.214 A 
ATOM     28  C   UNL     1       7.590  42.815  43.113  1.00  0.00     0.180 A 
ATOM     29  C   UNL     1       9.450  42.960  41.569  1.00  0.00     0.239 A 
ATOM     30  O   UNL     1       7.209  44.035  42.745  1.00  0.00    -0.452 OA
ATOM     31  C   UNL     1       9.024  44.260  41.199  1.00  0.00     0.111 A 
ATOM     32  O   UNL     1      10.464  42.413  41.057  1.00  0.00    -0.285 OA
ATOM     33  C   UNL     1       7.854  44.763  41.835  1.00  0.00     0.146 A 
ATOM     34  C   UNL     1       9.667  45.088  40.224  1.00  0.00     0.134 A 
ATOM     35  C   UNL     1       7.353  46.022  41.513  1.00  0.00     0.094 A 
ATOM     36  C   UNL     1       9.134  46.343  39.917  1.00  0.00     0.093 A 
ATOM     37  C   UNL     1       7.977  46.807  40.553  1.00  0.00     0.123 A 
BRANCH  28  38
ATOM     38  C   UNL     1       6.825  42.134  44.174  1.00  0.00     0.025 A 
ATOM     39  C   UNL     1       5.637  42.706  44.647  1.00  0.00     0.062 A 
ATOM     40  C   UNL     1       7.250  40.906  44.708  1.00  0.00     0.016 A 
ATOM     41  C   UNL     1       4.858  42.042  45.606  1.00  0.00     0.158 A 
ATOM     42  C   UNL     1       6.491  40.252  45.677  1.00  0.00     0.051 A 
ATOM     43  C   UNL     1       5.292  40.812  46.133  1.00  0.00     0.157 A 
BRANCH  41  44
ATOM     44  O   UNL     1       3.654  42.599  46.029  1.00  0.00    -0.504 OA
ATOM     45  H   UNL     1       3.609  43.552  46.370  1.00  0.00     0.293 HD
ENDBRANCH  41  44
BRANCH  43  46
ATOM     46  O   UNL     1       4.559  40.131  47.108  1.00  0.00    -0.504 OA
ATOM     47  H   UNL     1       3.998  40.625  47.796  1.00  0.00     0.293 HD
ENDBRANCH  43  46
ENDBRANCH  28  38
BRANCH  34  48
ATOM     48  O   UNL     1      10.813  44.723  39.505  1.00  0.00    -0.507 OA
ATOM     49  H   UNL     1      11.683  45.226  39.461  1.00  0.00     0.293 HD
ENDBRANCH  34  48
BRANCH  37  50
ATOM     50  O   UNL     1       7.442  48.060  40.230  1.00  0.00    -0.508 OA
ATOM     51  H   UNL     1       7.898  48.678  39.566  1.00  0.00     0.293 HD
ENDBRANCH  37  50
ENDBRANCH  26  27
ENDBRANCH   5  26
BRANCH   4  52
ATOM     52  O   UNL     1       9.771  38.659  45.405  1.00  0.00    -0.384 OA
ATOM     53  H   UNL     1      10.543  39.062  45.888  1.00  0.00     0.211 HD
ENDBRANCH   4  52
TORSDOF 16
ENDMDL
MODEL 6
REMARK VINA RESULT:    -7.211      6.074     10.861
REMARK INTER + INTRA:         -15.135
REMARK INTER:                 -12.323
REMARK INTRA:                  -2.812
REMARK UNBOUND:                -3.287
REMARK SMILES C[C@H]1O[C@@H](OC[C@@H]2O[C@@H](Oc3c(-c4ccc(O)c(O)c4)oc4cc(O)cc(O)c4c3=O)[C@H](O)[C@H](O)[C@H]2O)[C@@H](O)[C@@H](O)[C@H]1O
REMARK SMILES IDX 7 1 36 2 34 3 32 4 9 5 8 6 6 7 5 8 4 9 1 10 2 11 42 12 3 13
REMARK SMILES IDX 40 14 38 15 43 16 41 18 39 20 37 22 35 24 10 26 11 27 12 28
REMARK SMILES IDX 30 29 21 30 29 31 31 32 22 33 27 34 23 35 26 36 24 37 13 38
REMARK SMILES IDX 20 39 14 40 18 41 15 42 16 43 19 44 17 46 28 48 25 50 33 52
REMARK H PARENT 43 17 41 19 39 21 37 23 35 25 19 45 17 47 28 49 25 51 33 53
REMARK Flexibility Score: inf
ROOT
ATOM      1  C   UNL     1      10.965  32.031  49.214  1.00  0.00     0.180 C 
ATOM      2  C   UNL     1      10.130  30.734  49.411  1.00  0.00     0.177 C 
ATOM      3  C   UNL     1       8.723  30.884  48.817  1.00  0.00     0.180 C 
ATOM      4  C   UNL     1       8.143  32.248  49.181  1.00  0.00     0.214 C 
ATOM      5  C   UNL     1       9.075  33.387  48.670  1.00  0.00     0.339 C 
ATOM      6  O   UNL     1      10.365  32.932  48.280  1.00  0.00    -0.332 OA
ENDROOT
BRANCH   1   7
ATOM      7  C   UNL     1      11.354  32.725  50.539  1.00  0.00     0.198 C 
BRANCH   7   8
ATOM      8  O   UNL     1      12.580  33.398  50.346  1.00  0.00    -0.347 OA
BRANCH   8   9
ATOM      9  C   UNL     1      13.700  32.515  50.289  1.00  0.00     0.281 C 
ATOM     10  C   UNL     1      12.960  32.745  53.611  1.00  0.00     0.041 C 
ATOM     11  C   UNL     1      14.137  32.755  52.635  1.00  0.00     0.150 C 
ATOM     12  C   UNL     1      14.599  34.196  52.262  1.00  0.00     0.174 C 
ATOM     13  O   UNL     1      13.857  31.867  51.543  1.00  0.00    -0.344 OA
ATOM     14  C   UNL     1      15.549  34.148  51.029  1.00  0.00     0.179 C 
ATOM     15  C   UNL     1      15.039  33.207  49.907  1.00  0.00     0.202 C 
BRANCH  12  16
ATOM     16  O   UNL     1      13.482  35.044  52.096  1.00  0.00    -0.388 OA
ATOM     17  H   UNL     1      13.189  35.045  51.148  1.00  0.00     0.211 HD
ENDBRANCH  12  16
BRANCH  14  18
ATOM     18  O   UNL     1      15.806  35.435  50.529  1.00  0.00    -0.387 OA
ATOM     19  H   UNL     1      15.372  35.491  49.634  1.00  0.00     0.211 HD
ENDBRANCH  14  18
BRANCH  15  20
ATOM     20  O   UNL     1      14.944  33.870  48.679  1.00  0.00    -0.385 OA
ATOM     21  H   UNL     1      14.167  34.486  48.727  1.00  0.00     0.211 HD
ENDBRANCH  15  20
ENDBRANCH   8   9
ENDBRANCH   7   8
ENDBRANCH   1   7
BRANCH   2  22
ATOM     22  O   UNL     1      10.784  29.653  48.790  1.00  0.00    -0.387 OA
ATOM     23  H   UNL     1      10.996  29.003  49.509  1.00  0.00     0.211 HD
ENDBRANCH   2  22
BRANCH   3  24
ATOM     24  O   UNL     1       7.873  29.872  49.316  1.00  0.00    -0.387 OA
ATOM     25  H   UNL     1       8.258  29.590  50.186  1.00  0.00     0.211 HD
ENDBRANCH   3  24
BRANCH   5  26
ATOM     26  O   UNL     1       8.482  34.052  47.540  1.00  0.00    -0.454 OA
BRANCH  26  27
ATOM     27  C   UNL     1       9.036  34.071  46.245  1.00  0.00     0.214 A 
ATOM     28  C   UNL     1       9.966  35.045  45.826  1.00  0.00     0.180 A 
ATOM     29  C   UNL     1       8.613  33.101  45.327  1.00  0.00     0.239 A 
ATOM     30  O   UNL     1      10.372  35.069  44.560  1.00  0.00    -0.452 OA
ATOM     31  C   UNL     1       9.066  33.146  43.985  1.00  0.00     0.111 A 
ATOM     32  O   UNL     1       7.800  32.227  45.733  1.00  0.00    -0.285 OA
ATOM     33  C   UNL     1       9.971  34.191  43.643  1.00  0.00     0.146 A 
ATOM     34  C   UNL     1       8.666  32.239  42.952  1.00  0.00     0.134 A 
ATOM     35  C   UNL     1      10.446  34.324  42.341  1.00  0.00     0.094 A 
ATOM     36  C   UNL     1       9.156  32.405  41.653  1.00  0.00     0.093 A 
ATOM     37  C   UNL     1      10.036  33.447  41.346  1.00  0.00     0.123 A 
BRANCH  28  38
ATOM     38  C   UNL     1      10.529  36.039  46.760  1.00  0.00     0.025 A 
ATOM     39  C   UNL     1      11.499  35.643  47.690  1.00  0.00     0.062 A 
ATOM     40  C   UNL     1      10.130  37.385  46.723  1.00  0.00     0.016 A 
ATOM     41  C   UNL     1      12.097  36.585  48.541  1.00  0.00     0.158 A 
ATOM     42  C   UNL     1      10.705  38.321  47.581  1.00  0.00     0.051 A 
ATOM     43  C   UNL     1      11.691  37.931  48.494  1.00  0.00     0.157 A 
BRANCH  41  44
ATOM     44  O   UNL     1      13.096  36.185  49.425  1.00  0.00    -0.504 OA
ATOM     45  H   UNL     1      13.043  36.410  50.412  1.00  0.00     0.293 HD
ENDBRANCH  41  44
BRANCH  43  46
ATOM     46  O   UNL     1      12.243  38.894  49.341  1.00  0.00    -0.504 OA
ATOM     47  H   UNL     1      11.706  39.694  49.662  1.00  0.00     0.293 HD
ENDBRANCH  43  46
ENDBRANCH  28  38
BRANCH  34  48
ATOM     48  O   UNL     1       7.772  31.176  43.133  1.00  0.00    -0.507 OA
ATOM     49  H   UNL     1       7.948  30.202  42.951  1.00  0.00     0.293 HD
ENDBRANCH  34  48
BRANCH  37  50
ATOM     50  O   UNL     1      10.512  33.614  40.039  1.00  0.00    -0.508 OA
ATOM     51  H   UNL     1      10.857  34.510  39.709  1.00  0.00     0.293 HD
ENDBRANCH  37  50
ENDBRANCH  26  27
ENDBRANCH   5  26
BRANCH   4  52
ATOM     52  O   UNL     1       7.990  32.336  50.574  1.00  0.00    -0.384 OA
ATOM     53  H   UNL     1       7.024  32.503  50.748  1.00  0.00     0.211 HD
ENDBRANCH   4  52
TORSDOF 16
ENDMDL
MODEL 7
REMARK VINA RESULT:    -7.145      1.960      3.018
REMARK INTER + INTRA:         -15.028
REMARK INTER:                 -13.602
REMARK INTRA:                  -1.426
REMARK UNBOUND:                -3.287
REMARK SMILES C[C@H]1O[C@@H](OC[C@@H]2O[C@@H](Oc3c(-c4ccc(O)c(O)c4)oc4cc(O)cc(O)c4c3=O)[C@H](O)[C@H](O)[C@H]2O)[C@@H](O)[C@@H](O)[C@H]1O
REMARK SMILES IDX 7 1 36 2 34 3 32 4 9 5 8 6 6 7 5 8 4 9 1 10 2 11 42 12 3 13
REMARK SMILES IDX 40 14 38 15 43 16 41 18 39 20 37 22 35 24 10 26 11 27 12 28
REMARK SMILES IDX 30 29 21 30 29 31 31 32 22 33 27 34 23 35 26 36 24 37 13 38
REMARK SMILES IDX 20 39 14 40 18 41 15 42 16 43 19 44 17 46 28 48 25 50 33 52
REMARK H PARENT 43 17 41 19 39 21 37 23 35 25 19 45 17 47 28 49 25 51 33 53
REMARK Flexibility Score: inf
ROOT
ATOM      1  C   UNL     1      12.390  39.413  42.559  1.00  0.00     0.180 C 
ATOM      2  C   UNL     1      13.607  39.716  43.477  1.00  0.00     0.177 C 
ATOM      3  C   UNL     1      13.202  39.711  44.957  1.00  0.00     0.180 C 
ATOM      4  C   UNL     1      11.881  40.454  45.141  1.00  0.00     0.214 C 
ATOM      5  C   UNL     1      10.767  39.804  44.267  1.00  0.00     0.339 C 
ATOM      6  O   UNL     1      11.269  38.904  43.286  1.00  0.00    -0.332 OA
ENDROOT
BRANCH   1   7
ATOM      7  C   UNL     1      12.009  40.586  41.627  1.00  0.00     0.198 C 
BRANCH   7   8
ATOM      8  O   UNL     1      12.837  41.687  41.936  1.00  0.00    -0.347 OA
BRANCH   8   9
ATOM      9  C   UNL     1      12.104  42.887  42.178  1.00  0.00     0.281 C 
ATOM     10  C   UNL     1      11.706  42.300  38.842  1.00  0.00     0.041 C 
ATOM     11  C   UNL     1      12.005  43.418  39.841  1.00  0.00     0.150 C 
ATOM     12  C   UNL     1      13.531  43.709  39.983  1.00  0.00     0.174 C 
ATOM     13  O   UNL     1      11.282  43.176  41.057  1.00  0.00    -0.344 OA
ATOM     14  C   UNL     1      13.790  44.594  41.237  1.00  0.00     0.179 C 
ATOM     15  C   UNL     1      12.993  44.126  42.484  1.00  0.00     0.202 C 
BRANCH  12  16
ATOM     16  O   UNL     1      14.265  42.503  39.966  1.00  0.00    -0.388 OA
ATOM     17  H   UNL     1      15.006  42.561  39.309  1.00  0.00     0.211 HD
ENDBRANCH  12  16
BRANCH  14  18
ATOM     18  O   UNL     1      15.161  44.689  41.523  1.00  0.00    -0.387 OA
ATOM     19  H   UNL     1      15.543  45.366  40.899  1.00  0.00     0.211 HD
ENDBRANCH  14  18
BRANCH  15  20
ATOM     20  O   UNL     1      13.833  43.900  43.579  1.00  0.00    -0.385 OA
ATOM     21  H   UNL     1      14.373  43.090  43.384  1.00  0.00     0.211 HD
ENDBRANCH  15  20
ENDBRANCH   8   9
ENDBRANCH   7   8
ENDBRANCH   1   7
BRANCH   2  22
ATOM     22  O   UNL     1      14.609  38.750  43.266  1.00  0.00    -0.387 OA
ATOM     23  H   UNL     1      14.449  38.030  43.931  1.00  0.00     0.211 HD
ENDBRANCH   2  22
BRANCH   3  24
ATOM     24  O   UNL     1      14.198  40.337  45.738  1.00  0.00    -0.387 OA
ATOM     25  H   UNL     1      14.437  39.693  46.454  1.00  0.00     0.211 HD
ENDBRANCH   3  24
BRANCH   5  26
ATOM     26  O   UNL     1       9.839  39.080  45.096  1.00  0.00    -0.454 OA
BRANCH  26  27
ATOM     27  C   UNL     1       9.000  39.674  46.059  1.00  0.00     0.214 A 
ATOM     28  C   UNL     1       9.221  39.549  47.446  1.00  0.00     0.180 A 
ATOM     29  C   UNL     1       7.878  40.385  45.613  1.00  0.00     0.239 A 
ATOM     30  O   UNL     1       8.333  40.047  48.303  1.00  0.00    -0.452 OA
ATOM     31  C   UNL     1       6.952  40.910  46.549  1.00  0.00     0.111 A 
ATOM     32  O   UNL     1       7.716  40.503  44.368  1.00  0.00    -0.285 OA
ATOM     33  C   UNL     1       7.235  40.699  47.928  1.00  0.00     0.146 A 
ATOM     34  C   UNL     1       5.750  41.612  46.210  1.00  0.00     0.134 A 
ATOM     35  C   UNL     1       6.365  41.160  48.912  1.00  0.00     0.094 A 
ATOM     36  C   UNL     1       4.894  42.054  47.222  1.00  0.00     0.093 A 
ATOM     37  C   UNL     1       5.195  41.823  48.569  1.00  0.00     0.123 A 
BRANCH  28  38
ATOM     38  C   UNL     1      10.428  38.898  47.988  1.00  0.00     0.025 A 
ATOM     39  C   UNL     1      10.529  37.501  47.966  1.00  0.00     0.062 A 
ATOM     40  C   UNL     1      11.494  39.651  48.507  1.00  0.00     0.016 A 
ATOM     41  C   UNL     1      11.696  36.864  48.415  1.00  0.00     0.158 A 
ATOM     42  C   UNL     1      12.648  39.022  48.974  1.00  0.00     0.051 A 
ATOM     43  C   UNL     1      12.759  37.627  48.931  1.00  0.00     0.157 A 
BRANCH  41  44
ATOM     44  O   UNL     1      11.802  35.477  48.340  1.00  0.00    -0.504 OA
ATOM     45  H   UNL     1      12.043  35.017  47.470  1.00  0.00     0.293 HD
ENDBRANCH  41  44
BRANCH  43  46
ATOM     46  O   UNL     1      13.927  37.030  49.410  1.00  0.00    -0.504 OA
ATOM     47  H   UNL     1      14.005  36.702  50.368  1.00  0.00     0.293 HD
ENDBRANCH  43  46
ENDBRANCH  28  38
BRANCH  34  48
ATOM     48  O   UNL     1       5.330  41.879  44.900  1.00  0.00    -0.507 OA
ATOM     49  H   UNL     1       5.091  42.777  44.515  1.00  0.00     0.293 HD
ENDBRANCH  34  48
BRANCH  37  50
ATOM     50  O   UNL     1       4.326  42.258  49.576  1.00  0.00    -0.508 OA
ATOM     51  H   UNL     1       4.357  41.865  50.513  1.00  0.00     0.293 HD
ENDBRANCH  37  50
ENDBRANCH  26  27
ENDBRANCH   5  26
BRANCH   4  52
ATOM     52  O   UNL     1      12.049  41.803  44.787  1.00  0.00    -0.384 OA
ATOM     53  H   UNL     1      11.699  42.345  45.545  1.00  0.00     0.211 HD
ENDBRANCH   4  52
TORSDOF 16
ENDMDL
MODEL 8
REMARK VINA RESULT:    -6.922      7.754     11.395
REMARK INTER + INTRA:         -14.661
REMARK INTER:                 -13.403
REMARK INTRA:                  -1.259
REMARK UNBOUND:                -3.287
REMARK SMILES C[C@H]1O[C@@H](OC[C@@H]2O[C@@H](Oc3c(-c4ccc(O)c(O)c4)oc4cc(O)cc(O)c4c3=O)[C@H](O)[C@H](O)[C@H]2O)[C@@H](O)[C@@H](O)[C@H]1O
REMARK SMILES IDX 7 1 36 2 34 3 32 4 9 5 8 6 6 7 5 8 4 9 1 10 2 11 42 12 3 13
REMARK SMILES IDX 40 14 38 15 43 16 41 18 39 20 37 22 35 24 10 26 11 27 12 28
REMARK SMILES IDX 30 29 21 30 29 31 31 32 22 33 27 34 23 35 26 36 24 37 13 38
REMARK SMILES IDX 20 39 14 40 18 41 15 42 16 43 19 44 17 46 28 48 25 50 33 52
REMARK H PARENT 43 17 41 19 39 21 37 23 35 25 19 45 17 47 28 49 25 51 33 53
REMARK Flexibility Score: inf
ROOT
ATOM      1  C   UNL     1       6.626  31.473  49.277  1.00  0.00     0.180 C 
ATOM      2  C   UNL     1       7.524  31.581  50.541  1.00  0.00     0.177 C 
ATOM      3  C   UNL     1       8.695  32.546  50.311  1.00  0.00     0.180 C 
ATOM      4  C   UNL     1       9.310  32.304  48.935  1.00  0.00     0.214 C 
ATOM      5  C   UNL     1       8.234  32.476  47.822  1.00  0.00     0.339 C 
ATOM      6  O   UNL     1       6.902  32.500  48.321  1.00  0.00    -0.332 OA
ENDROOT
BRANCH   1   7
ATOM      7  C   UNL     1       6.613  30.063  48.644  1.00  0.00     0.198 C 
BRANCH   7   8
ATOM      8  O   UNL     1       5.591  30.021  47.670  1.00  0.00    -0.347 OA
BRANCH   8   9
ATOM      9  C   UNL     1       5.012  28.726  47.522  1.00  0.00     0.281 C 
ATOM     10  C   UNL     1       7.708  28.701  45.433  1.00  0.00     0.041 C 
ATOM     11  C   UNL     1       6.234  28.299  45.504  1.00  0.00     0.150 C 
ATOM     12  C   UNL     1       5.288  29.361  44.867  1.00  0.00     0.174 C 
ATOM     13  O   UNL     1       5.920  27.875  46.838  1.00  0.00    -0.344 OA
ATOM     14  C   UNL     1       3.812  29.067  45.269  1.00  0.00     0.179 C 
ATOM     15  C   UNL     1       3.651  28.718  46.771  1.00  0.00     0.202 C 
BRANCH  12  16
ATOM     16  O   UNL     1       5.724  30.664  45.190  1.00  0.00    -0.388 OA
ATOM     17  H   UNL     1       6.126  30.678  46.096  1.00  0.00     0.211 HD
ENDBRANCH  12  16
BRANCH  14  18
ATOM     18  O   UNL     1       2.961  30.123  44.903  1.00  0.00    -0.387 OA
ATOM     19  H   UNL     1       3.138  30.872  45.535  1.00  0.00     0.211 HD
ENDBRANCH  14  18
BRANCH  15  20
ATOM     20  O   UNL     1       2.713  29.546  47.397  1.00  0.00    -0.385 OA
ATOM     21  H   UNL     1       1.879  29.519  46.859  1.00  0.00     0.211 HD
ENDBRANCH  15  20
ENDBRANCH   8   9
ENDBRANCH   7   8
ENDBRANCH   1   7
BRANCH   2  22
ATOM     22  O   UNL     1       6.755  32.036  51.629  1.00  0.00    -0.387 OA
ATOM     23  H   UNL     1       7.284  32.752  52.068  1.00  0.00     0.211 HD
ENDBRANCH   2  22
BRANCH   3  24
ATOM     24  O   UNL     1       9.684  32.357  51.301  1.00  0.00    -0.387 OA
ATOM     25  H   UNL     1       9.365  31.613  51.875  1.00  0.00     0.211 HD
ENDBRANCH   3  24
BRANCH   5  26
ATOM     26  O   UNL     1       8.455  33.698  47.095  1.00  0.00    -0.454 OA
BRANCH  26  27
ATOM     27  C   UNL     1       9.004  33.766  45.800  1.00  0.00     0.214 A 
ATOM     28  C   UNL     1       9.890  34.787  45.398  1.00  0.00     0.180 A 
ATOM     29  C   UNL     1       8.620  32.796  44.864  1.00  0.00     0.239 A 
ATOM     30  O   UNL     1      10.291  34.853  44.132  1.00  0.00    -0.452 OA
ATOM     31  C   UNL     1       9.068  32.887  43.522  1.00  0.00     0.111 A 
ATOM     32  O   UNL     1       7.848  31.880  45.254  1.00  0.00    -0.285 OA
ATOM     33  C   UNL     1       9.925  33.977  43.198  1.00  0.00     0.146 A 
ATOM     34  C   UNL     1       8.704  31.983  42.472  1.00  0.00     0.134 A 
ATOM     35  C   UNL     1      10.391  34.155  41.899  1.00  0.00     0.094 A 
ATOM     36  C   UNL     1       9.183  32.195  41.176  1.00  0.00     0.093 A 
ATOM     37  C   UNL     1      10.016  33.281  40.887  1.00  0.00     0.123 A 
BRANCH  28  38
ATOM     38  C   UNL     1      10.412  35.786  46.349  1.00  0.00     0.025 A 
ATOM     39  C   UNL     1      11.219  35.371  47.417  1.00  0.00     0.062 A 
ATOM     40  C   UNL     1      10.136  37.155  46.196  1.00  0.00     0.016 A 
ATOM     41  C   UNL     1      11.781  36.311  48.294  1.00  0.00     0.158 A 
ATOM     42  C   UNL     1      10.675  38.092  47.077  1.00  0.00     0.051 A 
ATOM     43  C   UNL     1      11.500  37.679  48.130  1.00  0.00     0.157 A 
BRANCH  41  44
ATOM     44  O   UNL     1      12.622  35.886  49.319  1.00  0.00    -0.504 OA
ATOM     45  H   UNL     1      13.481  36.380  49.530  1.00  0.00     0.293 HD
ENDBRANCH  41  44
BRANCH  43  46
ATOM     46  O   UNL     1      12.019  38.644  48.996  1.00  0.00    -0.504 OA
ATOM     47  H   UNL     1      12.359  39.539  48.657  1.00  0.00     0.293 HD
ENDBRANCH  43  46
ENDBRANCH  28  38
BRANCH  34  48
ATOM     48  O   UNL     1       7.858  30.880  42.634  1.00  0.00    -0.507 OA
ATOM     49  H   UNL     1       6.867  30.849  42.463  1.00  0.00     0.293 HD
ENDBRANCH  34  48
BRANCH  37  50
ATOM     50  O   UNL     1      10.480  33.493  39.583  1.00  0.00    -0.508 OA
ATOM     51  H   UNL     1      11.430  33.255  39.311  1.00  0.00     0.293 HD
ENDBRANCH  37  50
ENDBRANCH  26  27
ENDBRANCH   5  26
BRANCH   4  52
ATOM     52  O   UNL     1       9.855  31.011  48.886  1.00  0.00    -0.384 OA
ATOM     53  H   UNL     1       9.230  30.415  49.382  1.00  0.00     0.211 HD
ENDBRANCH   4  52
TORSDOF 16
ENDMDL
MODEL 9
REMARK VINA RESULT:    -6.897      8.207     12.976
REMARK INTER + INTRA:         -14.620
REMARK INTER:                 -12.758
REMARK INTRA:                  -1.862
REMARK UNBOUND:                -3.287
REMARK SMILES C[C@H]1O[C@@H](OC[C@@H]2O[C@@H](Oc3c(-c4ccc(O)c(O)c4)oc4cc(O)cc(O)c4c3=O)[C@H](O)[C@H](O)[C@H]2O)[C@@H](O)[C@@H](O)[C@H]1O
REMARK SMILES IDX 7 1 36 2 34 3 32 4 9 5 8 6 6 7 5 8 4 9 1 10 2 11 42 12 3 13
REMARK SMILES IDX 40 14 38 15 43 16 41 18 39 20 37 22 35 24 10 26 11 27 12 28
REMARK SMILES IDX 30 29 21 30 29 31 31 32 22 33 27 34 23 35 26 36 24 37 13 38
REMARK SMILES IDX 20 39 14 40 18 41 15 42 16 43 19 44 17 46 28 48 25 50 33 52
REMARK H PARENT 43 17 41 19 39 21 37 23 35 25 19 45 17 47 28 49 25 51 33 53
REMARK Flexibility Score: inf
ROOT
ATOM      1  C   UNL     1       9.694  29.397  48.913  1.00  0.00     0.180 C 
ATOM      2  C   UNL     1       9.021  29.417  50.314  1.00  0.00     0.177 C 
ATOM      3  C   UNL     1       7.918  30.481  50.385  1.00  0.00     0.180 C 
ATOM      4  C   UNL     1       8.394  31.774  49.729  1.00  0.00     0.214 C 
ATOM      5  C   UNL     1       8.805  31.512  48.249  1.00  0.00     0.339 C 
ATOM      6  O   UNL     1       8.951  30.132  47.938  1.00  0.00    -0.332 OA
ENDROOT
BRANCH   1   7
ATOM      7  C   UNL     1      11.189  29.790  48.937  1.00  0.00     0.198 C 
BRANCH   7   8
ATOM      8  O   UNL     1      11.485  30.337  50.205  1.00  0.00    -0.347 OA
BRANCH   8   9
ATOM      9  C   UNL     1      12.835  30.787  50.318  1.00  0.00     0.281 C 
ATOM     10  C   UNL     1      12.409  28.691  52.974  1.00  0.00     0.041 C 
ATOM     11  C   UNL     1      12.998  30.050  52.594  1.00  0.00     0.150 C 
ATOM     12  C   UNL     1      12.032  31.233  52.904  1.00  0.00     0.174 C 
ATOM     13  O   UNL     1      13.526  29.983  51.262  1.00  0.00    -0.344 OA
ATOM     14  C   UNL     1      12.531  32.527  52.194  1.00  0.00     0.179 C 
ATOM     15  C   UNL     1      12.976  32.281  50.728  1.00  0.00     0.202 C 
BRANCH  12  16
ATOM     16  O   UNL     1      10.702  30.879  52.588  1.00  0.00    -0.388 OA
ATOM     17  H   UNL     1      10.066  31.455  53.085  1.00  0.00     0.211 HD
ENDBRANCH  12  16
BRANCH  14  18
ATOM     18  O   UNL     1      11.574  33.552  52.264  1.00  0.00    -0.387 OA
ATOM     19  H   UNL     1      10.679  33.115  52.287  1.00  0.00     0.211 HD
ENDBRANCH  14  18
BRANCH  15  20
ATOM     20  O   UNL     1      12.307  33.125  49.836  1.00  0.00    -0.385 OA
ATOM     21  H   UNL     1      12.479  32.791  48.917  1.00  0.00     0.211 HD
ENDBRANCH  15  20
ENDBRANCH   8   9
ENDBRANCH   7   8
ENDBRANCH   1   7
BRANCH   2  22
ATOM     22  O   UNL     1       8.467  28.153  50.590  1.00  0.00    -0.387 OA
ATOM     23  H   UNL     1       7.505  28.305  50.784  1.00  0.00     0.211 HD
ENDBRANCH   2  22
BRANCH   3  24
ATOM     24  O   UNL     1       7.578  30.743  51.731  1.00  0.00    -0.387 OA
ATOM     25  H   UNL     1       8.426  30.977  52.191  1.00  0.00     0.211 HD
ENDBRANCH   3  24
BRANCH   5  26
ATOM     26  O   UNL     1       7.826  32.066  47.351  1.00  0.00    -0.454 OA
BRANCH  26  27
ATOM     27  C   UNL     1       8.016  32.220  45.963  1.00  0.00     0.214 A 
ATOM     28  C   UNL     1       7.301  31.469  45.007  1.00  0.00     0.180 A 
ATOM     29  C   UNL     1       8.984  33.132  45.522  1.00  0.00     0.239 A 
ATOM     30  O   UNL     1       7.601  31.588  43.716  1.00  0.00    -0.452 OA
ATOM     31  C   UNL     1       9.279  33.242  44.141  1.00  0.00     0.111 A 
ATOM     32  O   UNL     1       9.592  33.808  46.396  1.00  0.00    -0.285 OA
ATOM     33  C   UNL     1       8.537  32.413  43.252  1.00  0.00     0.146 A 
ATOM     34  C   UNL     1      10.278  34.102  43.580  1.00  0.00     0.134 A 
ATOM     35  C   UNL     1       8.780  32.441  41.882  1.00  0.00     0.094 A 
ATOM     36  C   UNL     1      10.503  34.100  42.201  1.00  0.00     0.093 A 
ATOM     37  C   UNL     1       9.763  33.267  41.354  1.00  0.00     0.123 A 
BRANCH  28  38
ATOM     38  C   UNL     1       6.203  30.562  45.389  1.00  0.00     0.025 A 
ATOM     39  C   UNL     1       6.051  30.186  46.730  1.00  0.00     0.062 A 
ATOM     40  C   UNL     1       5.288  30.081  44.438  1.00  0.00     0.016 A 
ATOM     41  C   UNL     1       4.974  29.378  47.126  1.00  0.00     0.158 A 
ATOM     42  C   UNL     1       4.228  29.261  44.823  1.00  0.00     0.051 A 
ATOM     43  C   UNL     1       4.062  28.903  46.165  1.00  0.00     0.157 A 
BRANCH  41  44
ATOM     44  O   UNL     1       4.807  29.054  48.470  1.00  0.00    -0.504 OA
ATOM     45  H   UNL     1       5.604  28.874  49.068  1.00  0.00     0.293 HD
ENDBRANCH  41  44
BRANCH  43  46
ATOM     46  O   UNL     1       2.992  28.077  46.515  1.00  0.00    -0.504 OA
ATOM     47  H   UNL     1       3.135  27.125  46.838  1.00  0.00     0.293 HD
ENDBRANCH  43  46
ENDBRANCH  28  38
BRANCH  34  48
ATOM     48  O   UNL     1      11.096  34.958  44.327  1.00  0.00    -0.507 OA
ATOM     49  H   UNL     1      11.776  34.691  45.020  1.00  0.00     0.293 HD
ENDBRANCH  34  48
BRANCH  37  50
ATOM     50  O   UNL     1      10.004  33.261  39.975  1.00  0.00    -0.508 OA
ATOM     51  H   UNL     1      10.378  34.076  39.496  1.00  0.00     0.293 HD
ENDBRANCH  37  50
ENDBRANCH  26  27
ENDBRANCH   5  26
BRANCH   4  52
ATOM     52  O   UNL     1       9.482  32.293  50.449  1.00  0.00    -0.384 OA
ATOM     53  H   UNL     1       9.116  32.665  51.297  1.00  0.00     0.211 HD
ENDBRANCH   4  52
TORSDOF 16
ENDMDL
