MODEL 1
REMARK VINA RESULT:    -7.732      0.000      0.000
REMARK INTER + INTRA:          -9.627
REMARK INTER:                  -9.314
REMARK INTRA:                  -0.312
REMARK UNBOUND:                -0.312
REMARK SMILES O=c1c(O)c(-c2ccc(O)c(O)c2)oc2cc(O)cc(O)c12
REMARK SMILES IDX 5 1 3 2 2 3 1 4 22 5 20 6 19 7 17 8 16 9 15 10 14 11 6 12
REMARK SMILES IDX 7 13 8 14 9 15 13 16 11 17 10 18 12 20 4 22 21 24 18 26
REMARK H PARENT 10 19 12 21 4 23 21 25 18 27
REMARK Flexibility Score: inf
ROOT
ATOM      1  C   UNL     1      23.722  62.222  90.543  1.00  0.00     0.180 A 
ATOM      2  C   UNL     1      23.225  61.988  89.247  1.00  0.00     0.208 A 
ATOM      3  C   UNL     1      22.598  60.762  88.971  1.00  0.00     0.238 A 
ATOM      4  O   UNL     1      22.139  60.545  87.816  1.00  0.00    -0.285 OA
ATOM      5  C   UNL     1      22.499  59.788  89.985  1.00  0.00     0.111 A 
ATOM      6  C   UNL     1      21.887  58.526  89.788  1.00  0.00     0.134 A 
ATOM      7  C   UNL     1      21.834  57.606  90.846  1.00  0.00     0.093 A 
ATOM      8  C   UNL     1      22.380  57.921  92.092  1.00  0.00     0.123 A 
ATOM      9  C   UNL     1      22.986  59.165  92.292  1.00  0.00     0.094 A 
ATOM     10  C   UNL     1      23.046  60.096  91.251  1.00  0.00     0.146 A 
ATOM     11  O   UNL     1      23.623  61.273  91.469  1.00  0.00    -0.452 OA
ENDROOT
BRANCH   1  12
ATOM     12  C   UNL     1      24.378  63.496  90.916  1.00  0.00     0.025 A 
ATOM     13  C   UNL     1      25.775  63.642  90.868  1.00  0.00     0.016 A 
ATOM     14  C   UNL     1      26.369  64.862  91.203  1.00  0.00     0.051 A 
ATOM     15  C   UNL     1      25.582  65.955  91.575  1.00  0.00     0.157 A 
ATOM     16  C   UNL     1      23.588  64.601  91.271  1.00  0.00     0.062 A 
ATOM     17  C   UNL     1      24.183  65.826  91.607  1.00  0.00     0.158 A 
BRANCH  15  18
ATOM     18  O   UNL     1      26.203  67.158  91.905  1.00  0.00    -0.504 OA
ATOM     19  H   UNL     1      26.858  67.232  92.675  1.00  0.00     0.293 HD
ENDBRANCH  15  18
BRANCH  17  20
ATOM     20  O   UNL     1      23.390  66.913  91.970  1.00  0.00    -0.504 OA
ATOM     21  H   UNL     1      22.705  67.307  91.336  1.00  0.00     0.293 HD
ENDBRANCH  17  20
ENDBRANCH   1  12
BRANCH   2  22
ATOM     22  O   UNL     1      23.381  62.951  88.245  1.00  0.00    -0.502 OA
ATOM     23  H   UNL     1      22.653  63.156  87.572  1.00  0.00     0.293 HD
ENDBRANCH   2  22
BRANCH   6  24
ATOM     24  O   UNL     1      21.332  58.180  88.555  1.00  0.00    -0.507 OA
ATOM     25  H   UNL     1      21.096  58.880  87.860  1.00  0.00     0.293 HD
ENDBRANCH   6  24
BRANCH   8  26
ATOM     26  O   UNL     1      22.316  56.988  93.125  1.00  0.00    -0.508 OA
ATOM     27  H   UNL     1      22.473  56.001  92.958  1.00  0.00     0.293 HD
ENDBRANCH   8  26
TORSDOF 6
ENDMDL
MODEL 2
REMARK VINA RESULT:    -6.416      1.703      3.361
REMARK INTER + INTRA:          -8.042
REMARK INTER:                  -7.717
REMARK INTRA:                  -0.324
REMARK UNBOUND:                -0.312
REMARK SMILES O=c1c(O)c(-c2ccc(O)c(O)c2)oc2cc(O)cc(O)c12
REMARK SMILES IDX 5 1 3 2 2 3 1 4 22 5 20 6 19 7 17 8 16 9 15 10 14 11 6 12
REMARK SMILES IDX 7 13 8 14 9 15 13 16 11 17 10 18 12 20 4 22 21 24 18 26
REMARK H PARENT 10 19 12 21 4 23 21 25 18 27
REMARK Flexibility Score: inf
ROOT
ATOM      1  C   UNL     1      23.820  61.780  89.808  1.00  0.00     0.180 A 
ATOM      2  C   UNL     1      23.334  60.740  90.624  1.00  0.00     0.208 A 
ATOM      3  C   UNL     1      22.800  59.593  90.015  1.00  0.00     0.238 A 
ATOM      4  O   UNL     1      22.372  58.650  90.736  1.00  0.00    -0.285 OA
ATOM      5  C   UNL     1      22.743  59.513  88.609  1.00  0.00     0.111 A 
ATOM      6  C   UNL     1      22.218  58.395  87.918  1.00  0.00     0.134 A 
ATOM      7  C   UNL     1      22.187  58.395  86.515  1.00  0.00     0.093 A 
ATOM      8  C   UNL     1      22.671  59.488  85.792  1.00  0.00     0.123 A 
ATOM      9  C   UNL     1      23.191  60.595  86.469  1.00  0.00     0.094 A 
ATOM     10  C   UNL     1      23.232  60.613  87.867  1.00  0.00     0.146 A 
ATOM     11  O   UNL     1      23.736  61.675  88.485  1.00  0.00    -0.452 OA
ENDROOT
BRANCH   1  12
ATOM     12  C   UNL     1      24.414  63.012  90.375  1.00  0.00     0.025 A 
ATOM     13  C   UNL     1      25.802  63.139  90.555  1.00  0.00     0.016 A 
ATOM     14  C   UNL     1      26.342  64.321  91.070  1.00  0.00     0.051 A 
ATOM     15  C   UNL     1      25.510  65.395  91.397  1.00  0.00     0.157 A 
ATOM     16  C   UNL     1      23.582  64.100  90.685  1.00  0.00     0.062 A 
ATOM     17  C   UNL     1      24.123  65.288  91.201  1.00  0.00     0.158 A 
BRANCH  15  18
ATOM     18  O   UNL     1      26.078  66.561  91.910  1.00  0.00    -0.504 OA
ATOM     19  H   UNL     1      27.076  66.730  91.883  1.00  0.00     0.293 HD
ENDBRANCH  15  18
BRANCH  17  20
ATOM     20  O   UNL     1      23.288  66.357  91.518  1.00  0.00    -0.504 OA
ATOM     21  H   UNL     1      22.442  66.545  90.993  1.00  0.00     0.293 HD
ENDBRANCH  17  20
ENDBRANCH   1  12
BRANCH   2  22
ATOM     22  O   UNL     1      23.356  60.865  92.016  1.00  0.00    -0.502 OA
ATOM     23  H   UNL     1      22.552  60.650  92.593  1.00  0.00     0.293 HD
ENDBRANCH   2  22
BRANCH   6  24
ATOM     24  O   UNL     1      21.727  57.287  88.610  1.00  0.00    -0.507 OA
ATOM     25  H   UNL     1      22.345  56.592  89.013  1.00  0.00     0.293 HD
ENDBRANCH   6  24
BRANCH   8  26
ATOM     26  O   UNL     1      22.628  59.463  84.400  1.00  0.00    -0.508 OA
ATOM     27  H   UNL     1      21.794  59.733  83.891  1.00  0.00     0.293 HD
ENDBRANCH   8  26
TORSDOF 6
ENDMDL
MODEL 3
REMARK VINA RESULT:    -6.358      2.961      7.406
REMARK INTER + INTRA:          -7.972
REMARK INTER:                  -7.849
REMARK INTRA:                  -0.122
REMARK UNBOUND:                -0.312
REMARK SMILES O=c1c(O)c(-c2ccc(O)c(O)c2)oc2cc(O)cc(O)c12
REMARK SMILES IDX 5 1 3 2 2 3 1 4 22 5 20 6 19 7 17 8 16 9 15 10 14 11 6 12
REMARK SMILES IDX 7 13 8 14 9 15 13 16 11 17 10 18 12 20 4 22 21 24 18 26
REMARK H PARENT 10 19 12 21 4 23 21 25 18 27
REMARK Flexibility Score: inf
ROOT
ATOM      1  C   UNL     1      23.211  60.269  88.155  1.00  0.00     0.180 A 
ATOM      2  C   UNL     1      23.221  59.944  89.524  1.00  0.00     0.208 A 
ATOM      3  C   UNL     1      23.151  60.980  90.469  1.00  0.00     0.238 A 
ATOM      4  O   UNL     1      23.148  60.700  91.699  1.00  0.00    -0.285 OA
ATOM      5  C   UNL     1      23.093  62.319  90.031  1.00  0.00     0.111 A 
ATOM      6  C   UNL     1      23.025  63.421  90.917  1.00  0.00     0.134 A 
ATOM      7  C   UNL     1      22.979  64.726  90.403  1.00  0.00     0.093 A 
ATOM      8  C   UNL     1      23.001  64.949  89.024  1.00  0.00     0.123 A 
ATOM      9  C   UNL     1      23.068  63.865  88.145  1.00  0.00     0.094 A 
ATOM     10  C   UNL     1      23.112  62.557  88.637  1.00  0.00     0.146 A 
ATOM     11  O   UNL     1      23.171  61.544  87.779  1.00  0.00    -0.452 OA
ENDROOT
BRANCH   1  12
ATOM     12  C   UNL     1      23.263  59.232  87.099  1.00  0.00     0.025 A 
ATOM     13  C   UNL     1      22.287  58.224  87.015  1.00  0.00     0.016 A 
ATOM     14  C   UNL     1      22.344  57.270  85.995  1.00  0.00     0.051 A 
ATOM     15  C   UNL     1      23.361  57.315  85.039  1.00  0.00     0.157 A 
ATOM     16  C   UNL     1      24.272  59.288  86.124  1.00  0.00     0.062 A 
ATOM     17  C   UNL     1      24.330  58.332  85.100  1.00  0.00     0.158 A 
BRANCH  15  18
ATOM     18  O   UNL     1      23.393  56.349  84.034  1.00  0.00    -0.504 OA
ATOM     19  H   UNL     1      23.288  56.587  83.055  1.00  0.00     0.293 HD
ENDBRANCH  15  18
BRANCH  17  20
ATOM     20  O   UNL     1      25.344  58.388  84.146  1.00  0.00    -0.504 OA
ATOM     21  H   UNL     1      25.272  57.895  83.263  1.00  0.00     0.293 HD
ENDBRANCH  17  20
ENDBRANCH   1  12
BRANCH   2  22
ATOM     22  O   UNL     1      23.329  58.611  89.933  1.00  0.00    -0.502 OA
ATOM     23  H   UNL     1      22.998  58.292  90.835  1.00  0.00     0.293 HD
ENDBRANCH   2  22
BRANCH   6  24
ATOM     24  O   UNL     1      23.003  63.231  92.299  1.00  0.00    -0.507 OA
ATOM     25  H   UNL     1      22.536  63.882  92.920  1.00  0.00     0.293 HD
ENDBRANCH   6  24
BRANCH   8  26
ATOM     26  O   UNL     1      22.955  66.254  88.540  1.00  0.00    -0.508 OA
ATOM     27  H   UNL     1      23.213  66.474  87.585  1.00  0.00     0.293 HD
ENDBRANCH   8  26
TORSDOF 6
ENDMDL
MODEL 4
REMARK VINA RESULT:    -6.309      2.044      3.822
REMARK INTER + INTRA:          -7.912
REMARK INTER:                  -7.656
REMARK INTRA:                  -0.256
REMARK UNBOUND:                -0.312
REMARK SMILES O=c1c(O)c(-c2ccc(O)c(O)c2)oc2cc(O)cc(O)c12
REMARK SMILES IDX 5 1 3 2 2 3 1 4 22 5 20 6 19 7 17 8 16 9 15 10 14 11 6 12
REMARK SMILES IDX 7 13 8 14 9 15 13 16 11 17 10 18 12 20 4 22 21 24 18 26
REMARK H PARENT 10 19 12 21 4 23 21 25 18 27
REMARK Flexibility Score: inf
ROOT
ATOM      1  C   UNL     1      23.191  60.513  90.097  1.00  0.00     0.180 A 
ATOM      2  C   UNL     1      22.976  59.461  91.008  1.00  0.00     0.208 A 
ATOM      3  C   UNL     1      22.594  58.203  90.514  1.00  0.00     0.238 A 
ATOM      4  O   UNL     1      22.409  57.250  91.320  1.00  0.00    -0.285 OA
ATOM      5  C   UNL     1      22.414  58.025  89.128  1.00  0.00     0.111 A 
ATOM      6  C   UNL     1      22.026  56.792  88.550  1.00  0.00     0.134 A 
ATOM      7  C   UNL     1      21.859  56.697  87.159  1.00  0.00     0.093 A 
ATOM      8  C   UNL     1      22.071  57.807  86.339  1.00  0.00     0.123 A 
ATOM      9  C   UNL     1      22.455  59.027  86.904  1.00  0.00     0.094 A 
ATOM     10  C   UNL     1      22.628  59.142  88.286  1.00  0.00     0.146 A 
ATOM     11  O   UNL     1      22.998  60.311  88.797  1.00  0.00    -0.452 OA
ENDROOT
BRANCH   1  12
ATOM     12  C   UNL     1      23.614  61.861  90.538  1.00  0.00     0.025 A 
ATOM     13  C   UNL     1      22.719  62.737  91.177  1.00  0.00     0.016 A 
ATOM     14  C   UNL     1      23.149  63.996  91.606  1.00  0.00     0.051 A 
ATOM     15  C   UNL     1      24.475  64.394  91.418  1.00  0.00     0.157 A 
ATOM     16  C   UNL     1      24.952  62.255  90.369  1.00  0.00     0.062 A 
ATOM     17  C   UNL     1      25.384  63.519  90.799  1.00  0.00     0.158 A 
BRANCH  15  18
ATOM     18  O   UNL     1      24.873  65.657  91.854  1.00  0.00    -0.504 OA
ATOM     19  H   UNL     1      24.791  65.942  92.823  1.00  0.00     0.293 HD
ENDBRANCH  15  18
BRANCH  17  20
ATOM     20  O   UNL     1      26.710  63.906  90.614  1.00  0.00    -0.504 OA
ATOM     21  H   UNL     1      27.445  63.602  91.242  1.00  0.00     0.293 HD
ENDBRANCH  17  20
ENDBRANCH   1  12
BRANCH   2  22
ATOM     22  O   UNL     1      23.113  59.677  92.382  1.00  0.00    -0.502 OA
ATOM     23  H   UNL     1      23.488  60.538  92.761  1.00  0.00     0.293 HD
ENDBRANCH   2  22
BRANCH   6  24
ATOM     24  O   UNL     1      21.806  55.664  89.342  1.00  0.00    -0.507 OA
ATOM     25  H   UNL     1      22.555  55.222  89.861  1.00  0.00     0.293 HD
ENDBRANCH   6  24
BRANCH   8  26
ATOM     26  O   UNL     1      21.898  57.685  84.962  1.00  0.00    -0.508 OA
ATOM     27  H   UNL     1      21.202  57.061  84.569  1.00  0.00     0.293 HD
ENDBRANCH   8  26
TORSDOF 6
ENDMDL
MODEL 5
REMARK VINA RESULT:    -6.168      2.725      4.207
REMARK INTER + INTRA:          -7.743
REMARK INTER:                  -7.469
REMARK INTRA:                  -0.274
REMARK UNBOUND:                -0.312
REMARK SMILES O=c1c(O)c(-c2ccc(O)c(O)c2)oc2cc(O)cc(O)c12
REMARK SMILES IDX 5 1 3 2 2 3 1 4 22 5 20 6 19 7 17 8 16 9 15 10 14 11 6 12
REMARK SMILES IDX 7 13 8 14 9 15 13 16 11 17 10 18 12 20 4 22 21 24 18 26
REMARK H PARENT 10 19 12 21 4 23 21 25 18 27
REMARK Flexibility Score: inf
ROOT
ATOM      1  C   UNL     1      23.114  60.910  88.604  1.00  0.00     0.180 A 
ATOM      2  C   UNL     1      22.108  60.034  89.057  1.00  0.00     0.208 A 
ATOM      3  C   UNL     1      21.853  58.860  88.330  1.00  0.00     0.238 A 
ATOM      4  O   UNL     1      20.962  58.063  88.732  1.00  0.00    -0.285 OA
ATOM      5  C   UNL     1      22.589  58.593  87.158  1.00  0.00     0.111 A 
ATOM      6  C   UNL     1      22.391  57.436  86.367  1.00  0.00     0.134 A 
ATOM      7  C   UNL     1      23.158  57.245  85.207  1.00  0.00     0.093 A 
ATOM      8  C   UNL     1      24.117  58.187  84.825  1.00  0.00     0.123 A 
ATOM      9  C   UNL     1      24.317  59.331  85.603  1.00  0.00     0.094 A 
ATOM     10  C   UNL     1      23.564  59.538  86.762  1.00  0.00     0.146 A 
ATOM     11  O   UNL     1      23.777  60.631  87.486  1.00  0.00    -0.452 OA
ENDROOT
BRANCH   1  12
ATOM     12  C   UNL     1      23.455  62.157  89.326  1.00  0.00     0.025 A 
ATOM     13  C   UNL     1      24.179  62.130  90.530  1.00  0.00     0.016 A 
ATOM     14  C   UNL     1      24.510  63.322  91.181  1.00  0.00     0.051 A 
ATOM     15  C   UNL     1      24.137  64.554  90.636  1.00  0.00     0.157 A 
ATOM     16  C   UNL     1      23.099  63.396  88.770  1.00  0.00     0.062 A 
ATOM     17  C   UNL     1      23.430  64.593  89.422  1.00  0.00     0.158 A 
BRANCH  15  18
ATOM     18  O   UNL     1      24.479  65.726  91.309  1.00  0.00    -0.504 OA
ATOM     19  H   UNL     1      24.021  66.006  92.168  1.00  0.00     0.293 HD
ENDBRANCH  15  18
BRANCH  17  20
ATOM     20  O   UNL     1      23.061  65.818  88.868  1.00  0.00    -0.504 OA
ATOM     21  H   UNL     1      23.730  66.407  88.387  1.00  0.00     0.293 HD
ENDBRANCH  17  20
ENDBRANCH   1  12
BRANCH   2  22
ATOM     22  O   UNL     1      21.359  60.347  90.194  1.00  0.00    -0.502 OA
ATOM     23  H   UNL     1      21.127  61.301  90.446  1.00  0.00     0.293 HD
ENDBRANCH   2  22
BRANCH   6  24
ATOM     24  O   UNL     1      21.441  56.477  86.721  1.00  0.00    -0.507 OA
ATOM     25  H   UNL     1      21.494  55.522  86.384  1.00  0.00     0.293 HD
ENDBRANCH   6  24
BRANCH   8  26
ATOM     26  O   UNL     1      24.864  57.974  83.670  1.00  0.00    -0.508 OA
ATOM     27  H   UNL     1      24.722  58.533  82.836  1.00  0.00     0.293 HD
ENDBRANCH   8  26
TORSDOF 6
ENDMDL
MODEL 6
REMARK VINA RESULT:    -5.963      3.911      6.714
REMARK INTER + INTRA:          -7.496
REMARK INTER:                  -7.167
REMARK INTRA:                  -0.329
REMARK UNBOUND:                -0.312
REMARK SMILES O=c1c(O)c(-c2ccc(O)c(O)c2)oc2cc(O)cc(O)c12
REMARK SMILES IDX 5 1 3 2 2 3 1 4 22 5 20 6 19 7 17 8 16 9 15 10 14 11 6 12
REMARK SMILES IDX 7 13 8 14 9 15 13 16 11 17 10 18 12 20 4 22 21 24 18 26
REMARK H PARENT 10 19 12 21 4 23 21 25 18 27
REMARK Flexibility Score: inf
ROOT
ATOM      1  C   UNL     1      23.096  59.757  87.770  1.00  0.00     0.180 A 
ATOM      2  C   UNL     1      22.741  61.074  87.419  1.00  0.00     0.208 A 
ATOM      3  C   UNL     1      22.795  61.454  86.068  1.00  0.00     0.238 A 
ATOM      4  O   UNL     1      22.469  62.628  85.740  1.00  0.00    -0.285 OA
ATOM      5  C   UNL     1      23.219  60.522  85.099  1.00  0.00     0.111 A 
ATOM      6  C   UNL     1      23.305  60.826  83.719  1.00  0.00     0.134 A 
ATOM      7  C   UNL     1      23.746  59.845  82.817  1.00  0.00     0.093 A 
ATOM      8  C   UNL     1      24.101  58.572  83.266  1.00  0.00     0.123 A 
ATOM      9  C   UNL     1      24.018  58.266  84.628  1.00  0.00     0.094 A 
ATOM     10  C   UNL     1      23.580  59.228  85.543  1.00  0.00     0.146 A 
ATOM     11  O   UNL     1      23.506  58.911  86.830  1.00  0.00    -0.452 OA
ENDROOT
BRANCH   1  12
ATOM     12  C   UNL     1      23.047  59.276  89.170  1.00  0.00     0.025 A 
ATOM     13  C   UNL     1      21.855  58.790  89.735  1.00  0.00     0.016 A 
ATOM     14  C   UNL     1      21.839  58.319  91.051  1.00  0.00     0.051 A 
ATOM     15  C   UNL     1      23.009  58.312  91.815  1.00  0.00     0.157 A 
ATOM     16  C   UNL     1      24.226  59.249  89.932  1.00  0.00     0.062 A 
ATOM     17  C   UNL     1      24.211  58.776  91.253  1.00  0.00     0.158 A 
BRANCH  15  18
ATOM     18  O   UNL     1      22.962  57.838  93.125  1.00  0.00    -0.504 OA
ATOM     19  H   UNL     1      23.766  57.417  93.574  1.00  0.00     0.293 HD
ENDBRANCH  15  18
BRANCH  17  20
ATOM     20  O   UNL     1      25.384  58.766  92.006  1.00  0.00    -0.504 OA
ATOM     21  H   UNL     1      25.767  59.615  92.405  1.00  0.00     0.293 HD
ENDBRANCH  17  20
ENDBRANCH   1  12
BRANCH   2  22
ATOM     22  O   UNL     1      22.372  61.993  88.405  1.00  0.00    -0.502 OA
ATOM     23  H   UNL     1      22.696  62.953  88.400  1.00  0.00     0.293 HD
ENDBRANCH   2  22
BRANCH   6  24
ATOM     24  O   UNL     1      22.958  62.089  83.238  1.00  0.00    -0.507 OA
ATOM     25  H   UNL     1      23.659  62.787  83.015  1.00  0.00     0.293 HD
ENDBRANCH   6  24
BRANCH   8  26
ATOM     26  O   UNL     1      24.536  57.618  82.350  1.00  0.00    -0.508 OA
ATOM     27  H   UNL     1      25.428  57.147  82.458  1.00  0.00     0.293 HD
ENDBRANCH   8  26
TORSDOF 6
ENDMDL
MODEL 7
REMARK VINA RESULT:    -5.918      1.666      6.754
REMARK INTER + INTRA:          -7.441
REMARK INTER:                  -7.381
REMARK INTRA:                  -0.060
REMARK UNBOUND:                -0.312
REMARK SMILES O=c1c(O)c(-c2ccc(O)c(O)c2)oc2cc(O)cc(O)c12
REMARK SMILES IDX 5 1 3 2 2 3 1 4 22 5 20 6 19 7 17 8 16 9 15 10 14 11 6 12
REMARK SMILES IDX 7 13 8 14 9 15 13 16 11 17 10 18 12 20 4 22 21 24 18 26
REMARK H PARENT 10 19 12 21 4 23 21 25 18 27
REMARK Flexibility Score: inf
ROOT
ATOM      1  C   UNL     1      22.738  61.518  89.473  1.00  0.00     0.180 A 
ATOM      2  C   UNL     1      22.021  62.301  88.548  1.00  0.00     0.208 A 
ATOM      3  C   UNL     1      22.296  63.675  88.465  1.00  0.00     0.238 A 
ATOM      4  O   UNL     1      21.668  64.385  87.633  1.00  0.00    -0.285 OA
ATOM      5  C   UNL     1      23.263  64.244  89.318  1.00  0.00     0.111 A 
ATOM      6  C   UNL     1      23.597  65.620  89.301  1.00  0.00     0.134 A 
ATOM      7  C   UNL     1      24.566  66.112  90.189  1.00  0.00     0.093 A 
ATOM      8  C   UNL     1      25.206  65.259  91.090  1.00  0.00     0.123 A 
ATOM      9  C   UNL     1      24.880  63.899  91.111  1.00  0.00     0.094 A 
ATOM     10  C   UNL     1      23.919  63.389  90.234  1.00  0.00     0.146 A 
ATOM     11  O   UNL     1      23.633  62.092  90.271  1.00  0.00    -0.452 OA
ENDROOT
BRANCH   1  12
ATOM     12  C   UNL     1      22.519  60.059  89.606  1.00  0.00     0.025 A 
ATOM     13  C   UNL     1      22.581  59.205  88.491  1.00  0.00     0.016 A 
ATOM     14  C   UNL     1      22.394  57.829  88.645  1.00  0.00     0.051 A 
ATOM     15  C   UNL     1      22.157  57.283  89.910  1.00  0.00     0.157 A 
ATOM     16  C   UNL     1      22.301  59.507  90.878  1.00  0.00     0.062 A 
ATOM     17  C   UNL     1      22.113  58.125  91.034  1.00  0.00     0.158 A 
BRANCH  15  18
ATOM     18  O   UNL     1      21.972  55.907  90.032  1.00  0.00    -0.504 OA
ATOM     19  H   UNL     1      21.752  55.471  90.920  1.00  0.00     0.293 HD
ENDBRANCH  15  18
BRANCH  17  20
ATOM     20  O   UNL     1      21.884  57.589  92.300  1.00  0.00    -0.504 OA
ATOM     21  H   UNL     1      21.081  57.001  92.491  1.00  0.00     0.293 HD
ENDBRANCH  17  20
ENDBRANCH   1  12
BRANCH   2  22
ATOM     22  O   UNL     1      21.031  61.721  87.748  1.00  0.00    -0.502 OA
ATOM     23  H   UNL     1      21.144  60.809  87.322  1.00  0.00     0.293 HD
ENDBRANCH   2  22
BRANCH   6  24
ATOM     24  O   UNL     1      22.976  66.499  88.413  1.00  0.00    -0.507 OA
ATOM     25  H   UNL     1      22.106  66.264  87.949  1.00  0.00     0.293 HD
ENDBRANCH   6  24
BRANCH   8  26
ATOM     26  O   UNL     1      26.163  65.773  91.961  1.00  0.00    -0.508 OA
ATOM     27  H   UNL     1      27.155  65.692  91.766  1.00  0.00     0.293 HD
ENDBRANCH   8  26
TORSDOF 6
ENDMDL
MODEL 8
REMARK VINA RESULT:    -5.761      3.612      7.670
REMARK INTER + INTRA:          -7.252
REMARK INTER:                  -7.052
REMARK INTRA:                  -0.200
REMARK UNBOUND:                -0.312
REMARK SMILES O=c1c(O)c(-c2ccc(O)c(O)c2)oc2cc(O)cc(O)c12
REMARK SMILES IDX 5 1 3 2 2 3 1 4 22 5 20 6 19 7 17 8 16 9 15 10 14 11 6 12
REMARK SMILES IDX 7 13 8 14 9 15 13 16 11 17 10 18 12 20 4 22 21 24 18 26
REMARK H PARENT 10 19 12 21 4 23 21 25 18 27
REMARK Flexibility Score: inf
ROOT
ATOM      1  C   UNL     1      22.564  58.291  87.481  1.00  0.00     0.180 A 
ATOM      2  C   UNL     1      22.280  57.366  88.504  1.00  0.00     0.208 A 
ATOM      3  C   UNL     1      22.439  57.762  89.842  1.00  0.00     0.238 A 
ATOM      4  O   UNL     1      22.178  56.945  90.766  1.00  0.00    -0.285 OA
ATOM      5  C   UNL     1      22.897  59.063  90.132  1.00  0.00     0.111 A 
ATOM      6  C   UNL     1      23.088  59.539  91.452  1.00  0.00     0.134 A 
ATOM      7  C   UNL     1      23.555  60.846  91.660  1.00  0.00     0.093 A 
ATOM      8  C   UNL     1      23.834  61.683  90.577  1.00  0.00     0.123 A 
ATOM      9  C   UNL     1      23.647  61.218  89.272  1.00  0.00     0.094 A 
ATOM     10  C   UNL     1      23.181  59.920  89.044  1.00  0.00     0.146 A 
ATOM     11  O   UNL     1      23.007  59.505  87.794  1.00  0.00    -0.452 OA
ENDROOT
BRANCH   1  12
ATOM     12  C   UNL     1      22.402  57.955  86.049  1.00  0.00     0.025 A 
ATOM     13  C   UNL     1      21.137  57.684  85.499  1.00  0.00     0.016 A 
ATOM     14  C   UNL     1      21.006  57.393  84.138  1.00  0.00     0.051 A 
ATOM     15  C   UNL     1      22.129  57.380  83.306  1.00  0.00     0.157 A 
ATOM     16  C   UNL     1      23.525  57.962  85.206  1.00  0.00     0.062 A 
ATOM     17  C   UNL     1      23.396  57.670  83.840  1.00  0.00     0.158 A 
BRANCH  15  18
ATOM     18  O   UNL     1      21.968  57.084  81.953  1.00  0.00    -0.504 OA
ATOM     19  H   UNL     1      21.220  57.485  81.400  1.00  0.00     0.293 HD
ENDBRANCH  15  18
BRANCH  17  20
ATOM     20  O   UNL     1      24.519  57.666  83.016  1.00  0.00    -0.504 OA
ATOM     21  H   UNL     1      25.422  57.349  83.349  1.00  0.00     0.293 HD
ENDBRANCH  17  20
ENDBRANCH   1  12
BRANCH   2  22
ATOM     22  O   UNL     1      21.876  56.066  88.188  1.00  0.00    -0.502 OA
ATOM     23  H   UNL     1      21.824  55.730  87.233  1.00  0.00     0.293 HD
ENDBRANCH   2  22
BRANCH   6  24
ATOM     24  O   UNL     1      22.818  58.728  92.555  1.00  0.00    -0.507 OA
ATOM     25  H   UNL     1      22.019  58.104  92.577  1.00  0.00     0.293 HD
ENDBRANCH   6  24
BRANCH   8  26
ATOM     26  O   UNL     1      24.298  62.976  90.811  1.00  0.00    -0.508 OA
ATOM     27  H   UNL     1      24.101  63.734  90.166  1.00  0.00     0.293 HD
ENDBRANCH   8  26
TORSDOF 6
ENDMDL
MODEL 9
REMARK VINA RESULT:    -5.746      3.490      7.165
REMARK INTER + INTRA:          -7.233
REMARK INTER:                  -7.073
REMARK INTRA:                  -0.161
REMARK UNBOUND:                -0.312
REMARK SMILES O=c1c(O)c(-c2ccc(O)c(O)c2)oc2cc(O)cc(O)c12
REMARK SMILES IDX 5 1 3 2 2 3 1 4 22 5 20 6 19 7 17 8 16 9 15 10 14 11 6 12
REMARK SMILES IDX 7 13 8 14 9 15 13 16 11 17 10 18 12 20 4 22 21 24 18 26
REMARK H PARENT 10 19 12 21 4 23 21 25 18 27
REMARK Flexibility Score: inf
ROOT
ATOM      1  C   UNL     1      22.731  58.960  87.310  1.00  0.00     0.180 A 
ATOM      2  C   UNL     1      23.185  60.279  87.499  1.00  0.00     0.208 A 
ATOM      3  C   UNL     1      23.407  60.739  88.807  1.00  0.00     0.238 A 
ATOM      4  O   UNL     1      23.824  61.916  88.988  1.00  0.00    -0.285 OA
ATOM      5  C   UNL     1      23.153  59.885  89.899  1.00  0.00     0.111 A 
ATOM      6  C   UNL     1      23.346  60.272  91.247  1.00  0.00     0.134 A 
ATOM      7  C   UNL     1      23.062  59.365  92.279  1.00  0.00     0.093 A 
ATOM      8  C   UNL     1      22.589  58.083  91.991  1.00  0.00     0.123 A 
ATOM      9  C   UNL     1      22.397  57.695  90.662  1.00  0.00     0.094 A 
ATOM     10  C   UNL     1      22.676  58.583  89.619  1.00  0.00     0.146 A 
ATOM     11  O   UNL     1      22.489  58.187  88.365  1.00  0.00    -0.452 OA
ENDROOT
BRANCH   1  12
ATOM     12  C   UNL     1      22.493  58.395  85.962  1.00  0.00     0.025 A 
ATOM     13  C   UNL     1      21.199  58.058  85.528  1.00  0.00     0.016 A 
ATOM     14  C   UNL     1      20.997  57.549  84.242  1.00  0.00     0.051 A 
ATOM     15  C   UNL     1      22.074  57.382  83.369  1.00  0.00     0.157 A 
ATOM     16  C   UNL     1      23.572  58.245  85.076  1.00  0.00     0.062 A 
ATOM     17  C   UNL     1      23.369  57.734  83.785  1.00  0.00     0.158 A 
BRANCH  15  18
ATOM     18  O   UNL     1      21.841  56.869  82.093  1.00  0.00    -0.504 OA
ATOM     19  H   UNL     1      22.597  56.579  81.484  1.00  0.00     0.293 HD
ENDBRANCH  15  18
BRANCH  17  20
ATOM     20  O   UNL     1      24.449  57.577  82.917  1.00  0.00    -0.504 OA
ATOM     21  H   UNL     1      25.231  58.221  82.920  1.00  0.00     0.293 HD
ENDBRANCH  17  20
ENDBRANCH   1  12
BRANCH   2  22
ATOM     22  O   UNL     1      23.382  61.122  86.402  1.00  0.00    -0.502 OA
ATOM     23  H   UNL     1      23.463  62.127  86.499  1.00  0.00     0.293 HD
ENDBRANCH   2  22
BRANCH   6  24
ATOM     24  O   UNL     1      23.817  61.546  91.568  1.00  0.00    -0.507 OA
ATOM     25  H   UNL     1      24.380  61.715  92.394  1.00  0.00     0.293 HD
ENDBRANCH   6  24
BRANCH   8  26
ATOM     26  O   UNL     1      22.314  57.203  93.035  1.00  0.00    -0.508 OA
ATOM     27  H   UNL     1      21.468  56.644  93.048  1.00  0.00     0.293 HD
ENDBRANCH   8  26
TORSDOF 6
ENDMDL
