MODEL 1
REMARK VINA RESULT:    -3.122      0.000      0.000
REMARK INTER + INTRA:          -7.261
REMARK INTER:                  -5.312
REMARK INTRA:                  -1.949
REMARK UNBOUND:                -1.949
REMARK SMILES CCCCCCCCCCCCCC(=O)[O-]
REMARK SMILES IDX 8 1 9 2 10 3 11 4 12 5 13 6 14 7 15 8 16 9 7 10 6 11 5 12
REMARK SMILES IDX 4 13 3 14 2 15 1 16
REMARK H PARENT
REMARK Flexibility Score: inf
ROOT
ATOM      1  C   UNL     1       3.520   8.243   2.925  1.00  0.00     0.000 C 
ENDROOT
BRANCH   1   2
ATOM      2  C   UNL     1       4.773   8.361   3.808  1.00  0.00     0.000 C 
BRANCH   2   3
ATOM      3  C   UNL     1       5.861   7.342   3.429  1.00  0.00     0.000 C 
BRANCH   3   4
ATOM      4  C   UNL     1       5.839   6.986   1.934  1.00  0.00     0.000 C 
BRANCH   4   5
ATOM      5  C   UNL     1       6.881   7.775   1.120  1.00  0.00     0.006 C 
BRANCH   5   6
ATOM      6  C   UNL     1       6.549   7.796  -0.378  1.00  0.00     0.053 C 
BRANCH   6   7
ATOM      7  C   UNL     1       6.977   6.532  -1.060  1.00  0.00     0.041 C 
ATOM      8  O   UNL     1       8.122   6.447  -1.576  1.00  0.00    -0.550 OA
ATOM      9  O   UNL     1       6.124   5.437  -1.093  1.00  0.00    -0.550 OA
ENDBRANCH   6   7
ENDBRANCH   5   6
ENDBRANCH   4   5
ENDBRANCH   3   4
ENDBRANCH   2   3
ENDBRANCH   1   2
BRANCH   1  10
ATOM     10  C   UNL     1       3.127   9.579   2.269  1.00  0.00     0.000 C 
BRANCH  10  11
ATOM     11  C   UNL     1       3.584   9.671   0.805  1.00  0.00    -0.000 C 
BRANCH  11  12
ATOM     12  C   UNL     1       4.568  10.831   0.566  1.00  0.00    -0.000 C 
BRANCH  12  13
ATOM     13  C   UNL     1       5.033  11.492   1.874  1.00  0.00    -0.000 C 
BRANCH  13  14
ATOM     14  C   UNL     1       6.535  11.291   2.134  1.00  0.00    -0.000 C 
BRANCH  14  15
ATOM     15  C   UNL     1       7.376  11.426   0.855  1.00  0.00    -0.003 C 
ATOM     16  C   UNL     1       8.236  12.690   0.840  1.00  0.00     0.004 C 
ENDBRANCH  14  15
ENDBRANCH  13  14
ENDBRANCH  12  13
ENDBRANCH  11  12
ENDBRANCH  10  11
ENDBRANCH   1  10
TORSDOF 12
ENDMDL
MODEL 2
REMARK VINA RESULT:    -3.064      2.517      3.918
REMARK INTER + INTRA:          -7.163
REMARK INTER:                  -5.044
REMARK INTRA:                  -2.119
REMARK UNBOUND:                -1.949
REMARK SMILES CCCCCCCCCCCCCC(=O)[O-]
REMARK SMILES IDX 8 1 9 2 10 3 11 4 12 5 13 6 14 7 15 8 16 9 7 10 6 11 5 12
REMARK SMILES IDX 4 13 3 14 2 15 1 16
REMARK H PARENT
REMARK Flexibility Score: inf
ROOT
ATOM      1  C   UNL     1       7.491  11.395   1.336  1.00  0.00     0.000 C 
ENDROOT
BRANCH   1   2
ATOM      2  C   UNL     1       8.075  10.221   0.534  1.00  0.00     0.000 C 
BRANCH   2   3
ATOM      3  C   UNL     1       7.831   8.863   1.214  1.00  0.00     0.000 C 
BRANCH   3   4
ATOM      4  C   UNL     1       7.114   7.863   0.295  1.00  0.00     0.000 C 
BRANCH   4   5
ATOM      5  C   UNL     1       6.265   6.842   1.074  1.00  0.00     0.006 C 
BRANCH   5   6
ATOM      6  C   UNL     1       5.065   7.498   1.769  1.00  0.00     0.053 C 
BRANCH   6   7
ATOM      7  C   UNL     1       5.234   7.530   3.257  1.00  0.00     0.041 C 
ATOM      8  O   UNL     1       6.123   6.829   3.809  1.00  0.00    -0.550 OA
ATOM      9  O   UNL     1       4.435   8.361   4.031  1.00  0.00    -0.550 OA
ENDBRANCH   6   7
ENDBRANCH   5   6
ENDBRANCH   4   5
ENDBRANCH   3   4
ENDBRANCH   2   3
ENDBRANCH   1   2
BRANCH   1  10
ATOM     10  C   UNL     1       6.361  10.963   2.286  1.00  0.00     0.000 C 
BRANCH  10  11
ATOM     11  C   UNL     1       4.966  11.241   1.706  1.00  0.00    -0.000 C 
BRANCH  11  12
ATOM     12  C   UNL     1       4.984  12.340   0.627  1.00  0.00    -0.000 C 
BRANCH  12  13
ATOM     13  C   UNL     1       4.349  11.882  -0.696  1.00  0.00    -0.000 C 
BRANCH  13  14
ATOM     14  C   UNL     1       4.587  10.390  -0.979  1.00  0.00    -0.000 C 
BRANCH  14  15
ATOM     15  C   UNL     1       5.565  10.161  -2.143  1.00  0.00    -0.003 C 
ATOM     16  C   UNL     1       6.078  11.466  -2.752  1.00  0.00     0.004 C 
ENDBRANCH  14  15
ENDBRANCH  13  14
ENDBRANCH  12  13
ENDBRANCH  11  12
ENDBRANCH  10  11
ENDBRANCH   1  10
TORSDOF 12
ENDMDL
MODEL 3
REMARK VINA RESULT:    -3.055      1.349      3.661
REMARK INTER + INTRA:          -7.147
REMARK INTER:                  -5.362
REMARK INTRA:                  -1.784
REMARK UNBOUND:                -1.949
REMARK SMILES CCCCCCCCCCCCCC(=O)[O-]
REMARK SMILES IDX 8 1 9 2 10 3 11 4 12 5 13 6 14 7 15 8 16 9 7 10 6 11 5 12
REMARK SMILES IDX 4 13 3 14 2 15 1 16
REMARK H PARENT
REMARK Flexibility Score: inf
ROOT
ATOM      1  C   UNL     1       4.625  11.248  -0.789  1.00  0.00     0.000 C 
ENDROOT
BRANCH   1   2
ATOM      2  C   UNL     1       5.789  11.805   0.045  1.00  0.00     0.000 C 
BRANCH   2   3
ATOM      3  C   UNL     1       7.115  11.073  -0.228  1.00  0.00     0.000 C 
BRANCH   3   4
ATOM      4  C   UNL     1       7.645  10.333   1.010  1.00  0.00     0.000 C 
BRANCH   4   5
ATOM      5  C   UNL     1       7.771   8.815   0.786  1.00  0.00     0.006 C 
BRANCH   5   6
ATOM      6  C   UNL     1       6.727   8.287  -0.206  1.00  0.00     0.053 C 
BRANCH   6   7
ATOM      7  C   UNL     1       6.880   6.817  -0.446  1.00  0.00     0.041 C 
ATOM      8  O   UNL     1       6.460   5.990   0.407  1.00  0.00    -0.550 OA
ATOM      9  O   UNL     1       7.452   6.359  -1.625  1.00  0.00    -0.550 OA
ENDBRANCH   6   7
ENDBRANCH   5   6
ENDBRANCH   4   5
ENDBRANCH   3   4
ENDBRANCH   2   3
ENDBRANCH   1   2
BRANCH   1  10
ATOM     10  C   UNL     1       3.448  10.769   0.079  1.00  0.00     0.000 C 
BRANCH  10  11
ATOM     11  C   UNL     1       3.181   9.263  -0.071  1.00  0.00    -0.000 C 
BRANCH  11  12
ATOM     12  C   UNL     1       3.229   8.519   1.277  1.00  0.00    -0.000 C 
BRANCH  12  13
ATOM     13  C   UNL     1       4.093   9.243   2.323  1.00  0.00    -0.000 C 
BRANCH  13  14
ATOM     14  C   UNL     1       4.354   8.381   3.569  1.00  0.00    -0.000 C 
BRANCH  14  15
ATOM     15  C   UNL     1       5.854   8.188   3.845  1.00  0.00    -0.003 C 
ATOM     16  C   UNL     1       6.279   6.720   3.816  1.00  0.00     0.004 C 
ENDBRANCH  14  15
ENDBRANCH  13  14
ENDBRANCH  12  13
ENDBRANCH  11  12
ENDBRANCH  10  11
ENDBRANCH   1  10
TORSDOF 12
ENDMDL
MODEL 4
REMARK VINA RESULT:    -3.002      1.989      3.782
REMARK INTER + INTRA:          -7.058
REMARK INTER:                  -5.373
REMARK INTRA:                  -1.685
REMARK UNBOUND:                -1.949
REMARK SMILES CCCCCCCCCCCCCC(=O)[O-]
REMARK SMILES IDX 8 1 9 2 10 3 11 4 12 5 13 6 14 7 15 8 16 9 7 10 6 11 5 12
REMARK SMILES IDX 4 13 3 14 2 15 1 16
REMARK H PARENT
REMARK Flexibility Score: inf
ROOT
ATOM      1  C   UNL     1       5.126   7.401  -0.147  1.00  0.00     0.000 C 
ENDROOT
BRANCH   1   2
ATOM      2  C   UNL     1       3.881   8.180   0.306  1.00  0.00     0.000 C 
BRANCH   2   3
ATOM      3  C   UNL     1       4.171   9.121   1.489  1.00  0.00     0.000 C 
BRANCH   3   4
ATOM      4  C   UNL     1       3.425   8.708   2.767  1.00  0.00     0.000 C 
BRANCH   4   5
ATOM      5  C   UNL     1       4.378   8.371   3.929  1.00  0.00     0.006 C 
BRANCH   5   6
ATOM      6  C   UNL     1       5.824   8.181   3.454  1.00  0.00     0.053 C 
BRANCH   6   7
ATOM      7  C   UNL     1       6.239   6.742   3.497  1.00  0.00     0.041 C 
ATOM      8  O   UNL     1       6.030   5.994   2.506  1.00  0.00    -0.550 OA
ATOM      9  O   UNL     1       6.888   6.237   4.616  1.00  0.00    -0.550 OA
ENDBRANCH   6   7
ENDBRANCH   5   6
ENDBRANCH   4   5
ENDBRANCH   3   4
ENDBRANCH   2   3
ENDBRANCH   1   2
BRANCH   1  10
ATOM     10  C   UNL     1       6.276   8.324  -0.589  1.00  0.00     0.000 C 
BRANCH  10  11
ATOM     11  C   UNL     1       7.567   8.076   0.205  1.00  0.00    -0.000 C 
BRANCH  11  12
ATOM     12  C   UNL     1       8.062   9.338   0.935  1.00  0.00    -0.000 C 
BRANCH  12  13
ATOM     13  C   UNL     1       7.567  10.636   0.276  1.00  0.00    -0.000 C 
BRANCH  13  14
ATOM     14  C   UNL     1       7.721  11.859   1.195  1.00  0.00    -0.000 C 
BRANCH  14  15
ATOM     15  C   UNL     1       6.637  11.917   2.283  1.00  0.00    -0.003 C 
ATOM     16  C   UNL     1       5.327  12.526   1.784  1.00  0.00     0.004 C 
ENDBRANCH  14  15
ENDBRANCH  13  14
ENDBRANCH  12  13
ENDBRANCH  11  12
ENDBRANCH  10  11
ENDBRANCH   1  10
TORSDOF 12
ENDMDL
MODEL 5
REMARK VINA RESULT:    -2.936      1.925      4.190
REMARK INTER + INTRA:          -6.945
REMARK INTER:                  -5.197
REMARK INTRA:                  -1.748
REMARK UNBOUND:                -1.949
REMARK SMILES CCCCCCCCCCCCCC(=O)[O-]
REMARK SMILES IDX 8 1 9 2 10 3 11 4 12 5 13 6 14 7 15 8 16 9 7 10 6 11 5 12
REMARK SMILES IDX 4 13 3 14 2 15 1 16
REMARK H PARENT
REMARK Flexibility Score: inf
ROOT
ATOM      1  C   UNL     1       4.647  11.493   1.858  1.00  0.00     0.000 C 
ENDROOT
BRANCH   1   2
ATOM      2  C   UNL     1       3.944  10.248   1.294  1.00  0.00     0.000 C 
BRANCH   2   3
ATOM      3  C   UNL     1       2.875   9.690   2.250  1.00  0.00     0.000 C 
BRANCH   3   4
ATOM      4  C   UNL     1       3.233   8.294   2.783  1.00  0.00     0.000 C 
BRANCH   4   5
ATOM      5  C   UNL     1       4.652   7.850   2.381  1.00  0.00     0.006 C 
BRANCH   5   6
ATOM      6  C   UNL     1       5.591   7.749   3.590  1.00  0.00     0.053 C 
BRANCH   6   7
ATOM      7  C   UNL     1       6.309   6.435   3.627  1.00  0.00     0.041 C 
ATOM      8  O   UNL     1       6.961   6.099   4.651  1.00  0.00    -0.550 OA
ATOM      9  O   UNL     1       6.228   5.566   2.547  1.00  0.00    -0.550 OA
ENDBRANCH   6   7
ENDBRANCH   5   6
ENDBRANCH   4   5
ENDBRANCH   3   4
ENDBRANCH   2   3
ENDBRANCH   1   2
BRANCH   1  10
ATOM     10  C   UNL     1       6.143  11.257   2.134  1.00  0.00     0.000 C 
BRANCH  10  11
ATOM     11  C   UNL     1       7.023  11.570   0.914  1.00  0.00    -0.000 C 
BRANCH  11  12
ATOM     12  C   UNL     1       7.378  10.309   0.104  1.00  0.00    -0.000 C 
BRANCH  12  13
ATOM     13  C   UNL     1       7.988   9.199   0.974  1.00  0.00    -0.000 C 
BRANCH  13  14
ATOM     14  C   UNL     1       7.896   7.814   0.313  1.00  0.00    -0.000 C 
BRANCH  14  15
ATOM     15  C   UNL     1       6.647   7.667  -0.570  1.00  0.00    -0.003 C 
ATOM     16  C   UNL     1       6.281   6.208  -0.843  1.00  0.00     0.004 C 
ENDBRANCH  14  15
ENDBRANCH  13  14
ENDBRANCH  12  13
ENDBRANCH  11  12
ENDBRANCH  10  11
ENDBRANCH   1  10
TORSDOF 12
ENDMDL
MODEL 6
REMARK VINA RESULT:    -2.926      2.717      4.759
REMARK INTER + INTRA:          -6.927
REMARK INTER:                  -5.048
REMARK INTRA:                  -1.879
REMARK UNBOUND:                -1.949
REMARK SMILES CCCCCCCCCCCCCC(=O)[O-]
REMARK SMILES IDX 8 1 9 2 10 3 11 4 12 5 13 6 14 7 15 8 16 9 7 10 6 11 5 12
REMARK SMILES IDX 4 13 3 14 2 15 1 16
REMARK H PARENT
REMARK Flexibility Score: inf
ROOT
ATOM      1  C   UNL     1       3.238   9.685   1.758  1.00  0.00     0.000 C 
ENDROOT
BRANCH   1   2
ATOM      2  C   UNL     1       3.596  10.424   0.459  1.00  0.00     0.000 C 
BRANCH   2   3
ATOM      3  C   UNL     1       4.132   9.479  -0.630  1.00  0.00     0.000 C 
BRANCH   3   4
ATOM      4  C   UNL     1       5.470   9.953  -1.216  1.00  0.00     0.000 C 
BRANCH   4   5
ATOM      5  C   UNL     1       6.034  11.188  -0.489  1.00  0.00     0.006 C 
BRANCH   5   6
ATOM      6  C   UNL     1       7.377  10.895   0.192  1.00  0.00     0.053 C 
BRANCH   6   7
ATOM      7  C   UNL     1       7.686  11.894   1.265  1.00  0.00     0.041 C 
ATOM      8  O   UNL     1       8.736  12.587   1.202  1.00  0.00    -0.550 OA
ATOM      9  O   UNL     1       6.797  12.086   2.314  1.00  0.00    -0.550 OA
ENDBRANCH   6   7
ENDBRANCH   5   6
ENDBRANCH   4   5
ENDBRANCH   3   4
ENDBRANCH   2   3
ENDBRANCH   1   2
BRANCH   1  10
ATOM     10  C   UNL     1       4.438   9.541   2.711  1.00  0.00     0.000 C 
BRANCH  10  11
ATOM     11  C   UNL     1       4.420   8.213   3.483  1.00  0.00    -0.000 C 
BRANCH  11  12
ATOM     12  C   UNL     1       5.664   7.351   3.203  1.00  0.00    -0.000 C 
BRANCH  12  13
ATOM     13  C   UNL     1       6.434   7.810   1.954  1.00  0.00    -0.000 C 
BRANCH  13  14
ATOM     14  C   UNL     1       6.317   6.813   0.789  1.00  0.00    -0.000 C 
BRANCH  14  15
ATOM     15  C   UNL     1       7.406   7.024  -0.275  1.00  0.00    -0.003 C 
ATOM     16  C   UNL     1       7.021   6.449  -1.639  1.00  0.00     0.004 C 
ENDBRANCH  14  15
ENDBRANCH  13  14
ENDBRANCH  12  13
ENDBRANCH  11  12
ENDBRANCH  10  11
ENDBRANCH   1  10
TORSDOF 12
ENDMDL
MODEL 7
REMARK VINA RESULT:    -2.923      2.166      4.554
REMARK INTER + INTRA:          -6.923
REMARK INTER:                  -5.209
REMARK INTRA:                  -1.713
REMARK UNBOUND:                -1.949
REMARK SMILES CCCCCCCCCCCCCC(=O)[O-]
REMARK SMILES IDX 8 1 9 2 10 3 11 4 12 5 13 6 14 7 15 8 16 9 7 10 6 11 5 12
REMARK SMILES IDX 4 13 3 14 2 15 1 16
REMARK H PARENT
REMARK Flexibility Score: inf
ROOT
ATOM      1  C   UNL     1       4.179  10.227   1.526  1.00  0.00     0.000 C 
ENDROOT
BRANCH   1   2
ATOM      2  C   UNL     1       4.351  11.737   1.758  1.00  0.00     0.000 C 
BRANCH   2   3
ATOM      3  C   UNL     1       5.812  12.130   2.033  1.00  0.00     0.000 C 
BRANCH   3   4
ATOM      4  C   UNL     1       6.759  10.919   2.029  1.00  0.00     0.000 C 
BRANCH   4   5
ATOM      5  C   UNL     1       7.838  11.012   0.935  1.00  0.00     0.006 C 
BRANCH   5   6
ATOM      6  C   UNL     1       7.705  12.291   0.099  1.00  0.00     0.053 C 
BRANCH   6   7
ATOM      7  C   UNL     1       7.278  11.995  -1.306  1.00  0.00     0.041 C 
ATOM      8  O   UNL     1       6.202  11.377  -1.524  1.00  0.00    -0.550 OA
ATOM      9  O   UNL     1       8.047  12.434  -2.375  1.00  0.00    -0.550 OA
ENDBRANCH   6   7
ENDBRANCH   5   6
ENDBRANCH   4   5
ENDBRANCH   3   4
ENDBRANCH   2   3
ENDBRANCH   1   2
BRANCH   1  10
ATOM     10  C   UNL     1       3.238   9.571   2.552  1.00  0.00     0.000 C 
BRANCH  10  11
ATOM     11  C   UNL     1       3.707   8.168   2.968  1.00  0.00    -0.000 C 
BRANCH  11  12
ATOM     12  C   UNL     1       4.973   8.205   3.843  1.00  0.00    -0.000 C 
BRANCH  12  13
ATOM     13  C   UNL     1       6.159   7.468   3.201  1.00  0.00    -0.000 C 
BRANCH  13  14
ATOM     14  C   UNL     1       5.797   6.832   1.849  1.00  0.00    -0.000 C 
BRANCH  14  15
ATOM     15  C   UNL     1       6.576   7.455   0.680  1.00  0.00    -0.003 C 
ATOM     16  C   UNL     1       6.518   6.607  -0.591  1.00  0.00     0.004 C 
ENDBRANCH  14  15
ENDBRANCH  13  14
ENDBRANCH  12  13
ENDBRANCH  11  12
ENDBRANCH  10  11
ENDBRANCH   1  10
TORSDOF 12
ENDMDL
MODEL 8
REMARK VINA RESULT:    -2.906      2.611      4.447
REMARK INTER + INTRA:          -6.895
REMARK INTER:                  -5.079
REMARK INTRA:                  -1.816
REMARK UNBOUND:                -1.949
REMARK SMILES CCCCCCCCCCCCCC(=O)[O-]
REMARK SMILES IDX 8 1 9 2 10 3 11 4 12 5 13 6 14 7 15 8 16 9 7 10 6 11 5 12
REMARK SMILES IDX 4 13 3 14 2 15 1 16
REMARK H PARENT
REMARK Flexibility Score: inf
ROOT
ATOM      1  C   UNL     1       8.360   9.466   0.905  1.00  0.00     0.000 C 
ENDROOT
BRANCH   1   2
ATOM      2  C   UNL     1       7.683   8.137   0.530  1.00  0.00     0.000 C 
BRANCH   2   3
ATOM      3  C   UNL     1       6.368   8.342  -0.242  1.00  0.00     0.000 C 
BRANCH   3   4
ATOM      4  C   UNL     1       5.198   7.554   0.368  1.00  0.00     0.000 C 
BRANCH   4   5
ATOM      5  C   UNL     1       4.401   8.374   1.399  1.00  0.00     0.006 C 
BRANCH   5   6
ATOM      6  C   UNL     1       4.242   7.631   2.731  1.00  0.00     0.053 C 
BRANCH   6   7
ATOM      7  C   UNL     1       5.528   7.582   3.498  1.00  0.00     0.041 C 
ATOM      8  O   UNL     1       6.070   6.475   3.755  1.00  0.00    -0.550 OA
ATOM      9  O   UNL     1       6.146   8.759   3.897  1.00  0.00    -0.550 OA
ENDBRANCH   6   7
ENDBRANCH   5   6
ENDBRANCH   4   5
ENDBRANCH   3   4
ENDBRANCH   2   3
ENDBRANCH   1   2
BRANCH   1  10
ATOM     10  C   UNL     1       7.349  10.603   1.139  1.00  0.00     0.000 C 
BRANCH  10  11
ATOM     11  C   UNL     1       7.950  11.990   0.865  1.00  0.00    -0.000 C 
BRANCH  11  12
ATOM     12  C   UNL     1       7.582  12.527  -0.531  1.00  0.00    -0.000 C 
BRANCH  12  13
ATOM     13  C   UNL     1       6.179  12.089  -0.983  1.00  0.00    -0.000 C 
BRANCH  13  14
ATOM     14  C   UNL     1       6.196  11.367  -2.340  1.00  0.00    -0.000 C 
BRANCH  14  15
ATOM     15  C   UNL     1       4.821  10.793  -2.717  1.00  0.00    -0.003 C 
ATOM     16  C   UNL     1       3.877  10.679  -1.520  1.00  0.00     0.004 C 
ENDBRANCH  14  15
ENDBRANCH  13  14
ENDBRANCH  12  13
ENDBRANCH  11  12
ENDBRANCH  10  11
ENDBRANCH   1  10
TORSDOF 12
ENDMDL
MODEL 9
REMARK VINA RESULT:    -2.888      2.330      4.837
REMARK INTER + INTRA:          -6.864
REMARK INTER:                  -5.174
REMARK INTRA:                  -1.689
REMARK UNBOUND:                -1.949
REMARK SMILES CCCCCCCCCCCCCC(=O)[O-]
REMARK SMILES IDX 8 1 9 2 10 3 11 4 12 5 13 6 14 7 15 8 16 9 7 10 6 11 5 12
REMARK SMILES IDX 4 13 3 14 2 15 1 16
REMARK H PARENT
REMARK Flexibility Score: inf
ROOT
ATOM      1  C   UNL     1       3.753   8.549   3.381  1.00  0.00     0.000 C 
ENDROOT
BRANCH   1   2
ATOM      2  C   UNL     1       3.583   9.281   2.040  1.00  0.00     0.000 C 
BRANCH   2   3
ATOM      3  C   UNL     1       2.995  10.693   2.209  1.00  0.00     0.000 C 
BRANCH   3   4
ATOM      4  C   UNL     1       4.077  11.784   2.223  1.00  0.00     0.000 C 
BRANCH   4   5
ATOM      5  C   UNL     1       5.300  11.419   1.363  1.00  0.00     0.006 C 
BRANCH   5   6
ATOM      6  C   UNL     1       6.623  11.712   2.083  1.00  0.00     0.053 C 
BRANCH   6   7
ATOM      7  C   UNL     1       7.718  12.054   1.120  1.00  0.00     0.041 C 
ATOM      8  O   UNL     1       8.647  12.829   1.468  1.00  0.00    -0.550 OA
ATOM      9  O   UNL     1       7.731  11.488  -0.148  1.00  0.00    -0.550 OA
ENDBRANCH   6   7
ENDBRANCH   5   6
ENDBRANCH   4   5
ENDBRANCH   3   4
ENDBRANCH   2   3
ENDBRANCH   1   2
BRANCH   1  10
ATOM     10  C   UNL     1       5.230   8.362   3.773  1.00  0.00     0.000 C 
BRANCH  10  11
ATOM     11  C   UNL     1       5.979   7.426   2.812  1.00  0.00    -0.000 C 
BRANCH  11  12
ATOM     12  C   UNL     1       7.124   8.138   2.068  1.00  0.00    -0.000 C 
BRANCH  12  13
ATOM     13  C   UNL     1       6.958   8.092   0.541  1.00  0.00    -0.000 C 
BRANCH  13  14
ATOM     14  C   UNL     1       5.799   7.182   0.101  1.00  0.00    -0.000 C 
BRANCH  14  15
ATOM     15  C   UNL     1       6.273   5.999  -0.756  1.00  0.00    -0.003 C 
ATOM     16  C   UNL     1       7.375   6.385  -1.744  1.00  0.00     0.004 C 
ENDBRANCH  14  15
ENDBRANCH  13  14
ENDBRANCH  12  13
ENDBRANCH  11  12
ENDBRANCH  10  11
ENDBRANCH   1  10
TORSDOF 12
ENDMDL
