MODEL 1
REMARK VINA RESULT:    -3.890      0.000      0.000
REMARK INTER + INTRA:          -5.002
REMARK INTER:                  -4.686
REMARK INTRA:                  -0.316
REMARK UNBOUND:                -0.316
REMARK SMILES O=c1c(O)c(-c2ccc(O)c(O)c2)oc2cc(O)cc(O)c12
REMARK SMILES IDX 5 1 3 2 2 3 1 4 22 5 20 6 19 7 17 8 16 9 15 10 14 11 6 12
REMARK SMILES IDX 7 13 8 14 9 15 13 16 11 17 10 18 12 20 4 22 21 24 18 26
REMARK H PARENT 10 19 12 21 4 23 21 25 18 27
REMARK Flexibility Score: inf
ROOT
ATOM      1  C   UNL     1     -20.271  13.192  -5.567  1.00  0.00     0.180 A 
ATOM      2  C   UNL     1     -21.229  12.595  -4.729  1.00  0.00     0.208 A 
ATOM      3  C   UNL     1     -21.302  11.194  -4.668  1.00  0.00     0.238 A 
ATOM      4  O   UNL     1     -22.125  10.666  -3.875  1.00  0.00    -0.285 OA
ATOM      5  C   UNL     1     -20.429  10.408  -5.458  1.00  0.00     0.111 A 
ATOM      6  C   UNL     1     -20.444   8.981  -5.505  1.00  0.00     0.134 A 
ATOM      7  C   UNL     1     -19.448   8.304  -6.221  1.00  0.00     0.093 A 
ATOM      8  C   UNL     1     -18.481   9.001  -6.944  1.00  0.00     0.123 A 
ATOM      9  C   UNL     1     -18.494  10.397  -6.953  1.00  0.00     0.094 A 
ATOM     10  C   UNL     1     -19.452  11.100  -6.219  1.00  0.00     0.146 A 
ATOM     11  O   UNL     1     -19.423  12.427  -6.246  1.00  0.00    -0.452 OA
ENDROOT
BRANCH   1  12
ATOM     12  C   UNL     1     -20.149  14.662  -5.704  1.00  0.00     0.025 A 
ATOM     13  C   UNL     1     -19.351  15.376  -4.797  1.00  0.00     0.016 A 
ATOM     14  C   UNL     1     -19.205  16.760  -4.920  1.00  0.00     0.051 A 
ATOM     15  C   UNL     1     -19.842  17.448  -5.961  1.00  0.00     0.157 A 
ATOM     16  C   UNL     1     -20.770  15.353  -6.760  1.00  0.00     0.062 A 
ATOM     17  C   UNL     1     -20.624  16.738  -6.887  1.00  0.00     0.158 A 
BRANCH  15  18
ATOM     18  O   UNL     1     -19.697  18.829  -6.081  1.00  0.00    -0.504 OA
ATOM     19  H   UNL     1     -18.987  19.238  -6.677  1.00  0.00     0.293 HD
ENDBRANCH  15  18
BRANCH  17  20
ATOM     20  O   UNL     1     -21.260  17.392  -7.943  1.00  0.00    -0.504 OA
ATOM     21  H   UNL     1     -20.994  18.324  -8.238  1.00  0.00     0.293 HD
ENDBRANCH  17  20
ENDBRANCH   1  12
BRANCH   2  22
ATOM     22  O   UNL     1     -22.066  13.390  -3.941  1.00  0.00    -0.502 OA
ATOM     23  H   UNL     1     -22.599  14.163  -4.323  1.00  0.00     0.293 HD
ENDBRANCH   2  22
BRANCH   6  24
ATOM     24  O   UNL     1     -21.421   8.189  -4.894  1.00  0.00    -0.507 OA
ATOM     25  H   UNL     1     -21.720   7.287  -5.229  1.00  0.00     0.293 HD
ENDBRANCH   6  24
BRANCH   8  26
ATOM     26  O   UNL     1     -17.516   8.295  -7.659  1.00  0.00    -0.508 OA
ATOM     27  H   UNL     1     -17.052   8.699  -8.464  1.00  0.00     0.293 HD
ENDBRANCH   8  26
TORSDOF 6
ENDMDL
MODEL 2
REMARK VINA RESULT:    -3.004      1.978      2.206
REMARK INTER + INTRA:          -3.935
REMARK INTER:                  -3.783
REMARK INTRA:                  -0.152
REMARK UNBOUND:                -0.316
REMARK SMILES O=c1c(O)c(-c2ccc(O)c(O)c2)oc2cc(O)cc(O)c12
REMARK SMILES IDX 5 1 3 2 2 3 1 4 22 5 20 6 19 7 17 8 16 9 15 10 14 11 6 12
REMARK SMILES IDX 7 13 8 14 9 15 13 16 11 17 10 18 12 20 4 22 21 24 18 26
REMARK H PARENT 10 19 12 21 4 23 21 25 18 27
REMARK Flexibility Score: inf
ROOT
ATOM      1  C   UNL     1     -20.785  13.189  -5.881  1.00  0.00     0.180 A 
ATOM      2  C   UNL     1     -19.876  12.782  -4.889  1.00  0.00     0.208 A 
ATOM      3  C   UNL     1     -19.613  11.412  -4.728  1.00  0.00     0.238 A 
ATOM      4  O   UNL     1     -18.758  11.057  -3.875  1.00  0.00    -0.285 OA
ATOM      5  C   UNL     1     -20.273  10.466  -5.549  1.00  0.00     0.111 A 
ATOM      6  C   UNL     1     -20.112   9.052  -5.445  1.00  0.00     0.134 A 
ATOM      7  C   UNL     1     -20.715   8.217  -6.395  1.00  0.00     0.093 A 
ATOM      8  C   UNL     1     -21.524   8.740  -7.403  1.00  0.00     0.123 A 
ATOM      9  C   UNL     1     -21.736  10.117  -7.478  1.00  0.00     0.094 A 
ATOM     10  C   UNL     1     -21.119  10.978  -6.566  1.00  0.00     0.146 A 
ATOM     11  O   UNL     1     -21.339  12.283  -6.678  1.00  0.00    -0.452 OA
ENDROOT
BRANCH   1  12
ATOM     12  C   UNL     1     -21.134  14.613  -6.094  1.00  0.00     0.025 A 
ATOM     13  C   UNL     1     -21.768  15.331  -5.069  1.00  0.00     0.016 A 
ATOM     14  C   UNL     1     -22.087  16.679  -5.241  1.00  0.00     0.051 A 
ATOM     15  C   UNL     1     -21.763  17.336  -6.436  1.00  0.00     0.157 A 
ATOM     16  C   UNL     1     -20.792  15.279  -7.285  1.00  0.00     0.062 A 
ATOM     17  C   UNL     1     -21.107  16.631  -7.460  1.00  0.00     0.158 A 
BRANCH  15  18
ATOM     18  O   UNL     1     -22.084  18.681  -6.607  1.00  0.00    -0.504 OA
ATOM     19  H   UNL     1     -21.691  19.228  -7.364  1.00  0.00     0.293 HD
ENDBRANCH  15  18
BRANCH  17  20
ATOM     20  O   UNL     1     -20.758  17.259  -8.656  1.00  0.00    -0.504 OA
ATOM     21  H   UNL     1     -19.793  17.383  -8.937  1.00  0.00     0.293 HD
ENDBRANCH  17  20
ENDBRANCH   1  12
BRANCH   2  22
ATOM     22  O   UNL     1     -19.219  13.733  -4.105  1.00  0.00    -0.502 OA
ATOM     23  H   UNL     1     -19.271  14.727  -4.297  1.00  0.00     0.293 HD
ENDBRANCH   2  22
BRANCH   6  24
ATOM     24  O   UNL     1     -19.400   8.420  -4.422  1.00  0.00    -0.507 OA
ATOM     25  H   UNL     1     -19.721   8.331  -3.470  1.00  0.00     0.293 HD
ENDBRANCH   6  24
BRANCH   8  26
ATOM     26  O   UNL     1     -22.121   7.879  -8.321  1.00  0.00    -0.508 OA
ATOM     27  H   UNL     1     -22.373   6.930  -8.071  1.00  0.00     0.293 HD
ENDBRANCH   8  26
TORSDOF 6
ENDMDL
MODEL 3
REMARK VINA RESULT:    -2.761      1.857      7.347
REMARK INTER + INTRA:          -3.642
REMARK INTER:                  -3.623
REMARK INTRA:                  -0.019
REMARK UNBOUND:                -0.316
REMARK SMILES O=c1c(O)c(-c2ccc(O)c(O)c2)oc2cc(O)cc(O)c12
REMARK SMILES IDX 5 1 3 2 2 3 1 4 22 5 20 6 19 7 17 8 16 9 15 10 14 11 6 12
REMARK SMILES IDX 7 13 8 14 9 15 13 16 11 17 10 18 12 20 4 22 21 24 18 26
REMARK H PARENT 10 19 12 21 4 23 21 25 18 27
REMARK Flexibility Score: inf
ROOT
ATOM      1  C   UNL     1     -20.421  14.488  -5.958  1.00  0.00     0.180 A 
ATOM      2  C   UNL     1     -21.022  14.749  -7.202  1.00  0.00     0.208 A 
ATOM      3  C   UNL     1     -21.335  16.074  -7.542  1.00  0.00     0.238 A 
ATOM      4  O   UNL     1     -21.823  16.307  -8.679  1.00  0.00    -0.285 OA
ATOM      5  C   UNL     1     -21.057  17.120  -6.630  1.00  0.00     0.111 A 
ATOM      6  C   UNL     1     -21.368  18.495  -6.854  1.00  0.00     0.134 A 
ATOM      7  C   UNL     1     -20.930  19.461  -5.939  1.00  0.00     0.093 A 
ATOM      8  C   UNL     1     -20.251  19.096  -4.777  1.00  0.00     0.123 A 
ATOM      9  C   UNL     1     -19.994  17.749  -4.519  1.00  0.00     0.094 A 
ATOM     10  C   UNL     1     -20.386  16.766  -5.431  1.00  0.00     0.146 A 
ATOM     11  O   UNL     1     -20.113  15.497  -5.152  1.00  0.00    -0.452 OA
ENDROOT
BRANCH   1  12
ATOM     12  C   UNL     1     -20.085  13.114  -5.518  1.00  0.00     0.025 A 
ATOM     13  C   UNL     1     -20.593  12.635  -4.300  1.00  0.00     0.016 A 
ATOM     14  C   UNL     1     -20.306  11.336  -3.876  1.00  0.00     0.051 A 
ATOM     15  C   UNL     1     -19.518  10.490  -4.668  1.00  0.00     0.157 A 
ATOM     16  C   UNL     1     -19.311  12.256  -6.320  1.00  0.00     0.062 A 
ATOM     17  C   UNL     1     -19.024  10.953  -5.899  1.00  0.00     0.158 A 
BRANCH  15  18
ATOM     18  O   UNL     1     -19.231   9.195  -4.241  1.00  0.00    -0.504 OA
ATOM     19  H   UNL     1     -18.752   9.020  -3.366  1.00  0.00     0.293 HD
ENDBRANCH  15  18
BRANCH  17  20
ATOM     20  O   UNL     1     -18.249  10.133  -6.718  1.00  0.00    -0.504 OA
ATOM     21  H   UNL     1     -17.834  10.469  -7.579  1.00  0.00     0.293 HD
ENDBRANCH  17  20
ENDBRANCH   1  12
BRANCH   2  22
ATOM     22  O   UNL     1     -21.267  13.704  -8.097  1.00  0.00    -0.502 OA
ATOM     23  H   UNL     1     -20.526  13.127  -8.476  1.00  0.00     0.293 HD
ENDBRANCH   2  22
BRANCH   6  24
ATOM     24  O   UNL     1     -22.123  18.959  -7.936  1.00  0.00    -0.507 OA
ATOM     25  H   UNL     1     -23.094  19.227  -7.886  1.00  0.00     0.293 HD
ENDBRANCH   6  24
BRANCH   8  26
ATOM     26  O   UNL     1     -19.844  20.082  -3.881  1.00  0.00    -0.508 OA
ATOM     27  H   UNL     1     -19.801  19.906  -2.884  1.00  0.00     0.293 HD
ENDBRANCH   8  26
TORSDOF 6
ENDMDL
MODEL 4
REMARK VINA RESULT:    -1.918     14.771     16.913
REMARK INTER + INTRA:          -2.626
REMARK INTER:                  -2.725
REMARK INTRA:                   0.099
REMARK UNBOUND:                -0.316
REMARK SMILES O=c1c(O)c(-c2ccc(O)c(O)c2)oc2cc(O)cc(O)c12
REMARK SMILES IDX 5 1 3 2 2 3 1 4 22 5 20 6 19 7 17 8 16 9 15 10 14 11 6 12
REMARK SMILES IDX 7 13 8 14 9 15 13 16 11 17 10 18 12 20 4 22 21 24 18 26
REMARK H PARENT 10 19 12 21 4 23 21 25 18 27
REMARK Flexibility Score: inf
ROOT
ATOM      1  C   UNL     1     -17.172   9.803 -21.923  1.00  0.00     0.180 A 
ATOM      2  C   UNL     1     -16.087   9.442 -22.739  1.00  0.00     0.208 A 
ATOM      3  C   UNL     1     -14.951   8.868 -22.147  1.00  0.00     0.238 A 
ATOM      4  O   UNL     1     -14.004   8.497 -22.890  1.00  0.00    -0.285 OA
ATOM      5  C   UNL     1     -14.908   8.677 -20.745  1.00  0.00     0.111 A 
ATOM      6  C   UNL     1     -13.791   8.141 -20.034  1.00  0.00     0.134 A 
ATOM      7  C   UNL     1     -13.908   7.875 -18.664  1.00  0.00     0.093 A 
ATOM      8  C   UNL     1     -15.075   8.185 -17.968  1.00  0.00     0.123 A 
ATOM      9  C   UNL     1     -16.152   8.765 -18.641  1.00  0.00     0.094 A 
ATOM     10  C   UNL     1     -16.078   9.008 -20.015  1.00  0.00     0.146 A 
ATOM     11  O   UNL     1     -17.128   9.551 -20.620  1.00  0.00    -0.452 OA
ENDROOT
BRANCH   1  12
ATOM     12  C   UNL     1     -18.395  10.436 -22.470  1.00  0.00     0.025 A 
ATOM     13  C   UNL     1     -18.275  11.465 -23.417  1.00  0.00     0.016 A 
ATOM     14  C   UNL     1     -19.414  12.062 -23.962  1.00  0.00     0.051 A 
ATOM     15  C   UNL     1     -20.691  11.629 -23.579  1.00  0.00     0.157 A 
ATOM     16  C   UNL     1     -19.677   9.991 -22.103  1.00  0.00     0.062 A 
ATOM     17  C   UNL     1     -20.821  10.585 -22.649  1.00  0.00     0.158 A 
BRANCH  15  18
ATOM     18  O   UNL     1     -21.826  12.228 -24.122  1.00  0.00    -0.504 OA
ATOM     19  H   UNL     1     -22.481  12.744 -23.545  1.00  0.00     0.293 HD
ENDBRANCH  15  18
BRANCH  17  20
ATOM     20  O   UNL     1     -22.076  10.121 -22.257  1.00  0.00    -0.504 OA
ATOM     21  H   UNL     1     -22.409   9.196 -22.502  1.00  0.00     0.293 HD
ENDBRANCH  17  20
ENDBRANCH   1  12
BRANCH   2  22
ATOM     22  O   UNL     1     -16.159   9.619 -24.124  1.00  0.00    -0.502 OA
ATOM     23  H   UNL     1     -16.316  10.525 -24.549  1.00  0.00     0.293 HD
ENDBRANCH   2  22
BRANCH   6  24
ATOM     24  O   UNL     1     -12.547   7.881 -20.617  1.00  0.00    -0.507 OA
ATOM     25  H   UNL     1     -12.020   7.031 -20.489  1.00  0.00     0.293 HD
ENDBRANCH   6  24
BRANCH   8  26
ATOM     26  O   UNL     1     -15.151   7.922 -16.601  1.00  0.00    -0.508 OA
ATOM     27  H   UNL     1     -16.037   7.741 -16.146  1.00  0.00     0.293 HD
ENDBRANCH   8  26
TORSDOF 6
ENDMDL
MODEL 5
REMARK VINA RESULT:    -1.709     22.965     25.317
REMARK INTER + INTRA:          -2.375
REMARK INTER:                  -2.048
REMARK INTRA:                  -0.327
REMARK UNBOUND:                -0.316
REMARK SMILES O=c1c(O)c(-c2ccc(O)c(O)c2)oc2cc(O)cc(O)c12
REMARK SMILES IDX 5 1 3 2 2 3 1 4 22 5 20 6 19 7 17 8 16 9 15 10 14 11 6 12
REMARK SMILES IDX 7 13 8 14 9 15 13 16 11 17 10 18 12 20 4 22 21 24 18 26
REMARK H PARENT 10 19 12 21 4 23 21 25 18 27
REMARK Flexibility Score: inf
ROOT
ATOM      1  C   UNL     1      -7.538  26.645 -22.015  1.00  0.00     0.180 A 
ATOM      2  C   UNL     1      -7.773  26.996 -20.675  1.00  0.00     0.208 A 
ATOM      3  C   UNL     1      -9.083  27.295 -20.268  1.00  0.00     0.238 A 
ATOM      4  O   UNL     1      -9.295  27.556 -19.056  1.00  0.00    -0.285 OA
ATOM      5  C   UNL     1     -10.139  27.256 -21.211  1.00  0.00     0.111 A 
ATOM      6  C   UNL     1     -11.498  27.580 -20.918  1.00  0.00     0.134 A 
ATOM      7  C   UNL     1     -12.481  27.381 -21.895  1.00  0.00     0.093 A 
ATOM      8  C   UNL     1     -12.146  26.932 -23.172  1.00  0.00     0.123 A 
ATOM      9  C   UNL     1     -10.813  26.669 -23.487  1.00  0.00     0.094 A 
ATOM     10  C   UNL     1      -9.814  26.824 -22.522  1.00  0.00     0.146 A 
ATOM     11  O   UNL     1      -8.559  26.553 -22.860  1.00  0.00    -0.452 OA
ENDROOT
BRANCH   1  12
ATOM     12  C   UNL     1      -6.181  26.340 -22.525  1.00  0.00     0.025 A 
ATOM     13  C   UNL     1      -5.772  25.003 -22.645  1.00  0.00     0.016 A 
ATOM     14  C   UNL     1      -4.505  24.692 -23.143  1.00  0.00     0.051 A 
ATOM     15  C   UNL     1      -3.632  25.712 -23.542  1.00  0.00     0.157 A 
ATOM     16  C   UNL     1      -5.310  27.361 -22.945  1.00  0.00     0.062 A 
ATOM     17  C   UNL     1      -4.040  27.053 -23.446  1.00  0.00     0.158 A 
BRANCH  15  18
ATOM     18  O   UNL     1      -2.367  25.400 -24.036  1.00  0.00    -0.504 OA
ATOM     19  H   UNL     1      -1.566  25.307 -23.422  1.00  0.00     0.293 HD
ENDBRANCH  15  18
BRANCH  17  20
ATOM     20  O   UNL     1      -3.201  28.092 -23.848  1.00  0.00    -0.504 OA
ATOM     21  H   UNL     1      -2.785  28.122 -24.772  1.00  0.00     0.293 HD
ENDBRANCH  17  20
ENDBRANCH   1  12
BRANCH   2  22
ATOM     22  O   UNL     1      -6.719  27.007 -19.757  1.00  0.00    -0.502 OA
ATOM     23  H   UNL     1      -6.643  26.329 -19.007  1.00  0.00     0.293 HD
ENDBRANCH   2  22
BRANCH   6  24
ATOM     24  O   UNL     1     -11.927  28.123 -19.703  1.00  0.00    -0.507 OA
ATOM     25  H   UNL     1     -12.733  28.719 -19.593  1.00  0.00     0.293 HD
ENDBRANCH   6  24
BRANCH   8  26
ATOM     26  O   UNL     1     -13.149  26.760 -24.125  1.00  0.00    -0.508 OA
ATOM     27  H   UNL     1     -12.937  26.450 -25.066  1.00  0.00     0.293 HD
ENDBRANCH   8  26
TORSDOF 6
ENDMDL
MODEL 6
REMARK VINA RESULT:    -1.385     22.880     24.889
REMARK INTER + INTRA:          -1.985
REMARK INTER:                  -1.753
REMARK INTRA:                  -0.232
REMARK UNBOUND:                -0.316
REMARK SMILES O=c1c(O)c(-c2ccc(O)c(O)c2)oc2cc(O)cc(O)c12
REMARK SMILES IDX 5 1 3 2 2 3 1 4 22 5 20 6 19 7 17 8 16 9 15 10 14 11 6 12
REMARK SMILES IDX 7 13 8 14 9 15 13 16 11 17 10 18 12 20 4 22 21 24 18 26
REMARK H PARENT 10 19 12 21 4 23 21 25 18 27
REMARK Flexibility Score: inf
ROOT
ATOM      1  C   UNL     1      -9.028  26.212 -22.559  1.00  0.00     0.180 A 
ATOM      2  C   UNL     1      -8.691  25.010 -21.912  1.00  0.00     0.208 A 
ATOM      3  C   UNL     1      -7.345  24.614 -21.871  1.00  0.00     0.238 A 
ATOM      4  O   UNL     1      -7.043  23.565 -21.244  1.00  0.00    -0.285 OA
ATOM      5  C   UNL     1      -6.355  25.415 -22.489  1.00  0.00     0.111 A 
ATOM      6  C   UNL     1      -4.966  25.088 -22.543  1.00  0.00     0.134 A 
ATOM      7  C   UNL     1      -4.058  26.018 -23.067  1.00  0.00     0.093 A 
ATOM      8  C   UNL     1      -4.496  27.231 -23.597  1.00  0.00     0.123 A 
ATOM      9  C   UNL     1      -5.858  27.534 -23.604  1.00  0.00     0.094 A 
ATOM     10  C   UNL     1      -6.783  26.643 -23.055  1.00  0.00     0.146 A 
ATOM     11  O   UNL     1      -8.069  26.974 -23.072  1.00  0.00    -0.452 OA
ENDROOT
BRANCH   1  12
ATOM     12  C   UNL     1     -10.428  26.685 -22.666  1.00  0.00     0.025 A 
ATOM     13  C   UNL     1     -11.098  26.587 -23.895  1.00  0.00     0.016 A 
ATOM     14  C   UNL     1     -12.424  27.008 -24.013  1.00  0.00     0.051 A 
ATOM     15  C   UNL     1     -13.107  27.518 -22.901  1.00  0.00     0.157 A 
ATOM     16  C   UNL     1     -11.121  27.178 -21.546  1.00  0.00     0.062 A 
ATOM     17  C   UNL     1     -12.451  27.598 -21.661  1.00  0.00     0.158 A 
BRANCH  15  18
ATOM     18  O   UNL     1     -14.430  27.938 -23.021  1.00  0.00    -0.504 OA
ATOM     19  H   UNL     1     -14.675  28.922 -23.027  1.00  0.00     0.293 HD
ENDBRANCH  15  18
BRANCH  17  20
ATOM     20  O   UNL     1     -13.106  28.088 -20.531  1.00  0.00    -0.504 OA
ATOM     21  H   UNL     1     -12.601  28.427 -19.721  1.00  0.00     0.293 HD
ENDBRANCH  17  20
ENDBRANCH   1  12
BRANCH   2  22
ATOM     22  O   UNL     1      -9.681  24.246 -21.289  1.00  0.00    -0.502 OA
ATOM     23  H   UNL     1     -10.047  24.473 -20.372  1.00  0.00     0.293 HD
ENDBRANCH   2  22
BRANCH   6  24
ATOM     24  O   UNL     1      -4.435  23.865 -22.125  1.00  0.00    -0.507 OA
ATOM     25  H   UNL     1      -4.961  23.138 -21.664  1.00  0.00     0.293 HD
ENDBRANCH   6  24
BRANCH   8  26
ATOM     26  O   UNL     1      -3.566  28.125 -24.125  1.00  0.00    -0.508 OA
ATOM     27  H   UNL     1      -3.850  28.894 -24.720  1.00  0.00     0.293 HD
ENDBRANCH   8  26
TORSDOF 6
ENDMDL
