MODEL 1
REMARK VINA RESULT:    61.499      0.000      0.000
REMARK INTER + INTRA:          98.697
REMARK INTER:                  90.261
REMARK INTRA:                   8.436
REMARK UNBOUND:                 8.436
REMARK SMILES O=c1c(O[C@@H]2O[C@H](CO)[C@@H](O)[C@H](O)[C@@H]2O)c(-c2ccc(O)c(O)c2)oc2cc(O)cc(O)c12
REMARK SMILES IDX 4 1 3 2 16 3 25 4 2 5 26 6 1 7 33 8 27 9 31 10 28 11 30 12
REMARK SMILES IDX 17 13 18 14 19 15 20 16 24 17 22 18 21 19 23 21 32 23 29 25
REMARK SMILES IDX 5 27 14 28 6 29 12 30 7 31 10 32 15 33 13 35 8 37 9 38 11 40
REMARK H PARENT 21 20 23 22 32 24 29 26 15 34 13 36 9 39 11 41
REMARK Flexibility Score: inf
ROOT
ATOM      1  O   UNL     1      -5.588  -0.428   2.853  1.00  0.00    -0.454 OA
ENDROOT
BRANCH   1   2
ATOM      2  C   UNL     1      -4.247  -0.022   2.960  1.00  0.00     0.214 A 
ATOM      3  C   UNL     1      -3.784   1.219   2.470  1.00  0.00     0.180 A 
ATOM      4  O   UNL     1      -2.487   1.505   2.504  1.00  0.00    -0.452 OA
ATOM      5  C   UNL     1      -3.329  -0.882   3.572  1.00  0.00     0.239 A 
ATOM      6  C   UNL     1      -1.577   0.694   3.031  1.00  0.00     0.146 A 
ATOM      7  O   UNL     1      -3.740  -1.967   4.065  1.00  0.00    -0.285 OA
ATOM      8  C   UNL     1      -1.961  -0.537   3.610  1.00  0.00     0.111 A 
ATOM      9  C   UNL     1      -0.235   1.081   3.022  1.00  0.00     0.094 A 
ATOM     10  C   UNL     1      -0.970  -1.368   4.185  1.00  0.00     0.134 A 
ATOM     11  C   UNL     1       0.741   0.258   3.591  1.00  0.00     0.123 A 
ATOM     12  C   UNL     1       0.373  -0.958   4.170  1.00  0.00     0.093 A 
BRANCH   3  13
ATOM     13  C   UNL     1      -4.703   2.247   1.951  1.00  0.00     0.025 A 
ATOM     14  C   UNL     1      -4.670   2.600   0.597  1.00  0.00     0.016 A 
ATOM     15  C   UNL     1      -5.560   3.554   0.101  1.00  0.00     0.051 A 
ATOM     16  C   UNL     1      -6.479   4.184   0.951  1.00  0.00     0.157 A 
ATOM     17  C   UNL     1      -5.599   2.893   2.813  1.00  0.00     0.062 A 
ATOM     18  C   UNL     1      -6.498   3.850   2.326  1.00  0.00     0.158 A 
BRANCH  16  19
ATOM     19  O   UNL     1      -7.344   5.128   0.393  1.00  0.00    -0.504 OA
ATOM     20  H   UNL     1      -8.191   5.449   0.837  1.00  0.00     0.293 HD
ENDBRANCH  16  19
BRANCH  18  21
ATOM     21  O   UNL     1      -7.387   4.430   3.233  1.00  0.00    -0.504 OA
ATOM     22  H   UNL     1      -8.360   4.170   3.313  1.00  0.00     0.293 HD
ENDBRANCH  18  21
ENDBRANCH   3  13
BRANCH  10  23
ATOM     23  O   UNL     1      -1.305  -2.589   4.768  1.00  0.00    -0.507 OA
ATOM     24  H   UNL     1      -2.263  -2.913   4.814  1.00  0.00     0.293 HD
ENDBRANCH  10  23
BRANCH  11  25
ATOM     25  O   UNL     1       2.082   0.638   3.586  1.00  0.00    -0.508 OA
ATOM     26  H   UNL     1       2.405   1.448   4.100  1.00  0.00     0.293 HD
ENDBRANCH  11  25
ENDBRANCH   1   2
BRANCH   1  27
ATOM     27  C   UNL     1      -6.001  -1.717   2.383  1.00  0.00     0.339 C 
ATOM     28  C   UNL     1      -7.055  -1.608   1.264  1.00  0.00     0.214 C 
ATOM     29  O   UNL     1      -4.883  -2.500   1.990  1.00  0.00    -0.332 OA
ATOM     30  C   UNL     1      -6.445  -1.045  -0.029  1.00  0.00     0.180 C 
ATOM     31  C   UNL     1      -4.238  -2.054   0.799  1.00  0.00     0.179 C 
ATOM     32  C   UNL     1      -5.205  -1.867  -0.406  1.00  0.00     0.177 C 
BRANCH  28  33
ATOM     33  O   UNL     1      -8.186  -0.877   1.675  1.00  0.00    -0.384 OA
ATOM     34  H   UNL     1      -7.969  -0.423   2.528  1.00  0.00     0.211 HD
ENDBRANCH  28  33
BRANCH  30  35
ATOM     35  O   UNL     1      -6.093   0.309   0.119  1.00  0.00    -0.387 OA
ATOM     36  H   UNL     1      -5.573   0.388   0.961  1.00  0.00     0.211 HD
ENDBRANCH  30  35
BRANCH  31  37
ATOM     37  C   UNL     1      -3.300  -0.851   1.046  1.00  0.00     0.191 C 
BRANCH  37  38
ATOM     38  O   UNL     1      -2.450  -0.654  -0.052  1.00  0.00    -0.394 OA
ATOM     39  H   UNL     1      -3.018  -0.687  -0.865  1.00  0.00     0.210 HD
ENDBRANCH  37  38
ENDBRANCH  31  37
BRANCH  32  40
ATOM     40  O   UNL     1      -5.622  -3.125  -0.873  1.00  0.00    -0.387 OA
ATOM     41  H   UNL     1      -6.505  -3.309  -0.460  1.00  0.00     0.211 HD
ENDBRANCH  32  40
ENDBRANCH   1  27
TORSDOF 12
ENDMDL
MODEL 2
REMARK VINA RESULT:    63.070      1.520      5.408
REMARK INTER + INTRA:         101.002
REMARK INTER:                  85.567
REMARK INTRA:                  15.435
REMARK UNBOUND:                 8.436
REMARK SMILES O=c1c(O[C@@H]2O[C@H](CO)[C@@H](O)[C@H](O)[C@@H]2O)c(-c2ccc(O)c(O)c2)oc2cc(O)cc(O)c12
REMARK SMILES IDX 4 1 3 2 16 3 25 4 2 5 26 6 1 7 33 8 27 9 31 10 28 11 30 12
REMARK SMILES IDX 17 13 18 14 19 15 20 16 24 17 22 18 21 19 23 21 32 23 29 25
REMARK SMILES IDX 5 27 14 28 6 29 12 30 7 31 10 32 15 33 13 35 8 37 9 38 11 40
REMARK H PARENT 21 20 23 22 32 24 29 26 15 34 13 36 9 39 11 41
REMARK Flexibility Score: inf
ROOT
ATOM      1  O   UNL     1      -4.767  -1.329   3.213  1.00  0.00    -0.454 OA
ENDROOT
BRANCH   1   2
ATOM      2  C   UNL     1      -5.043   0.049   3.198  1.00  0.00     0.214 A 
ATOM      3  C   UNL     1      -4.027   1.030   3.173  1.00  0.00     0.180 A 
ATOM      4  O   UNL     1      -4.344   2.316   3.267  1.00  0.00    -0.452 OA
ATOM      5  C   UNL     1      -6.377   0.469   3.213  1.00  0.00     0.239 A 
ATOM      6  C   UNL     1      -5.595   2.754   3.333  1.00  0.00     0.146 A 
ATOM      7  O   UNL     1      -7.294  -0.396   3.176  1.00  0.00    -0.285 OA
ATOM      8  C   UNL     1      -6.678   1.846   3.291  1.00  0.00     0.111 A 
ATOM      9  C   UNL     1      -5.831   4.128   3.429  1.00  0.00     0.094 A 
ATOM     10  C   UNL     1      -8.001   2.346   3.339  1.00  0.00     0.134 A 
ATOM     11  C   UNL     1      -7.139   4.619   3.476  1.00  0.00     0.123 A 
ATOM     12  C   UNL     1      -8.216   3.731   3.431  1.00  0.00     0.093 A 
BRANCH   3  13
ATOM     13  C   UNL     1      -2.606   0.680   3.003  1.00  0.00     0.025 A 
ATOM     14  C   UNL     1      -1.922   1.063   1.844  1.00  0.00     0.016 A 
ATOM     15  C   UNL     1      -0.569   0.754   1.696  1.00  0.00     0.051 A 
ATOM     16  C   UNL     1       0.114   0.042   2.691  1.00  0.00     0.157 A 
ATOM     17  C   UNL     1      -1.939  -0.059   3.989  1.00  0.00     0.062 A 
ATOM     18  C   UNL     1      -0.580  -0.372   3.852  1.00  0.00     0.158 A 
BRANCH  16  19
ATOM     19  O   UNL     1       1.468  -0.234   2.484  1.00  0.00    -0.504 OA
ATOM     20  H   UNL     1       1.811  -1.069   2.034  1.00  0.00     0.293 HD
ENDBRANCH  16  19
BRANCH  18  21
ATOM     21  O   UNL     1       0.033  -1.081   4.888  1.00  0.00    -0.504 OA
ATOM     22  H   UNL     1      -0.403  -1.265   5.780  1.00  0.00     0.293 HD
ENDBRANCH  18  21
ENDBRANCH   3  13
BRANCH  10  23
ATOM     23  O   UNL     1      -9.097   1.486   3.298  1.00  0.00    -0.507 OA
ATOM     24  H   UNL     1      -8.990   0.483   3.377  1.00  0.00     0.293 HD
ENDBRANCH  10  23
BRANCH  11  25
ATOM     25  O   UNL     1      -7.381   5.988   3.571  1.00  0.00    -0.508 OA
ATOM     26  H   UNL     1      -7.944   6.375   4.319  1.00  0.00     0.293 HD
ENDBRANCH  11  25
ENDBRANCH   1   2
BRANCH   1  27
ATOM     27  C   UNL     1      -5.471  -2.298   2.425  1.00  0.00     0.339 C 
ATOM     28  C   UNL     1      -6.516  -1.637   1.506  1.00  0.00     0.214 C 
ATOM     29  O   UNL     1      -4.568  -3.122   1.702  1.00  0.00    -0.332 OA
ATOM     30  C   UNL     1      -5.847  -0.829   0.384  1.00  0.00     0.180 C 
ATOM     31  C   UNL     1      -3.886  -2.461   0.639  1.00  0.00     0.179 C 
ATOM     32  C   UNL     1      -4.833  -1.718  -0.348  1.00  0.00     0.177 C 
BRANCH  28  33
ATOM     33  O   UNL     1      -7.443  -0.864   2.231  1.00  0.00    -0.384 OA
ATOM     34  H   UNL     1      -7.113  -0.776   3.161  1.00  0.00     0.211 HD
ENDBRANCH  28  33
BRANCH  30  35
ATOM     35  O   UNL     1      -5.201   0.312   0.892  1.00  0.00    -0.387 OA
ATOM     36  H   UNL     1      -5.763   1.098   0.661  1.00  0.00     0.211 HD
ENDBRANCH  30  35
BRANCH  31  37
ATOM     37  C   UNL     1      -2.698  -1.607   1.135  1.00  0.00     0.191 C 
BRANCH  37  38
ATOM     38  O   UNL     1      -2.106  -0.915   0.067  1.00  0.00    -0.394 OA
ATOM     39  H   UNL     1      -2.465   0.010   0.090  1.00  0.00     0.210 HD
ENDBRANCH  37  38
ENDBRANCH  31  37
BRANCH  32  40
ATOM     40  O   UNL     1      -5.533  -2.658  -1.123  1.00  0.00    -0.387 OA
ATOM     41  H   UNL     1      -5.960  -2.159  -1.867  1.00  0.00     0.211 HD
ENDBRANCH  32  40
ENDBRANCH   1  27
TORSDOF 12
ENDMDL
MODEL 3
REMARK VINA RESULT:    63.324      2.242      5.996
REMARK INTER + INTRA:         101.376
REMARK INTER:                 101.348
REMARK INTRA:                   0.028
REMARK UNBOUND:                 8.436
REMARK SMILES O=c1c(O[C@@H]2O[C@H](CO)[C@@H](O)[C@H](O)[C@@H]2O)c(-c2ccc(O)c(O)c2)oc2cc(O)cc(O)c12
REMARK SMILES IDX 4 1 3 2 16 3 25 4 2 5 26 6 1 7 33 8 27 9 31 10 28 11 30 12
REMARK SMILES IDX 17 13 18 14 19 15 20 16 24 17 22 18 21 19 23 21 32 23 29 25
REMARK SMILES IDX 5 27 14 28 6 29 12 30 7 31 10 32 15 33 13 35 8 37 9 38 11 40
REMARK H PARENT 21 20 23 22 32 24 29 26 15 34 13 36 9 39 11 41
REMARK Flexibility Score: inf
ROOT
ATOM      1  O   UNL     1      -4.148   0.802   1.260  1.00  0.00    -0.454 OA
ENDROOT
BRANCH   1   2
ATOM      2  C   UNL     1      -3.672   2.108   1.052  1.00  0.00     0.214 A 
ATOM      3  C   UNL     1      -2.342   2.490   1.333  1.00  0.00     0.180 A 
ATOM      4  O   UNL     1      -1.977   3.762   1.217  1.00  0.00    -0.452 OA
ATOM      5  C   UNL     1      -4.553   3.074   0.552  1.00  0.00     0.239 A 
ATOM      6  C   UNL     1      -2.796   4.717   0.794  1.00  0.00     0.146 A 
ATOM      7  O   UNL     1      -5.726   2.732   0.242  1.00  0.00    -0.285 OA
ATOM      8  C   UNL     1      -4.125   4.412   0.422  1.00  0.00     0.111 A 
ATOM      9  C   UNL     1      -2.322   6.028   0.704  1.00  0.00     0.094 A 
ATOM     10  C   UNL     1      -4.966   5.449  -0.049  1.00  0.00     0.134 A 
ATOM     11  C   UNL     1      -3.155   7.050   0.238  1.00  0.00     0.123 A 
ATOM     12  C   UNL     1      -4.468   6.759  -0.137  1.00  0.00     0.093 A 
BRANCH   3  13
ATOM     13  C   UNL     1      -1.312   1.509   1.717  1.00  0.00     0.025 A 
ATOM     14  C   UNL     1      -0.412   1.025   0.760  1.00  0.00     0.016 A 
ATOM     15  C   UNL     1       0.581   0.117   1.130  1.00  0.00     0.051 A 
ATOM     16  C   UNL     1       0.677  -0.338   2.452  1.00  0.00     0.157 A 
ATOM     17  C   UNL     1      -1.242   1.037   3.034  1.00  0.00     0.062 A 
ATOM     18  C   UNL     1      -0.248   0.128   3.417  1.00  0.00     0.158 A 
BRANCH  16  19
ATOM     19  O   UNL     1       1.694  -1.245   2.759  1.00  0.00    -0.504 OA
ATOM     20  H   UNL     1       1.896  -1.571   3.692  1.00  0.00     0.293 HD
ENDBRANCH  16  19
BRANCH  18  21
ATOM     21  O   UNL     1      -0.214  -0.275   4.754  1.00  0.00    -0.504 OA
ATOM     22  H   UNL     1       0.038  -1.205   5.056  1.00  0.00     0.293 HD
ENDBRANCH  18  21
ENDBRANCH   3  13
BRANCH  10  23
ATOM     23  O   UNL     1      -6.281   5.192  -0.429  1.00  0.00    -0.507 OA
ATOM     24  H   UNL     1      -6.502   4.670  -1.267  1.00  0.00     0.293 HD
ENDBRANCH  10  23
BRANCH  11  25
ATOM     25  O   UNL     1      -2.688   8.360   0.145  1.00  0.00    -0.508 OA
ATOM     26  H   UNL     1      -2.647   8.846  -0.742  1.00  0.00     0.293 HD
ENDBRANCH  11  25
ENDBRANCH   1   2
BRANCH   1  27
ATOM     27  C   UNL     1      -3.638  -0.088   2.261  1.00  0.00     0.339 C 
ATOM     28  C   UNL     1      -4.578  -0.178   3.479  1.00  0.00     0.214 C 
ATOM     29  O   UNL     1      -3.352  -1.367   1.711  1.00  0.00    -0.332 OA
ATOM     30  C   UNL     1      -5.885  -0.905   3.128  1.00  0.00     0.180 C 
ATOM     31  C   UNL     1      -4.504  -2.123   1.343  1.00  0.00     0.179 C 
ATOM     32  C   UNL     1      -5.556  -2.258   2.482  1.00  0.00     0.177 C 
BRANCH  28  33
ATOM     33  O   UNL     1      -4.815   1.085   4.056  1.00  0.00    -0.384 OA
ATOM     34  H   UNL     1      -4.271   1.754   3.570  1.00  0.00     0.211 HD
ENDBRANCH  28  33
BRANCH  30  35
ATOM     35  O   UNL     1      -6.677  -0.139   2.254  1.00  0.00    -0.387 OA
ATOM     36  H   UNL     1      -7.038   0.625   2.776  1.00  0.00     0.211 HD
ENDBRANCH  30  35
BRANCH  31  37
ATOM     37  C   UNL     1      -5.097  -1.679  -0.013  1.00  0.00     0.191 C 
BRANCH  37  38
ATOM     38  O   UNL     1      -4.108  -1.097  -0.819  1.00  0.00    -0.394 OA
ATOM     39  H   UNL     1      -4.456  -1.100  -1.748  1.00  0.00     0.210 HD
ENDBRANCH  37  38
ENDBRANCH  31  37
BRANCH  32  40
ATOM     40  O   UNL     1      -5.065  -3.125   3.473  1.00  0.00    -0.387 OA
ATOM     41  H   UNL     1      -5.222  -4.050   3.152  1.00  0.00     0.211 HD
ENDBRANCH  32  40
ENDBRANCH   1  27
TORSDOF 12
ENDMDL
MODEL 4
REMARK VINA RESULT:    63.562      2.160      5.964
REMARK INTER + INTRA:         101.725
REMARK INTER:                 101.966
REMARK INTRA:                  -0.241
REMARK UNBOUND:                 8.436
REMARK SMILES O=c1c(O[C@@H]2O[C@H](CO)[C@@H](O)[C@H](O)[C@@H]2O)c(-c2ccc(O)c(O)c2)oc2cc(O)cc(O)c12
REMARK SMILES IDX 4 1 3 2 16 3 25 4 2 5 26 6 1 7 33 8 27 9 31 10 28 11 30 12
REMARK SMILES IDX 17 13 18 14 19 15 20 16 24 17 22 18 21 19 23 21 32 23 29 25
REMARK SMILES IDX 5 27 14 28 6 29 12 30 7 31 10 32 15 33 13 35 8 37 9 38 11 40
REMARK H PARENT 21 20 23 22 32 24 29 26 15 34 13 36 9 39 11 41
REMARK Flexibility Score: inf
ROOT
ATOM      1  O   UNL     1      -3.946   0.425   1.188  1.00  0.00    -0.454 OA
ENDROOT
BRANCH   1   2
ATOM      2  C   UNL     1      -3.515   1.752   1.022  1.00  0.00     0.214 A 
ATOM      3  C   UNL     1      -2.222   2.186   1.388  1.00  0.00     0.180 A 
ATOM      4  O   UNL     1      -1.906   3.474   1.307  1.00  0.00    -0.452 OA
ATOM      5  C   UNL     1      -4.404   2.686   0.477  1.00  0.00     0.239 A 
ATOM      6  C   UNL     1      -2.738   4.399   0.843  1.00  0.00     0.146 A 
ATOM      7  O   UNL     1      -5.541   2.299   0.093  1.00  0.00    -0.285 OA
ATOM      8  C   UNL     1      -4.027   4.042   0.386  1.00  0.00     0.111 A 
ATOM      9  C   UNL     1      -2.315   5.730   0.794  1.00  0.00     0.094 A 
ATOM     10  C   UNL     1      -4.881   5.049  -0.126  1.00  0.00     0.134 A 
ATOM     11  C   UNL     1      -3.161   6.721   0.288  1.00  0.00     0.123 A 
ATOM     12  C   UNL     1      -4.435   6.380  -0.170  1.00  0.00     0.093 A 
BRANCH   3  13
ATOM     13  C   UNL     1      -1.176   1.246   1.825  1.00  0.00     0.025 A 
ATOM     14  C   UNL     1      -0.179   0.839   0.931  1.00  0.00     0.016 A 
ATOM     15  C   UNL     1       0.826  -0.032   1.355  1.00  0.00     0.051 A 
ATOM     16  C   UNL     1       0.840  -0.524   2.666  1.00  0.00     0.157 A 
ATOM     17  C   UNL     1      -1.187   0.735   3.130  1.00  0.00     0.062 A 
ATOM     18  C   UNL     1      -0.181  -0.137   3.566  1.00  0.00     0.158 A 
BRANCH  16  19
ATOM     19  O   UNL     1       1.875  -1.390   3.028  1.00  0.00    -0.504 OA
ATOM     20  H   UNL     1       2.749  -1.086   3.430  1.00  0.00     0.293 HD
ENDBRANCH  16  19
BRANCH  18  21
ATOM     21  O   UNL     1      -0.232  -0.581   4.889  1.00  0.00    -0.504 OA
ATOM     22  H   UNL     1      -1.003  -1.106   5.278  1.00  0.00     0.293 HD
ENDBRANCH  18  21
ENDBRANCH   3  13
BRANCH  10  23
ATOM     23  O   UNL     1      -6.158   4.741  -0.589  1.00  0.00    -0.507 OA
ATOM     24  H   UNL     1      -6.978   5.237  -0.261  1.00  0.00     0.293 HD
ENDBRANCH  10  23
BRANCH  11  25
ATOM     25  O   UNL     1      -2.746   8.051   0.236  1.00  0.00    -0.508 OA
ATOM     26  H   UNL     1      -1.802   8.321   0.483  1.00  0.00     0.293 HD
ENDBRANCH  11  25
ENDBRANCH   1   2
BRANCH   1  27
ATOM     27  C   UNL     1      -5.319   0.016   1.157  1.00  0.00     0.339 C 
ATOM     28  C   UNL     1      -5.547  -1.155   0.182  1.00  0.00     0.214 C 
ATOM     29  O   UNL     1      -5.795  -0.275   2.464  1.00  0.00    -0.332 OA
ATOM     30  C   UNL     1      -4.904  -2.450   0.701  1.00  0.00     0.180 C 
ATOM     31  C   UNL     1      -5.251  -1.460   3.040  1.00  0.00     0.179 C 
ATOM     32  C   UNL     1      -5.384  -2.718   2.133  1.00  0.00     0.177 C 
BRANCH  28  33
ATOM     33  O   UNL     1      -5.124  -0.843  -1.125  1.00  0.00    -0.384 OA
ATOM     34  H   UNL     1      -4.293  -1.350  -1.310  1.00  0.00     0.211 HD
ENDBRANCH  28  33
BRANCH  30  35
ATOM     35  O   UNL     1      -3.500  -2.370   0.675  1.00  0.00    -0.387 OA
ATOM     36  H   UNL     1      -3.260  -1.407   0.635  1.00  0.00     0.211 HD
ENDBRANCH  30  35
BRANCH  31  37
ATOM     37  C   UNL     1      -3.832  -1.244   3.613  1.00  0.00     0.191 C 
BRANCH  37  38
ATOM     38  O   UNL     1      -3.762  -0.033   4.317  1.00  0.00    -0.394 OA
ATOM     39  H   UNL     1      -3.714   0.691   3.639  1.00  0.00     0.210 HD
ENDBRANCH  37  38
ENDBRANCH  31  37
BRANCH  32  40
ATOM     40  O   UNL     1      -6.728  -3.125   2.091  1.00  0.00    -0.387 OA
ATOM     41  H   UNL     1      -7.200  -2.641   2.817  1.00  0.00     0.211 HD
ENDBRANCH  32  40
ENDBRANCH   1  27
TORSDOF 12
ENDMDL
MODEL 5
REMARK VINA RESULT:    63.950      2.729      5.357
REMARK INTER + INTRA:         102.294
REMARK INTER:                 100.509
REMARK INTRA:                   1.785
REMARK UNBOUND:                 8.436
REMARK SMILES O=c1c(O[C@@H]2O[C@H](CO)[C@@H](O)[C@H](O)[C@@H]2O)c(-c2ccc(O)c(O)c2)oc2cc(O)cc(O)c12
REMARK SMILES IDX 4 1 3 2 16 3 25 4 2 5 26 6 1 7 33 8 27 9 31 10 28 11 30 12
REMARK SMILES IDX 17 13 18 14 19 15 20 16 24 17 22 18 21 19 23 21 32 23 29 25
REMARK SMILES IDX 5 27 14 28 6 29 12 30 7 31 10 32 15 33 13 35 8 37 9 38 11 40
REMARK H PARENT 21 20 23 22 32 24 29 26 15 34 13 36 9 39 11 41
REMARK Flexibility Score: inf
ROOT
ATOM      1  O   UNL     1      -3.059  -0.697   1.744  1.00  0.00    -0.454 OA
ENDROOT
BRANCH   1   2
ATOM      2  C   UNL     1      -2.567   0.067   2.816  1.00  0.00     0.214 A 
ATOM      3  C   UNL     1      -1.197   0.377   2.967  1.00  0.00     0.180 A 
ATOM      4  O   UNL     1      -0.776   1.013   4.054  1.00  0.00    -0.452 OA
ATOM      5  C   UNL     1      -3.468   0.538   3.777  1.00  0.00     0.239 A 
ATOM      6  C   UNL     1      -1.592   1.432   5.014  1.00  0.00     0.146 A 
ATOM      7  O   UNL     1      -4.700   0.318   3.623  1.00  0.00    -0.285 OA
ATOM      8  C   UNL     1      -2.987   1.228   4.910  1.00  0.00     0.111 A 
ATOM      9  C   UNL     1      -1.056   2.093   6.122  1.00  0.00     0.094 A 
ATOM     10  C   UNL     1      -3.833   1.709   5.939  1.00  0.00     0.134 A 
ATOM     11  C   UNL     1      -1.895   2.567   7.135  1.00  0.00     0.123 A 
ATOM     12  C   UNL     1      -3.274   2.375   7.041  1.00  0.00     0.093 A 
BRANCH   3  13
ATOM     13  C   UNL     1      -0.204   0.055   1.928  1.00  0.00     0.025 A 
ATOM     14  C   UNL     1      -0.421   0.447   0.602  1.00  0.00     0.016 A 
ATOM     15  C   UNL     1       0.534   0.164  -0.376  1.00  0.00     0.051 A 
ATOM     16  C   UNL     1       1.706  -0.530  -0.051  1.00  0.00     0.157 A 
ATOM     17  C   UNL     1       0.952  -0.666   2.256  1.00  0.00     0.062 A 
ATOM     18  C   UNL     1       1.918  -0.952   1.283  1.00  0.00     0.158 A 
BRANCH  16  19
ATOM     19  O   UNL     1       2.623  -0.779  -1.075  1.00  0.00    -0.504 OA
ATOM     20  H   UNL     1       2.365  -1.082  -2.002  1.00  0.00     0.293 HD
ENDBRANCH  16  19
BRANCH  18  21
ATOM     21  O   UNL     1       3.063  -1.644   1.685  1.00  0.00    -0.504 OA
ATOM     22  H   UNL     1       3.179  -2.060   2.598  1.00  0.00     0.293 HD
ENDBRANCH  18  21
ENDBRANCH   3  13
BRANCH  10  23
ATOM     23  O   UNL     1      -5.213   1.532   5.875  1.00  0.00    -0.507 OA
ATOM     24  H   UNL     1      -5.780   1.998   5.177  1.00  0.00     0.293 HD
ENDBRANCH  10  23
BRANCH  11  25
ATOM     25  O   UNL     1      -1.367   3.227   8.243  1.00  0.00    -0.508 OA
ATOM     26  H   UNL     1      -1.955   3.761   8.871  1.00  0.00     0.293 HD
ENDBRANCH  11  25
ENDBRANCH   1   2
BRANCH   1  27
ATOM     27  C   UNL     1      -4.337  -0.490   1.130  1.00  0.00     0.339 C 
ATOM     28  C   UNL     1      -4.401  -1.104  -0.282  1.00  0.00     0.214 C 
ATOM     29  O   UNL     1      -5.387  -0.959   1.965  1.00  0.00    -0.332 OA
ATOM     30  C   UNL     1      -4.386  -2.639  -0.228  1.00  0.00     0.180 C 
ATOM     31  C   UNL     1      -5.455  -2.378   2.088  1.00  0.00     0.179 C 
ATOM     32  C   UNL     1      -5.488  -3.125   0.723  1.00  0.00     0.177 C 
BRANCH  28  33
ATOM     33  O   UNL     1      -3.392  -0.596  -1.123  1.00  0.00    -0.384 OA
ATOM     34  H   UNL     1      -2.584  -1.158  -1.012  1.00  0.00     0.211 HD
ENDBRANCH  28  33
BRANCH  30  35
ATOM     35  O   UNL     1      -3.137  -3.124   0.202  1.00  0.00    -0.387 OA
ATOM     36  H   UNL     1      -2.765  -2.458   0.838  1.00  0.00     0.211 HD
ENDBRANCH  30  35
BRANCH  31  37
ATOM     37  C   UNL     1      -4.419  -2.938   3.088  1.00  0.00     0.191 C 
BRANCH  37  38
ATOM     38  O   UNL     1      -4.343  -2.125   4.229  1.00  0.00    -0.394 OA
ATOM     39  H   UNL     1      -5.147  -2.322   4.776  1.00  0.00     0.210 HD
ENDBRANCH  37  38
ENDBRANCH  31  37
BRANCH  32  40
ATOM     40  O   UNL     1      -6.735  -2.925   0.109  1.00  0.00    -0.387 OA
ATOM     41  H   UNL     1      -7.413  -2.892   0.833  1.00  0.00     0.211 HD
ENDBRANCH  32  40
ENDBRANCH   1  27
TORSDOF 12
ENDMDL
