MODEL 1
REMARK VINA RESULT:     7.646      0.000      0.000
REMARK INTER + INTRA:          18.165
REMARK INTER:                  19.268
REMARK INTRA:                  -1.103
REMARK UNBOUND:                -1.103
REMARK SMILES CCCCCCCCCCCCCCCCCCCCCCCCCCCC(=O)[O-]
REMARK SMILES IDX 15 1 16 2 17 3 18 4 19 5 20 6 21 7 22 8 23 9 24 10 25 11
REMARK SMILES IDX 26 12 27 13 28 14 29 15 30 16 14 17 13 18 12 19 11 20 10 21
REMARK SMILES IDX 9 22 8 23 7 24 6 25 5 26 4 27 3 28 2 29 1 30
REMARK H PARENT
REMARK Flexibility Score: inf
ROOT
ATOM      1  C   UNL     1       1.045 -32.123  -6.160  1.00  0.00     0.000 C 
ENDROOT
BRANCH   1   2
ATOM      2  C   UNL     1       1.328 -30.814  -5.399  1.00  0.00     0.000 C 
BRANCH   2   3
ATOM      3  C   UNL     1       2.783 -30.313  -5.528  1.00  0.00     0.000 C 
BRANCH   3   4
ATOM      4  C   UNL     1       3.463 -30.813  -6.813  1.00  0.00     0.000 C 
BRANCH   4   5
ATOM      5  C   UNL     1       3.844 -29.669  -7.768  1.00  0.00     0.000 C 
BRANCH   5   6
ATOM      6  C   UNL     1       2.729 -28.616  -7.904  1.00  0.00     0.000 C 
BRANCH   6   7
ATOM      7  C   UNL     1       2.885 -27.455  -6.909  1.00  0.00     0.000 C 
BRANCH   7   8
ATOM      8  C   UNL     1       2.443 -26.106  -7.502  1.00  0.00     0.000 C 
BRANCH   8   9
ATOM      9  C   UNL     1       1.235 -25.498  -6.763  1.00  0.00     0.000 C 
BRANCH   9  10
ATOM     10  C   UNL     1       1.278 -23.966  -6.605  1.00  0.00     0.000 C 
BRANCH  10  11
ATOM     11  C   UNL     1       0.012 -23.278  -7.147  1.00  0.00     0.000 C 
BRANCH  11  12
ATOM     12  C   UNL     1      -0.567 -22.247  -6.166  1.00  0.00     0.006 C 
BRANCH  12  13
ATOM     13  C   UNL     1      -1.815 -22.756  -5.432  1.00  0.00     0.053 C 
BRANCH  13  14
ATOM     14  C   UNL     1      -2.818 -21.657  -5.277  1.00  0.00     0.041 C 
ATOM     15  O   UNL     1      -2.678 -20.796  -4.369  1.00  0.00    -0.550 OA
ATOM     16  O   UNL     1      -3.925 -21.600  -6.113  1.00  0.00    -0.550 OA
ENDBRANCH  13  14
ENDBRANCH  12  13
ENDBRANCH  11  12
ENDBRANCH  10  11
ENDBRANCH   9  10
ENDBRANCH   8   9
ENDBRANCH   7   8
ENDBRANCH   6   7
ENDBRANCH   5   6
ENDBRANCH   4   5
ENDBRANCH   3   4
ENDBRANCH   2   3
ENDBRANCH   1   2
BRANCH   1  17
ATOM     17  C   UNL     1      -0.047 -32.031  -7.238  1.00  0.00     0.000 C 
BRANCH  17  18
ATOM     18  C   UNL     1      -1.470 -32.121  -6.657  1.00  0.00     0.000 C 
BRANCH  18  19
ATOM     19  C   UNL     1      -2.574 -32.029  -7.731  1.00  0.00     0.000 C 
BRANCH  19  20
ATOM     20  C   UNL     1      -3.422 -30.742  -7.697  1.00  0.00     0.000 C 
BRANCH  20  21
ATOM     21  C   UNL     1      -4.521 -30.773  -6.626  1.00  0.00     0.000 C 
BRANCH  21  22
ATOM     22  C   UNL     1      -4.372 -32.009  -5.724  1.00  0.00    -0.000 C 
BRANCH  22  23
ATOM     23  C   UNL     1      -4.512 -31.683  -4.227  1.00  0.00    -0.000 C 
BRANCH  23  24
ATOM     24  C   UNL     1      -3.327 -32.125  -3.341  1.00  0.00    -0.000 C 
BRANCH  24  25
ATOM     25  C   UNL     1      -1.966 -31.522  -3.755  1.00  0.00    -0.000 C 
BRANCH  25  26
ATOM     26  C   UNL     1      -0.911 -31.633  -2.639  1.00  0.00    -0.000 C 
BRANCH  26  27
ATOM     27  C   UNL     1      -0.236 -30.292  -2.316  1.00  0.00    -0.000 C 
BRANCH  27  28
ATOM     28  C   UNL     1       1.028 -30.437  -1.442  1.00  0.00    -0.000 C 
BRANCH  28  29
ATOM     29  C   UNL     1       1.178 -31.855  -0.877  1.00  0.00    -0.003 C 
ATOM     30  C   UNL     1       0.375 -32.026   0.410  1.00  0.00     0.004 C 
ENDBRANCH  28  29
ENDBRANCH  27  28
ENDBRANCH  26  27
ENDBRANCH  25  26
ENDBRANCH  24  25
ENDBRANCH  23  24
ENDBRANCH  22  23
ENDBRANCH  21  22
ENDBRANCH  20  21
ENDBRANCH  19  20
ENDBRANCH  18  19
ENDBRANCH  17  18
ENDBRANCH   1  17
TORSDOF 26
ENDMDL
MODEL 2
REMARK VINA RESULT:     8.052      1.811      6.471
REMARK INTER + INTRA:          19.188
REMARK INTER:                  17.882
REMARK INTRA:                   1.306
REMARK UNBOUND:                -1.103
REMARK SMILES CCCCCCCCCCCCCCCCCCCCCCCCCCCC(=O)[O-]
REMARK SMILES IDX 15 1 16 2 17 3 18 4 19 5 20 6 21 7 22 8 23 9 24 10 25 11
REMARK SMILES IDX 26 12 27 13 28 14 29 15 30 16 14 17 13 18 12 19 11 20 10 21
REMARK SMILES IDX 9 22 8 23 7 24 6 25 5 26 4 27 3 28 2 29 1 30
REMARK H PARENT
REMARK Flexibility Score: inf
ROOT
ATOM      1  C   UNL     1       3.527 -24.080  -4.693  1.00  0.00     0.000 C 
ENDROOT
BRANCH   1   2
ATOM      2  C   UNL     1       1.989 -24.058  -4.760  1.00  0.00     0.000 C 
BRANCH   2   3
ATOM      3  C   UNL     1       1.415 -22.981  -5.705  1.00  0.00     0.000 C 
BRANCH   3   4
ATOM      4  C   UNL     1       0.260 -23.514  -6.569  1.00  0.00     0.000 C 
BRANCH   4   5
ATOM      5  C   UNL     1      -0.671 -22.397  -7.070  1.00  0.00     0.000 C 
BRANCH   5   6
ATOM      6  C   UNL     1      -2.138 -22.618  -6.657  1.00  0.00     0.000 C 
BRANCH   6   7
ATOM      7  C   UNL     1      -3.126 -21.839  -7.539  1.00  0.00     0.000 C 
BRANCH   7   8
ATOM      8  C   UNL     1      -4.581 -21.980  -7.060  1.00  0.00     0.000 C 
BRANCH   8   9
ATOM      9  C   UNL     1      -4.864 -21.180  -5.774  1.00  0.00     0.000 C 
BRANCH   9  10
ATOM     10  C   UNL     1      -4.592 -19.667  -5.880  1.00  0.00     0.000 C 
BRANCH  10  11
ATOM     11  C   UNL     1      -3.124 -19.307  -5.593  1.00  0.00     0.000 C 
BRANCH  11  12
ATOM     12  C   UNL     1      -2.289 -20.522  -5.161  1.00  0.00     0.006 C 
BRANCH  12  13
ATOM     13  C   UNL     1      -1.985 -20.533  -3.656  1.00  0.00     0.053 C 
BRANCH  13  14
ATOM     14  C   UNL     1      -1.272 -21.792  -3.274  1.00  0.00     0.041 C 
ATOM     15  O   UNL     1      -0.387 -21.770  -2.379  1.00  0.00    -0.550 OA
ATOM     16  O   UNL     1      -1.561 -22.983  -3.926  1.00  0.00    -0.550 OA
ENDBRANCH  13  14
ENDBRANCH  12  13
ENDBRANCH  11  12
ENDBRANCH  10  11
ENDBRANCH   9  10
ENDBRANCH   8   9
ENDBRANCH   7   8
ENDBRANCH   6   7
ENDBRANCH   5   6
ENDBRANCH   4   5
ENDBRANCH   3   4
ENDBRANCH   2   3
ENDBRANCH   1   2
BRANCH   1  17
ATOM     17  C   UNL     1       4.205 -25.172  -5.536  1.00  0.00     0.000 C 
BRANCH  17  18
ATOM     18  C   UNL     1       3.402 -26.485  -5.572  1.00  0.00     0.000 C 
BRANCH  18  19
ATOM     19  C   UNL     1       2.770 -26.777  -6.948  1.00  0.00     0.000 C 
BRANCH  19  20
ATOM     20  C   UNL     1       2.543 -28.268  -7.267  1.00  0.00     0.000 C 
BRANCH  20  21
ATOM     21  C   UNL     1       2.740 -29.182  -6.049  1.00  0.00     0.000 C 
BRANCH  21  22
ATOM     22  C   UNL     1       2.721 -30.661  -6.468  1.00  0.00    -0.000 C 
BRANCH  22  23
ATOM     23  C   UNL     1       2.193 -31.593  -5.363  1.00  0.00    -0.000 C 
BRANCH  23  24
ATOM     24  C   UNL     1       0.702 -31.414  -5.004  1.00  0.00    -0.000 C 
BRANCH  24  25
ATOM     25  C   UNL     1       0.444 -31.071  -3.520  1.00  0.00    -0.000 C 
BRANCH  25  26
ATOM     26  C   UNL     1      -1.023 -31.302  -3.110  1.00  0.00    -0.000 C 
BRANCH  26  27
ATOM     27  C   UNL     1      -1.857 -31.965  -4.216  1.00  0.00    -0.000 C 
BRANCH  27  28
ATOM     28  C   UNL     1      -2.780 -30.979  -4.962  1.00  0.00    -0.000 C 
BRANCH  28  29
ATOM     29  C   UNL     1      -3.513 -31.649  -6.131  1.00  0.00    -0.003 C 
ATOM     30  C   UNL     1      -4.717 -30.823  -6.577  1.00  0.00     0.004 C 
ENDBRANCH  28  29
ENDBRANCH  27  28
ENDBRANCH  26  27
ENDBRANCH  25  26
ENDBRANCH  24  25
ENDBRANCH  23  24
ENDBRANCH  22  23
ENDBRANCH  21  22
ENDBRANCH  20  21
ENDBRANCH  19  20
ENDBRANCH  18  19
ENDBRANCH  17  18
ENDBRANCH   1  17
TORSDOF 26
ENDMDL
MODEL 3
REMARK VINA RESULT:     8.800      3.593      8.879
REMARK INTER + INTRA:          21.073
REMARK INTER:                  20.909
REMARK INTRA:                   0.164
REMARK UNBOUND:                -1.103
REMARK SMILES CCCCCCCCCCCCCCCCCCCCCCCCCCCC(=O)[O-]
REMARK SMILES IDX 15 1 16 2 17 3 18 4 19 5 20 6 21 7 22 8 23 9 24 10 25 11
REMARK SMILES IDX 26 12 27 13 28 14 29 15 30 16 14 17 13 18 12 19 11 20 10 21
REMARK SMILES IDX 9 22 8 23 7 24 6 25 5 26 4 27 3 28 2 29 1 30
REMARK H PARENT
REMARK Flexibility Score: inf
ROOT
ATOM      1  C   UNL     1       3.554 -24.192  -4.735  1.00  0.00     0.000 C 
ENDROOT
BRANCH   1   2
ATOM      2  C   UNL     1       4.004 -25.206  -5.804  1.00  0.00     0.000 C 
BRANCH   2   3
ATOM      3  C   UNL     1       3.438 -26.628  -5.600  1.00  0.00     0.000 C 
BRANCH   3   4
ATOM      4  C   UNL     1       2.939 -27.253  -6.913  1.00  0.00     0.000 C 
BRANCH   4   5
ATOM      5  C   UNL     1       2.506 -28.719  -6.745  1.00  0.00     0.000 C 
BRANCH   5   6
ATOM      6  C   UNL     1       2.957 -29.608  -7.919  1.00  0.00     0.000 C 
BRANCH   6   7
ATOM      7  C   UNL     1       3.651 -30.898  -7.454  1.00  0.00     0.000 C 
BRANCH   7   8
ATOM      8  C   UNL     1       3.007 -31.492  -6.190  1.00  0.00     0.000 C 
BRANCH   8   9
ATOM      9  C   UNL     1       1.504 -31.781  -6.367  1.00  0.00     0.000 C 
BRANCH   9  10
ATOM     10  C   UNL     1       0.719 -31.948  -5.051  1.00  0.00     0.000 C 
BRANCH  10  11
ATOM     11  C   UNL     1       1.493 -31.427  -3.828  1.00  0.00     0.000 C 
BRANCH  11  12
ATOM     12  C   UNL     1       0.567 -30.870  -2.735  1.00  0.00     0.006 C 
BRANCH  12  13
ATOM     13  C   UNL     1       1.072 -31.165  -1.316  1.00  0.00     0.053 C 
BRANCH  13  14
ATOM     14  C   UNL     1       1.457 -29.898  -0.621  1.00  0.00     0.041 C 
ATOM     15  O   UNL     1       1.443 -28.805  -1.245  1.00  0.00    -0.550 OA
ATOM     16  O   UNL     1       1.862 -29.926   0.707  1.00  0.00    -0.550 OA
ENDBRANCH  13  14
ENDBRANCH  12  13
ENDBRANCH  11  12
ENDBRANCH  10  11
ENDBRANCH   9  10
ENDBRANCH   8   9
ENDBRANCH   7   8
ENDBRANCH   6   7
ENDBRANCH   5   6
ENDBRANCH   4   5
ENDBRANCH   3   4
ENDBRANCH   2   3
ENDBRANCH   1   2
BRANCH   1  17
ATOM     17  C   UNL     1       2.045 -23.904  -4.698  1.00  0.00     0.000 C 
BRANCH  17  18
ATOM     18  C   UNL     1       1.408 -23.867  -6.099  1.00  0.00     0.000 C 
BRANCH  18  19
ATOM     19  C   UNL     1      -0.034 -23.321  -6.100  1.00  0.00     0.000 C 
BRANCH  19  20
ATOM     20  C   UNL     1      -0.299 -22.159  -7.078  1.00  0.00     0.000 C 
BRANCH  20  21
ATOM     21  C   UNL     1      -1.732 -22.148  -7.628  1.00  0.00     0.000 C 
BRANCH  21  22
ATOM     22  C   UNL     1      -2.736 -22.577  -6.546  1.00  0.00    -0.000 C 
BRANCH  22  23
ATOM     23  C   UNL     1      -4.201 -22.339  -6.955  1.00  0.00    -0.000 C 
BRANCH  23  24
ATOM     24  C   UNL     1      -4.673 -20.870  -6.895  1.00  0.00    -0.000 C 
BRANCH  24  25
ATOM     25  C   UNL     1      -4.348 -20.153  -5.567  1.00  0.00    -0.000 C 
BRANCH  25  26
ATOM     26  C   UNL     1      -2.967 -19.469  -5.591  1.00  0.00    -0.000 C 
BRANCH  26  27
ATOM     27  C   UNL     1      -1.878 -20.294  -4.890  1.00  0.00    -0.000 C 
BRANCH  27  28
ATOM     28  C   UNL     1      -2.438 -21.453  -4.039  1.00  0.00    -0.000 C 
BRANCH  28  29
ATOM     29  C   UNL     1      -1.323 -22.335  -3.463  1.00  0.00    -0.003 C 
ATOM     30  C   UNL     1      -0.564 -21.613  -2.352  1.00  0.00     0.004 C 
ENDBRANCH  28  29
ENDBRANCH  27  28
ENDBRANCH  26  27
ENDBRANCH  25  26
ENDBRANCH  24  25
ENDBRANCH  23  24
ENDBRANCH  22  23
ENDBRANCH  21  22
ENDBRANCH  20  21
ENDBRANCH  19  20
ENDBRANCH  18  19
ENDBRANCH  17  18
ENDBRANCH   1  17
TORSDOF 26
ENDMDL
MODEL 4
REMARK VINA RESULT:     8.890      2.067      5.769
REMARK INTER + INTRA:          21.298
REMARK INTER:                  19.390
REMARK INTRA:                   1.909
REMARK UNBOUND:                -1.103
REMARK SMILES CCCCCCCCCCCCCCCCCCCCCCCCCCCC(=O)[O-]
REMARK SMILES IDX 15 1 16 2 17 3 18 4 19 5 20 6 21 7 22 8 23 9 24 10 25 11
REMARK SMILES IDX 26 12 27 13 28 14 29 15 30 16 14 17 13 18 12 19 11 20 10 21
REMARK SMILES IDX 9 22 8 23 7 24 6 25 5 26 4 27 3 28 2 29 1 30
REMARK H PARENT
REMARK Flexibility Score: inf
ROOT
ATOM      1  C   UNL     1       3.820 -24.994  -5.398  1.00  0.00     0.000 C 
ENDROOT
BRANCH   1   2
ATOM      2  C   UNL     1       2.515 -24.238  -5.084  1.00  0.00     0.000 C 
BRANCH   2   3
ATOM      3  C   UNL     1       1.512 -24.199  -6.257  1.00  0.00     0.000 C 
BRANCH   3   4
ATOM      4  C   UNL     1       0.607 -22.957  -6.214  1.00  0.00     0.000 C 
BRANCH   4   5
ATOM      5  C   UNL     1      -0.440 -22.946  -7.341  1.00  0.00     0.000 C 
BRANCH   5   6
ATOM      6  C   UNL     1      -1.560 -21.917  -7.098  1.00  0.00     0.000 C 
BRANCH   6   7
ATOM      7  C   UNL     1      -2.894 -22.574  -6.710  1.00  0.00     0.000 C 
BRANCH   7   8
ATOM      8  C   UNL     1      -4.108 -21.838  -7.303  1.00  0.00     0.000 C 
BRANCH   8   9
ATOM      9  C   UNL     1      -5.039 -21.258  -6.221  1.00  0.00     0.000 C 
BRANCH   9  10
ATOM     10  C   UNL     1      -4.384 -20.214  -5.297  1.00  0.00     0.000 C 
BRANCH  10  11
ATOM     11  C   UNL     1      -3.029 -19.716  -5.830  1.00  0.00     0.000 C 
BRANCH  11  12
ATOM     12  C   UNL     1      -1.845 -20.191  -4.974  1.00  0.00     0.006 C 
BRANCH  12  13
ATOM     13  C   UNL     1      -2.280 -21.031  -3.766  1.00  0.00     0.053 C 
BRANCH  13  14
ATOM     14  C   UNL     1      -1.137 -21.850  -3.256  1.00  0.00     0.041 C 
ATOM     15  O   UNL     1      -0.733 -22.849  -3.908  1.00  0.00    -0.550 OA
ATOM     16  O   UNL     1      -0.537 -21.532  -2.045  1.00  0.00    -0.550 OA
ENDBRANCH  13  14
ENDBRANCH  12  13
ENDBRANCH  11  12
ENDBRANCH  10  11
ENDBRANCH   9  10
ENDBRANCH   8   9
ENDBRANCH   7   8
ENDBRANCH   6   7
ENDBRANCH   5   6
ENDBRANCH   4   5
ENDBRANCH   3   4
ENDBRANCH   2   3
ENDBRANCH   1   2
BRANCH   1  17
ATOM     17  C   UNL     1       3.681 -26.519  -5.521  1.00  0.00     0.000 C 
BRANCH  17  18
ATOM     18  C   UNL     1       2.832 -26.946  -6.733  1.00  0.00     0.000 C 
BRANCH  18  19
ATOM     19  C   UNL     1       2.447 -28.440  -6.713  1.00  0.00     0.000 C 
BRANCH  19  20
ATOM     20  C   UNL     1       3.367 -29.369  -7.528  1.00  0.00     0.000 C 
BRANCH  20  21
ATOM     21  C   UNL     1       3.350 -30.822  -7.033  1.00  0.00     0.000 C 
BRANCH  21  22
ATOM     22  C   UNL     1       1.907 -31.331  -6.882  1.00  0.00    -0.000 C 
BRANCH  22  23
ATOM     23  C   UNL     1       1.490 -31.534  -5.415  1.00  0.00    -0.000 C 
BRANCH  23  24
ATOM     24  C   UNL     1       0.056 -32.066  -5.203  1.00  0.00    -0.000 C 
BRANCH  24  25
ATOM     25  C   UNL     1      -0.963 -30.988  -4.772  1.00  0.00    -0.000 C 
BRANCH  25  26
ATOM     26  C   UNL     1      -1.616 -31.306  -3.414  1.00  0.00    -0.000 C 
BRANCH  26  27
ATOM     27  C   UNL     1      -0.593 -31.668  -2.328  1.00  0.00    -0.000 C 
BRANCH  27  28
ATOM     28  C   UNL     1       0.579 -30.668  -2.231  1.00  0.00    -0.000 C 
BRANCH  28  29
ATOM     29  C   UNL     1       1.234 -30.682  -0.844  1.00  0.00    -0.003 C 
ATOM     30  C   UNL     1       1.713 -29.289  -0.443  1.00  0.00     0.004 C 
ENDBRANCH  28  29
ENDBRANCH  27  28
ENDBRANCH  26  27
ENDBRANCH  25  26
ENDBRANCH  24  25
ENDBRANCH  23  24
ENDBRANCH  22  23
ENDBRANCH  21  22
ENDBRANCH  20  21
ENDBRANCH  19  20
ENDBRANCH  18  19
ENDBRANCH  17  18
ENDBRANCH   1  17
TORSDOF 26
ENDMDL
MODEL 5
REMARK VINA RESULT:     8.994      3.169      8.779
REMARK INTER + INTRA:          21.561
REMARK INTER:                  22.301
REMARK INTRA:                  -0.740
REMARK UNBOUND:                -1.103
REMARK SMILES CCCCCCCCCCCCCCCCCCCCCCCCCCCC(=O)[O-]
REMARK SMILES IDX 15 1 16 2 17 3 18 4 19 5 20 6 21 7 22 8 23 9 24 10 25 11
REMARK SMILES IDX 26 12 27 13 28 14 29 15 30 16 14 17 13 18 12 19 11 20 10 21
REMARK SMILES IDX 9 22 8 23 7 24 6 25 5 26 4 27 3 28 2 29 1 30
REMARK H PARENT
REMARK Flexibility Score: inf
ROOT
ATOM      1  C   UNL     1       3.306 -24.031  -4.578  1.00  0.00     0.000 C 
ENDROOT
BRANCH   1   2
ATOM      2  C   UNL     1       4.091 -25.007  -5.475  1.00  0.00     0.000 C 
BRANCH   2   3
ATOM      3  C   UNL     1       3.519 -26.441  -5.496  1.00  0.00     0.000 C 
BRANCH   3   4
ATOM      4  C   UNL     1       3.237 -26.939  -6.923  1.00  0.00     0.000 C 
BRANCH   4   5
ATOM      5  C   UNL     1       2.186 -28.060  -6.964  1.00  0.00     0.000 C 
BRANCH   5   6
ATOM      6  C   UNL     1       2.774 -29.408  -7.421  1.00  0.00     0.000 C 
BRANCH   6   7
ATOM      7  C   UNL     1       2.821 -30.448  -6.292  1.00  0.00     0.000 C 
BRANCH   7   8
ATOM      8  C   UNL     1       1.784 -30.172  -5.190  1.00  0.00     0.000 C 
BRANCH   8   9
ATOM      9  C   UNL     1       1.178 -31.462  -4.605  1.00  0.00     0.000 C 
BRANCH   9  10
ATOM     10  C   UNL     1      -0.088 -31.966  -5.324  1.00  0.00     0.000 C 
BRANCH  10  11
ATOM     11  C   UNL     1      -1.352 -31.844  -4.454  1.00  0.00     0.000 C 
BRANCH  11  12
ATOM     12  C   UNL     1      -2.225 -30.642  -4.844  1.00  0.00     0.006 C 
BRANCH  12  13
ATOM     13  C   UNL     1      -3.705 -31.009  -5.018  1.00  0.00     0.053 C 
BRANCH  13  14
ATOM     14  C   UNL     1      -4.034 -31.195  -6.466  1.00  0.00     0.041 C 
ATOM     15  O   UNL     1      -5.101 -30.723  -6.938  1.00  0.00    -0.550 OA
ATOM     16  O   UNL     1      -3.178 -31.916  -7.288  1.00  0.00    -0.550 OA
ENDBRANCH  13  14
ENDBRANCH  12  13
ENDBRANCH  11  12
ENDBRANCH  10  11
ENDBRANCH   9  10
ENDBRANCH   8   9
ENDBRANCH   7   8
ENDBRANCH   6   7
ENDBRANCH   5   6
ENDBRANCH   4   5
ENDBRANCH   3   4
ENDBRANCH   2   3
ENDBRANCH   1   2
BRANCH   1  17
ATOM     17  C   UNL     1       1.778 -24.075  -4.739  1.00  0.00     0.000 C 
BRANCH  17  18
ATOM     18  C   UNL     1       1.304 -23.510  -6.091  1.00  0.00     0.000 C 
BRANCH  18  19
ATOM     19  C   UNL     1      -0.180 -23.087  -6.089  1.00  0.00     0.000 C 
BRANCH  19  20
ATOM     20  C   UNL     1      -0.595 -22.132  -7.225  1.00  0.00     0.000 C 
BRANCH  20  21
ATOM     21  C   UNL     1      -2.116 -21.951  -7.335  1.00  0.00     0.000 C 
BRANCH  21  22
ATOM     22  C   UNL     1      -2.846 -22.814  -6.294  1.00  0.00    -0.000 C 
BRANCH  22  23
ATOM     23  C   UNL     1      -4.376 -22.783  -6.452  1.00  0.00    -0.000 C 
BRANCH  23  24
ATOM     24  C   UNL     1      -4.965 -21.433  -6.919  1.00  0.00    -0.000 C 
BRANCH  24  25
ATOM     25  C   UNL     1      -4.857 -20.299  -5.876  1.00  0.00    -0.000 C 
BRANCH  25  26
ATOM     26  C   UNL     1      -3.470 -19.629  -5.879  1.00  0.00    -0.000 C 
BRANCH  26  27
ATOM     27  C   UNL     1      -2.784 -19.664  -4.506  1.00  0.00    -0.000 C 
BRANCH  27  28
ATOM     28  C   UNL     1      -1.845 -20.875  -4.321  1.00  0.00    -0.000 C 
BRANCH  28  29
ATOM     29  C   UNL     1      -1.216 -20.908  -2.922  1.00  0.00    -0.003 C 
ATOM     30  C   UNL     1      -0.589 -22.268  -2.628  1.00  0.00     0.004 C 
ENDBRANCH  28  29
ENDBRANCH  27  28
ENDBRANCH  26  27
ENDBRANCH  25  26
ENDBRANCH  24  25
ENDBRANCH  23  24
ENDBRANCH  22  23
ENDBRANCH  21  22
ENDBRANCH  20  21
ENDBRANCH  19  20
ENDBRANCH  18  19
ENDBRANCH  17  18
ENDBRANCH   1  17
TORSDOF 26
ENDMDL
MODEL 6
REMARK VINA RESULT:     9.607      3.037      9.187
REMARK INTER + INTRA:          23.105
REMARK INTER:                  18.952
REMARK INTRA:                   4.153
REMARK UNBOUND:                -1.103
REMARK SMILES CCCCCCCCCCCCCCCCCCCCCCCCCCCC(=O)[O-]
REMARK SMILES IDX 15 1 16 2 17 3 18 4 19 5 20 6 21 7 22 8 23 9 24 10 25 11
REMARK SMILES IDX 26 12 27 13 28 14 29 15 30 16 14 17 13 18 12 19 11 20 10 21
REMARK SMILES IDX 9 22 8 23 7 24 6 25 5 26 4 27 3 28 2 29 1 30
REMARK H PARENT
REMARK Flexibility Score: inf
ROOT
ATOM      1  C   UNL     1       3.176 -24.624  -5.409  1.00  0.00     0.000 C 
ENDROOT
BRANCH   1   2
ATOM      2  C   UNL     1       3.492 -26.114  -5.633  1.00  0.00     0.000 C 
BRANCH   2   3
ATOM      3  C   UNL     1       2.746 -26.743  -6.830  1.00  0.00     0.000 C 
BRANCH   3   4
ATOM      4  C   UNL     1       2.350 -28.206  -6.571  1.00  0.00     0.000 C 
BRANCH   4   5
ATOM      5  C   UNL     1       3.039 -29.187  -7.535  1.00  0.00     0.000 C 
BRANCH   5   6
ATOM      6  C   UNL     1       2.891 -30.654  -7.092  1.00  0.00     0.000 C 
BRANCH   6   7
ATOM      7  C   UNL     1       1.960 -30.817  -5.881  1.00  0.00     0.000 C 
BRANCH   7   8
ATOM      8  C   UNL     1       1.145 -32.121  -5.934  1.00  0.00     0.000 C 
BRANCH   8   9
ATOM      9  C   UNL     1      -0.311 -31.932  -5.466  1.00  0.00     0.000 C 
BRANCH   9  10
ATOM     10  C   UNL     1      -0.467 -31.194  -4.122  1.00  0.00     0.000 C 
BRANCH  10  11
ATOM     11  C   UNL     1      -1.795 -31.521  -3.416  1.00  0.00     0.000 C 
BRANCH  11  12
ATOM     12  C   UNL     1      -3.008 -31.404  -4.353  1.00  0.00     0.006 C 
BRANCH  12  13
ATOM     13  C   UNL     1      -2.706 -31.873  -5.783  1.00  0.00     0.053 C 
BRANCH  13  14
ATOM     14  C   UNL     1      -3.757 -31.384  -6.729  1.00  0.00     0.041 C 
ATOM     15  O   UNL     1      -3.770 -31.786  -7.922  1.00  0.00    -0.550 OA
ATOM     16  O   UNL     1      -4.702 -30.460  -6.304  1.00  0.00    -0.550 OA
ENDBRANCH  13  14
ENDBRANCH  12  13
ENDBRANCH  11  12
ENDBRANCH  10  11
ENDBRANCH   9  10
ENDBRANCH   8   9
ENDBRANCH   7   8
ENDBRANCH   6   7
ENDBRANCH   5   6
ENDBRANCH   4   5
ENDBRANCH   3   4
ENDBRANCH   2   3
ENDBRANCH   1   2
BRANCH   1  17
ATOM     17  C   UNL     1       2.343 -24.310  -4.156  1.00  0.00     0.000 C 
BRANCH  17  18
ATOM     18  C   UNL     1       1.278 -23.225  -4.402  1.00  0.00     0.000 C 
BRANCH  18  19
ATOM     19  C   UNL     1       0.096 -23.296  -3.414  1.00  0.00     0.000 C 
BRANCH  19  20
ATOM     20  C   UNL     1      -0.523 -21.938  -3.028  1.00  0.00     0.000 C 
BRANCH  20  21
ATOM     21  C   UNL     1      -1.790 -21.603  -3.828  1.00  0.00     0.000 C 
BRANCH  21  22
ATOM     22  C   UNL     1      -1.707 -20.184  -4.414  1.00  0.00    -0.000 C 
BRANCH  22  23
ATOM     23  C   UNL     1      -2.533 -20.015  -5.701  1.00  0.00    -0.000 C 
BRANCH  23  24
ATOM     24  C   UNL     1      -3.995 -19.564  -5.494  1.00  0.00    -0.000 C 
BRANCH  24  25
ATOM     25  C   UNL     1      -5.041 -20.676  -5.726  1.00  0.00    -0.000 C 
BRANCH  25  26
ATOM     26  C   UNL     1      -4.928 -21.306  -7.128  1.00  0.00    -0.000 C 
BRANCH  26  27
ATOM     27  C   UNL     1      -3.571 -21.980  -7.374  1.00  0.00    -0.000 C 
BRANCH  27  28
ATOM     28  C   UNL     1      -3.032 -22.741  -6.144  1.00  0.00    -0.000 C 
BRANCH  28  29
ATOM     29  C   UNL     1      -1.508 -22.912  -6.195  1.00  0.00    -0.003 C 
ATOM     30  C   UNL     1      -0.914 -22.226  -7.422  1.00  0.00     0.004 C 
ENDBRANCH  28  29
ENDBRANCH  27  28
ENDBRANCH  26  27
ENDBRANCH  25  26
ENDBRANCH  24  25
ENDBRANCH  23  24
ENDBRANCH  22  23
ENDBRANCH  21  22
ENDBRANCH  20  21
ENDBRANCH  19  20
ENDBRANCH  18  19
ENDBRANCH  17  18
ENDBRANCH   1  17
TORSDOF 26
ENDMDL
MODEL 7
REMARK VINA RESULT:     9.921      3.565      9.912
REMARK INTER + INTRA:          23.896
REMARK INTER:                  23.994
REMARK INTRA:                  -0.098
REMARK UNBOUND:                -1.103
REMARK SMILES CCCCCCCCCCCCCCCCCCCCCCCCCCCC(=O)[O-]
REMARK SMILES IDX 15 1 16 2 17 3 18 4 19 5 20 6 21 7 22 8 23 9 24 10 25 11
REMARK SMILES IDX 26 12 27 13 28 14 29 15 30 16 14 17 13 18 12 19 11 20 10 21
REMARK SMILES IDX 9 22 8 23 7 24 6 25 5 26 4 27 3 28 2 29 1 30
REMARK H PARENT
REMARK Flexibility Score: inf
ROOT
ATOM      1  C   UNL     1       3.881 -25.579  -5.531  1.00  0.00     0.000 C 
ENDROOT
BRANCH   1   2
ATOM      2  C   UNL     1       3.544 -27.065  -5.755  1.00  0.00     0.000 C 
BRANCH   2   3
ATOM      3  C   UNL     1       2.758 -27.343  -7.055  1.00  0.00     0.000 C 
BRANCH   3   4
ATOM      4  C   UNL     1       2.726 -28.838  -7.413  1.00  0.00     0.000 C 
BRANCH   4   5
ATOM      5  C   UNL     1       2.239 -29.717  -6.248  1.00  0.00     0.000 C 
BRANCH   5   6
ATOM      6  C   UNL     1       2.554 -31.209  -6.461  1.00  0.00     0.000 C 
BRANCH   6   7
ATOM      7  C   UNL     1       1.364 -32.120  -6.122  1.00  0.00     0.000 C 
BRANCH   7   8
ATOM      8  C   UNL     1       0.618 -31.671  -4.853  1.00  0.00     0.000 C 
BRANCH   8   9
ATOM      9  C   UNL     1      -0.912 -31.790  -4.989  1.00  0.00     0.000 C 
BRANCH   9  10
ATOM     10  C   UNL     1      -1.686 -31.727  -3.658  1.00  0.00     0.000 C 
BRANCH  10  11
ATOM     11  C   UNL     1      -1.000 -30.828  -2.614  1.00  0.00     0.000 C 
BRANCH  11  12
ATOM     12  C   UNL     1       0.489 -31.162  -2.432  1.00  0.00     0.006 C 
BRANCH  12  13
ATOM     13  C   UNL     1       0.868 -31.425  -0.969  1.00  0.00     0.053 C 
BRANCH  13  14
ATOM     14  C   UNL     1       1.341 -30.166  -0.313  1.00  0.00     0.041 C 
ATOM     15  O   UNL     1       1.228 -30.021   0.932  1.00  0.00    -0.550 OA
ATOM     16  O   UNL     1       1.878 -29.141  -1.080  1.00  0.00    -0.550 OA
ENDBRANCH  13  14
ENDBRANCH  12  13
ENDBRANCH  11  12
ENDBRANCH  10  11
ENDBRANCH   9  10
ENDBRANCH   8   9
ENDBRANCH   7   8
ENDBRANCH   6   7
ENDBRANCH   5   6
ENDBRANCH   4   5
ENDBRANCH   3   4
ENDBRANCH   2   3
ENDBRANCH   1   2
BRANCH   1  17
ATOM     17  C   UNL     1       2.694 -24.611  -5.654  1.00  0.00     0.000 C 
BRANCH  17  18
ATOM     18  C   UNL     1       2.932 -23.278  -4.920  1.00  0.00     0.000 C 
BRANCH  18  19
ATOM     19  C   UNL     1       1.687 -22.766  -4.167  1.00  0.00     0.000 C 
BRANCH  19  20
ATOM     20  C   UNL     1       0.341 -23.341  -4.649  1.00  0.00     0.000 C 
BRANCH  20  21
ATOM     21  C   UNL     1      -0.817 -23.059  -3.682  1.00  0.00     0.000 C 
BRANCH  21  22
ATOM     22  C   UNL     1      -1.225 -21.578  -3.735  1.00  0.00    -0.000 C 
BRANCH  22  23
ATOM     23  C   UNL     1      -2.515 -21.336  -4.537  1.00  0.00    -0.000 C 
BRANCH  23  24
ATOM     24  C   UNL     1      -2.574 -22.027  -5.917  1.00  0.00    -0.000 C 
BRANCH  24  25
ATOM     25  C   UNL     1      -3.956 -21.956  -6.603  1.00  0.00    -0.000 C 
BRANCH  25  26
ATOM     26  C   UNL     1      -4.818 -20.797  -6.069  1.00  0.00    -0.000 C 
BRANCH  26  27
ATOM     27  C   UNL     1      -4.519 -19.459  -6.762  1.00  0.00    -0.000 C 
BRANCH  27  28
ATOM     28  C   UNL     1      -5.125 -18.242  -6.032  1.00  0.00    -0.000 C 
BRANCH  28  29
ATOM     29  C   UNL     1      -4.373 -16.944  -6.353  1.00  0.00    -0.003 C 
ATOM     30  C   UNL     1      -5.023 -16.200  -7.517  1.00  0.00     0.004 C 
ENDBRANCH  28  29
ENDBRANCH  27  28
ENDBRANCH  26  27
ENDBRANCH  25  26
ENDBRANCH  24  25
ENDBRANCH  23  24
ENDBRANCH  22  23
ENDBRANCH  21  22
ENDBRANCH  20  21
ENDBRANCH  19  20
ENDBRANCH  18  19
ENDBRANCH  17  18
ENDBRANCH   1  17
TORSDOF 26
ENDMDL
MODEL 8
REMARK VINA RESULT:     9.950      2.201      6.754
REMARK INTER + INTRA:          23.970
REMARK INTER:                  22.749
REMARK INTRA:                   1.220
REMARK UNBOUND:                -1.103
REMARK SMILES CCCCCCCCCCCCCCCCCCCCCCCCCCCC(=O)[O-]
REMARK SMILES IDX 15 1 16 2 17 3 18 4 19 5 20 6 21 7 22 8 23 9 24 10 25 11
REMARK SMILES IDX 26 12 27 13 28 14 29 15 30 16 14 17 13 18 12 19 11 20 10 21
REMARK SMILES IDX 9 22 8 23 7 24 6 25 5 26 4 27 3 28 2 29 1 30
REMARK H PARENT
REMARK Flexibility Score: inf
ROOT
ATOM      1  C   UNL     1       1.857 -24.776  -5.794  1.00  0.00     0.000 C 
ENDROOT
BRANCH   1   2
ATOM      2  C   UNL     1       1.385 -23.380  -6.242  1.00  0.00     0.000 C 
BRANCH   2   3
ATOM      3  C   UNL     1       0.068 -23.389  -7.048  1.00  0.00     0.000 C 
BRANCH   3   4
ATOM      4  C   UNL     1      -1.090 -22.726  -6.286  1.00  0.00     0.000 C 
BRANCH   4   5
ATOM      5  C   UNL     1      -2.252 -22.320  -7.207  1.00  0.00     0.000 C 
BRANCH   5   6
ATOM      6  C   UNL     1      -3.598 -22.238  -6.463  1.00  0.00     0.000 C 
BRANCH   6   7
ATOM      7  C   UNL     1      -4.514 -21.134  -7.013  1.00  0.00     0.000 C 
BRANCH   7   8
ATOM      8  C   UNL     1      -4.467 -19.851  -6.165  1.00  0.00     0.000 C 
BRANCH   8   9
ATOM      9  C   UNL     1      -3.091 -19.620  -5.512  1.00  0.00     0.000 C 
BRANCH   9  10
ATOM     10  C   UNL     1      -2.770 -20.556  -4.331  1.00  0.00     0.000 C 
BRANCH  10  11
ATOM     11  C   UNL     1      -1.264 -20.832  -4.185  1.00  0.00     0.000 C 
BRANCH  11  12
ATOM     12  C   UNL     1      -0.971 -22.129  -3.414  1.00  0.00     0.006 C 
BRANCH  12  13
ATOM     13  C   UNL     1      -0.937 -21.924  -1.893  1.00  0.00     0.053 C 
BRANCH  13  14
ATOM     14  C   UNL     1       0.460 -21.651  -1.431  1.00  0.00     0.041 C 
ATOM     15  O   UNL     1       1.324 -22.567  -1.453  1.00  0.00    -0.550 OA
ATOM     16  O   UNL     1       0.801 -20.396  -0.946  1.00  0.00    -0.550 OA
ENDBRANCH  13  14
ENDBRANCH  12  13
ENDBRANCH  11  12
ENDBRANCH  10  11
ENDBRANCH   9  10
ENDBRANCH   8   9
ENDBRANCH   7   8
ENDBRANCH   6   7
ENDBRANCH   5   6
ENDBRANCH   4   5
ENDBRANCH   3   4
ENDBRANCH   2   3
ENDBRANCH   1   2
BRANCH   1  17
ATOM     17  C   UNL     1       2.197 -25.751  -6.933  1.00  0.00     0.000 C 
BRANCH  17  18
ATOM     18  C   UNL     1       2.911 -27.022  -6.439  1.00  0.00     0.000 C 
BRANCH  18  19
ATOM     19  C   UNL     1       2.339 -28.319  -7.047  1.00  0.00     0.000 C 
BRANCH  19  20
ATOM     20  C   UNL     1       2.346 -29.544  -6.112  1.00  0.00     0.000 C 
BRANCH  20  21
ATOM     21  C   UNL     1       2.832 -30.827  -6.802  1.00  0.00     0.000 C 
BRANCH  21  22
ATOM     22  C   UNL     1       2.099 -32.058  -6.246  1.00  0.00    -0.000 C 
BRANCH  22  23
ATOM     23  C   UNL     1       0.682 -31.738  -5.738  1.00  0.00    -0.000 C 
BRANCH  23  24
ATOM     24  C   UNL     1       0.613 -31.094  -4.336  1.00  0.00    -0.000 C 
BRANCH  24  25
ATOM     25  C   UNL     1      -0.701 -31.373  -3.575  1.00  0.00    -0.000 C 
BRANCH  25  26
ATOM     26  C   UNL     1      -1.936 -30.826  -4.315  1.00  0.00    -0.000 C 
BRANCH  26  27
ATOM     27  C   UNL     1      -3.077 -31.849  -4.416  1.00  0.00    -0.000 C 
BRANCH  27  28
ATOM     28  C   UNL     1      -4.035 -31.585  -5.596  1.00  0.00    -0.000 C 
BRANCH  28  29
ATOM     29  C   UNL     1      -3.453 -32.071  -6.930  1.00  0.00    -0.003 C 
ATOM     30  C   UNL     1      -4.276 -31.563  -8.111  1.00  0.00     0.004 C 
ENDBRANCH  28  29
ENDBRANCH  27  28
ENDBRANCH  26  27
ENDBRANCH  25  26
ENDBRANCH  24  25
ENDBRANCH  23  24
ENDBRANCH  22  23
ENDBRANCH  21  22
ENDBRANCH  20  21
ENDBRANCH  19  20
ENDBRANCH  18  19
ENDBRANCH  17  18
ENDBRANCH   1  17
TORSDOF 26
ENDMDL
