MODEL 1
REMARK VINA RESULT:    -2.330      0.000      0.000
REMARK INTER + INTRA:          -5.503
REMARK INTER:                  -4.236
REMARK INTRA:                  -1.267
REMARK UNBOUND:                -1.267
REMARK SMILES CCCCCCCCCCCCCCCC(=O)[O-]
REMARK SMILES IDX 9 1 10 2 11 3 12 4 13 5 14 6 15 7 16 8 17 9 18 10 8 11 7 12
REMARK SMILES IDX 6 13 5 14 4 15 3 16 2 17 1 18
REMARK H PARENT
REMARK Flexibility Score: inf
ROOT
ATOM      1  C   UNL     1     -10.039   0.684 -35.361  1.00  0.00     0.000 C 
ENDROOT
BRANCH   1   2
ATOM      2  C   UNL     1     -10.050   0.802 -36.898  1.00  0.00     0.000 C 
BRANCH   2   3
ATOM      3  C   UNL     1      -8.875   0.107 -37.615  1.00  0.00     0.000 C 
BRANCH   3   4
ATOM      4  C   UNL     1      -9.195  -0.417 -39.026  1.00  0.00     0.000 C 
BRANCH   4   5
ATOM      5  C   UNL     1      -9.115  -1.949 -39.125  1.00  0.00     0.000 C 
BRANCH   5   6
ATOM      6  C   UNL     1      -8.950  -2.621 -37.752  1.00  0.00     0.006 C 
BRANCH   6   7
ATOM      7  C   UNL     1     -10.276  -3.156 -37.196  1.00  0.00     0.053 C 
BRANCH   7   8
ATOM      8  C   UNL     1     -10.377  -4.632 -37.418  1.00  0.00     0.041 C 
ATOM      9  O   UNL     1     -11.497  -5.205 -37.373  1.00  0.00    -0.550 OA
ATOM     10  O   UNL     1      -9.240  -5.370 -37.723  1.00  0.00    -0.550 OA
ENDBRANCH   7   8
ENDBRANCH   6   7
ENDBRANCH   5   6
ENDBRANCH   4   5
ENDBRANCH   3   4
ENDBRANCH   2   3
ENDBRANCH   1   2
BRANCH   1  11
ATOM     11  C   UNL     1      -9.035   1.609 -34.646  1.00  0.00     0.000 C 
BRANCH  11  12
ATOM     12  C   UNL     1      -9.655   2.571 -33.613  1.00  0.00    -0.000 C 
BRANCH  12  13
ATOM     13  C   UNL     1      -8.984   3.954 -33.528  1.00  0.00    -0.000 C 
BRANCH  13  14
ATOM     14  C   UNL     1      -9.687   5.013 -34.388  1.00  0.00    -0.000 C 
BRANCH  14  15
ATOM     15  C   UNL     1      -9.553   4.685 -35.883  1.00  0.00    -0.000 C 
BRANCH  15  16
ATOM     16  C   UNL     1     -10.912   4.528 -36.587  1.00  0.00    -0.000 C 
BRANCH  16  17
ATOM     17  C   UNL     1     -10.828   4.159 -38.079  1.00  0.00    -0.003 C 
ATOM     18  C   UNL     1     -12.096   3.486 -38.601  1.00  0.00     0.004 C 
ENDBRANCH  16  17
ENDBRANCH  15  16
ENDBRANCH  14  15
ENDBRANCH  13  14
ENDBRANCH  12  13
ENDBRANCH  11  12
ENDBRANCH   1  11
TORSDOF 14
ENDMDL
MODEL 2
REMARK VINA RESULT:    -2.196     14.276     16.526
REMARK INTER + INTRA:          -5.260
REMARK INTER:                  -4.520
REMARK INTRA:                  -0.741
REMARK UNBOUND:                -1.267
REMARK SMILES CCCCCCCCCCCCCCCC(=O)[O-]
REMARK SMILES IDX 9 1 10 2 11 3 12 4 13 5 14 6 15 7 16 8 17 9 18 10 8 11 7 12
REMARK SMILES IDX 6 13 5 14 4 15 3 16 2 17 1 18
REMARK H PARENT
REMARK Flexibility Score: inf
ROOT
ATOM      1  C   UNL     1     -23.311   1.778 -33.049  1.00  0.00     0.000 C 
ENDROOT
BRANCH   1   2
ATOM      2  C   UNL     1     -24.784   2.229 -32.989  1.00  0.00     0.000 C 
BRANCH   2   3
ATOM      3  C   UNL     1     -25.023   3.588 -32.300  1.00  0.00     0.000 C 
BRANCH   3   4
ATOM      4  C   UNL     1     -26.024   4.511 -33.019  1.00  0.00     0.000 C 
BRANCH   4   5
ATOM      5  C   UNL     1     -27.191   3.741 -33.658  1.00  0.00     0.000 C 
BRANCH   5   6
ATOM      6  C   UNL     1     -28.399   4.643 -33.958  1.00  0.00     0.006 C 
BRANCH   6   7
ATOM      7  C   UNL     1     -29.124   4.244 -35.250  1.00  0.00     0.053 C 
BRANCH   7   8
ATOM      8  C   UNL     1     -28.385   4.761 -36.444  1.00  0.00     0.041 C 
ATOM      9  O   UNL     1     -27.138   4.922 -36.396  1.00  0.00    -0.550 OA
ATOM     10  O   UNL     1     -29.068   5.018 -37.627  1.00  0.00    -0.550 OA
ENDBRANCH   7   8
ENDBRANCH   6   7
ENDBRANCH   5   6
ENDBRANCH   4   5
ENDBRANCH   3   4
ENDBRANCH   2   3
ENDBRANCH   1   2
BRANCH   1  11
ATOM     11  C   UNL     1     -22.807   1.392 -34.453  1.00  0.00     0.000 C 
BRANCH  11  12
ATOM     12  C   UNL     1     -22.412   2.580 -35.354  1.00  0.00    -0.000 C 
BRANCH  12  13
ATOM     13  C   UNL     1     -22.852   3.962 -34.838  1.00  0.00    -0.000 C 
BRANCH  13  14
ATOM     14  C   UNL     1     -23.674   4.750 -35.867  1.00  0.00    -0.000 C 
BRANCH  14  15
ATOM     15  C   UNL     1     -22.816   5.125 -37.085  1.00  0.00    -0.000 C 
BRANCH  15  16
ATOM     16  C   UNL     1     -23.356   4.541 -38.403  1.00  0.00    -0.000 C 
BRANCH  16  17
ATOM     17  C   UNL     1     -22.458   3.474 -39.054  1.00  0.00    -0.003 C 
ATOM     18  C   UNL     1     -23.100   2.089 -39.085  1.00  0.00     0.004 C 
ENDBRANCH  16  17
ENDBRANCH  15  16
ENDBRANCH  14  15
ENDBRANCH  13  14
ENDBRANCH  12  13
ENDBRANCH  11  12
ENDBRANCH   1  11
TORSDOF 14
ENDMDL
MODEL 3
REMARK VINA RESULT:    -2.160     13.336     15.116
REMARK INTER + INTRA:          -5.194
REMARK INTER:                  -4.228
REMARK INTRA:                  -0.966
REMARK UNBOUND:                -1.267
REMARK SMILES CCCCCCCCCCCCCCCC(=O)[O-]
REMARK SMILES IDX 9 1 10 2 11 3 12 4 13 5 14 6 15 7 16 8 17 9 18 10 8 11 7 12
REMARK SMILES IDX 6 13 5 14 4 15 3 16 2 17 1 18
REMARK H PARENT
REMARK Flexibility Score: inf
ROOT
ATOM      1  C   UNL     1     -23.222   1.428 -33.249  1.00  0.00     0.000 C 
ENDROOT
BRANCH   1   2
ATOM      2  C   UNL     1     -22.440   2.393 -34.164  1.00  0.00     0.000 C 
BRANCH   2   3
ATOM      3  C   UNL     1     -22.521   2.074 -35.670  1.00  0.00     0.000 C 
BRANCH   3   4
ATOM      4  C   UNL     1     -22.837   3.281 -36.572  1.00  0.00     0.000 C 
BRANCH   4   5
ATOM      5  C   UNL     1     -22.886   2.912 -38.064  1.00  0.00     0.000 C 
BRANCH   5   6
ATOM      6  C   UNL     1     -23.419   1.491 -38.303  1.00  0.00     0.006 C 
BRANCH   6   7
ATOM      7  C   UNL     1     -22.451   0.629 -39.124  1.00  0.00     0.053 C 
BRANCH   7   8
ATOM      8  C   UNL     1     -22.521  -0.799 -38.683  1.00  0.00     0.041 C 
ATOM      9  O   UNL     1     -21.661  -1.258 -37.886  1.00  0.00    -0.550 OA
ATOM     10  O   UNL     1     -23.564  -1.610 -39.112  1.00  0.00    -0.550 OA
ENDBRANCH   7   8
ENDBRANCH   6   7
ENDBRANCH   5   6
ENDBRANCH   4   5
ENDBRANCH   3   4
ENDBRANCH   2   3
ENDBRANCH   1   2
BRANCH   1  11
ATOM     11  C   UNL     1     -24.576   1.965 -32.746  1.00  0.00     0.000 C 
BRANCH  11  12
ATOM     12  C   UNL     1     -24.675   3.501 -32.654  1.00  0.00    -0.000 C 
BRANCH  12  13
ATOM     13  C   UNL     1     -25.479   4.170 -33.783  1.00  0.00    -0.000 C 
BRANCH  13  14
ATOM     14  C   UNL     1     -26.917   3.643 -33.885  1.00  0.00    -0.000 C 
BRANCH  14  15
ATOM     15  C   UNL     1     -27.856   4.717 -34.457  1.00  0.00    -0.000 C 
BRANCH  15  16
ATOM     16  C   UNL     1     -27.643   4.958 -35.962  1.00  0.00    -0.000 C 
BRANCH  16  17
ATOM     17  C   UNL     1     -28.867   4.656 -36.845  1.00  0.00    -0.003 C 
ATOM     18  C   UNL     1     -28.521   4.535 -38.328  1.00  0.00     0.004 C 
ENDBRANCH  16  17
ENDBRANCH  15  16
ENDBRANCH  14  15
ENDBRANCH  13  14
ENDBRANCH  12  13
ENDBRANCH  11  12
ENDBRANCH   1  11
TORSDOF 14
ENDMDL
MODEL 4
REMARK VINA RESULT:    -2.150     14.094     16.448
REMARK INTER + INTRA:          -5.177
REMARK INTER:                  -3.869
REMARK INTRA:                  -1.307
REMARK UNBOUND:                -1.267
REMARK SMILES CCCCCCCCCCCCCCCC(=O)[O-]
REMARK SMILES IDX 9 1 10 2 11 3 12 4 13 5 14 6 15 7 16 8 17 9 18 10 8 11 7 12
REMARK SMILES IDX 6 13 5 14 4 15 3 16 2 17 1 18
REMARK H PARENT
REMARK Flexibility Score: inf
ROOT
ATOM      1  C   UNL     1     -22.776   1.466 -34.778  1.00  0.00     0.000 C 
ENDROOT
BRANCH   1   2
ATOM      2  C   UNL     1     -22.379   2.881 -34.311  1.00  0.00     0.000 C 
BRANCH   2   3
ATOM      3  C   UNL     1     -23.558   3.791 -33.910  1.00  0.00     0.000 C 
BRANCH   3   4
ATOM      4  C   UNL     1     -24.608   3.128 -33.001  1.00  0.00     0.000 C 
BRANCH   4   5
ATOM      5  C   UNL     1     -25.391   4.147 -32.156  1.00  0.00     0.000 C 
BRANCH   5   6
ATOM      6  C   UNL     1     -26.439   4.914 -32.978  1.00  0.00     0.006 C 
BRANCH   6   7
ATOM      7  C   UNL     1     -26.796   4.202 -34.289  1.00  0.00     0.053 C 
BRANCH   7   8
ATOM      8  C   UNL     1     -28.245   4.394 -34.609  1.00  0.00     0.041 C 
ATOM      9  O   UNL     1     -29.110   4.320 -33.697  1.00  0.00    -0.550 OA
ATOM     10  O   UNL     1     -28.636   4.703 -35.906  1.00  0.00    -0.550 OA
ENDBRANCH   7   8
ENDBRANCH   6   7
ENDBRANCH   5   6
ENDBRANCH   4   5
ENDBRANCH   3   4
ENDBRANCH   2   3
ENDBRANCH   1   2
BRANCH   1  11
ATOM     11  C   UNL     1     -22.731   1.250 -36.303  1.00  0.00     0.000 C 
BRANCH  11  12
ATOM     12  C   UNL     1     -22.211   2.452 -37.118  1.00  0.00    -0.000 C 
BRANCH  12  13
ATOM     13  C   UNL     1     -23.023   2.780 -38.384  1.00  0.00    -0.000 C 
BRANCH  13  14
ATOM     14  C   UNL     1     -22.986   4.270 -38.748  1.00  0.00    -0.000 C 
BRANCH  14  15
ATOM     15  C   UNL     1     -23.615   5.123 -37.635  1.00  0.00    -0.000 C 
BRANCH  15  16
ATOM     16  C   UNL     1     -25.152   5.066 -37.632  1.00  0.00    -0.000 C 
BRANCH  16  17
ATOM     17  C   UNL     1     -25.804   5.124 -39.025  1.00  0.00    -0.003 C 
ATOM     18  C   UNL     1     -27.163   4.428 -39.080  1.00  0.00     0.004 C 
ENDBRANCH  16  17
ENDBRANCH  15  16
ENDBRANCH  14  15
ENDBRANCH  13  14
ENDBRANCH  12  13
ENDBRANCH  11  12
ENDBRANCH   1  11
TORSDOF 14
ENDMDL
MODEL 5
REMARK VINA RESULT:    -1.999     13.922     16.325
REMARK INTER + INTRA:          -4.901
REMARK INTER:                  -4.411
REMARK INTRA:                  -0.490
REMARK UNBOUND:                -1.267
REMARK SMILES CCCCCCCCCCCCCCCC(=O)[O-]
REMARK SMILES IDX 9 1 10 2 11 3 12 4 13 5 14 6 15 7 16 8 17 9 18 10 8 11 7 12
REMARK SMILES IDX 6 13 5 14 4 15 3 16 2 17 1 18
REMARK H PARENT
REMARK Flexibility Score: inf
ROOT
ATOM      1  C   UNL     1     -23.287   1.864 -33.822  1.00  0.00     0.000 C 
ENDROOT
BRANCH   1   2
ATOM      2  C   UNL     1     -24.617   2.261 -33.149  1.00  0.00     0.000 C 
BRANCH   2   3
ATOM      3  C   UNL     1     -24.598   3.619 -32.417  1.00  0.00     0.000 C 
BRANCH   3   4
ATOM      4  C   UNL     1     -25.346   4.754 -33.139  1.00  0.00     0.000 C 
BRANCH   4   5
ATOM      5  C   UNL     1     -26.723   5.046 -32.520  1.00  0.00     0.000 C 
BRANCH   5   6
ATOM      6  C   UNL     1     -27.839   5.124 -33.574  1.00  0.00     0.006 C 
BRANCH   6   7
ATOM      7  C   UNL     1     -27.677   4.075 -34.682  1.00  0.00     0.053 C 
BRANCH   7   8
ATOM      8  C   UNL     1     -27.477   4.742 -36.006  1.00  0.00     0.041 C 
ATOM      9  O   UNL     1     -28.467   5.016 -36.734  1.00  0.00    -0.550 OA
ATOM     10  O   UNL     1     -26.200   5.107 -36.416  1.00  0.00    -0.550 OA
ENDBRANCH   7   8
ENDBRANCH   6   7
ENDBRANCH   5   6
ENDBRANCH   4   5
ENDBRANCH   3   4
ENDBRANCH   2   3
ENDBRANCH   1   2
BRANCH   1  11
ATOM     11  C   UNL     1     -22.370   3.045 -34.194  1.00  0.00     0.000 C 
BRANCH  11  12
ATOM     12  C   UNL     1     -22.947   4.012 -35.248  1.00  0.00    -0.000 C 
BRANCH  12  13
ATOM     13  C   UNL     1     -22.543   3.708 -36.701  1.00  0.00    -0.000 C 
BRANCH  13  14
ATOM     14  C   UNL     1     -23.736   3.713 -37.667  1.00  0.00    -0.000 C 
BRANCH  14  15
ATOM     15  C   UNL     1     -23.431   2.878 -38.921  1.00  0.00    -0.000 C 
BRANCH  15  16
ATOM     16  C   UNL     1     -22.547   1.653 -38.626  1.00  0.00    -0.000 C 
BRANCH  16  17
ATOM     17  C   UNL     1     -23.114   0.312 -39.124  1.00  0.00    -0.003 C 
ATOM     18  C   UNL     1     -22.285  -0.891 -38.677  1.00  0.00     0.004 C 
ENDBRANCH  16  17
ENDBRANCH  15  16
ENDBRANCH  14  15
ENDBRANCH  13  14
ENDBRANCH  12  13
ENDBRANCH  11  12
ENDBRANCH   1  11
TORSDOF 14
ENDMDL
MODEL 6
REMARK VINA RESULT:    -1.975     14.339     16.811
REMARK INTER + INTRA:          -4.858
REMARK INTER:                  -3.995
REMARK INTRA:                  -0.863
REMARK UNBOUND:                -1.267
REMARK SMILES CCCCCCCCCCCCCCCC(=O)[O-]
REMARK SMILES IDX 9 1 10 2 11 3 12 4 13 5 14 6 15 7 16 8 17 9 18 10 8 11 7 12
REMARK SMILES IDX 6 13 5 14 4 15 3 16 2 17 1 18
REMARK H PARENT
REMARK Flexibility Score: inf
ROOT
ATOM      1  C   UNL     1     -23.908   3.425 -33.809  1.00  0.00     0.000 C 
ENDROOT
BRANCH   1   2
ATOM      2  C   UNL     1     -25.254   2.734 -33.514  1.00  0.00     0.000 C 
BRANCH   2   3
ATOM      3  C   UNL     1     -26.456   3.687 -33.356  1.00  0.00     0.000 C 
BRANCH   3   4
ATOM      4  C   UNL     1     -27.787   3.148 -33.909  1.00  0.00     0.000 C 
BRANCH   4   5
ATOM      5  C   UNL     1     -28.755   4.269 -34.326  1.00  0.00     0.000 C 
BRANCH   5   6
ATOM      6  C   UNL     1     -28.208   5.120 -35.483  1.00  0.00     0.006 C 
BRANCH   6   7
ATOM      7  C   UNL     1     -29.024   4.956 -36.772  1.00  0.00     0.053 C 
BRANCH   7   8
ATOM      8  C   UNL     1     -28.115   4.836 -37.954  1.00  0.00     0.041 C 
ATOM      9  O   UNL     1     -28.584   4.562 -39.089  1.00  0.00    -0.550 OA
ATOM     10  O   UNL     1     -26.754   5.077 -37.811  1.00  0.00    -0.550 OA
ENDBRANCH   7   8
ENDBRANCH   6   7
ENDBRANCH   5   6
ENDBRANCH   4   5
ENDBRANCH   3   4
ENDBRANCH   2   3
ENDBRANCH   1   2
BRANCH   1  11
ATOM     11  C   UNL     1     -22.778   2.479 -34.260  1.00  0.00     0.000 C 
BRANCH  11  12
ATOM     12  C   UNL     1     -22.631   2.320 -35.787  1.00  0.00    -0.000 C 
BRANCH  12  13
ATOM     13  C   UNL     1     -22.857   3.608 -36.600  1.00  0.00    -0.000 C 
BRANCH  13  14
ATOM     14  C   UNL     1     -22.623   3.414 -38.104  1.00  0.00    -0.000 C 
BRANCH  14  15
ATOM     15  C   UNL     1     -23.494   2.274 -38.653  1.00  0.00    -0.000 C 
BRANCH  15  16
ATOM     16  C   UNL     1     -22.670   1.063 -39.125  1.00  0.00    -0.000 C 
BRANCH  16  17
ATOM     17  C   UNL     1     -23.038  -0.272 -38.453  1.00  0.00    -0.003 C 
ATOM     18  C   UNL     1     -21.946  -1.331 -38.585  1.00  0.00     0.004 C 
ENDBRANCH  16  17
ENDBRANCH  15  16
ENDBRANCH  14  15
ENDBRANCH  13  14
ENDBRANCH  12  13
ENDBRANCH  11  12
ENDBRANCH   1  11
TORSDOF 14
ENDMDL
MODEL 7
REMARK VINA RESULT:    -1.920     14.425     16.947
REMARK INTER + INTRA:          -4.759
REMARK INTER:                  -3.974
REMARK INTRA:                  -0.785
REMARK UNBOUND:                -1.267
REMARK SMILES CCCCCCCCCCCCCCCC(=O)[O-]
REMARK SMILES IDX 9 1 10 2 11 3 12 4 13 5 14 6 15 7 16 8 17 9 18 10 8 11 7 12
REMARK SMILES IDX 6 13 5 14 4 15 3 16 2 17 1 18
REMARK H PARENT
REMARK Flexibility Score: inf
ROOT
ATOM      1  C   UNL     1     -24.028   3.258 -38.472  1.00  0.00     0.000 C 
ENDROOT
BRANCH   1   2
ATOM      2  C   UNL     1     -24.921   4.333 -39.125  1.00  0.00     0.000 C 
BRANCH   2   3
ATOM      3  C   UNL     1     -26.125   4.786 -38.276  1.00  0.00     0.000 C 
BRANCH   3   4
ATOM      4  C   UNL     1     -27.503   4.441 -38.869  1.00  0.00     0.000 C 
BRANCH   4   5
ATOM      5  C   UNL     1     -28.664   4.801 -37.927  1.00  0.00     0.000 C 
BRANCH   5   6
ATOM      6  C   UNL     1     -28.188   5.124 -36.502  1.00  0.00     0.006 C 
BRANCH   6   7
ATOM      7  C   UNL     1     -29.119   4.548 -35.426  1.00  0.00     0.053 C 
BRANCH   7   8
ATOM      8  C   UNL     1     -28.333   4.150 -34.217  1.00  0.00     0.041 C 
ATOM      9  O   UNL     1     -28.263   2.940 -33.878  1.00  0.00    -0.550 OA
ATOM     10  O   UNL     1     -27.638   5.109 -33.491  1.00  0.00    -0.550 OA
ENDBRANCH   7   8
ENDBRANCH   6   7
ENDBRANCH   5   6
ENDBRANCH   4   5
ENDBRANCH   3   4
ENDBRANCH   2   3
ENDBRANCH   1   2
BRANCH   1  11
ATOM     11  C   UNL     1     -22.516   3.546 -38.533  1.00  0.00     0.000 C 
BRANCH  11  12
ATOM     12  C   UNL     1     -21.975   4.440 -37.399  1.00  0.00    -0.000 C 
BRANCH  12  13
ATOM     13  C   UNL     1     -23.053   5.092 -36.515  1.00  0.00    -0.000 C 
BRANCH  13  14
ATOM     14  C   UNL     1     -22.996   4.619 -35.056  1.00  0.00    -0.000 C 
BRANCH  14  15
ATOM     15  C   UNL     1     -22.801   3.097 -34.980  1.00  0.00    -0.000 C 
BRANCH  15  16
ATOM     16  C   UNL     1     -24.100   2.312 -35.232  1.00  0.00    -0.000 C 
BRANCH  16  17
ATOM     17  C   UNL     1     -25.096   2.314 -34.058  1.00  0.00    -0.003 C 
ATOM     18  C   UNL     1     -24.456   2.719 -32.732  1.00  0.00     0.004 C 
ENDBRANCH  16  17
ENDBRANCH  15  16
ENDBRANCH  14  15
ENDBRANCH  13  14
ENDBRANCH  12  13
ENDBRANCH  11  12
ENDBRANCH   1  11
TORSDOF 14
ENDMDL
MODEL 8
REMARK VINA RESULT:    -1.907      2.891      7.132
REMARK INTER + INTRA:          -4.735
REMARK INTER:                  -3.663
REMARK INTRA:                  -1.072
REMARK UNBOUND:                -1.267
REMARK SMILES CCCCCCCCCCCCCCCC(=O)[O-]
REMARK SMILES IDX 9 1 10 2 11 3 12 4 13 5 14 6 15 7 16 8 17 9 18 10 8 11 7 12
REMARK SMILES IDX 6 13 5 14 4 15 3 16 2 17 1 18
REMARK H PARENT
REMARK Flexibility Score: inf
ROOT
ATOM      1  C   UNL     1     -10.206   0.220 -35.748  1.00  0.00     0.000 C 
ENDROOT
BRANCH   1   2
ATOM      2  C   UNL     1     -10.052   1.362 -34.724  1.00  0.00     0.000 C 
BRANCH   2   3
ATOM      3  C   UNL     1      -8.900   2.346 -35.010  1.00  0.00     0.000 C 
BRANCH   3   4
ATOM      4  C   UNL     1      -9.031   3.716 -34.320  1.00  0.00     0.000 C 
BRANCH   4   5
ATOM      5  C   UNL     1      -9.961   4.678 -35.077  1.00  0.00     0.000 C 
BRANCH   5   6
ATOM      6  C   UNL     1      -9.579   4.824 -36.559  1.00  0.00     0.006 C 
BRANCH   6   7
ATOM      7  C   UNL     1     -10.805   4.900 -37.479  1.00  0.00     0.053 C 
BRANCH   7   8
ATOM      8  C   UNL     1     -11.142   3.544 -38.013  1.00  0.00     0.041 C 
ATOM      9  O   UNL     1     -10.551   3.100 -39.032  1.00  0.00    -0.550 OA
ATOM     10  O   UNL     1     -12.073   2.749 -37.357  1.00  0.00    -0.550 OA
ENDBRANCH   7   8
ENDBRANCH   6   7
ENDBRANCH   5   6
ENDBRANCH   4   5
ENDBRANCH   3   4
ENDBRANCH   2   3
ENDBRANCH   1   2
BRANCH   1  11
ATOM     11  C   UNL     1      -9.155   0.214 -36.875  1.00  0.00     0.000 C 
BRANCH  11  12
ATOM     12  C   UNL     1      -9.710  -0.083 -38.283  1.00  0.00    -0.000 C 
BRANCH  12  13
ATOM     13  C   UNL     1      -8.973  -1.194 -39.052  1.00  0.00    -0.000 C 
BRANCH  13  14
ATOM     14  C   UNL     1      -8.875  -2.505 -38.260  1.00  0.00    -0.000 C 
BRANCH  14  15
ATOM     15  C   UNL     1      -9.298  -3.702 -39.125  1.00  0.00    -0.000 C 
BRANCH  15  16
ATOM     16  C   UNL     1     -10.637  -4.319 -38.682  1.00  0.00    -0.000 C 
BRANCH  16  17
ATOM     17  C   UNL     1     -10.733  -4.644 -37.180  1.00  0.00    -0.003 C 
ATOM     18  C   UNL     1     -11.079  -3.427 -36.325  1.00  0.00     0.004 C 
ENDBRANCH  16  17
ENDBRANCH  15  16
ENDBRANCH  14  15
ENDBRANCH  13  14
ENDBRANCH  12  13
ENDBRANCH  11  12
ENDBRANCH   1  11
TORSDOF 14
ENDMDL
