MODEL 1
REMARK VINA RESULT:    -5.066      0.000      0.000
REMARK INTER + INTRA:          -5.362
REMARK INTER:                  -5.362
REMARK INTRA:                   0.000
REMARK UNBOUND:                 0.000
REMARK SMILES O=c1ccc2cc(O)c(O)cc2o1
REMARK SMILES IDX 4 1 3 2 2 3 1 4 13 5 12 6 11 7 9 8 7 9 6 10 5 11 8 12 10 14
REMARK H PARENT 8 13 10 15
REMARK Flexibility Score: inf
ROOT
ATOM      1  C   UNL     1      68.945  50.872  18.875  1.00  0.00     0.019 A 
ATOM      2  C   UNL     1      69.376  51.724  17.858  1.00  0.00     0.094 A 
ATOM      3  C   UNL     1      70.347  52.690  18.149  1.00  0.00     0.336 A 
ATOM      4  O   UNL     1      70.749  53.468  17.245  1.00  0.00    -0.246 OA
ATOM      5  O   UNL     1      70.850  52.790  19.376  1.00  0.00    -0.423 OA
ATOM      6  C   UNL     1      70.466  51.998  20.375  1.00  0.00     0.142 A 
ATOM      7  C   UNL     1      71.029  52.150  21.645  1.00  0.00     0.098 A 
ATOM      8  C   UNL     1      70.632  51.320  22.700  1.00  0.00     0.161 A 
ATOM      9  C   UNL     1      69.660  50.326  22.484  1.00  0.00     0.158 A 
ATOM     10  C   UNL     1      69.091  50.169  21.210  1.00  0.00     0.062 A 
ATOM     11  C   UNL     1      69.491  51.001  20.155  1.00  0.00     0.022 A 
ENDROOT
BRANCH   9  12
ATOM     12  O   UNL     1      69.262  49.499  23.533  1.00  0.00    -0.504 OA
ATOM     13  H   UNL     1      68.573  48.768  23.401  1.00  0.00     0.293 HD
ENDBRANCH   9  12
BRANCH   8  14
ATOM     14  O   UNL     1      71.213  51.498  23.955  1.00  0.00    -0.504 OA
ATOM     15  H   UNL     1      70.671  51.449  24.811  1.00  0.00     0.293 HD
ENDBRANCH   8  14
TORSDOF 2
ENDMDL
MODEL 2
REMARK VINA RESULT:    -4.906      1.782      2.712
REMARK INTER + INTRA:          -5.193
REMARK INTER:                  -5.193
REMARK INTRA:                   0.000
REMARK UNBOUND:                 0.000
REMARK SMILES O=c1ccc2cc(O)c(O)cc2o1
REMARK SMILES IDX 4 1 3 2 2 3 1 4 13 5 12 6 11 7 9 8 7 9 6 10 5 11 8 12 10 14
REMARK H PARENT 8 13 10 15
REMARK Flexibility Score: inf
ROOT
ATOM      1  C   UNL     1      69.454  52.794  17.118  1.00  0.00     0.019 A 
ATOM      2  C   UNL     1      70.611  53.569  17.048  1.00  0.00     0.094 A 
ATOM      3  C   UNL     1      71.503  53.556  18.127  1.00  0.00     0.336 A 
ATOM      4  O   UNL     1      72.553  54.249  18.083  1.00  0.00    -0.246 OA
ATOM      5  O   UNL     1      71.248  52.814  19.202  1.00  0.00    -0.423 OA
ATOM      6  C   UNL     1      70.156  52.061  19.309  1.00  0.00     0.142 A 
ATOM      7  C   UNL     1      69.940  51.302  20.463  1.00  0.00     0.098 A 
ATOM      8  C   UNL     1      68.794  50.507  20.584  1.00  0.00     0.161 A 
ATOM      9  C   UNL     1      67.852  50.469  19.539  1.00  0.00     0.158 A 
ATOM     10  C   UNL     1      68.064  51.229  18.379  1.00  0.00     0.062 A 
ATOM     11  C   UNL     1      69.212  52.024  18.260  1.00  0.00     0.022 A 
ENDROOT
BRANCH   9  12
ATOM     12  O   UNL     1      66.710  49.678  19.658  1.00  0.00    -0.504 OA
ATOM     13  H   UNL     1      66.746  48.753  20.070  1.00  0.00     0.293 HD
ENDBRANCH   9  12
BRANCH   8  14
ATOM     14  O   UNL     1      68.609  49.763  21.748  1.00  0.00    -0.504 OA
ATOM     15  H   UNL     1      67.692  49.445  22.044  1.00  0.00     0.293 HD
ENDBRANCH   8  14
TORSDOF 2
ENDMDL
MODEL 3
REMARK VINA RESULT:    -4.805      1.541      4.383
REMARK INTER + INTRA:          -5.086
REMARK INTER:                  -5.086
REMARK INTRA:                   0.000
REMARK UNBOUND:                 0.000
REMARK SMILES O=c1ccc2cc(O)c(O)cc2o1
REMARK SMILES IDX 4 1 3 2 2 3 1 4 13 5 12 6 11 7 9 8 7 9 6 10 5 11 8 12 10 14
REMARK H PARENT 8 13 10 15
REMARK Flexibility Score: inf
ROOT
ATOM      1  C   UNL     1      69.381  50.228  22.325  1.00  0.00     0.019 A 
ATOM      2  C   UNL     1      70.332  50.601  23.274  1.00  0.00     0.094 A 
ATOM      3  C   UNL     1      71.293  51.559  22.932  1.00  0.00     0.336 A 
ATOM      4  O   UNL     1      72.159  51.909  23.775  1.00  0.00    -0.246 OA
ATOM      5  O   UNL     1      71.297  52.104  21.718  1.00  0.00    -0.423 OA
ATOM      6  C   UNL     1      70.409  51.776  20.783  1.00  0.00     0.142 A 
ATOM      7  C   UNL     1      70.462  52.382  19.524  1.00  0.00     0.098 A 
ATOM      8  C   UNL     1      69.531  52.042  18.535  1.00  0.00     0.161 A 
ATOM      9  C   UNL     1      68.534  51.087  18.806  1.00  0.00     0.158 A 
ATOM     10  C   UNL     1      68.477  50.476  20.068  1.00  0.00     0.062 A 
ATOM     11  C   UNL     1      69.410  50.817  21.057  1.00  0.00     0.022 A 
ENDROOT
BRANCH   9  12
ATOM     12  O   UNL     1      67.607  50.747  17.822  1.00  0.00    -0.504 OA
ATOM     13  H   UNL     1      66.617  50.684  18.026  1.00  0.00     0.293 HD
ENDBRANCH   9  12
BRANCH   8  14
ATOM     14  O   UNL     1      69.612  52.665  17.290  1.00  0.00    -0.504 OA
ATOM     15  H   UNL     1      69.796  52.145  16.439  1.00  0.00     0.293 HD
ENDBRANCH   8  14
TORSDOF 2
ENDMDL
MODEL 4
REMARK VINA RESULT:    -4.776      1.506      1.591
REMARK INTER + INTRA:          -5.055
REMARK INTER:                  -5.055
REMARK INTRA:                   0.000
REMARK UNBOUND:                 0.000
REMARK SMILES O=c1ccc2cc(O)c(O)cc2o1
REMARK SMILES IDX 4 1 3 2 2 3 1 4 13 5 12 6 11 7 9 8 7 9 6 10 5 11 8 12 10 14
REMARK H PARENT 8 13 10 15
REMARK Flexibility Score: inf
ROOT
ATOM      1  C   UNL     1      68.601  50.506  20.175  1.00  0.00     0.019 A 
ATOM      2  C   UNL     1      68.256  51.517  19.279  1.00  0.00     0.094 A 
ATOM      3  C   UNL     1      68.724  52.816  19.510  1.00  0.00     0.336 A 
ATOM      4  O   UNL     1      68.424  53.743  18.713  1.00  0.00    -0.246 OA
ATOM      5  O   UNL     1      69.485  53.079  20.569  1.00  0.00    -0.423 OA
ATOM      6  C   UNL     1      69.837  52.143  21.448  1.00  0.00     0.142 A 
ATOM      7  C   UNL     1      70.639  52.478  22.543  1.00  0.00     0.098 A 
ATOM      8  C   UNL     1      71.014  51.500  23.472  1.00  0.00     0.161 A 
ATOM      9  C   UNL     1      70.583  50.171  23.305  1.00  0.00     0.158 A 
ATOM     10  C   UNL     1      69.777  49.831  22.208  1.00  0.00     0.062 A 
ATOM     11  C   UNL     1      69.403  50.811  21.279  1.00  0.00     0.022 A 
ENDROOT
BRANCH   9  12
ATOM     12  O   UNL     1      70.954  49.196  24.229  1.00  0.00    -0.504 OA
ATOM     13  H   UNL     1      70.895  49.361  25.227  1.00  0.00     0.293 HD
ENDBRANCH   9  12
BRANCH   8  14
ATOM     14  O   UNL     1      71.815  51.867  24.552  1.00  0.00    -0.504 OA
ATOM     15  H   UNL     1      71.626  52.695  25.106  1.00  0.00     0.293 HD
ENDBRANCH   8  14
TORSDOF 2
ENDMDL
MODEL 5
REMARK VINA RESULT:    -4.713      1.857      2.644
REMARK INTER + INTRA:          -4.988
REMARK INTER:                  -4.988
REMARK INTRA:                   0.000
REMARK UNBOUND:                 0.000
REMARK SMILES O=c1ccc2cc(O)c(O)cc2o1
REMARK SMILES IDX 4 1 3 2 2 3 1 4 13 5 12 6 11 7 9 8 7 9 6 10 5 11 8 12 10 14
REMARK H PARENT 8 13 10 15
REMARK Flexibility Score: inf
ROOT
ATOM      1  C   UNL     1      69.331  53.101  20.239  1.00  0.00     0.019 A 
ATOM      2  C   UNL     1      68.572  52.655  19.158  1.00  0.00     0.094 A 
ATOM      3  C   UNL     1      68.216  51.303  19.092  1.00  0.00     0.336 A 
ATOM      4  O   UNL     1      67.532  50.880  18.124  1.00  0.00    -0.246 OA
ATOM      5  O   UNL     1      68.595  50.459  20.048  1.00  0.00    -0.423 OA
ATOM      6  C   UNL     1      69.320  50.844  21.097  1.00  0.00     0.142 A 
ATOM      7  C   UNL     1      69.691  49.913  22.071  1.00  0.00     0.098 A 
ATOM      8  C   UNL     1      70.452  50.310  23.177  1.00  0.00     0.161 A 
ATOM      9  C   UNL     1      70.847  51.653  23.311  1.00  0.00     0.158 A 
ATOM     10  C   UNL     1      70.478  52.592  22.335  1.00  0.00     0.062 A 
ATOM     11  C   UNL     1      69.716  52.193  21.229  1.00  0.00     0.022 A 
ENDROOT
BRANCH   9  12
ATOM     12  O   UNL     1      71.606  52.050  24.411  1.00  0.00    -0.504 OA
ATOM     13  H   UNL     1      71.211  52.084  25.344  1.00  0.00     0.293 HD
ENDBRANCH   9  12
BRANCH   8  14
ATOM     14  O   UNL     1      70.805  49.356  24.131  1.00  0.00    -0.504 OA
ATOM     15  H   UNL     1      71.061  49.612  25.078  1.00  0.00     0.293 HD
ENDBRANCH   8  14
TORSDOF 2
ENDMDL
MODEL 6
REMARK VINA RESULT:    -4.682      3.873      5.470
REMARK INTER + INTRA:          -4.956
REMARK INTER:                  -4.956
REMARK INTRA:                   0.000
REMARK UNBOUND:                 0.000
REMARK SMILES O=c1ccc2cc(O)c(O)cc2o1
REMARK SMILES IDX 4 1 3 2 2 3 1 4 13 5 12 6 11 7 9 8 7 9 6 10 5 11 8 12 10 14
REMARK H PARENT 8 13 10 15
REMARK Flexibility Score: inf
ROOT
ATOM      1  C   UNL     1      72.372  52.908  26.141  1.00  0.00     0.019 A 
ATOM      2  C   UNL     1      72.019  54.237  25.913  1.00  0.00     0.094 A 
ATOM      3  C   UNL     1      71.175  54.539  24.838  1.00  0.00     0.336 A 
ATOM      4  O   UNL     1      70.844  55.733  24.615  1.00  0.00    -0.246 OA
ATOM      5  O   UNL     1      70.719  53.571  24.047  1.00  0.00    -0.423 OA
ATOM      6  C   UNL     1      71.032  52.290  24.230  1.00  0.00     0.142 A 
ATOM      7  C   UNL     1      70.523  51.316  23.367  1.00  0.00     0.098 A 
ATOM      8  C   UNL     1      70.848  49.967  23.552  1.00  0.00     0.161 A 
ATOM      9  C   UNL     1      71.691  49.586  24.612  1.00  0.00     0.158 A 
ATOM     10  C   UNL     1      72.205  50.561  25.481  1.00  0.00     0.062 A 
ATOM     11  C   UNL     1      71.878  51.911  25.294  1.00  0.00     0.022 A 
ENDROOT
BRANCH   9  12
ATOM     12  O   UNL     1      72.015  48.243  24.798  1.00  0.00    -0.504 OA
ATOM     13  H   UNL     1      71.305  47.548  24.995  1.00  0.00     0.293 HD
ENDBRANCH   9  12
BRANCH   8  14
ATOM     14  O   UNL     1      70.323  49.019  22.673  1.00  0.00    -0.504 OA
ATOM     15  H   UNL     1      70.501  48.027  22.783  1.00  0.00     0.293 HD
ENDBRANCH   8  14
TORSDOF 2
ENDMDL
MODEL 7
REMARK VINA RESULT:    -4.648      4.041      5.785
REMARK INTER + INTRA:          -4.920
REMARK INTER:                  -4.920
REMARK INTRA:                   0.000
REMARK UNBOUND:                 0.000
REMARK SMILES O=c1ccc2cc(O)c(O)cc2o1
REMARK SMILES IDX 4 1 3 2 2 3 1 4 13 5 12 6 11 7 9 8 7 9 6 10 5 11 8 12 10 14
REMARK H PARENT 8 13 10 15
REMARK Flexibility Score: inf
ROOT
ATOM      1  C   UNL     1      70.843  53.756  24.231  1.00  0.00     0.019 A 
ATOM      2  C   UNL     1      71.346  54.673  25.153  1.00  0.00     0.094 A 
ATOM      3  C   UNL     1      72.129  54.205  26.215  1.00  0.00     0.336 A 
ATOM      4  O   UNL     1      72.592  55.017  27.058  1.00  0.00    -0.246 OA
ATOM      5  O   UNL     1      72.388  52.906  26.340  1.00  0.00    -0.423 OA
ATOM      6  C   UNL     1      71.927  51.998  25.483  1.00  0.00     0.142 A 
ATOM      7  C   UNL     1      72.231  50.646  25.665  1.00  0.00     0.098 A 
ATOM      8  C   UNL     1      71.750  49.685  24.767  1.00  0.00     0.161 A 
ATOM      9  C   UNL     1      70.957  50.080  23.674  1.00  0.00     0.158 A 
ATOM     10  C   UNL     1      70.649  51.436  23.488  1.00  0.00     0.062 A 
ATOM     11  C   UNL     1      71.131  52.397  24.387  1.00  0.00     0.022 A 
ENDROOT
BRANCH   9  12
ATOM     12  O   UNL     1      70.477  49.125  22.779  1.00  0.00    -0.504 OA
ATOM     13  H   UNL     1      70.313  49.346  21.804  1.00  0.00     0.293 HD
ENDBRANCH   9  12
BRANCH   8  14
ATOM     14  O   UNL     1      72.071  48.345  24.977  1.00  0.00    -0.504 OA
ATOM     15  H   UNL     1      71.474  47.726  25.514  1.00  0.00     0.293 HD
ENDBRANCH   8  14
TORSDOF 2
ENDMDL
MODEL 8
REMARK VINA RESULT:    -4.629      2.690      4.922
REMARK INTER + INTRA:          -4.899
REMARK INTER:                  -4.899
REMARK INTRA:                   0.000
REMARK UNBOUND:                 0.000
REMARK SMILES O=c1ccc2cc(O)c(O)cc2o1
REMARK SMILES IDX 4 1 3 2 2 3 1 4 13 5 12 6 11 7 9 8 7 9 6 10 5 11 8 12 10 14
REMARK H PARENT 8 13 10 15
REMARK Flexibility Score: inf
ROOT
ATOM      1  C   UNL     1      69.758  51.285  20.563  1.00  0.00     0.019 A 
ATOM      2  C   UNL     1      68.610  50.497  20.505  1.00  0.00     0.094 A 
ATOM      3  C   UNL     1      67.832  50.515  19.342  1.00  0.00     0.336 A 
ATOM      4  O   UNL     1      66.792  49.811  19.270  1.00  0.00    -0.246 OA
ATOM      5  O   UNL     1      68.186  51.274  18.308  1.00  0.00    -0.423 OA
ATOM      6  C   UNL     1      69.274  52.041  18.321  1.00  0.00     0.142 A 
ATOM      7  C   UNL     1      69.597  52.818  17.205  1.00  0.00     0.098 A 
ATOM      8  C   UNL     1      70.739  53.627  17.212  1.00  0.00     0.161 A 
ATOM      9  C   UNL     1      71.570  53.660  18.347  1.00  0.00     0.158 A 
ATOM     10  C   UNL     1      71.250  52.882  19.470  1.00  0.00     0.062 A 
ATOM     11  C   UNL     1      70.106  52.072  19.462  1.00  0.00     0.022 A 
ENDROOT
BRANCH   9  12
ATOM     12  O   UNL     1      72.708  54.466  18.355  1.00  0.00    -0.504 OA
ATOM     13  H   UNL     1      73.248  54.612  19.200  1.00  0.00     0.293 HD
ENDBRANCH   9  12
BRANCH   8  14
ATOM     14  O   UNL     1      71.033  54.390  16.082  1.00  0.00    -0.504 OA
ATOM     15  H   UNL     1      71.414  53.978  15.238  1.00  0.00     0.293 HD
ENDBRANCH   8  14
TORSDOF 2
ENDMDL
