MODEL 1
REMARK VINA RESULT:    -4.343      0.000      0.000
REMARK INTER + INTRA:         -10.349
REMARK INTER:                  -8.151
REMARK INTRA:                  -2.199
REMARK UNBOUND:                -2.199
REMARK SMILES CCCCCCCCC=CCCCCCCCC(=O)[O-]
REMARK SMILES IDX 10 1 9 2 11 3 12 4 13 5 14 6 15 7 16 8 17 9 18 10 19 11
REMARK SMILES IDX 20 12 8 13 7 14 6 15 5 16 4 17 3 18 2 19 1 20
REMARK H PARENT
REMARK Flexibility Score: inf
ROOT
ATOM      1  C   UNL     1       8.891  15.281  20.749  1.00  0.00    -0.031 C 
ATOM      2  C   UNL     1       9.771  15.872  19.919  1.00  0.00    -0.031 C 
ENDROOT
BRANCH   1   3
ATOM      3  C   UNL     1       8.177  15.959  21.895  1.00  0.00     0.027 C 
BRANCH   3   4
ATOM      4  C   UNL     1       6.653  16.000  21.686  1.00  0.00     0.004 C 
BRANCH   4   5
ATOM      5  C   UNL     1       6.142  15.212  20.464  1.00  0.00     0.000 C 
BRANCH   5   6
ATOM      6  C   UNL     1       5.242  14.024  20.850  1.00  0.00     0.000 C 
BRANCH   6   7
ATOM      7  C   UNL     1       5.986  12.948  21.661  1.00  0.00     0.000 C 
BRANCH   7   8
ATOM      8  C   UNL     1       5.308  12.533  22.979  1.00  0.00     0.006 C 
BRANCH   8   9
ATOM      9  C   UNL     1       6.278  12.493  24.167  1.00  0.00     0.053 C 
BRANCH   9  10
ATOM     10  C   UNL     1       6.514  13.873  24.695  1.00  0.00     0.041 C 
ATOM     11  O   UNL     1       7.685  14.265  24.938  1.00  0.00    -0.550 OA
ATOM     12  O   UNL     1       5.447  14.743  24.871  1.00  0.00    -0.550 OA
ENDBRANCH   9  10
ENDBRANCH   8   9
ENDBRANCH   7   8
ENDBRANCH   6   7
ENDBRANCH   5   6
ENDBRANCH   4   5
ENDBRANCH   3   4
ENDBRANCH   1   3
BRANCH   2  13
ATOM     13  C   UNL     1      10.227  17.309  20.000  1.00  0.00     0.027 C 
BRANCH  13  14
ATOM     14  C   UNL     1       9.273  18.289  19.300  1.00  0.00     0.004 C 
BRANCH  14  15
ATOM     15  C   UNL     1       9.203  19.647  20.013  1.00  0.00     0.000 C 
BRANCH  15  16
ATOM     16  C   UNL     1       8.311  19.571  21.257  1.00  0.00     0.000 C 
BRANCH  16  17
ATOM     17  C   UNL     1       9.140  19.733  22.539  1.00  0.00    -0.000 C 
BRANCH  17  18
ATOM     18  C   UNL     1      10.543  20.310  22.278  1.00  0.00    -0.000 C 
BRANCH  18  19
ATOM     19  C   UNL     1      10.705  21.800  22.627  1.00  0.00    -0.003 C 
ATOM     20  C   UNL     1      11.104  22.655  21.426  1.00  0.00     0.004 C 
ENDBRANCH  18  19
ENDBRANCH  17  18
ENDBRANCH  16  17
ENDBRANCH  15  16
ENDBRANCH  14  15
ENDBRANCH  13  14
ENDBRANCH   2  13
TORSDOF 15
ENDMDL
MODEL 2
REMARK VINA RESULT:    -4.333      2.619      6.910
REMARK INTER + INTRA:         -10.331
REMARK INTER:                  -7.663
REMARK INTRA:                  -2.668
REMARK UNBOUND:                -2.199
REMARK SMILES CCCCCCCCC=CCCCCCCCC(=O)[O-]
REMARK SMILES IDX 10 1 9 2 11 3 12 4 13 5 14 6 15 7 16 8 17 9 18 10 19 11
REMARK SMILES IDX 20 12 8 13 7 14 6 15 5 16 4 17 3 18 2 19 1 20
REMARK H PARENT
REMARK Flexibility Score: inf
ROOT
ATOM      1  C   UNL     1       8.309  15.962  21.721  1.00  0.00    -0.031 C 
ATOM      2  C   UNL     1       7.005  16.279  21.817  1.00  0.00    -0.031 C 
ENDROOT
BRANCH   1   3
ATOM      3  C   UNL     1       8.960  15.274  20.544  1.00  0.00     0.027 C 
BRANCH   3   4
ATOM      4  C   UNL     1       9.970  16.186  19.826  1.00  0.00     0.004 C 
BRANCH   4   5
ATOM      5  C   UNL     1       9.351  17.380  19.074  1.00  0.00     0.000 C 
BRANCH   5   6
ATOM      6  C   UNL     1       9.568  18.722  19.796  1.00  0.00     0.000 C 
BRANCH   6   7
ATOM      7  C   UNL     1       8.259  19.500  20.020  1.00  0.00     0.000 C 
BRANCH   7   8
ATOM      8  C   UNL     1       7.917  19.800  21.491  1.00  0.00     0.006 C 
BRANCH   8   9
ATOM      9  C   UNL     1       9.091  19.544  22.445  1.00  0.00     0.053 C 
BRANCH   9  10
ATOM     10  C   UNL     1       9.686  20.839  22.900  1.00  0.00     0.041 C 
ATOM     11  O   UNL     1      10.852  21.157  22.550  1.00  0.00    -0.550 OA
ATOM     12  O   UNL     1       8.935  21.717  23.671  1.00  0.00    -0.550 OA
ENDBRANCH   9  10
ENDBRANCH   8   9
ENDBRANCH   7   8
ENDBRANCH   6   7
ENDBRANCH   5   6
ENDBRANCH   4   5
ENDBRANCH   3   4
ENDBRANCH   1   3
BRANCH   2  13
ATOM     13  C   UNL     1       5.949  15.979  20.779  1.00  0.00     0.027 C 
BRANCH  13  14
ATOM     14  C   UNL     1       5.065  14.777  21.143  1.00  0.00     0.004 C 
BRANCH  14  15
ATOM     15  C   UNL     1       5.637  13.450  20.620  1.00  0.00     0.000 C 
BRANCH  15  16
ATOM     16  C   UNL     1       6.422  12.720  21.715  1.00  0.00     0.000 C 
BRANCH  16  17
ATOM     17  C   UNL     1       5.484  12.222  22.825  1.00  0.00    -0.000 C 
BRANCH  17  18
ATOM     18  C   UNL     1       6.081  12.385  24.234  1.00  0.00    -0.000 C 
BRANCH  18  19
ATOM     19  C   UNL     1       6.551  13.809  24.576  1.00  0.00    -0.003 C 
ATOM     20  C   UNL     1       5.401  14.745  24.946  1.00  0.00     0.004 C 
ENDBRANCH  18  19
ENDBRANCH  17  18
ENDBRANCH  16  17
ENDBRANCH  15  16
ENDBRANCH  14  15
ENDBRANCH  13  14
ENDBRANCH   2  13
TORSDOF 15
ENDMDL
MODEL 3
REMARK VINA RESULT:    -4.281      1.300      2.098
REMARK INTER + INTRA:         -10.233
REMARK INTER:                  -7.857
REMARK INTRA:                  -2.375
REMARK UNBOUND:                -2.199
REMARK SMILES CCCCCCCCC=CCCCCCCCC(=O)[O-]
REMARK SMILES IDX 10 1 9 2 11 3 12 4 13 5 14 6 15 7 16 8 17 9 18 10 19 11
REMARK SMILES IDX 20 12 8 13 7 14 6 15 5 16 4 17 3 18 2 19 1 20
REMARK H PARENT
REMARK Flexibility Score: inf
ROOT
ATOM      1  C   UNL     1       7.072  16.713  20.748  1.00  0.00    -0.031 C 
ATOM      2  C   UNL     1       7.440  17.538  19.750  1.00  0.00    -0.031 C 
ENDROOT
BRANCH   1   3
ATOM      3  C   UNL     1       7.991  16.162  21.813  1.00  0.00     0.027 C 
BRANCH   3   4
ATOM      4  C   UNL     1       8.506  14.755  21.463  1.00  0.00     0.004 C 
BRANCH   4   5
ATOM      5  C   UNL     1       7.588  13.937  20.535  1.00  0.00     0.000 C 
BRANCH   5   6
ATOM      6  C   UNL     1       6.900  12.763  21.255  1.00  0.00     0.000 C 
BRANCH   6   7
ATOM      7  C   UNL     1       5.449  13.079  21.663  1.00  0.00     0.000 C 
BRANCH   7   8
ATOM      8  C   UNL     1       5.111  12.817  23.142  1.00  0.00     0.006 C 
BRANCH   8   9
ATOM      9  C   UNL     1       6.356  12.652  24.022  1.00  0.00     0.053 C 
BRANCH   9  10
ATOM     10  C   UNL     1       6.680  13.938  24.714  1.00  0.00     0.041 C 
ATOM     11  O   UNL     1       5.756  14.672  25.151  1.00  0.00    -0.550 OA
ATOM     12  O   UNL     1       8.004  14.303  24.921  1.00  0.00    -0.550 OA
ENDBRANCH   9  10
ENDBRANCH   8   9
ENDBRANCH   7   8
ENDBRANCH   6   7
ENDBRANCH   5   6
ENDBRANCH   4   5
ENDBRANCH   3   4
ENDBRANCH   1   3
BRANCH   2  13
ATOM     13  C   UNL     1       8.842  18.039  19.495  1.00  0.00     0.027 C 
BRANCH  13  14
ATOM     14  C   UNL     1       8.896  19.531  19.134  1.00  0.00     0.004 C 
BRANCH  14  15
ATOM     15  C   UNL     1       9.669  20.357  20.173  1.00  0.00     0.000 C 
BRANCH  15  16
ATOM     16  C   UNL     1      10.355  19.449  21.198  1.00  0.00     0.000 C 
BRANCH  16  17
ATOM     17  C   UNL     1       9.817  19.711  22.613  1.00  0.00    -0.000 C 
BRANCH  17  18
ATOM     18  C   UNL     1       9.085  21.060  22.736  1.00  0.00    -0.000 C 
BRANCH  18  19
ATOM     19  C   UNL     1       7.658  20.971  23.305  1.00  0.00    -0.003 C 
ATOM     20  C   UNL     1       6.735  20.087  22.468  1.00  0.00     0.004 C 
ENDBRANCH  18  19
ENDBRANCH  17  18
ENDBRANCH  16  17
ENDBRANCH  15  16
ENDBRANCH  14  15
ENDBRANCH  13  14
ENDBRANCH   2  13
TORSDOF 15
ENDMDL
MODEL 4
REMARK VINA RESULT:    -4.118      2.360      6.829
REMARK INTER + INTRA:          -9.928
REMARK INTER:                  -7.713
REMARK INTRA:                  -2.215
REMARK UNBOUND:                -2.199
REMARK SMILES CCCCCCCCC=CCCCCCCCC(=O)[O-]
REMARK SMILES IDX 10 1 9 2 11 3 12 4 13 5 14 6 15 7 16 8 17 9 18 10 19 11
REMARK SMILES IDX 20 12 8 13 7 14 6 15 5 16 4 17 3 18 2 19 1 20
REMARK H PARENT
REMARK Flexibility Score: inf
ROOT
ATOM      1  C   UNL     1       7.470  17.330  20.947  1.00  0.00    -0.031 C 
ATOM      2  C   UNL     1       7.894  16.237  21.610  1.00  0.00    -0.031 C 
ENDROOT
BRANCH   1   3
ATOM      3  C   UNL     1       7.675  17.596  19.474  1.00  0.00     0.027 C 
BRANCH   3   4
ATOM      4  C   UNL     1       8.987  18.349  19.198  1.00  0.00     0.004 C 
BRANCH   4   5
ATOM      5  C   UNL     1       8.856  19.883  19.123  1.00  0.00     0.000 C 
BRANCH   5   6
ATOM      6  C   UNL     1       9.738  20.612  20.152  1.00  0.00     0.000 C 
BRANCH   6   7
ATOM      7  C   UNL     1      10.304  19.669  21.230  1.00  0.00     0.000 C 
BRANCH   7   8
ATOM      8  C   UNL     1       9.726  19.866  22.643  1.00  0.00     0.006 C 
BRANCH   8   9
ATOM      9  C   UNL     1       8.892  21.145  22.779  1.00  0.00     0.053 C 
BRANCH   9  10
ATOM     10  C   UNL     1       7.555  20.837  23.374  1.00  0.00     0.041 C 
ATOM     11  O   UNL     1       6.657  20.305  22.671  1.00  0.00    -0.550 OA
ATOM     12  O   UNL     1       7.316  21.091  24.718  1.00  0.00    -0.550 OA
ENDBRANCH   9  10
ENDBRANCH   8   9
ENDBRANCH   7   8
ENDBRANCH   6   7
ENDBRANCH   5   6
ENDBRANCH   4   5
ENDBRANCH   3   4
ENDBRANCH   1   3
BRANCH   2  13
ATOM     13  C   UNL     1       8.677  15.094  21.009  1.00  0.00     0.027 C 
BRANCH  13  14
ATOM     14  C   UNL     1       7.936  13.750  21.074  1.00  0.00     0.004 C 
BRANCH  14  15
ATOM     15  C   UNL     1       6.528  13.829  20.465  1.00  0.00     0.000 C 
BRANCH  15  16
ATOM     16  C   UNL     1       5.468  13.360  21.467  1.00  0.00     0.000 C 
BRANCH  16  17
ATOM     17  C   UNL     1       6.120  12.684  22.682  1.00  0.00    -0.000 C 
BRANCH  17  18
ATOM     18  C   UNL     1       5.458  13.077  24.015  1.00  0.00    -0.000 C 
BRANCH  18  19
ATOM     19  C   UNL     1       6.218  14.142  24.825  1.00  0.00    -0.003 C 
ATOM     20  C   UNL     1       7.730  14.094  24.606  1.00  0.00     0.004 C 
ENDBRANCH  18  19
ENDBRANCH  17  18
ENDBRANCH  16  17
ENDBRANCH  15  16
ENDBRANCH  14  15
ENDBRANCH  13  14
ENDBRANCH   2  13
TORSDOF 15
ENDMDL
MODEL 5
REMARK VINA RESULT:    -3.948      3.170      7.490
REMARK INTER + INTRA:          -9.609
REMARK INTER:                  -7.918
REMARK INTRA:                  -1.691
REMARK UNBOUND:                -2.199
REMARK SMILES CCCCCCCCC=CCCCCCCCC(=O)[O-]
REMARK SMILES IDX 10 1 9 2 11 3 12 4 13 5 14 6 15 7 16 8 17 9 18 10 19 11
REMARK SMILES IDX 20 12 8 13 7 14 6 15 5 16 4 17 3 18 2 19 1 20
REMARK H PARENT
REMARK Flexibility Score: inf
ROOT
ATOM      1  C   UNL     1       9.434  15.727  20.580  1.00  0.00    -0.031 C 
ATOM      2  C   UNL     1       8.419  15.346  21.377  1.00  0.00    -0.031 C 
ENDROOT
BRANCH   1   3
ATOM      3  C   UNL     1       9.285  16.380  19.225  1.00  0.00     0.027 C 
BRANCH   3   4
ATOM      4  C   UNL     1       9.247  17.915  19.323  1.00  0.00     0.004 C 
BRANCH   4   5
ATOM      5  C   UNL     1       9.796  18.498  20.640  1.00  0.00     0.000 C 
BRANCH   5   6
ATOM      6  C   UNL     1       8.686  18.995  21.584  1.00  0.00     0.000 C 
BRANCH   6   7
ATOM      7  C   UNL     1       9.193  20.020  22.616  1.00  0.00     0.000 C 
BRANCH   7   8
ATOM      8  C   UNL     1      10.682  20.391  22.496  1.00  0.00     0.006 C 
BRANCH   8   9
ATOM      9  C   UNL     1      10.911  21.892  22.280  1.00  0.00     0.053 C 
BRANCH   9  10
ATOM     10  C   UNL     1      10.078  22.389  21.141  1.00  0.00     0.041 C 
ATOM     11  O   UNL     1       9.205  23.275  21.336  1.00  0.00    -0.550 OA
ATOM     12  O   UNL     1      10.298  21.911  19.857  1.00  0.00    -0.550 OA
ENDBRANCH   9  10
ENDBRANCH   8   9
ENDBRANCH   7   8
ENDBRANCH   6   7
ENDBRANCH   5   6
ENDBRANCH   4   5
ENDBRANCH   3   4
ENDBRANCH   1   3
BRANCH   2  13
ATOM     13  C   UNL     1       6.949  15.472  21.052  1.00  0.00     0.027 C 
BRANCH  13  14
ATOM     14  C   UNL     1       6.436  14.361  20.124  1.00  0.00     0.004 C 
BRANCH  14  15
ATOM     15  C   UNL     1       5.430  13.434  20.821  1.00  0.00     0.000 C 
BRANCH  15  16
ATOM     16  C   UNL     1       6.141  12.469  21.776  1.00  0.00     0.000 C 
BRANCH  16  17
ATOM     17  C   UNL     1       5.362  12.324  23.092  1.00  0.00    -0.000 C 
BRANCH  17  18
ATOM     18  C   UNL     1       6.232  12.585  24.336  1.00  0.00    -0.000 C 
BRANCH  18  19
ATOM     19  C   UNL     1       6.582  14.063  24.582  1.00  0.00    -0.003 C 
ATOM     20  C   UNL     1       8.075  14.293  24.814  1.00  0.00     0.004 C 
ENDBRANCH  18  19
ENDBRANCH  17  18
ENDBRANCH  16  17
ENDBRANCH  15  16
ENDBRANCH  14  15
ENDBRANCH  13  14
ENDBRANCH   2  13
TORSDOF 15
ENDMDL
MODEL 6
REMARK VINA RESULT:    -3.948      2.837      7.267
REMARK INTER + INTRA:          -9.609
REMARK INTER:                  -7.862
REMARK INTRA:                  -1.747
REMARK UNBOUND:                -2.199
REMARK SMILES CCCCCCCCC=CCCCCCCCC(=O)[O-]
REMARK SMILES IDX 10 1 9 2 11 3 12 4 13 5 14 6 15 7 16 8 17 9 18 10 19 11
REMARK SMILES IDX 20 12 8 13 7 14 6 15 5 16 4 17 3 18 2 19 1 20
REMARK H PARENT
REMARK Flexibility Score: inf
ROOT
ATOM      1  C   UNL     1      10.009  16.771  19.611  1.00  0.00    -0.031 C 
ATOM      2  C   UNL     1       9.225  15.710  19.881  1.00  0.00    -0.031 C 
ENDROOT
BRANCH   1   3
ATOM      3  C   UNL     1      10.004  18.079  20.367  1.00  0.00     0.027 C 
BRANCH   3   4
ATOM      4  C   UNL     1       9.268  19.190  19.598  1.00  0.00     0.004 C 
BRANCH   4   5
ATOM      5  C   UNL     1       7.821  19.453  20.057  1.00  0.00     0.000 C 
BRANCH   5   6
ATOM      6  C   UNL     1       7.598  19.141  21.547  1.00  0.00     0.000 C 
BRANCH   6   7
ATOM      7  C   UNL     1       7.239  20.389  22.373  1.00  0.00     0.000 C 
BRANCH   7   8
ATOM      8  C   UNL     1       8.292  20.815  23.412  1.00  0.00     0.006 C 
BRANCH   8   9
ATOM      9  C   UNL     1       9.175  21.974  22.932  1.00  0.00     0.053 C 
BRANCH   9  10
ATOM     10  C   UNL     1      10.427  21.450  22.302  1.00  0.00     0.041 C 
ATOM     11  O   UNL     1      10.957  20.393  22.732  1.00  0.00    -0.550 OA
ATOM     12  O   UNL     1      10.981  22.102  21.208  1.00  0.00    -0.550 OA
ENDBRANCH   9  10
ENDBRANCH   8   9
ENDBRANCH   7   8
ENDBRANCH   6   7
ENDBRANCH   5   6
ENDBRANCH   4   5
ENDBRANCH   3   4
ENDBRANCH   1   3
BRANCH   2  13
ATOM     13  C   UNL     1       8.179  15.645  20.968  1.00  0.00     0.027 C 
BRANCH  13  14
ATOM     14  C   UNL     1       8.179  14.310  21.730  1.00  0.00     0.004 C 
BRANCH  14  15
ATOM     15  C   UNL     1       7.266  13.263  21.076  1.00  0.00     0.000 C 
BRANCH  15  16
ATOM     16  C   UNL     1       5.789  13.580  21.337  1.00  0.00     0.000 C 
BRANCH  16  17
ATOM     17  C   UNL     1       5.101  12.423  22.077  1.00  0.00    -0.000 C 
BRANCH  17  18
ATOM     18  C   UNL     1       5.782  12.074  23.413  1.00  0.00    -0.000 C 
BRANCH  18  19
ATOM     19  C   UNL     1       5.302  12.902  24.618  1.00  0.00    -0.003 C 
ATOM     20  C   UNL     1       6.160  14.140  24.872  1.00  0.00     0.004 C 
ENDBRANCH  18  19
ENDBRANCH  17  18
ENDBRANCH  16  17
ENDBRANCH  15  16
ENDBRANCH  14  15
ENDBRANCH  13  14
ENDBRANCH   2  13
TORSDOF 15
ENDMDL
MODEL 7
REMARK VINA RESULT:    -3.936      1.469      2.990
REMARK INTER + INTRA:          -9.586
REMARK INTER:                  -7.430
REMARK INTRA:                  -2.156
REMARK UNBOUND:                -2.199
REMARK SMILES CCCCCCCCC=CCCCCCCCC(=O)[O-]
REMARK SMILES IDX 10 1 9 2 11 3 12 4 13 5 14 6 15 7 16 8 17 9 18 10 19 11
REMARK SMILES IDX 20 12 8 13 7 14 6 15 5 16 4 17 3 18 2 19 1 20
REMARK H PARENT
REMARK Flexibility Score: inf
ROOT
ATOM      1  C   UNL     1       9.183  16.871  19.390  1.00  0.00    -0.031 C 
ATOM      2  C   UNL     1       9.368  18.197  19.531  1.00  0.00    -0.031 C 
ENDROOT
BRANCH   1   3
ATOM      3  C   UNL     1       9.656  15.813  20.360  1.00  0.00     0.027 C 
BRANCH   3   4
ATOM      4  C   UNL     1       8.515  15.294  21.252  1.00  0.00     0.004 C 
BRANCH   4   5
ATOM      5  C   UNL     1       7.903  13.950  20.813  1.00  0.00     0.000 C 
BRANCH   5   6
ATOM      6  C   UNL     1       6.382  14.028  20.590  1.00  0.00     0.000 C 
BRANCH   6   7
ATOM      7  C   UNL     1       5.573  13.658  21.847  1.00  0.00     0.000 C 
BRANCH   7   8
ATOM      8  C   UNL     1       6.082  12.424  22.615  1.00  0.00     0.006 C 
BRANCH   8   9
ATOM      9  C   UNL     1       5.872  12.532  24.130  1.00  0.00     0.053 C 
BRANCH   9  10
ATOM     10  C   UNL     1       6.440  13.816  24.647  1.00  0.00     0.041 C 
ATOM     11  O   UNL     1       5.690  14.663  25.198  1.00  0.00    -0.550 OA
ATOM     12  O   UNL     1       7.805  14.056  24.564  1.00  0.00    -0.550 OA
ENDBRANCH   9  10
ENDBRANCH   8   9
ENDBRANCH   7   8
ENDBRANCH   6   7
ENDBRANCH   5   6
ENDBRANCH   4   5
ENDBRANCH   3   4
ENDBRANCH   1   3
BRANCH   2  13
ATOM     13  C   UNL     1      10.108  18.866  20.665  1.00  0.00     0.027 C 
BRANCH  13  14
ATOM     14  C   UNL     1      10.030  20.400  20.619  1.00  0.00     0.004 C 
BRANCH  14  15
ATOM     15  C   UNL     1       9.080  20.905  19.523  1.00  0.00     0.000 C 
BRANCH  15  16
ATOM     16  C   UNL     1       7.760  21.401  20.124  1.00  0.00     0.000 C 
BRANCH  16  17
ATOM     17  C   UNL     1       6.563  20.938  19.280  1.00  0.00    -0.000 C 
BRANCH  17  18
ATOM     18  C   UNL     1       5.992  19.584  19.739  1.00  0.00    -0.000 C 
BRANCH  18  19
ATOM     19  C   UNL     1       6.279  19.226  21.208  1.00  0.00    -0.003 C 
ATOM     20  C   UNL     1       5.906  17.786  21.556  1.00  0.00     0.004 C 
ENDBRANCH  18  19
ENDBRANCH  17  18
ENDBRANCH  16  17
ENDBRANCH  15  16
ENDBRANCH  14  15
ENDBRANCH  13  14
ENDBRANCH   2  13
TORSDOF 15
ENDMDL
MODEL 8
REMARK VINA RESULT:    -3.826      1.576      3.272
REMARK INTER + INTRA:          -9.379
REMARK INTER:                  -7.216
REMARK INTRA:                  -2.163
REMARK UNBOUND:                -2.199
REMARK SMILES CCCCCCCCC=CCCCCCCCC(=O)[O-]
REMARK SMILES IDX 10 1 9 2 11 3 12 4 13 5 14 6 15 7 16 8 17 9 18 10 19 11
REMARK SMILES IDX 20 12 8 13 7 14 6 15 5 16 4 17 3 18 2 19 1 20
REMARK H PARENT
REMARK Flexibility Score: inf
ROOT
ATOM      1  C   UNL     1       9.375  19.004  19.618  1.00  0.00    -0.031 C 
ATOM      2  C   UNL     1       9.739  20.021  20.420  1.00  0.00    -0.031 C 
ENDROOT
BRANCH   1   3
ATOM      3  C   UNL     1       9.675  17.543  19.863  1.00  0.00     0.027 C 
BRANCH   3   4
ATOM      4  C   UNL     1       8.393  16.710  20.037  1.00  0.00     0.004 C 
BRANCH   4   5
ATOM      5  C   UNL     1       8.210  16.077  21.430  1.00  0.00     0.000 C 
BRANCH   5   6
ATOM      6  C   UNL     1       8.631  14.597  21.476  1.00  0.00     0.000 C 
BRANCH   6   7
ATOM      7  C   UNL     1       7.461  13.633  21.207  1.00  0.00     0.000 C 
BRANCH   7   8
ATOM      8  C   UNL     1       6.229  13.828  22.110  1.00  0.00     0.006 C 
BRANCH   8   9
ATOM      9  C   UNL     1       6.321  13.047  23.427  1.00  0.00     0.053 C 
BRANCH   9  10
ATOM     10  C   UNL     1       6.625  13.973  24.562  1.00  0.00     0.041 C 
ATOM     11  O   UNL     1       7.819  14.209  24.884  1.00  0.00    -0.550 OA
ATOM     12  O   UNL     1       5.592  14.614  25.234  1.00  0.00    -0.550 OA
ENDBRANCH   9  10
ENDBRANCH   8   9
ENDBRANCH   7   8
ENDBRANCH   6   7
ENDBRANCH   5   6
ENDBRANCH   4   5
ENDBRANCH   3   4
ENDBRANCH   1   3
BRANCH   2  13
ATOM     13  C   UNL     1      10.540  19.892  21.694  1.00  0.00     0.027 C 
BRANCH  13  14
ATOM     14  C   UNL     1       9.777  20.367  22.941  1.00  0.00     0.004 C 
BRANCH  14  15
ATOM     15  C   UNL     1       9.283  21.815  22.809  1.00  0.00     0.000 C 
BRANCH  15  16
ATOM     16  C   UNL     1       8.161  22.107  23.811  1.00  0.00     0.000 C 
BRANCH  16  17
ATOM     17  C   UNL     1       6.813  21.583  23.295  1.00  0.00    -0.000 C 
BRANCH  17  18
ATOM     18  C   UNL     1       6.648  21.745  21.773  1.00  0.00    -0.000 C 
BRANCH  18  19
ATOM     19  C   UNL     1       6.069  20.515  21.051  1.00  0.00    -0.003 C 
ATOM     20  C   UNL     1       6.281  19.214  21.823  1.00  0.00     0.004 C 
ENDBRANCH  18  19
ENDBRANCH  17  18
ENDBRANCH  16  17
ENDBRANCH  15  16
ENDBRANCH  14  15
ENDBRANCH  13  14
ENDBRANCH   2  13
TORSDOF 15
ENDMDL
