MODEL 1
REMARK VINA RESULT:    -5.773      0.000      0.000
REMARK INTER + INTRA:          -7.279
REMARK INTER:                  -6.955
REMARK INTRA:                  -0.325
REMARK UNBOUND:                -0.325
REMARK SMILES O=c1c(O)c(-c2ccc(O)c(O)c2)oc2cc(O)cc(O)c12
REMARK SMILES IDX 5 1 3 2 2 3 1 4 22 5 20 6 19 7 17 8 16 9 15 10 14 11 6 12
REMARK SMILES IDX 7 13 8 14 9 15 13 16 11 17 10 18 12 20 4 22 21 24 18 26
REMARK H PARENT 10 19 12 21 4 23 21 25 18 27
REMARK Flexibility Score: inf
ROOT
ATOM      1  C   UNL     1     124.186 132.919 110.944  1.00  0.00     0.180 A 
ATOM      2  C   UNL     1     125.231 132.128 111.452  1.00  0.00     0.208 A 
ATOM      3  C   UNL     1     126.512 132.689 111.576  1.00  0.00     0.238 A 
ATOM      4  O   UNL     1     127.430 131.992 112.082  1.00  0.00    -0.285 OA
ATOM      5  C   UNL     1     126.736 134.027 111.175  1.00  0.00     0.111 A 
ATOM      6  C   UNL     1     128.003 134.685 111.219  1.00  0.00     0.134 A 
ATOM      7  C   UNL     1     128.082 136.051 110.921  1.00  0.00     0.093 A 
ATOM      8  C   UNL     1     126.953 136.767 110.518  1.00  0.00     0.123 A 
ATOM      9  C   UNL     1     125.724 136.120 110.415  1.00  0.00     0.094 A 
ATOM     10  C   UNL     1     125.606 134.767 110.741  1.00  0.00     0.146 A 
ATOM     11  O   UNL     1     124.414 134.191 110.638  1.00  0.00    -0.452 OA
ENDROOT
BRANCH   1  12
ATOM     12  C   UNL     1     122.815 132.391 110.761  1.00  0.00     0.025 A 
ATOM     13  C   UNL     1     122.396 131.851 109.533  1.00  0.00     0.016 A 
ATOM     14  C   UNL     1     121.090 131.381 109.376  1.00  0.00     0.051 A 
ATOM     15  C   UNL     1     120.179 131.455 110.437  1.00  0.00     0.157 A 
ATOM     16  C   UNL     1     121.892 132.482 111.816  1.00  0.00     0.062 A 
ATOM     17  C   UNL     1     120.583 132.012 111.662  1.00  0.00     0.158 A 
BRANCH  15  18
ATOM     18  O   UNL     1     118.877 130.983 110.278  1.00  0.00    -0.504 OA
ATOM     19  H   UNL     1     118.185 131.501 109.750  1.00  0.00     0.293 HD
ENDBRANCH  15  18
BRANCH  17  20
ATOM     20  O   UNL     1     119.698 132.107 112.736  1.00  0.00    -0.504 OA
ATOM     21  H   UNL     1     119.821 132.787 113.477  1.00  0.00     0.293 HD
ENDBRANCH  17  20
ENDBRANCH   1  12
BRANCH   2  22
ATOM     22  O   UNL     1     124.982 130.814 111.862  1.00  0.00    -0.502 OA
ATOM     23  H   UNL     1     124.062 130.497 112.140  1.00  0.00     0.293 HD
ENDBRANCH   2  22
BRANCH   6  24
ATOM     24  O   UNL     1     129.207 134.041 111.519  1.00  0.00    -0.507 OA
ATOM     25  H   UNL     1     129.398 133.554 112.382  1.00  0.00     0.293 HD
ENDBRANCH   6  24
BRANCH   8  26
ATOM     26  O   UNL     1     127.043 138.122 110.208  1.00  0.00    -0.508 OA
ATOM     27  H   UNL     1     127.897 138.526 109.841  1.00  0.00     0.293 HD
ENDBRANCH   8  26
TORSDOF 6
ENDMDL
MODEL 2
REMARK VINA RESULT:    -5.731      1.316      2.072
REMARK INTER + INTRA:          -7.229
REMARK INTER:                  -6.919
REMARK INTRA:                  -0.309
REMARK UNBOUND:                -0.325
REMARK SMILES O=c1c(O)c(-c2ccc(O)c(O)c2)oc2cc(O)cc(O)c12
REMARK SMILES IDX 5 1 3 2 2 3 1 4 22 5 20 6 19 7 17 8 16 9 15 10 14 11 6 12
REMARK SMILES IDX 7 13 8 14 9 15 13 16 11 17 10 18 12 20 4 22 21 24 18 26
REMARK H PARENT 10 19 12 21 4 23 21 25 18 27
REMARK Flexibility Score: inf
ROOT
ATOM      1  C   UNL     1     125.476 133.149 111.574  1.00  0.00     0.180 A 
ATOM      2  C   UNL     1     126.529 132.225 111.686  1.00  0.00     0.208 A 
ATOM      3  C   UNL     1     127.834 132.638 111.371  1.00  0.00     0.238 A 
ATOM      4  O   UNL     1     128.779 131.822 111.525  1.00  0.00    -0.285 OA
ATOM      5  C   UNL     1     128.066 133.964 110.932  1.00  0.00     0.111 A 
ATOM      6  C   UNL     1     129.342 134.478 110.548  1.00  0.00     0.134 A 
ATOM      7  C   UNL     1     129.477 135.841 110.256  1.00  0.00     0.093 A 
ATOM      8  C   UNL     1     128.371 136.694 110.270  1.00  0.00     0.123 A 
ATOM      9  C   UNL     1     127.112 136.189 110.586  1.00  0.00     0.094 A 
ATOM     10  C   UNL     1     126.952 134.841 110.918  1.00  0.00     0.146 A 
ATOM     11  O   UNL     1     125.736 134.403 111.223  1.00  0.00    -0.452 OA
ENDROOT
BRANCH   1  12
ATOM     12  C   UNL     1     124.072 132.782 111.865  1.00  0.00     0.025 A 
ATOM     13  C   UNL     1     123.571 132.784 113.178  1.00  0.00     0.016 A 
ATOM     14  C   UNL     1     122.249 132.410 113.430  1.00  0.00     0.051 A 
ATOM     15  C   UNL     1     121.411 132.015 112.379  1.00  0.00     0.157 A 
ATOM     16  C   UNL     1     123.235 132.365 110.816  1.00  0.00     0.062 A 
ATOM     17  C   UNL     1     121.909 131.990 111.066  1.00  0.00     0.158 A 
BRANCH  15  18
ATOM     18  O   UNL     1     120.092 131.646 112.635  1.00  0.00    -0.504 OA
ATOM     19  H   UNL     1     119.718 131.628 113.576  1.00  0.00     0.293 HD
ENDBRANCH  15  18
BRANCH  17  20
ATOM     20  O   UNL     1     121.104 131.595 109.998  1.00  0.00    -0.504 OA
ATOM     21  H   UNL     1     120.764 132.253 109.308  1.00  0.00     0.293 HD
ENDBRANCH  17  20
ENDBRANCH   1  12
BRANCH   2  22
ATOM     22  O   UNL     1     126.280 130.927 112.142  1.00  0.00    -0.502 OA
ATOM     23  H   UNL     1     125.843 130.740 113.035  1.00  0.00     0.293 HD
ENDBRANCH   2  22
BRANCH   6  24
ATOM     24  O   UNL     1     130.491 133.694 110.411  1.00  0.00    -0.507 OA
ATOM     25  H   UNL     1     130.827 133.043 111.105  1.00  0.00     0.293 HD
ENDBRANCH   6  24
BRANCH   8  26
ATOM     26  O   UNL     1     128.511 138.045 109.963  1.00  0.00    -0.508 OA
ATOM     27  H   UNL     1     129.354 138.406 109.532  1.00  0.00     0.293 HD
ENDBRANCH   8  26
TORSDOF 6
ENDMDL
MODEL 3
REMARK VINA RESULT:    -5.600      1.642      6.919
REMARK INTER + INTRA:          -7.070
REMARK INTER:                  -6.754
REMARK INTRA:                  -0.316
REMARK UNBOUND:                -0.325
REMARK SMILES O=c1c(O)c(-c2ccc(O)c(O)c2)oc2cc(O)cc(O)c12
REMARK SMILES IDX 5 1 3 2 2 3 1 4 22 5 20 6 19 7 17 8 16 9 15 10 14 11 6 12
REMARK SMILES IDX 7 13 8 14 9 15 13 16 11 17 10 18 12 20 4 22 21 24 18 26
REMARK H PARENT 10 19 12 21 4 23 21 25 18 27
REMARK Flexibility Score: inf
ROOT
ATOM      1  C   UNL     1     125.054 132.542 111.439  1.00  0.00     0.180 A 
ATOM      2  C   UNL     1     124.431 132.644 112.695  1.00  0.00     0.208 A 
ATOM      3  C   UNL     1     123.046 132.437 112.787  1.00  0.00     0.238 A 
ATOM      4  O   UNL     1     122.503 132.476 113.922  1.00  0.00    -0.285 OA
ATOM      5  C   UNL     1     122.298 132.147 111.621  1.00  0.00     0.111 A 
ATOM      6  C   UNL     1     120.883 131.959 111.592  1.00  0.00     0.134 A 
ATOM      7  C   UNL     1     120.266 131.547 110.403  1.00  0.00     0.093 A 
ATOM      8  C   UNL     1     121.003 131.381 109.228  1.00  0.00     0.123 A 
ATOM      9  C   UNL     1     122.375 131.621 109.233  1.00  0.00     0.094 A 
ATOM     10  C   UNL     1     123.025 131.996 110.411  1.00  0.00     0.146 A 
ATOM     11  O   UNL     1     124.336 132.204 110.375  1.00  0.00    -0.452 OA
ENDROOT
BRANCH   1  12
ATOM     12  C   UNL     1     126.506 132.771 111.259  1.00  0.00     0.025 A 
ATOM     13  C   UNL     1     127.424 131.708 111.293  1.00  0.00     0.016 A 
ATOM     14  C   UNL     1     128.792 131.950 111.144  1.00  0.00     0.051 A 
ATOM     15  C   UNL     1     129.265 133.258 110.974  1.00  0.00     0.157 A 
ATOM     16  C   UNL     1     126.986 134.082 111.109  1.00  0.00     0.062 A 
ATOM     17  C   UNL     1     128.356 134.329 110.960  1.00  0.00     0.158 A 
BRANCH  15  18
ATOM     18  O   UNL     1     130.630 133.496 110.823  1.00  0.00    -0.504 OA
ATOM     19  H   UNL     1     130.975 134.304 110.318  1.00  0.00     0.293 HD
ENDBRANCH  15  18
BRANCH  17  20
ATOM     20  O   UNL     1     128.794 135.643 110.799  1.00  0.00    -0.504 OA
ATOM     21  H   UNL     1     128.269 136.433 111.153  1.00  0.00     0.293 HD
ENDBRANCH  17  20
ENDBRANCH   1  12
BRANCH   2  22
ATOM     22  O   UNL     1     125.192 132.910 113.837  1.00  0.00    -0.502 OA
ATOM     23  H   UNL     1     125.016 132.455 114.725  1.00  0.00     0.293 HD
ENDBRANCH   2  22
BRANCH   6  24
ATOM     24  O   UNL     1     120.042 132.188 112.684  1.00  0.00    -0.507 OA
ATOM     25  H   UNL     1     119.821 133.099 113.057  1.00  0.00     0.293 HD
ENDBRANCH   6  24
BRANCH   8  26
ATOM     26  O   UNL     1     120.379 130.987 108.047  1.00  0.00    -0.508 OA
ATOM     27  H   UNL     1     119.526 131.429 107.726  1.00  0.00     0.293 HD
ENDBRANCH   8  26
TORSDOF 6
ENDMDL
MODEL 4
REMARK VINA RESULT:    -5.561      2.710      4.372
REMARK INTER + INTRA:          -7.024
REMARK INTER:                  -6.694
REMARK INTRA:                  -0.329
REMARK UNBOUND:                -0.325
REMARK SMILES O=c1c(O)c(-c2ccc(O)c(O)c2)oc2cc(O)cc(O)c12
REMARK SMILES IDX 5 1 3 2 2 3 1 4 22 5 20 6 19 7 17 8 16 9 15 10 14 11 6 12
REMARK SMILES IDX 7 13 8 14 9 15 13 16 11 17 10 18 12 20 4 22 21 24 18 26
REMARK H PARENT 10 19 12 21 4 23 21 25 18 27
REMARK Flexibility Score: inf
ROOT
ATOM      1  C   UNL     1     126.758 134.606 110.862  1.00  0.00     0.180 A 
ATOM      2  C   UNL     1     126.730 134.821 109.474  1.00  0.00     0.208 A 
ATOM      3  C   UNL     1     127.606 135.764 108.913  1.00  0.00     0.238 A 
ATOM      4  O   UNL     1     127.614 135.913 107.664  1.00  0.00    -0.285 OA
ATOM      5  C   UNL     1     128.487 136.491 109.749  1.00  0.00     0.111 A 
ATOM      6  C   UNL     1     129.389 137.499 109.293  1.00  0.00     0.134 A 
ATOM      7  C   UNL     1     130.307 138.061 110.190  1.00  0.00     0.093 A 
ATOM      8  C   UNL     1     130.310 137.698 111.539  1.00  0.00     0.123 A 
ATOM      9  C   UNL     1     129.393 136.759 112.005  1.00  0.00     0.094 A 
ATOM     10  C   UNL     1     128.490 136.154 111.128  1.00  0.00     0.146 A 
ATOM     11  O   UNL     1     127.641 135.256 111.611  1.00  0.00    -0.452 OA
ENDROOT
BRANCH   1  12
ATOM     12  C   UNL     1     125.847 133.647 111.530  1.00  0.00     0.025 A 
ATOM     13  C   UNL     1     124.550 134.020 111.921  1.00  0.00     0.016 A 
ATOM     14  C   UNL     1     123.718 133.106 112.571  1.00  0.00     0.051 A 
ATOM     15  C   UNL     1     124.171 131.811 112.853  1.00  0.00     0.157 A 
ATOM     16  C   UNL     1     126.306 132.355 111.832  1.00  0.00     0.062 A 
ATOM     17  C   UNL     1     125.474 131.436 112.484  1.00  0.00     0.158 A 
BRANCH  15  18
ATOM     18  O   UNL     1     123.337 130.900 113.499  1.00  0.00    -0.504 OA
ATOM     19  H   UNL     1     123.195 129.963 113.140  1.00  0.00     0.293 HD
ENDBRANCH  15  18
BRANCH  17  20
ATOM     20  O   UNL     1     125.959 130.157 112.755  1.00  0.00    -0.504 OA
ATOM     21  H   UNL     1     126.482 129.622 112.072  1.00  0.00     0.293 HD
ENDBRANCH  17  20
ENDBRANCH   1  12
BRANCH   2  22
ATOM     22  O   UNL     1     125.867 134.076 108.665  1.00  0.00    -0.502 OA
ATOM     23  H   UNL     1     124.893 134.324 108.536  1.00  0.00     0.293 HD
ENDBRANCH   2  22
BRANCH   6  24
ATOM     24  O   UNL     1     129.407 137.999 107.988  1.00  0.00    -0.507 OA
ATOM     25  H   UNL     1     129.467 138.978 107.750  1.00  0.00     0.293 HD
ENDBRANCH   6  24
BRANCH   8  26
ATOM     26  O   UNL     1     131.216 138.274 112.427  1.00  0.00    -0.508 OA
ATOM     27  H   UNL     1     132.090 138.673 112.108  1.00  0.00     0.293 HD
ENDBRANCH   8  26
TORSDOF 6
ENDMDL
MODEL 5
REMARK VINA RESULT:    -5.535      1.481      6.807
REMARK INTER + INTRA:          -6.992
REMARK INTER:                  -7.001
REMARK INTRA:                   0.009
REMARK UNBOUND:                -0.325
REMARK SMILES O=c1c(O)c(-c2ccc(O)c(O)c2)oc2cc(O)cc(O)c12
REMARK SMILES IDX 5 1 3 2 2 3 1 4 22 5 20 6 19 7 17 8 16 9 15 10 14 11 6 12
REMARK SMILES IDX 7 13 8 14 9 15 13 16 11 17 10 18 12 20 4 22 21 24 18 26
REMARK H PARENT 10 19 12 21 4 23 21 25 18 27
REMARK Flexibility Score: inf
ROOT
ATOM      1  C   UNL     1     124.532 133.889 111.174  1.00  0.00     0.180 A 
ATOM      2  C   UNL     1     124.209 133.194 112.352  1.00  0.00     0.208 A 
ATOM      3  C   UNL     1     122.959 132.560 112.448  1.00  0.00     0.238 A 
ATOM      4  O   UNL     1     122.698 131.894 113.483  1.00  0.00    -0.285 OA
ATOM      5  C   UNL     1     122.043 132.645 111.373  1.00  0.00     0.111 A 
ATOM      6  C   UNL     1     120.733 132.075 111.378  1.00  0.00     0.134 A 
ATOM      7  C   UNL     1     119.962 132.108 110.210  1.00  0.00     0.093 A 
ATOM      8  C   UNL     1     120.426 132.748 109.057  1.00  0.00     0.123 A 
ATOM      9  C   UNL     1     121.678 133.358 109.062  1.00  0.00     0.094 A 
ATOM     10  C   UNL     1     122.486 133.310 110.200  1.00  0.00     0.146 A 
ATOM     11  O   UNL     1     123.676 133.895 110.158  1.00  0.00    -0.452 OA
ENDROOT
BRANCH   1  12
ATOM     12  C   UNL     1     125.819 134.603 111.008  1.00  0.00     0.025 A 
ATOM     13  C   UNL     1     127.045 133.971 111.274  1.00  0.00     0.016 A 
ATOM     14  C   UNL     1     128.246 134.671 111.134  1.00  0.00     0.051 A 
ATOM     15  C   UNL     1     128.240 136.016 110.740  1.00  0.00     0.157 A 
ATOM     16  C   UNL     1     125.816 135.957 110.635  1.00  0.00     0.062 A 
ATOM     17  C   UNL     1     127.017 136.661 110.493  1.00  0.00     0.158 A 
BRANCH  15  18
ATOM     18  O   UNL     1     129.440 136.711 110.599  1.00  0.00    -0.504 OA
ATOM     19  H   UNL     1     129.951 137.056 111.402  1.00  0.00     0.293 HD
ENDBRANCH  15  18
BRANCH  17  20
ATOM     20  O   UNL     1     126.975 138.001 110.107  1.00  0.00    -0.504 OA
ATOM     21  H   UNL     1     126.216 138.379 109.554  1.00  0.00     0.293 HD
ENDBRANCH  17  20
ENDBRANCH   1  12
BRANCH   2  22
ATOM     22  O   UNL     1     125.138 133.105 113.393  1.00  0.00    -0.502 OA
ATOM     23  H   UNL     1     126.134 133.030 113.227  1.00  0.00     0.293 HD
ENDBRANCH   2  22
BRANCH   6  24
ATOM     24  O   UNL     1     120.138 131.495 112.502  1.00  0.00    -0.507 OA
ATOM     25  H   UNL     1     119.448 131.947 113.083  1.00  0.00     0.293 HD
ENDBRANCH   6  24
BRANCH   8  26
ATOM     26  O   UNL     1     119.645 132.790 107.904  1.00  0.00    -0.508 OA
ATOM     27  H   UNL     1     118.658 132.563 107.925  1.00  0.00     0.293 HD
ENDBRANCH   8  26
TORSDOF 6
ENDMDL
MODEL 6
REMARK VINA RESULT:    -5.450      1.604      6.997
REMARK INTER + INTRA:          -6.890
REMARK INTER:                  -6.561
REMARK INTRA:                  -0.328
REMARK UNBOUND:                -0.325
REMARK SMILES O=c1c(O)c(-c2ccc(O)c(O)c2)oc2cc(O)cc(O)c12
REMARK SMILES IDX 5 1 3 2 2 3 1 4 22 5 20 6 19 7 17 8 16 9 15 10 14 11 6 12
REMARK SMILES IDX 7 13 8 14 9 15 13 16 11 17 10 18 12 20 4 22 21 24 18 26
REMARK H PARENT 10 19 12 21 4 23 21 25 18 27
REMARK Flexibility Score: inf
ROOT
ATOM      1  C   UNL     1     124.480 132.770 110.266  1.00  0.00     0.180 A 
ATOM      2  C   UNL     1     124.135 132.336 108.974  1.00  0.00     0.208 A 
ATOM      3  C   UNL     1     122.825 131.894 108.731  1.00  0.00     0.238 A 
ATOM      4  O   UNL     1     122.509 131.559 107.560  1.00  0.00    -0.285 OA
ATOM      5  C   UNL     1     121.881 131.875 109.786  1.00  0.00     0.111 A 
ATOM      6  C   UNL     1     120.538 131.408 109.661  1.00  0.00     0.134 A 
ATOM      7  C   UNL     1     119.653 131.557 110.737  1.00  0.00     0.093 A 
ATOM      8  C   UNL     1     120.082 132.095 111.953  1.00  0.00     0.123 A 
ATOM      9  C   UNL     1     121.407 132.498 112.103  1.00  0.00     0.094 A 
ATOM     10  C   UNL     1     122.303 132.396 111.036  1.00  0.00     0.146 A 
ATOM     11  O   UNL     1     123.554 132.801 111.218  1.00  0.00    -0.452 OA
ENDROOT
BRANCH   1  12
ATOM     12  C   UNL     1     125.847 133.227 110.605  1.00  0.00     0.025 A 
ATOM     13  C   UNL     1     126.854 132.316 110.967  1.00  0.00     0.016 A 
ATOM     14  C   UNL     1     128.130 132.772 111.307  1.00  0.00     0.051 A 
ATOM     15  C   UNL     1     128.416 134.144 111.305  1.00  0.00     0.157 A 
ATOM     16  C   UNL     1     126.131 134.602 110.625  1.00  0.00     0.062 A 
ATOM     17  C   UNL     1     127.409 135.062 110.965  1.00  0.00     0.158 A 
BRANCH  15  18
ATOM     18  O   UNL     1     129.691 134.595 111.641  1.00  0.00    -0.504 OA
ATOM     19  H   UNL     1     129.878 135.575 111.815  1.00  0.00     0.293 HD
ENDBRANCH  15  18
BRANCH  17  20
ATOM     20  O   UNL     1     127.658 136.434 110.959  1.00  0.00    -0.504 OA
ATOM     21  H   UNL     1     128.548 136.819 110.666  1.00  0.00     0.293 HD
ENDBRANCH  17  20
ENDBRANCH   1  12
BRANCH   2  22
ATOM     22  O   UNL     1     125.077 132.384 107.942  1.00  0.00    -0.502 OA
ATOM     23  H   UNL     1     125.953 131.878 107.983  1.00  0.00     0.293 HD
ENDBRANCH   2  22
BRANCH   6  24
ATOM     24  O   UNL     1     120.034 130.772 108.524  1.00  0.00    -0.507 OA
ATOM     25  H   UNL     1     119.227 131.082 108.003  1.00  0.00     0.293 HD
ENDBRANCH   6  24
BRANCH   8  26
ATOM     26  O   UNL     1     119.200 132.225 113.024  1.00  0.00    -0.508 OA
ATOM     27  H   UNL     1     119.299 131.665 113.863  1.00  0.00     0.293 HD
ENDBRANCH   8  26
TORSDOF 6
ENDMDL
MODEL 7
REMARK VINA RESULT:    -5.382      1.735      3.584
REMARK INTER + INTRA:          -6.808
REMARK INTER:                  -6.474
REMARK INTRA:                  -0.335
REMARK UNBOUND:                -0.325
REMARK SMILES O=c1c(O)c(-c2ccc(O)c(O)c2)oc2cc(O)cc(O)c12
REMARK SMILES IDX 5 1 3 2 2 3 1 4 22 5 20 6 19 7 17 8 16 9 15 10 14 11 6 12
REMARK SMILES IDX 7 13 8 14 9 15 13 16 11 17 10 18 12 20 4 22 21 24 18 26
REMARK H PARENT 10 19 12 21 4 23 21 25 18 27
REMARK Flexibility Score: inf
ROOT
ATOM      1  C   UNL     1     125.012 133.017 111.525  1.00  0.00     0.180 A 
ATOM      2  C   UNL     1     125.440 134.335 111.295  1.00  0.00     0.208 A 
ATOM      3  C   UNL     1     126.808 134.585 111.106  1.00  0.00     0.238 A 
ATOM      4  O   UNL     1     127.178 135.760 110.847  1.00  0.00    -0.285 OA
ATOM      5  C   UNL     1     127.734 133.516 111.167  1.00  0.00     0.111 A 
ATOM      6  C   UNL     1     129.148 133.659 111.030  1.00  0.00     0.134 A 
ATOM      7  C   UNL     1     129.956 132.517 110.976  1.00  0.00     0.093 A 
ATOM      8  C   UNL     1     129.408 131.239 111.120  1.00  0.00     0.123 A 
ATOM      9  C   UNL     1     128.036 131.093 111.313  1.00  0.00     0.094 A 
ATOM     10  C   UNL     1     127.200 132.212 111.335  1.00  0.00     0.146 A 
ATOM     11  O   UNL     1     125.897 132.027 111.511  1.00  0.00    -0.452 OA
ENDROOT
BRANCH   1  12
ATOM     12  C   UNL     1     123.589 132.679 111.757  1.00  0.00     0.025 A 
ATOM     13  C   UNL     1     123.036 132.690 113.048  1.00  0.00     0.016 A 
ATOM     14  C   UNL     1     121.697 132.343 113.246  1.00  0.00     0.051 A 
ATOM     15  C   UNL     1     120.895 131.968 112.161  1.00  0.00     0.157 A 
ATOM     16  C   UNL     1     122.788 132.281 110.675  1.00  0.00     0.062 A 
ATOM     17  C   UNL     1     121.446 131.933 110.869  1.00  0.00     0.158 A 
BRANCH  15  18
ATOM     18  O   UNL     1     119.558 131.626 112.362  1.00  0.00    -0.504 OA
ATOM     19  H   UNL     1     118.809 132.109 111.881  1.00  0.00     0.293 HD
ENDBRANCH  15  18
BRANCH  17  20
ATOM     20  O   UNL     1     120.676 131.557 109.769  1.00  0.00    -0.504 OA
ATOM     21  H   UNL     1     119.871 132.091 109.466  1.00  0.00     0.293 HD
ENDBRANCH  17  20
ENDBRANCH   1  12
BRANCH   2  22
ATOM     22  O   UNL     1     124.506 135.373 111.217  1.00  0.00    -0.502 OA
ATOM     23  H   UNL     1     124.546 136.186 111.821  1.00  0.00     0.293 HD
ENDBRANCH   2  22
BRANCH   6  24
ATOM     24  O   UNL     1     129.806 134.891 110.973  1.00  0.00    -0.507 OA
ATOM     25  H   UNL     1     129.344 135.786 110.917  1.00  0.00     0.293 HD
ENDBRANCH   6  24
BRANCH   8  26
ATOM     26  O   UNL     1     130.221 130.109 111.081  1.00  0.00    -0.508 OA
ATOM     27  H   UNL     1     130.416 129.568 111.915  1.00  0.00     0.293 HD
ENDBRANCH   8  26
TORSDOF 6
ENDMDL
MODEL 8
REMARK VINA RESULT:    -5.275     11.109     12.611
REMARK INTER + INTRA:          -6.679
REMARK INTER:                  -6.383
REMARK INTRA:                  -0.296
REMARK UNBOUND:                -0.325
REMARK SMILES O=c1c(O)c(-c2ccc(O)c(O)c2)oc2cc(O)cc(O)c12
REMARK SMILES IDX 5 1 3 2 2 3 1 4 22 5 20 6 19 7 17 8 16 9 15 10 14 11 6 12
REMARK SMILES IDX 7 13 8 14 9 15 13 16 11 17 10 18 12 20 4 22 21 24 18 26
REMARK H PARENT 10 19 12 21 4 23 21 25 18 27
REMARK Flexibility Score: inf
ROOT
ATOM      1  C   UNL     1     131.733 123.810 110.773  1.00  0.00     0.180 A 
ATOM      2  C   UNL     1     131.510 124.788 109.789  1.00  0.00     0.208 A 
ATOM      3  C   UNL     1     132.263 125.972 109.823  1.00  0.00     0.238 A 
ATOM      4  O   UNL     1     132.096 126.820 108.908  1.00  0.00    -0.285 OA
ATOM      5  C   UNL     1     133.218 126.170 110.848  1.00  0.00     0.111 A 
ATOM      6  C   UNL     1     134.008 127.349 111.003  1.00  0.00     0.134 A 
ATOM      7  C   UNL     1     135.014 127.384 111.977  1.00  0.00     0.093 A 
ATOM      8  C   UNL     1     135.214 126.307 112.844  1.00  0.00     0.123 A 
ATOM      9  C   UNL     1     134.407 125.176 112.740  1.00  0.00     0.094 A 
ATOM     10  C   UNL     1     133.420 125.098 111.755  1.00  0.00     0.146 A 
ATOM     11  O   UNL     1     132.681 123.997 111.684  1.00  0.00    -0.452 OA
ENDROOT
BRANCH   1  12
ATOM     12  C   UNL     1     130.961 122.547 110.818  1.00  0.00     0.025 A 
ATOM     13  C   UNL     1     129.650 122.508 111.322  1.00  0.00     0.016 A 
ATOM     14  C   UNL     1     128.950 121.300 111.378  1.00  0.00     0.051 A 
ATOM     15  C   UNL     1     129.552 120.112 110.944  1.00  0.00     0.157 A 
ATOM     16  C   UNL     1     131.568 121.350 110.404  1.00  0.00     0.062 A 
ATOM     17  C   UNL     1     130.870 120.138 110.458  1.00  0.00     0.158 A 
BRANCH  15  18
ATOM     18  O   UNL     1     128.849 118.909 110.998  1.00  0.00    -0.504 OA
ATOM     19  H   UNL     1     128.756 118.312 110.184  1.00  0.00     0.293 HD
ENDBRANCH  15  18
BRANCH  17  20
ATOM     20  O   UNL     1     131.500 118.972 110.025  1.00  0.00    -0.504 OA
ATOM     21  H   UNL     1     131.240 118.058 110.373  1.00  0.00     0.293 HD
ENDBRANCH  17  20
ENDBRANCH   1  12
BRANCH   2  22
ATOM     22  O   UNL     1     130.577 124.562 108.772  1.00  0.00    -0.502 OA
ATOM     23  H   UNL     1     129.616 124.305 108.964  1.00  0.00     0.293 HD
ENDBRANCH   2  22
BRANCH   6  24
ATOM     24  O   UNL     1     133.829 128.514 110.251  1.00  0.00    -0.507 OA
ATOM     25  H   UNL     1     134.570 129.144 109.984  1.00  0.00     0.293 HD
ENDBRANCH   6  24
BRANCH   8  26
ATOM     26  O   UNL     1     136.206 126.356 113.821  1.00  0.00    -0.508 OA
ATOM     27  H   UNL     1     136.103 125.872 114.705  1.00  0.00     0.293 HD
ENDBRANCH   8  26
TORSDOF 6
ENDMDL
MODEL 9
REMARK VINA RESULT:    -5.238     10.916     13.775
REMARK INTER + INTRA:          -6.635
REMARK INTER:                  -6.331
REMARK INTRA:                  -0.303
REMARK UNBOUND:                -0.325
REMARK SMILES O=c1c(O)c(-c2ccc(O)c(O)c2)oc2cc(O)cc(O)c12
REMARK SMILES IDX 5 1 3 2 2 3 1 4 22 5 20 6 19 7 17 8 16 9 15 10 14 11 6 12
REMARK SMILES IDX 7 13 8 14 9 15 13 16 11 17 10 18 12 20 4 22 21 24 18 26
REMARK H PARENT 10 19 12 21 4 23 21 25 18 27
REMARK Flexibility Score: inf
ROOT
ATOM      1  C   UNL     1     131.759 124.112 111.238  1.00  0.00     0.180 A 
ATOM      2  C   UNL     1     132.090 123.694 109.937  1.00  0.00     0.208 A 
ATOM      3  C   UNL     1     131.378 122.631 109.361  1.00  0.00     0.238 A 
ATOM      4  O   UNL     1     131.643 122.298 108.177  1.00  0.00    -0.285 OA
ATOM      5  C   UNL     1     130.355 121.987 110.098  1.00  0.00     0.111 A 
ATOM      6  C   UNL     1     129.597 120.873 109.628  1.00  0.00     0.134 A 
ATOM      7  C   UNL     1     128.521 120.399 110.390  1.00  0.00     0.093 A 
ATOM      8  C   UNL     1     128.219 120.957 111.634  1.00  0.00     0.123 A 
ATOM      9  C   UNL     1     128.992 122.006 112.128  1.00  0.00     0.094 A 
ATOM     10  C   UNL     1     130.047 122.524 111.375  1.00  0.00     0.146 A 
ATOM     11  O   UNL     1     130.751 123.530 111.878  1.00  0.00    -0.452 OA
ENDROOT
BRANCH   1  12
ATOM     12  C   UNL     1     132.481 125.209 111.921  1.00  0.00     0.025 A 
ATOM     13  C   UNL     1     131.986 126.524 111.919  1.00  0.00     0.016 A 
ATOM     14  C   UNL     1     132.697 127.548 112.550  1.00  0.00     0.051 A 
ATOM     15  C   UNL     1     133.919 127.278 113.180  1.00  0.00     0.157 A 
ATOM     16  C   UNL     1     133.717 124.946 112.536  1.00  0.00     0.062 A 
ATOM     17  C   UNL     1     134.432 125.970 113.169  1.00  0.00     0.158 A 
BRANCH  15  18
ATOM     18  O   UNL     1     134.624 128.301 113.811  1.00  0.00    -0.504 OA
ATOM     19  H   UNL     1     134.654 129.239 113.429  1.00  0.00     0.293 HD
ENDBRANCH  15  18
BRANCH  17  20
ATOM     20  O   UNL     1     135.648 125.669 113.781  1.00  0.00    -0.504 OA
ATOM     21  H   UNL     1     135.744 124.911 114.446  1.00  0.00     0.293 HD
ENDBRANCH  17  20
ENDBRANCH   1  12
BRANCH   2  22
ATOM     22  O   UNL     1     133.089 124.359 109.219  1.00  0.00    -0.502 OA
ATOM     23  H   UNL     1     133.836 124.870 109.674  1.00  0.00     0.293 HD
ENDBRANCH   2  22
BRANCH   6  24
ATOM     24  O   UNL     1     129.872 120.184 108.443  1.00  0.00    -0.507 OA
ATOM     25  H   UNL     1     130.778 120.144 108.000  1.00  0.00     0.293 HD
ENDBRANCH   6  24
BRANCH   8  26
ATOM     26  O   UNL     1     127.157 120.469 112.393  1.00  0.00    -0.508 OA
ATOM     27  H   UNL     1     126.662 121.058 113.052  1.00  0.00     0.293 HD
ENDBRANCH   8  26
TORSDOF 6
ENDMDL
