MODEL 1
REMARK VINA RESULT:    -4.170      0.000      0.000
REMARK INTER + INTRA:         -10.736
REMARK INTER:                  -9.046
REMARK INTRA:                  -1.690
REMARK UNBOUND:                -1.690
REMARK SMILES CCCCCCCCCCCCCCCCCCCCCC(=O)[O-]
REMARK SMILES IDX 12 1 11 2 10 3 9 4 8 5 7 6 6 7 5 8 4 9 3 10 2 11 1 12 13 13
REMARK SMILES IDX 14 14 15 15 16 16 17 17 18 18 19 19 20 20 21 21 22 22 23 23
REMARK SMILES IDX 24 24
REMARK H PARENT
REMARK Flexibility Score: inf
ROOT
ATOM      1  C   UNL     1      60.651  24.946  51.290  1.00  0.00     0.000 C 
ENDROOT
BRANCH   1   2
ATOM      2  C   UNL     1      59.189  24.757  50.854  1.00  0.00     0.000 C 
BRANCH   2   3
ATOM      3  C   UNL     1      58.568  26.041  50.285  1.00  0.00     0.000 C 
BRANCH   3   4
ATOM      4  C   UNL     1      59.641  26.910  49.614  1.00  0.00    -0.000 C 
BRANCH   4   5
ATOM      5  C   UNL     1      59.107  28.287  49.186  1.00  0.00    -0.000 C 
BRANCH   5   6
ATOM      6  C   UNL     1      59.317  29.364  50.261  1.00  0.00    -0.000 C 
BRANCH   6   7
ATOM      7  C   UNL     1      58.042  29.553  51.097  1.00  0.00    -0.000 C 
BRANCH   7   8
ATOM      8  C   UNL     1      56.760  29.239  50.308  1.00  0.00    -0.000 C 
BRANCH   8   9
ATOM      9  C   UNL     1      55.784  28.277  51.013  1.00  0.00    -0.000 C 
BRANCH   9  10
ATOM     10  C   UNL     1      54.690  27.709  50.083  1.00  0.00    -0.000 C 
BRANCH  10  11
ATOM     11  C   UNL     1      54.994  26.272  49.633  1.00  0.00    -0.003 C 
ATOM     12  C   UNL     1      53.756  25.604  49.047  1.00  0.00     0.004 C 
ENDBRANCH  10  11
ENDBRANCH   9  10
ENDBRANCH   8   9
ENDBRANCH   7   8
ENDBRANCH   6   7
ENDBRANCH   5   6
ENDBRANCH   4   5
ENDBRANCH   3   4
ENDBRANCH   2   3
ENDBRANCH   1   2
BRANCH   1  13
ATOM     13  C   UNL     1      61.618  24.014  50.537  1.00  0.00     0.000 C 
BRANCH  13  14
ATOM     14  C   UNL     1      60.886  22.958  49.693  1.00  0.00     0.000 C 
BRANCH  14  15
ATOM     15  C   UNL     1      61.704  21.669  49.513  1.00  0.00     0.000 C 
BRANCH  15  16
ATOM     16  C   UNL     1      61.095  20.736  48.445  1.00  0.00     0.000 C 
BRANCH  16  17
ATOM     17  C   UNL     1      59.714  20.168  48.827  1.00  0.00     0.000 C 
BRANCH  17  18
ATOM     18  C   UNL     1      59.518  18.676  48.511  1.00  0.00     0.000 C 
BRANCH  18  19
ATOM     19  C   UNL     1      58.621  17.964  49.538  1.00  0.00     0.000 C 
BRANCH  19  20
ATOM     20  C   UNL     1      57.933  18.948  50.500  1.00  0.00     0.006 C 
BRANCH  20  21
ATOM     21  C   UNL     1      56.404  18.819  50.472  1.00  0.00     0.053 C 
BRANCH  21  22
ATOM     22  C   UNL     1      55.810  19.272  51.768  1.00  0.00     0.041 C 
ATOM     23  O   UNL     1      56.470  19.162  52.837  1.00  0.00    -0.550 OA
ATOM     24  O   UNL     1      54.537  19.829  51.798  1.00  0.00    -0.550 OA
ENDBRANCH  21  22
ENDBRANCH  20  21
ENDBRANCH  19  20
ENDBRANCH  18  19
ENDBRANCH  17  18
ENDBRANCH  16  17
ENDBRANCH  15  16
ENDBRANCH  14  15
ENDBRANCH  13  14
ENDBRANCH   1  13
TORSDOF 20
ENDMDL
MODEL 2
REMARK VINA RESULT:    -4.095      2.322      4.172
REMARK INTER + INTRA:         -10.573
REMARK INTER:                  -7.089
REMARK INTRA:                  -3.484
REMARK UNBOUND:                -1.690
REMARK SMILES CCCCCCCCCCCCCCCCCCCCCC(=O)[O-]
REMARK SMILES IDX 12 1 11 2 10 3 9 4 8 5 7 6 6 7 5 8 4 9 3 10 2 11 1 12 13 13
REMARK SMILES IDX 14 14 15 15 16 16 17 17 18 18 19 19 20 20 21 21 22 22 23 23
REMARK SMILES IDX 24 24
REMARK H PARENT
REMARK Flexibility Score: inf
ROOT
ATOM      1  C   UNL     1      59.595  26.244  53.166  1.00  0.00     0.000 C 
ENDROOT
BRANCH   1   2
ATOM      2  C   UNL     1      58.416  26.248  52.179  1.00  0.00     0.000 C 
BRANCH   2   3
ATOM      3  C   UNL     1      58.724  25.487  50.882  1.00  0.00     0.000 C 
BRANCH   3   4
ATOM      4  C   UNL     1      58.371  26.341  49.656  1.00  0.00    -0.000 C 
BRANCH   4   5
ATOM      5  C   UNL     1      59.465  27.363  49.308  1.00  0.00    -0.000 C 
BRANCH   5   6
ATOM      6  C   UNL     1      58.914  28.788  49.146  1.00  0.00    -0.000 C 
BRANCH   6   7
ATOM      7  C   UNL     1      59.076  29.586  50.448  1.00  0.00    -0.000 C 
BRANCH   7   8
ATOM      8  C   UNL     1      57.766  29.696  51.247  1.00  0.00    -0.000 C 
BRANCH   8   9
ATOM      9  C   UNL     1      56.486  29.427  50.432  1.00  0.00    -0.000 C 
BRANCH   9  10
ATOM     10  C   UNL     1      55.543  28.390  51.080  1.00  0.00    -0.000 C 
BRANCH  10  11
ATOM     11  C   UNL     1      54.978  27.395  50.056  1.00  0.00    -0.003 C 
ATOM     12  C   UNL     1      53.478  27.592  49.863  1.00  0.00     0.004 C 
ENDBRANCH  10  11
ENDBRANCH   9  10
ENDBRANCH   8   9
ENDBRANCH   7   8
ENDBRANCH   6   7
ENDBRANCH   5   6
ENDBRANCH   4   5
ENDBRANCH   3   4
ENDBRANCH   2   3
ENDBRANCH   1   2
BRANCH   1  13
ATOM     13  C   UNL     1      60.440  27.529  53.083  1.00  0.00     0.000 C 
BRANCH  13  14
ATOM     14  C   UNL     1      61.924  27.244  52.804  1.00  0.00     0.000 C 
BRANCH  14  15
ATOM     15  C   UNL     1      62.340  27.610  51.370  1.00  0.00     0.000 C 
BRANCH  15  16
ATOM     16  C   UNL     1      63.043  26.439  50.650  1.00  0.00     0.000 C 
BRANCH  16  17
ATOM     17  C   UNL     1      62.143  25.205  50.443  1.00  0.00     0.000 C 
BRANCH  17  18
ATOM     18  C   UNL     1      62.543  23.968  51.263  1.00  0.00     0.000 C 
BRANCH  18  19
ATOM     19  C   UNL     1      62.123  22.648  50.593  1.00  0.00     0.000 C 
BRANCH  19  20
ATOM     20  C   UNL     1      60.891  22.816  49.687  1.00  0.00     0.006 C 
BRANCH  20  21
ATOM     21  C   UNL     1      60.813  21.733  48.601  1.00  0.00     0.053 C 
BRANCH  21  22
ATOM     22  C   UNL     1      60.163  20.495  49.134  1.00  0.00     0.041 C 
ATOM     23  O   UNL     1      60.200  19.425  48.468  1.00  0.00    -0.550 OA
ATOM     24  O   UNL     1      59.531  20.514  50.372  1.00  0.00    -0.550 OA
ENDBRANCH  21  22
ENDBRANCH  20  21
ENDBRANCH  19  20
ENDBRANCH  18  19
ENDBRANCH  17  18
ENDBRANCH  16  17
ENDBRANCH  15  16
ENDBRANCH  14  15
ENDBRANCH  13  14
ENDBRANCH   1  13
TORSDOF 20
ENDMDL
MODEL 3
REMARK VINA RESULT:    -4.010      1.230      1.709
REMARK INTER + INTRA:         -10.389
REMARK INTER:                  -7.961
REMARK INTRA:                  -2.428
REMARK UNBOUND:                -1.690
REMARK SMILES CCCCCCCCCCCCCCCCCCCCCC(=O)[O-]
REMARK SMILES IDX 12 1 11 2 10 3 9 4 8 5 7 6 6 7 5 8 4 9 3 10 2 11 1 12 13 13
REMARK SMILES IDX 14 14 15 15 16 16 17 17 18 18 19 19 20 20 21 21 22 22 23 23
REMARK SMILES IDX 24 24
REMARK H PARENT
REMARK Flexibility Score: inf
ROOT
ATOM      1  C   UNL     1      58.958  23.615  52.248  1.00  0.00     0.000 C 
ENDROOT
BRANCH   1   2
ATOM      2  C   UNL     1      59.045  25.067  51.748  1.00  0.00     0.000 C 
BRANCH   2   3
ATOM      3  C   UNL     1      57.750  25.540  51.071  1.00  0.00     0.000 C 
BRANCH   3   4
ATOM      4  C   UNL     1      58.064  26.319  49.786  1.00  0.00    -0.000 C 
BRANCH   4   5
ATOM      5  C   UNL     1      59.242  27.293  49.955  1.00  0.00    -0.000 C 
BRANCH   5   6
ATOM      6  C   UNL     1      59.075  28.573  49.123  1.00  0.00    -0.000 C 
BRANCH   6   7
ATOM      7  C   UNL     1      58.509  29.712  49.984  1.00  0.00    -0.000 C 
BRANCH   7   8
ATOM      8  C   UNL     1      58.179  29.266  51.418  1.00  0.00    -0.000 C 
BRANCH   8   9
ATOM      9  C   UNL     1      56.698  29.417  51.819  1.00  0.00    -0.000 C 
BRANCH   9  10
ATOM     10  C   UNL     1      55.726  29.425  50.619  1.00  0.00    -0.000 C 
BRANCH  10  11
ATOM     11  C   UNL     1      55.010  28.079  50.439  1.00  0.00    -0.003 C 
ATOM     12  C   UNL     1      54.683  27.443  51.786  1.00  0.00     0.004 C 
ENDBRANCH  10  11
ENDBRANCH   9  10
ENDBRANCH   8   9
ENDBRANCH   7   8
ENDBRANCH   6   7
ENDBRANCH   5   6
ENDBRANCH   4   5
ENDBRANCH   3   4
ENDBRANCH   2   3
ENDBRANCH   1   2
BRANCH   1  13
ATOM     13  C   UNL     1      60.077  22.725  51.676  1.00  0.00     0.000 C 
BRANCH  13  14
ATOM     14  C   UNL     1      60.556  23.193  50.292  1.00  0.00     0.000 C 
BRANCH  14  15
ATOM     15  C   UNL     1      61.529  22.201  49.633  1.00  0.00     0.000 C 
BRANCH  15  16
ATOM     16  C   UNL     1      60.942  21.573  48.350  1.00  0.00     0.000 C 
BRANCH  16  17
ATOM     17  C   UNL     1      60.173  20.261  48.594  1.00  0.00     0.000 C 
BRANCH  17  18
ATOM     18  C   UNL     1      60.865  19.274  49.549  1.00  0.00     0.000 C 
BRANCH  18  19
ATOM     19  C   UNL     1      59.870  18.525  50.454  1.00  0.00     0.000 C 
BRANCH  19  20
ATOM     20  C   UNL     1      58.518  19.250  50.566  1.00  0.00     0.006 C 
BRANCH  20  21
ATOM     21  C   UNL     1      57.338  18.349  50.176  1.00  0.00     0.053 C 
BRANCH  21  22
ATOM     22  C   UNL     1      56.106  18.734  50.932  1.00  0.00     0.041 C 
ATOM     23  O   UNL     1      55.072  19.102  50.311  1.00  0.00    -0.550 OA
ATOM     24  O   UNL     1      56.089  18.672  52.321  1.00  0.00    -0.550 OA
ENDBRANCH  21  22
ENDBRANCH  20  21
ENDBRANCH  19  20
ENDBRANCH  18  19
ENDBRANCH  17  18
ENDBRANCH  16  17
ENDBRANCH  15  16
ENDBRANCH  14  15
ENDBRANCH  13  14
ENDBRANCH   1  13
TORSDOF 20
ENDMDL
MODEL 4
REMARK VINA RESULT:    -4.010      3.758      6.938
REMARK INTER + INTRA:         -10.389
REMARK INTER:                  -6.951
REMARK INTRA:                  -3.437
REMARK UNBOUND:                -1.690
REMARK SMILES CCCCCCCCCCCCCCCCCCCCCC(=O)[O-]
REMARK SMILES IDX 12 1 11 2 10 3 9 4 8 5 7 6 6 7 5 8 4 9 3 10 2 11 1 12 13 13
REMARK SMILES IDX 14 14 15 15 16 16 17 17 18 18 19 19 20 20 21 21 22 22 23 23
REMARK SMILES IDX 24 24
REMARK H PARENT
REMARK Flexibility Score: inf
ROOT
ATOM      1  C   UNL     1      56.119  26.188  51.663  1.00  0.00     0.000 C 
ENDROOT
BRANCH   1   2
ATOM      2  C   UNL     1      56.186  26.243  50.128  1.00  0.00     0.000 C 
BRANCH   2   3
ATOM      3  C   UNL     1      54.799  26.194  49.471  1.00  0.00     0.000 C 
BRANCH   3   4
ATOM      4  C   UNL     1      53.744  26.835  50.384  1.00  0.00    -0.000 C 
BRANCH   4   5
ATOM      5  C   UNL     1      53.253  28.194  49.860  1.00  0.00    -0.000 C 
BRANCH   5   6
ATOM      6  C   UNL     1      54.133  29.363  50.331  1.00  0.00    -0.000 C 
BRANCH   6   7
ATOM      7  C   UNL     1      53.964  29.598  51.839  1.00  0.00    -0.000 C 
BRANCH   7   8
ATOM      8  C   UNL     1      54.107  31.079  52.230  1.00  0.00    -0.000 C 
BRANCH   8   9
ATOM      9  C   UNL     1      55.410  31.431  52.973  1.00  0.00    -0.000 C 
BRANCH   9  10
ATOM     10  C   UNL     1      55.214  32.426  54.138  1.00  0.00    -0.000 C 
BRANCH  10  11
ATOM     11  C   UNL     1      55.231  31.732  55.507  1.00  0.00    -0.003 C 
ATOM     12  C   UNL     1      55.946  30.387  55.436  1.00  0.00     0.004 C 
ENDBRANCH  10  11
ENDBRANCH   9  10
ENDBRANCH   8   9
ENDBRANCH   7   8
ENDBRANCH   6   7
ENDBRANCH   5   6
ENDBRANCH   4   5
ENDBRANCH   3   4
ENDBRANCH   2   3
ENDBRANCH   1   2
BRANCH   1  13
ATOM     13  C   UNL     1      57.384  26.757  52.331  1.00  0.00     0.000 C 
BRANCH  13  14
ATOM     14  C   UNL     1      57.243  28.244  52.694  1.00  0.00     0.000 C 
BRANCH  14  15
ATOM     15  C   UNL     1      58.257  29.135  51.956  1.00  0.00     0.000 C 
BRANCH  15  16
ATOM     16  C   UNL     1      57.733  29.595  50.578  1.00  0.00     0.000 C 
BRANCH  16  17
ATOM     17  C   UNL     1      58.801  29.578  49.468  1.00  0.00     0.000 C 
BRANCH  17  18
ATOM     18  C   UNL     1      59.344  28.184  49.114  1.00  0.00     0.000 C 
BRANCH  18  19
ATOM     19  C   UNL     1      60.782  27.961  49.613  1.00  0.00     0.000 C 
BRANCH  19  20
ATOM     20  C   UNL     1      60.978  26.568  50.237  1.00  0.00     0.006 C 
BRANCH  20  21
ATOM     21  C   UNL     1      59.817  25.616  49.915  1.00  0.00     0.053 C 
BRANCH  21  22
ATOM     22  C   UNL     1      60.134  24.225  50.365  1.00  0.00     0.041 C 
ATOM     23  O   UNL     1      60.881  23.489  49.665  1.00  0.00    -0.550 OA
ATOM     24  O   UNL     1      59.618  23.742  51.562  1.00  0.00    -0.550 OA
ENDBRANCH  21  22
ENDBRANCH  20  21
ENDBRANCH  19  20
ENDBRANCH  18  19
ENDBRANCH  17  18
ENDBRANCH  16  17
ENDBRANCH  15  16
ENDBRANCH  14  15
ENDBRANCH  13  14
ENDBRANCH   1  13
TORSDOF 20
ENDMDL
MODEL 5
REMARK VINA RESULT:    -4.010      1.272      1.611
REMARK INTER + INTRA:         -10.389
REMARK INTER:                  -8.392
REMARK INTRA:                  -1.996
REMARK UNBOUND:                -1.690
REMARK SMILES CCCCCCCCCCCCCCCCCCCCCC(=O)[O-]
REMARK SMILES IDX 12 1 11 2 10 3 9 4 8 5 7 6 6 7 5 8 4 9 3 10 2 11 1 12 13 13
REMARK SMILES IDX 14 14 15 15 16 16 17 17 18 18 19 19 20 20 21 21 22 22 23 23
REMARK SMILES IDX 24 24
REMARK H PARENT
REMARK Flexibility Score: inf
ROOT
ATOM      1  C   UNL     1      60.673  25.410  50.030  1.00  0.00     0.000 C 
ENDROOT
BRANCH   1   2
ATOM      2  C   UNL     1      61.524  26.606  50.489  1.00  0.00     0.000 C 
BRANCH   2   3
ATOM      3  C   UNL     1      60.748  27.931  50.462  1.00  0.00     0.000 C 
BRANCH   3   4
ATOM      4  C   UNL     1      59.969  28.076  49.147  1.00  0.00    -0.000 C 
BRANCH   4   5
ATOM      5  C   UNL     1      58.866  29.144  49.225  1.00  0.00    -0.000 C 
BRANCH   5   6
ATOM      6  C   UNL     1      58.534  29.548  50.669  1.00  0.00    -0.000 C 
BRANCH   6   7
ATOM      7  C   UNL     1      57.169  28.984  51.092  1.00  0.00    -0.000 C 
BRANCH   7   8
ATOM      8  C   UNL     1      57.291  27.779  52.040  1.00  0.00    -0.000 C 
BRANCH   8   9
ATOM      9  C   UNL     1      57.150  26.403  51.362  1.00  0.00    -0.000 C 
BRANCH   9  10
ATOM     10  C   UNL     1      56.418  26.451  50.003  1.00  0.00    -0.000 C 
BRANCH  10  11
ATOM     11  C   UNL     1      54.950  26.017  50.115  1.00  0.00    -0.003 C 
ATOM     12  C   UNL     1      54.007  27.158  49.748  1.00  0.00     0.004 C 
ENDBRANCH  10  11
ENDBRANCH   9  10
ENDBRANCH   8   9
ENDBRANCH   7   8
ENDBRANCH   6   7
ENDBRANCH   5   6
ENDBRANCH   4   5
ENDBRANCH   3   4
ENDBRANCH   2   3
ENDBRANCH   1   2
BRANCH   1  13
ATOM     13  C   UNL     1      61.286  24.057  50.437  1.00  0.00     0.000 C 
BRANCH  13  14
ATOM     14  C   UNL     1      60.409  22.863  50.028  1.00  0.00     0.000 C 
BRANCH  14  15
ATOM     15  C   UNL     1      60.940  22.135  48.782  1.00  0.00     0.000 C 
BRANCH  15  16
ATOM     16  C   UNL     1      61.154  20.626  49.035  1.00  0.00     0.000 C 
BRANCH  16  17
ATOM     17  C   UNL     1      60.020  19.736  48.492  1.00  0.00     0.000 C 
BRANCH  17  18
ATOM     18  C   UNL     1      58.886  19.453  49.491  1.00  0.00     0.000 C 
BRANCH  18  19
ATOM     19  C   UNL     1      59.231  18.328  50.482  1.00  0.00     0.000 C 
BRANCH  19  20
ATOM     20  C   UNL     1      57.988  17.548  50.941  1.00  0.00     0.006 C 
BRANCH  20  21
ATOM     21  C   UNL     1      57.272  18.229  52.116  1.00  0.00     0.053 C 
BRANCH  21  22
ATOM     22  C   UNL     1      55.939  18.756  51.690  1.00  0.00     0.041 C 
ATOM     23  O   UNL     1      55.569  18.644  50.490  1.00  0.00    -0.550 OA
ATOM     24  O   UNL     1      55.095  19.357  52.617  1.00  0.00    -0.550 OA
ENDBRANCH  21  22
ENDBRANCH  20  21
ENDBRANCH  19  20
ENDBRANCH  18  19
ENDBRANCH  17  18
ENDBRANCH  16  17
ENDBRANCH  15  16
ENDBRANCH  14  15
ENDBRANCH  13  14
ENDBRANCH   1  13
TORSDOF 20
ENDMDL
MODEL 6
REMARK VINA RESULT:    -3.903      4.015      8.288
REMARK INTER + INTRA:         -10.157
REMARK INTER:                  -7.390
REMARK INTRA:                  -2.768
REMARK UNBOUND:                -1.690
REMARK SMILES CCCCCCCCCCCCCCCCCCCCCC(=O)[O-]
REMARK SMILES IDX 12 1 11 2 10 3 9 4 8 5 7 6 6 7 5 8 4 9 3 10 2 11 1 12 13 13
REMARK SMILES IDX 14 14 15 15 16 16 17 17 18 18 19 19 20 20 21 21 22 22 23 23
REMARK SMILES IDX 24 24
REMARK H PARENT
REMARK Flexibility Score: inf
ROOT
ATOM      1  C   UNL     1      57.516  29.344  52.729  1.00  0.00     0.000 C 
ENDROOT
BRANCH   1   2
ATOM      2  C   UNL     1      58.209  29.983  51.514  1.00  0.00     0.000 C 
BRANCH   2   3
ATOM      3  C   UNL     1      57.894  29.254  50.200  1.00  0.00     0.000 C 
BRANCH   3   4
ATOM      4  C   UNL     1      59.189  28.891  49.459  1.00  0.00    -0.000 C 
BRANCH   4   5
ATOM      5  C   UNL     1      59.354  27.375  49.260  1.00  0.00    -0.000 C 
BRANCH   5   6
ATOM      6  C   UNL     1      60.036  26.692  50.455  1.00  0.00    -0.000 C 
BRANCH   6   7
ATOM      7  C   UNL     1      60.134  25.175  50.231  1.00  0.00    -0.000 C 
BRANCH   7   8
ATOM      8  C   UNL     1      61.487  24.595  50.675  1.00  0.00    -0.000 C 
BRANCH   8   9
ATOM      9  C   UNL     1      61.726  23.126  50.274  1.00  0.00    -0.000 C 
BRANCH   9  10
ATOM     10  C   UNL     1      60.687  22.579  49.270  1.00  0.00    -0.000 C 
BRANCH  10  11
ATOM     11  C   UNL     1      61.171  21.303  48.567  1.00  0.00    -0.003 C 
ATOM     12  C   UNL     1      60.087  20.230  48.561  1.00  0.00     0.004 C 
ENDBRANCH  10  11
ENDBRANCH   9  10
ENDBRANCH   8   9
ENDBRANCH   7   8
ENDBRANCH   6   7
ENDBRANCH   5   6
ENDBRANCH   4   5
ENDBRANCH   3   4
ENDBRANCH   2   3
ENDBRANCH   1   2
BRANCH   1  13
ATOM     13  C   UNL     1      57.721  27.819  52.793  1.00  0.00     0.000 C 
BRANCH  13  14
ATOM     14  C   UNL     1      56.408  27.038  52.622  1.00  0.00     0.000 C 
BRANCH  14  15
ATOM     15  C   UNL     1      56.529  25.886  51.610  1.00  0.00     0.000 C 
BRANCH  15  16
ATOM     16  C   UNL     1      55.401  25.915  50.556  1.00  0.00     0.000 C 
BRANCH  16  17
ATOM     17  C   UNL     1      55.090  27.324  50.015  1.00  0.00     0.000 C 
BRANCH  17  18
ATOM     18  C   UNL     1      53.609  27.579  49.688  1.00  0.00     0.000 C 
BRANCH  18  19
ATOM     19  C   UNL     1      53.146  28.990  50.088  1.00  0.00     0.000 C 
BRANCH  19  20
ATOM     20  C   UNL     1      54.175  29.719  50.969  1.00  0.00     0.006 C 
BRANCH  20  21
ATOM     21  C   UNL     1      53.836  29.626  52.463  1.00  0.00     0.053 C 
BRANCH  21  22
ATOM     22  C   UNL     1      53.981  30.960  53.123  1.00  0.00     0.041 C 
ATOM     23  O   UNL     1      53.196  31.295  54.051  1.00  0.00    -0.550 OA
ATOM     24  O   UNL     1      54.992  31.830  52.728  1.00  0.00    -0.550 OA
ENDBRANCH  21  22
ENDBRANCH  20  21
ENDBRANCH  19  20
ENDBRANCH  18  19
ENDBRANCH  17  18
ENDBRANCH  16  17
ENDBRANCH  15  16
ENDBRANCH  14  15
ENDBRANCH  13  14
ENDBRANCH   1  13
TORSDOF 20
ENDMDL
MODEL 7
REMARK VINA RESULT:    -3.903      6.351      8.680
REMARK INTER + INTRA:         -10.157
REMARK INTER:                  -6.871
REMARK INTRA:                  -3.286
REMARK UNBOUND:                -1.690
REMARK SMILES CCCCCCCCCCCCCCCCCCCCCC(=O)[O-]
REMARK SMILES IDX 12 1 11 2 10 3 9 4 8 5 7 6 6 7 5 8 4 9 3 10 2 11 1 12 13 13
REMARK SMILES IDX 14 14 15 15 16 16 17 17 18 18 19 19 20 20 21 21 22 22 23 23
REMARK SMILES IDX 24 24
REMARK H PARENT
REMARK Flexibility Score: inf
ROOT
ATOM      1  C   UNL     1      57.149  29.574  52.280  1.00  0.00     0.000 C 
ENDROOT
BRANCH   1   2
ATOM      2  C   UNL     1      57.361  28.137  52.787  1.00  0.00     0.000 C 
BRANCH   2   3
ATOM      3  C   UNL     1      56.133  27.242  52.565  1.00  0.00     0.000 C 
BRANCH   3   4
ATOM      4  C   UNL     1      56.460  26.110  51.580  1.00  0.00    -0.000 C 
BRANCH   4   5
ATOM      5  C   UNL     1      55.543  26.112  50.347  1.00  0.00    -0.000 C 
BRANCH   5   6
ATOM      6  C   UNL     1      55.031  27.516  49.992  1.00  0.00    -0.000 C 
BRANCH   6   7
ATOM      7  C   UNL     1      53.505  27.511  49.817  1.00  0.00    -0.000 C 
BRANCH   7   8
ATOM      8  C   UNL     1      52.875  28.896  50.042  1.00  0.00    -0.000 C 
BRANCH   8   9
ATOM      9  C   UNL     1      53.872  30.007  50.423  1.00  0.00    -0.000 C 
BRANCH   9  10
ATOM     10  C   UNL     1      53.573  30.671  51.785  1.00  0.00    -0.000 C 
BRANCH  10  11
ATOM     11  C   UNL     1      53.280  29.640  52.885  1.00  0.00    -0.003 C 
ATOM     12  C   UNL     1      53.977  30.010  54.189  1.00  0.00     0.004 C 
ENDBRANCH  10  11
ENDBRANCH   9  10
ENDBRANCH   8   9
ENDBRANCH   7   8
ENDBRANCH   6   7
ENDBRANCH   5   6
ENDBRANCH   4   5
ENDBRANCH   3   4
ENDBRANCH   2   3
ENDBRANCH   1   2
BRANCH   1  13
ATOM     13  C   UNL     1      58.183  29.984  51.215  1.00  0.00     0.000 C 
BRANCH  13  14
ATOM     14  C   UNL     1      57.911  29.337  49.847  1.00  0.00     0.000 C 
BRANCH  14  15
ATOM     15  C   UNL     1      59.177  28.740  49.210  1.00  0.00     0.000 C 
BRANCH  15  16
ATOM     16  C   UNL     1      59.451  27.301  49.696  1.00  0.00     0.000 C 
BRANCH  16  17
ATOM     17  C   UNL     1      60.943  26.996  49.930  1.00  0.00     0.000 C 
BRANCH  17  18
ATOM     18  C   UNL     1      61.911  28.088  49.445  1.00  0.00     0.000 C 
BRANCH  18  19
ATOM     19  C   UNL     1      62.514  28.905  50.602  1.00  0.00     0.000 C 
BRANCH  19  20
ATOM     20  C   UNL     1      63.074  30.259  50.135  1.00  0.00     0.006 C 
BRANCH  20  21
ATOM     21  C   UNL     1      61.965  31.285  49.859  1.00  0.00     0.053 C 
BRANCH  21  22
ATOM     22  C   UNL     1      62.507  32.678  49.919  1.00  0.00     0.041 C 
ATOM     23  O   UNL     1      62.809  33.285  48.855  1.00  0.00    -0.550 OA
ATOM     24  O   UNL     1      62.663  33.317  51.144  1.00  0.00    -0.550 OA
ENDBRANCH  21  22
ENDBRANCH  20  21
ENDBRANCH  19  20
ENDBRANCH  18  19
ENDBRANCH  17  18
ENDBRANCH  16  17
ENDBRANCH  15  16
ENDBRANCH  14  15
ENDBRANCH  13  14
ENDBRANCH   1  13
TORSDOF 20
ENDMDL
MODEL 8
REMARK VINA RESULT:    -3.887      2.797      6.082
REMARK INTER + INTRA:         -10.121
REMARK INTER:                  -7.226
REMARK INTRA:                  -2.895
REMARK UNBOUND:                -1.690
REMARK SMILES CCCCCCCCCCCCCCCCCCCCCC(=O)[O-]
REMARK SMILES IDX 12 1 11 2 10 3 9 4 8 5 7 6 6 7 5 8 4 9 3 10 2 11 1 12 13 13
REMARK SMILES IDX 14 14 15 15 16 16 17 17 18 18 19 19 20 20 21 21 22 22 23 23
REMARK SMILES IDX 24 24
REMARK H PARENT
REMARK Flexibility Score: inf
ROOT
ATOM      1  C   UNL     1      56.595  27.187  51.546  1.00  0.00     0.000 C 
ENDROOT
BRANCH   1   2
ATOM      2  C   UNL     1      56.497  26.257  50.326  1.00  0.00     0.000 C 
BRANCH   2   3
ATOM      3  C   UNL     1      55.095  26.245  49.699  1.00  0.00     0.000 C 
BRANCH   3   4
ATOM      4  C   UNL     1      54.099  27.008  50.585  1.00  0.00    -0.000 C 
BRANCH   4   5
ATOM      5  C   UNL     1      53.417  28.170  49.847  1.00  0.00    -0.000 C 
BRANCH   5   6
ATOM      6  C   UNL     1      53.933  29.544  50.301  1.00  0.00    -0.000 C 
BRANCH   6   7
ATOM      7  C   UNL     1      53.854  29.678  51.830  1.00  0.00    -0.000 C 
BRANCH   7   8
ATOM      8  C   UNL     1      54.399  31.023  52.339  1.00  0.00    -0.000 C 
BRANCH   8   9
ATOM      9  C   UNL     1      55.782  30.948  53.013  1.00  0.00    -0.000 C 
BRANCH   9  10
ATOM     10  C   UNL     1      55.877  29.877  54.122  1.00  0.00    -0.000 C 
BRANCH  10  11
ATOM     11  C   UNL     1      55.027  30.233  55.351  1.00  0.00    -0.003 C 
ATOM     12  C   UNL     1      54.276  29.014  55.875  1.00  0.00     0.004 C 
ENDBRANCH  10  11
ENDBRANCH   9  10
ENDBRANCH   8   9
ENDBRANCH   7   8
ENDBRANCH   6   7
ENDBRANCH   5   6
ENDBRANCH   4   5
ENDBRANCH   3   4
ENDBRANCH   2   3
ENDBRANCH   1   2
BRANCH   1  13
ATOM     13  C   UNL     1      57.796  28.148  51.463  1.00  0.00     0.000 C 
BRANCH  13  14
ATOM     14  C   UNL     1      57.617  29.225  50.382  1.00  0.00     0.000 C 
BRANCH  14  15
ATOM     15  C   UNL     1      58.825  29.321  49.434  1.00  0.00     0.000 C 
BRANCH  15  16
ATOM     16  C   UNL     1      59.479  27.945  49.182  1.00  0.00     0.000 C 
BRANCH  16  17
ATOM     17  C   UNL     1      60.945  27.857  49.648  1.00  0.00     0.000 C 
BRANCH  17  18
ATOM     18  C   UNL     1      61.287  26.606  50.473  1.00  0.00     0.000 C 
BRANCH  18  19
ATOM     19  C   UNL     1      60.359  25.418  50.164  1.00  0.00     0.000 C 
BRANCH  19  20
ATOM     20  C   UNL     1      61.139  24.119  49.896  1.00  0.00     0.006 C 
BRANCH  20  21
ATOM     21  C   UNL     1      60.429  22.883  50.468  1.00  0.00     0.053 C 
BRANCH  21  22
ATOM     22  C   UNL     1      60.451  21.757  49.484  1.00  0.00     0.041 C 
ATOM     23  O   UNL     1      61.044  21.894  48.380  1.00  0.00    -0.550 OA
ATOM     24  O   UNL     1      59.833  20.549  49.788  1.00  0.00    -0.550 OA
ENDBRANCH  21  22
ENDBRANCH  20  21
ENDBRANCH  19  20
ENDBRANCH  18  19
ENDBRANCH  17  18
ENDBRANCH  16  17
ENDBRANCH  15  16
ENDBRANCH  14  15
ENDBRANCH  13  14
ENDBRANCH   1  13
TORSDOF 20
ENDMDL
MODEL 9
REMARK VINA RESULT:    -3.877      2.410      8.282
REMARK INTER + INTRA:         -10.100
REMARK INTER:                  -7.624
REMARK INTRA:                  -2.476
REMARK UNBOUND:                -1.690
REMARK SMILES CCCCCCCCCCCCCCCCCCCCCC(=O)[O-]
REMARK SMILES IDX 12 1 11 2 10 3 9 4 8 5 7 6 6 7 5 8 4 9 3 10 2 11 1 12 13 13
REMARK SMILES IDX 14 14 15 15 16 16 17 17 18 18 19 19 20 20 21 21 22 22 23 23
REMARK SMILES IDX 24 24
REMARK H PARENT
REMARK Flexibility Score: inf
ROOT
ATOM      1  C   UNL     1      61.048  22.877  49.252  1.00  0.00     0.000 C 
ENDROOT
BRANCH   1   2
ATOM      2  C   UNL     1      61.339  21.433  48.814  1.00  0.00     0.000 C 
BRANCH   2   3
ATOM      3  C   UNL     1      60.101  20.528  48.891  1.00  0.00     0.000 C 
BRANCH   3   4
ATOM      4  C   UNL     1      60.508  19.077  49.187  1.00  0.00    -0.000 C 
BRANCH   4   5
ATOM      5  C   UNL     1      59.574  18.051  48.525  1.00  0.00    -0.000 C 
BRANCH   5   6
ATOM      6  C   UNL     1      58.958  17.073  49.537  1.00  0.00    -0.000 C 
BRANCH   6   7
ATOM      7  C   UNL     1      57.431  17.233  49.589  1.00  0.00    -0.000 C 
BRANCH   7   8
ATOM      8  C   UNL     1      56.990  18.499  50.343  1.00  0.00    -0.000 C 
BRANCH   8   9
ATOM      9  C   UNL     1      57.582  18.650  51.758  1.00  0.00    -0.000 C 
BRANCH   9  10
ATOM     10  C   UNL     1      58.184  20.045  52.035  1.00  0.00    -0.000 C 
BRANCH  10  11
ATOM     11  C   UNL     1      59.573  19.962  52.684  1.00  0.00    -0.003 C 
ATOM     12  C   UNL     1      60.036  18.515  52.815  1.00  0.00     0.004 C 
ENDBRANCH  10  11
ENDBRANCH   9  10
ENDBRANCH   8   9
ENDBRANCH   7   8
ENDBRANCH   6   7
ENDBRANCH   5   6
ENDBRANCH   4   5
ENDBRANCH   3   4
ENDBRANCH   2   3
ENDBRANCH   1   2
BRANCH   1  13
ATOM     13  C   UNL     1      60.245  22.947  50.564  1.00  0.00     0.000 C 
BRANCH  13  14
ATOM     14  C   UNL     1      59.637  24.337  50.813  1.00  0.00     0.000 C 
BRANCH  14  15
ATOM     15  C   UNL     1      60.564  25.479  50.364  1.00  0.00     0.000 C 
BRANCH  15  16
ATOM     16  C   UNL     1      59.802  26.581  49.595  1.00  0.00     0.000 C 
BRANCH  16  17
ATOM     17  C   UNL     1      59.363  27.765  50.477  1.00  0.00     0.000 C 
BRANCH  17  18
ATOM     18  C   UNL     1      58.394  28.750  49.801  1.00  0.00     0.000 C 
BRANCH  18  19
ATOM     19  C   UNL     1      56.975  28.689  50.393  1.00  0.00     0.000 C 
BRANCH  19  20
ATOM     20  C   UNL     1      56.647  27.311  50.992  1.00  0.00     0.006 C 
BRANCH  20  21
ATOM     21  C   UNL     1      55.966  26.381  49.979  1.00  0.00     0.053 C 
BRANCH  21  22
ATOM     22  C   UNL     1      54.477  26.469  50.097  1.00  0.00     0.041 C 
ATOM     23  O   UNL     1      53.833  25.547  50.666  1.00  0.00    -0.550 OA
ATOM     24  O   UNL     1      53.800  27.574  49.595  1.00  0.00    -0.550 OA
ENDBRANCH  21  22
ENDBRANCH  20  21
ENDBRANCH  19  20
ENDBRANCH  18  19
ENDBRANCH  17  18
ENDBRANCH  16  17
ENDBRANCH  15  16
ENDBRANCH  14  15
ENDBRANCH  13  14
ENDBRANCH   1  13
TORSDOF 20
ENDMDL
