MODEL 1
REMARK VINA RESULT:    -6.254      0.000      0.000
REMARK INTER + INTRA:          -7.410
REMARK INTER:                  -7.717
REMARK INTRA:                   0.306
REMARK UNBOUND:                 0.306
REMARK SMILES Oc1cc(O)c2cc(O)c(-c3cc(O)c(O)c(O)c3)[o+]c2c1
REMARK SMILES IDX 10 1 20 2 21 3 22 4 2 5 3 6 4 7 6 8 7 9 8 10 11 11 12 12
REMARK SMILES IDX 13 13 19 14 15 15 17 16 14 17 16 19 18 21 9 23 1 25 5 27
REMARK H PARENT 14 18 16 20 18 22 9 24 1 26 5 28
REMARK Flexibility Score: inf
ROOT
ATOM      1  C   UNL     1      28.217   2.918  -9.970  1.00  0.00     0.402 A 
ATOM      2  O   UNL     1      28.397   4.212 -10.218  1.00  0.00    -0.202 OA
ATOM      3  C   UNL     1      28.140   4.771 -11.397  1.00  0.00     0.368 A 
ATOM      4  C   UNL     1      28.357   6.142 -11.560  1.00  0.00     0.162 A 
ATOM      5  C   UNL     1      28.094   6.757 -12.784  1.00  0.00     0.128 A 
ATOM      6  C   UNL     1      27.606   5.998 -13.854  1.00  0.00     0.093 A 
ATOM      7  C   UNL     1      27.380   4.623 -13.715  1.00  0.00     0.136 A 
ATOM      8  C   UNL     1      27.650   3.993 -12.473  1.00  0.00     0.125 A 
ATOM      9  C   UNL     1      27.465   2.620 -12.246  1.00  0.00     0.078 A 
ATOM     10  C   UNL     1      27.758   2.070 -10.995  1.00  0.00     0.223 A 
ENDROOT
BRANCH   1  11
ATOM     11  C   UNL     1      28.532   2.414  -8.613  1.00  0.00     0.091 A 
ATOM     12  C   UNL     1      28.056   1.170  -8.165  1.00  0.00     0.068 A 
ATOM     13  C   UNL     1      28.344   0.721  -6.869  1.00  0.00     0.162 A 
ATOM     14  C   UNL     1      29.272   3.218  -7.733  1.00  0.00     0.068 A 
ATOM     15  C   UNL     1      29.106   1.523  -6.003  1.00  0.00     0.200 A 
ATOM     16  C   UNL     1      29.566   2.777  -6.439  1.00  0.00     0.162 A 
BRANCH  13  17
ATOM     17  O   UNL     1      27.872  -0.518  -6.439  1.00  0.00    -0.504 OA
ATOM     18  H   UNL     1      27.027  -0.927  -6.820  1.00  0.00     0.293 HD
ENDBRANCH  13  17
BRANCH  15  19
ATOM     19  O   UNL     1      29.407   1.089  -4.711  1.00  0.00    -0.502 OA
ATOM     20  H   UNL     1      29.722   1.724  -3.988  1.00  0.00     0.293 HD
ENDBRANCH  15  19
BRANCH  16  21
ATOM     21  O   UNL     1      30.317   3.601  -5.600  1.00  0.00    -0.504 OA
ATOM     22  H   UNL     1      30.027   4.545  -5.370  1.00  0.00     0.293 HD
ENDBRANCH  16  21
ENDBRANCH   1  11
BRANCH  10  23
ATOM     23  O   UNL     1      27.622   0.697 -10.785  1.00  0.00    -0.500 OA
ATOM     24  H   UNL     1      28.094   0.019 -11.371  1.00  0.00     0.294 HD
ENDBRANCH  10  23
BRANCH   5  25
ATOM     25  O   UNL     1      28.318   8.125 -12.928  1.00  0.00    -0.507 OA
ATOM     26  H   UNL     1      28.879   8.642 -12.263  1.00  0.00     0.293 HD
ENDBRANCH   5  25
BRANCH   7  27
ATOM     27  O   UNL     1      26.890   3.936 -14.830  1.00  0.00    -0.507 OA
ATOM     28  H   UNL     1      26.348   3.086 -14.783  1.00  0.00     0.293 HD
ENDBRANCH   7  27
TORSDOF 7
ENDMDL
MODEL 2
REMARK VINA RESULT:    -6.028      3.912      6.259
REMARK INTER + INTRA:          -7.131
REMARK INTER:                  -7.088
REMARK INTRA:                  -0.043
REMARK UNBOUND:                 0.306
REMARK SMILES Oc1cc(O)c2cc(O)c(-c3cc(O)c(O)c(O)c3)[o+]c2c1
REMARK SMILES IDX 10 1 20 2 21 3 22 4 2 5 3 6 4 7 6 8 7 9 8 10 11 11 12 12
REMARK SMILES IDX 13 13 19 14 15 15 17 16 14 17 16 19 18 21 9 23 1 25 5 27
REMARK H PARENT 14 18 16 20 18 22 9 24 1 26 5 28
REMARK Flexibility Score: inf
ROOT
ATOM      1  C   UNL     1      27.926   4.455 -14.495  1.00  0.00     0.402 A 
ATOM      2  O   UNL     1      28.928   3.914 -15.182  1.00  0.00    -0.202 OA
ATOM      3  C   UNL     1      29.746   4.619 -15.957  1.00  0.00     0.368 A 
ATOM      4  C   UNL     1      30.775   3.960 -16.636  1.00  0.00     0.162 A 
ATOM      5  C   UNL     1      31.650   4.674 -17.454  1.00  0.00     0.128 A 
ATOM      6  C   UNL     1      31.501   6.059 -17.592  1.00  0.00     0.093 A 
ATOM      7  C   UNL     1      30.479   6.742 -16.921  1.00  0.00     0.136 A 
ATOM      8  C   UNL     1      29.585   6.019 -16.091  1.00  0.00     0.125 A 
ATOM      9  C   UNL     1      28.525   6.617 -15.391  1.00  0.00     0.078 A 
ATOM     10  C   UNL     1      27.680   5.837 -14.595  1.00  0.00     0.223 A 
ENDROOT
BRANCH   1  11
ATOM     11  C   UNL     1      27.088   3.565 -13.659  1.00  0.00     0.091 A 
ATOM     12  C   UNL     1      27.663   2.664 -12.746  1.00  0.00     0.068 A 
ATOM     13  C   UNL     1      26.855   1.813 -11.981  1.00  0.00     0.162 A 
ATOM     14  C   UNL     1      25.695   3.578 -13.819  1.00  0.00     0.068 A 
ATOM     15  C   UNL     1      25.458   1.849 -12.131  1.00  0.00     0.200 A 
ATOM     16  C   UNL     1      24.880   2.733 -13.058  1.00  0.00     0.162 A 
BRANCH  13  17
ATOM     17  O   UNL     1      27.436   0.928 -11.073  1.00  0.00    -0.504 OA
ATOM     18  H   UNL     1      28.442   0.827 -10.999  1.00  0.00     0.293 HD
ENDBRANCH  13  17
BRANCH  15  19
ATOM     19  O   UNL     1      24.638   1.012 -11.372  1.00  0.00    -0.502 OA
ATOM     20  H   UNL     1      24.005   1.370 -10.667  1.00  0.00     0.293 HD
ENDBRANCH  15  19
BRANCH  16  21
ATOM     21  O   UNL     1      23.498   2.787 -13.237  1.00  0.00    -0.504 OA
ATOM     22  H   UNL     1      22.857   2.278 -12.640  1.00  0.00     0.293 HD
ENDBRANCH  16  21
ENDBRANCH   1  11
BRANCH  10  23
ATOM     23  O   UNL     1      26.598   6.424 -13.940  1.00  0.00    -0.500 OA
ATOM     24  H   UNL     1      25.645   6.294 -14.262  1.00  0.00     0.294 HD
ENDBRANCH  10  23
BRANCH   5  25
ATOM     25  O   UNL     1      32.668   4.000 -18.125  1.00  0.00    -0.507 OA
ATOM     26  H   UNL     1      32.747   2.991 -18.089  1.00  0.00     0.293 HD
ENDBRANCH   5  25
BRANCH   7  27
ATOM     27  O   UNL     1      30.398   8.125 -17.110  1.00  0.00    -0.507 OA
ATOM     28  H   UNL     1      30.805   8.619 -17.890  1.00  0.00     0.293 HD
ENDBRANCH   7  27
TORSDOF 7
ENDMDL
MODEL 3
REMARK VINA RESULT:    -5.948      3.980      6.350
REMARK INTER + INTRA:          -7.033
REMARK INTER:                  -7.148
REMARK INTRA:                   0.115
REMARK UNBOUND:                 0.306
REMARK SMILES Oc1cc(O)c2cc(O)c(-c3cc(O)c(O)c(O)c3)[o+]c2c1
REMARK SMILES IDX 10 1 20 2 21 3 22 4 2 5 3 6 4 7 6 8 7 9 8 10 11 11 12 12
REMARK SMILES IDX 13 13 19 14 15 15 17 16 14 17 16 19 18 21 9 23 1 25 5 27
REMARK H PARENT 14 18 16 20 18 22 9 24 1 26 5 28
REMARK Flexibility Score: inf
ROOT
ATOM      1  C   UNL     1      27.872   4.575 -14.898  1.00  0.00     0.402 A 
ATOM      2  O   UNL     1      28.996   4.097 -15.425  1.00  0.00    -0.202 OA
ATOM      3  C   UNL     1      29.762   4.790 -16.261  1.00  0.00     0.368 A 
ATOM      4  C   UNL     1      30.928   4.203 -16.760  1.00  0.00     0.162 A 
ATOM      5  C   UNL     1      31.752   4.907 -17.638  1.00  0.00     0.128 A 
ATOM      6  C   UNL     1      31.412   6.210 -18.018  1.00  0.00     0.093 A 
ATOM      7  C   UNL     1      30.250   6.821 -17.532  1.00  0.00     0.136 A 
ATOM      8  C   UNL     1      29.407   6.107 -16.642  1.00  0.00     0.125 A 
ATOM      9  C   UNL     1      28.216   6.633 -16.115  1.00  0.00     0.078 A 
ATOM     10  C   UNL     1      27.434   5.866 -15.246  1.00  0.00     0.223 A 
ENDROOT
BRANCH   1  11
ATOM     11  C   UNL     1      27.109   3.708 -13.970  1.00  0.00     0.091 A 
ATOM     12  C   UNL     1      25.704   3.692 -13.973  1.00  0.00     0.068 A 
ATOM     13  C   UNL     1      24.999   2.882 -13.071  1.00  0.00     0.162 A 
ATOM     14  C   UNL     1      27.798   2.928 -13.030  1.00  0.00     0.068 A 
ATOM     15  C   UNL     1      25.698   2.086 -12.149  1.00  0.00     0.200 A 
ATOM     16  C   UNL     1      27.103   2.116 -12.129  1.00  0.00     0.162 A 
BRANCH  13  17
ATOM     17  O   UNL     1      23.605   2.869 -13.088  1.00  0.00    -0.504 OA
ATOM     18  H   UNL     1      23.060   3.209 -12.304  1.00  0.00     0.293 HD
ENDBRANCH  13  17
BRANCH  15  19
ATOM     19  O   UNL     1      25.013   1.270 -11.248  1.00  0.00    -0.502 OA
ATOM     20  H   UNL     1      24.054   1.452 -10.976  1.00  0.00     0.293 HD
ENDBRANCH  15  19
BRANCH  16  21
ATOM     21  O   UNL     1      27.827   1.344 -11.219  1.00  0.00    -0.504 OA
ATOM     22  H   UNL     1      27.528   1.221 -10.259  1.00  0.00     0.293 HD
ENDBRANCH  16  21
ENDBRANCH   1  11
BRANCH  10  23
ATOM     23  O   UNL     1      26.227   6.370 -14.762  1.00  0.00    -0.500 OA
ATOM     24  H   UNL     1      26.163   6.823 -13.857  1.00  0.00     0.294 HD
ENDBRANCH  10  23
BRANCH   5  25
ATOM     25  O   UNL     1      32.910   4.305 -18.125  1.00  0.00    -0.507 OA
ATOM     26  H   UNL     1      32.880   3.420 -18.616  1.00  0.00     0.293 HD
ENDBRANCH   5  25
BRANCH   7  27
ATOM     27  O   UNL     1      29.981   8.125 -17.958  1.00  0.00    -0.507 OA
ATOM     28  H   UNL     1      30.587   8.915 -17.793  1.00  0.00     0.293 HD
ENDBRANCH   7  27
TORSDOF 7
ENDMDL
MODEL 4
REMARK VINA RESULT:    -5.868      3.794      8.334
REMARK INTER + INTRA:          -6.934
REMARK INTER:                  -6.700
REMARK INTRA:                  -0.234
REMARK UNBOUND:                 0.306
REMARK SMILES Oc1cc(O)c2cc(O)c(-c3cc(O)c(O)c(O)c3)[o+]c2c1
REMARK SMILES IDX 10 1 20 2 21 3 22 4 2 5 3 6 4 7 6 8 7 9 8 10 11 11 12 12
REMARK SMILES IDX 13 13 19 14 15 15 17 16 14 17 16 19 18 21 9 23 1 25 5 27
REMARK H PARENT 14 18 16 20 18 22 9 24 1 26 5 28
REMARK Flexibility Score: inf
ROOT
ATOM      1  C   UNL     1      28.449   4.481 -15.176  1.00  0.00     0.402 A 
ATOM      2  O   UNL     1      28.647   3.689 -14.126  1.00  0.00    -0.202 OA
ATOM      3  C   UNL     1      27.657   3.191 -13.391  1.00  0.00     0.368 A 
ATOM      4  C   UNL     1      27.965   2.363 -12.308  1.00  0.00     0.162 A 
ATOM      5  C   UNL     1      26.947   1.823 -11.521  1.00  0.00     0.128 A 
ATOM      6  C   UNL     1      25.611   2.109 -11.820  1.00  0.00     0.093 A 
ATOM      7  C   UNL     1      25.276   2.934 -12.900  1.00  0.00     0.136 A 
ATOM      8  C   UNL     1      26.308   3.488 -13.701  1.00  0.00     0.125 A 
ATOM      9  C   UNL     1      26.068   4.335 -14.794  1.00  0.00     0.078 A 
ATOM     10  C   UNL     1      27.138   4.847 -15.535  1.00  0.00     0.223 A 
ENDROOT
BRANCH   1  11
ATOM     11  C   UNL     1      29.634   4.967 -15.920  1.00  0.00     0.091 A 
ATOM     12  C   UNL     1      29.980   6.328 -15.936  1.00  0.00     0.068 A 
ATOM     13  C   UNL     1      31.092   6.772 -16.666  1.00  0.00     0.162 A 
ATOM     14  C   UNL     1      30.395   4.060 -16.673  1.00  0.00     0.068 A 
ATOM     15  C   UNL     1      31.863   5.853 -17.398  1.00  0.00     0.200 A 
ATOM     16  C   UNL     1      31.507   4.494 -17.402  1.00  0.00     0.162 A 
BRANCH  13  17
ATOM     17  O   UNL     1      31.430   8.125 -16.668  1.00  0.00    -0.504 OA
ATOM     18  H   UNL     1      32.221   8.474 -17.197  1.00  0.00     0.293 HD
ENDBRANCH  13  17
BRANCH  15  19
ATOM     19  O   UNL     1      32.975   6.277 -18.125  1.00  0.00    -0.502 OA
ATOM     20  H   UNL     1      33.524   5.642 -18.692  1.00  0.00     0.293 HD
ENDBRANCH  15  19
BRANCH  16  21
ATOM     21  O   UNL     1      32.246   3.557 -18.125  1.00  0.00    -0.504 OA
ATOM     22  H   UNL     1      33.078   3.812 -18.644  1.00  0.00     0.293 HD
ENDBRANCH  16  21
ENDBRANCH   1  11
BRANCH  10  23
ATOM     23  O   UNL     1      26.901   5.728 -16.590  1.00  0.00    -0.500 OA
ATOM     24  H   UNL     1      27.536   5.800 -17.377  1.00  0.00     0.294 HD
ENDBRANCH  10  23
BRANCH   5  25
ATOM     25  O   UNL     1      27.275   1.002 -10.444  1.00  0.00    -0.507 OA
ATOM     26  H   UNL     1      27.317   1.360  -9.499  1.00  0.00     0.293 HD
ENDBRANCH   5  25
BRANCH   7  27
ATOM     27  O   UNL     1      23.918   3.169 -13.134  1.00  0.00    -0.507 OA
ATOM     28  H   UNL     1      23.350   2.639 -13.778  1.00  0.00     0.293 HD
ENDBRANCH   7  27
TORSDOF 7
ENDMDL
MODEL 5
REMARK VINA RESULT:    -5.237      2.612      4.851
REMARK INTER + INTRA:          -6.155
REMARK INTER:                  -5.932
REMARK INTRA:                  -0.223
REMARK UNBOUND:                 0.306
REMARK SMILES Oc1cc(O)c2cc(O)c(-c3cc(O)c(O)c(O)c3)[o+]c2c1
REMARK SMILES IDX 10 1 20 2 21 3 22 4 2 5 3 6 4 7 6 8 7 9 8 10 11 11 12 12
REMARK SMILES IDX 13 13 19 14 15 15 17 16 14 17 16 19 18 21 9 23 1 25 5 27
REMARK H PARENT 14 18 16 20 18 22 9 24 1 26 5 28
REMARK Flexibility Score: inf
ROOT
ATOM      1  C   UNL     1      27.077   4.237 -13.857  1.00  0.00     0.402 A 
ATOM      2  O   UNL     1      28.097   4.755 -14.535  1.00  0.00    -0.202 OA
ATOM      3  C   UNL     1      27.951   5.431 -15.670  1.00  0.00     0.368 A 
ATOM      4  C   UNL     1      29.085   5.942 -16.308  1.00  0.00     0.162 A 
ATOM      5  C   UNL     1      28.962   6.658 -17.499  1.00  0.00     0.128 A 
ATOM      6  C   UNL     1      27.696   6.869 -18.056  1.00  0.00     0.093 A 
ATOM      7  C   UNL     1      26.544   6.369 -17.436  1.00  0.00     0.136 A 
ATOM      8  C   UNL     1      26.666   5.637 -16.227  1.00  0.00     0.125 A 
ATOM      9  C   UNL     1      25.570   5.088 -15.542  1.00  0.00     0.078 A 
ATOM     10  C   UNL     1      25.768   4.375 -14.356  1.00  0.00     0.223 A 
ENDROOT
BRANCH   1  11
ATOM     11  C   UNL     1      27.368   3.511 -12.599  1.00  0.00     0.091 A 
ATOM     12  C   UNL     1      27.916   4.169 -11.485  1.00  0.00     0.068 A 
ATOM     13  C   UNL     1      28.206   3.461 -10.311  1.00  0.00     0.162 A 
ATOM     14  C   UNL     1      27.146   2.128 -12.533  1.00  0.00     0.068 A 
ATOM     15  C   UNL     1      27.959   2.080 -10.246  1.00  0.00     0.200 A 
ATOM     16  C   UNL     1      27.431   1.414 -11.365  1.00  0.00     0.162 A 
BRANCH  13  17
ATOM     17  O   UNL     1      28.743   4.126  -9.209  1.00  0.00    -0.504 OA
ATOM     18  H   UNL     1      28.627   5.125  -9.082  1.00  0.00     0.293 HD
ENDBRANCH  13  17
BRANCH  15  19
ATOM     19  O   UNL     1      28.237   1.360  -9.083  1.00  0.00    -0.502 OA
ATOM     20  H   UNL     1      29.181   1.237  -8.737  1.00  0.00     0.293 HD
ENDBRANCH  15  19
BRANCH  16  21
ATOM     21  O   UNL     1      27.182   0.041 -11.336  1.00  0.00    -0.504 OA
ATOM     22  H   UNL     1      27.184  -0.525 -12.177  1.00  0.00     0.293 HD
ENDBRANCH  16  21
ENDBRANCH   1  11
BRANCH  10  23
ATOM     23  O   UNL     1      24.685   3.787 -13.703  1.00  0.00    -0.500 OA
ATOM     24  H   UNL     1      23.735   3.898 -14.040  1.00  0.00     0.294 HD
ENDBRANCH  10  23
BRANCH   5  25
ATOM     25  O   UNL     1      30.104   7.157 -18.121  1.00  0.00    -0.507 OA
ATOM     26  H   UNL     1      31.016   7.087 -17.687  1.00  0.00     0.293 HD
ENDBRANCH   5  25
BRANCH   7  27
ATOM     27  O   UNL     1      25.317   6.625 -18.055  1.00  0.00    -0.507 OA
ATOM     28  H   UNL     1      25.211   7.120 -18.927  1.00  0.00     0.293 HD
ENDBRANCH   7  27
TORSDOF 7
ENDMDL
MODEL 6
REMARK VINA RESULT:    -5.213      3.448      5.535
REMARK INTER + INTRA:          -6.125
REMARK INTER:                  -6.324
REMARK INTRA:                   0.199
REMARK UNBOUND:                 0.306
REMARK SMILES Oc1cc(O)c2cc(O)c(-c3cc(O)c(O)c(O)c3)[o+]c2c1
REMARK SMILES IDX 10 1 20 2 21 3 22 4 2 5 3 6 4 7 6 8 7 9 8 10 11 11 12 12
REMARK SMILES IDX 13 13 19 14 15 15 17 16 14 17 16 19 18 21 9 23 1 25 5 27
REMARK H PARENT 14 18 16 20 18 22 9 24 1 26 5 28
REMARK Flexibility Score: inf
ROOT
ATOM      1  C   UNL     1      27.380   4.518 -14.499  1.00  0.00     0.402 A 
ATOM      2  O   UNL     1      28.655   4.591 -14.873  1.00  0.00    -0.202 OA
ATOM      3  C   UNL     1      29.096   5.435 -15.801  1.00  0.00     0.368 A 
ATOM      4  C   UNL     1      30.456   5.440 -16.124  1.00  0.00     0.162 A 
ATOM      5  C   UNL     1      30.947   6.317 -17.092  1.00  0.00     0.128 A 
ATOM      6  C   UNL     1      30.075   7.198 -17.740  1.00  0.00     0.093 A 
ATOM      7  C   UNL     1      28.709   7.213 -17.434  1.00  0.00     0.136 A 
ATOM      8  C   UNL     1      28.204   6.321 -16.453  1.00  0.00     0.125 A 
ATOM      9  C   UNL     1      26.849   6.256 -16.092  1.00  0.00     0.078 A 
ATOM     10  C   UNL     1      26.425   5.346 -15.118  1.00  0.00     0.223 A 
ENDROOT
BRANCH   1  11
ATOM     11  C   UNL     1      27.014   3.542 -13.447  1.00  0.00     0.091 A 
ATOM     12  C   UNL     1      25.748   2.931 -13.425  1.00  0.00     0.068 A 
ATOM     13  C   UNL     1      25.411   2.028 -12.408  1.00  0.00     0.162 A 
ATOM     14  C   UNL     1      27.925   3.262 -12.419  1.00  0.00     0.068 A 
ATOM     15  C   UNL     1      26.339   1.735 -11.395  1.00  0.00     0.200 A 
ATOM     16  C   UNL     1      27.598   2.360 -11.401  1.00  0.00     0.162 A 
BRANCH  13  17
ATOM     17  O   UNL     1      24.155   1.423 -12.401  1.00  0.00    -0.504 OA
ATOM     18  H   UNL     1      23.760   1.029 -11.555  1.00  0.00     0.293 HD
ENDBRANCH  13  17
BRANCH  15  19
ATOM     19  O   UNL     1      26.022   0.833 -10.378  1.00  0.00    -0.502 OA
ATOM     20  H   UNL     1      25.852   1.132  -9.425  1.00  0.00     0.293 HD
ENDBRANCH  15  19
BRANCH  16  21
ATOM     21  O   UNL     1      28.538   2.097 -10.405  1.00  0.00    -0.504 OA
ATOM     22  H   UNL     1      29.167   1.303 -10.452  1.00  0.00     0.293 HD
ENDBRANCH  16  21
ENDBRANCH   1  11
BRANCH  10  23
ATOM     23  O   UNL     1      25.072   5.247 -14.795  1.00  0.00    -0.500 OA
ATOM     24  H   UNL     1      24.763   4.922 -13.885  1.00  0.00     0.294 HD
ENDBRANCH  10  23
BRANCH   5  25
ATOM     25  O   UNL     1      32.306   6.307 -17.401  1.00  0.00    -0.507 OA
ATOM     26  H   UNL     1      32.654   6.692 -18.269  1.00  0.00     0.293 HD
ENDBRANCH   5  25
BRANCH   7  27
ATOM     27  O   UNL     1      27.904   8.124 -18.125  1.00  0.00    -0.507 OA
ATOM     28  H   UNL     1      27.049   7.881 -18.603  1.00  0.00     0.293 HD
ENDBRANCH   7  27
TORSDOF 7
ENDMDL
MODEL 7
REMARK VINA RESULT:    -5.019      4.058      5.665
REMARK INTER + INTRA:          -5.886
REMARK INTER:                  -5.690
REMARK INTRA:                  -0.195
REMARK UNBOUND:                 0.306
REMARK SMILES Oc1cc(O)c2cc(O)c(-c3cc(O)c(O)c(O)c3)[o+]c2c1
REMARK SMILES IDX 10 1 20 2 21 3 22 4 2 5 3 6 4 7 6 8 7 9 8 10 11 11 12 12
REMARK SMILES IDX 13 13 19 14 15 15 17 16 14 17 16 19 18 21 9 23 1 25 5 27
REMARK H PARENT 14 18 16 20 18 22 9 24 1 26 5 28
REMARK Flexibility Score: inf
ROOT
ATOM      1  C   UNL     1      27.711   4.623 -13.666  1.00  0.00     0.402 A 
ATOM      2  O   UNL     1      28.507   5.169 -12.751  1.00  0.00    -0.202 OA
ATOM      3  C   UNL     1      29.405   6.108 -13.032  1.00  0.00     0.368 A 
ATOM      4  C   UNL     1      30.194   6.624 -11.999  1.00  0.00     0.162 A 
ATOM      5  C   UNL     1      31.143   7.612 -12.264  1.00  0.00     0.128 A 
ATOM      6  C   UNL     1      31.303   8.091 -13.569  1.00  0.00     0.093 A 
ATOM      7  C   UNL     1      30.525   7.592 -14.620  1.00  0.00     0.136 A 
ATOM      8  C   UNL     1      29.561   6.584 -14.356  1.00  0.00     0.125 A 
ATOM      9  C   UNL     1      28.746   6.015 -15.347  1.00  0.00     0.078 A 
ATOM     10  C   UNL     1      27.821   5.022 -15.011  1.00  0.00     0.223 A 
ENDROOT
BRANCH   1  11
ATOM     11  C   UNL     1      26.743   3.590 -13.228  1.00  0.00     0.091 A 
ATOM     12  C   UNL     1      25.362   3.750 -13.429  1.00  0.00     0.068 A 
ATOM     13  C   UNL     1      24.460   2.773 -12.986  1.00  0.00     0.162 A 
ATOM     14  C   UNL     1      27.207   2.456 -12.546  1.00  0.00     0.068 A 
ATOM     15  C   UNL     1      24.935   1.628 -12.325  1.00  0.00     0.200 A 
ATOM     16  C   UNL     1      26.314   1.475 -12.103  1.00  0.00     0.162 A 
BRANCH  13  17
ATOM     17  O   UNL     1      23.092   2.939 -13.197  1.00  0.00    -0.504 OA
ATOM     18  H   UNL     1      22.471   3.235 -12.453  1.00  0.00     0.293 HD
ENDBRANCH  13  17
BRANCH  15  19
ATOM     19  O   UNL     1      24.052   0.643 -11.882  1.00  0.00    -0.502 OA
ATOM     20  H   UNL     1      23.055   0.693 -12.056  1.00  0.00     0.293 HD
ENDBRANCH  15  19
BRANCH  16  21
ATOM     21  O   UNL     1      26.818   0.354 -11.442  1.00  0.00    -0.504 OA
ATOM     22  H   UNL     1      27.711   0.367 -10.962  1.00  0.00     0.293 HD
ENDBRANCH  16  21
ENDBRANCH   1  11
BRANCH  10  23
ATOM     23  O   UNL     1      27.047   4.422 -16.004  1.00  0.00    -0.500 OA
ATOM     24  H   UNL     1      26.586   3.531 -15.856  1.00  0.00     0.294 HD
ENDBRANCH  10  23
BRANCH   5  25
ATOM     25  O   UNL     1      31.920   8.113 -11.222  1.00  0.00    -0.507 OA
ATOM     26  H   UNL     1      32.929   8.165 -11.292  1.00  0.00     0.293 HD
ENDBRANCH   5  25
BRANCH   7  27
ATOM     27  O   UNL     1      30.744   8.124 -15.893  1.00  0.00    -0.507 OA
ATOM     28  H   UNL     1      30.012   8.364 -16.545  1.00  0.00     0.293 HD
ENDBRANCH   7  27
TORSDOF 7
ENDMDL
MODEL 8
REMARK VINA RESULT:    -4.821      2.275      4.698
REMARK INTER + INTRA:          -5.642
REMARK INTER:                  -5.668
REMARK INTRA:                   0.026
REMARK UNBOUND:                 0.306
REMARK SMILES Oc1cc(O)c2cc(O)c(-c3cc(O)c(O)c(O)c3)[o+]c2c1
REMARK SMILES IDX 10 1 20 2 21 3 22 4 2 5 3 6 4 7 6 8 7 9 8 10 11 11 12 12
REMARK SMILES IDX 13 13 19 14 15 15 17 16 14 17 16 19 18 21 9 23 1 25 5 27
REMARK H PARENT 14 18 16 20 18 22 9 24 1 26 5 28
REMARK Flexibility Score: inf
ROOT
ATOM      1  C   UNL     1      28.094   4.696 -13.150  1.00  0.00     0.402 A 
ATOM      2  O   UNL     1      27.068   4.717 -13.997  1.00  0.00    -0.202 OA
ATOM      3  C   UNL     1      27.025   5.502 -15.070  1.00  0.00     0.368 A 
ATOM      4  C   UNL     1      25.904   5.451 -15.903  1.00  0.00     0.162 A 
ATOM      5  C   UNL     1      25.831   6.260 -17.037  1.00  0.00     0.128 A 
ATOM      6  C   UNL     1      26.887   7.126 -17.343  1.00  0.00     0.093 A 
ATOM      7  C   UNL     1      28.021   7.195 -16.524  1.00  0.00     0.136 A 
ATOM      8  C   UNL     1      28.097   6.376 -15.368  1.00  0.00     0.125 A 
ATOM      9  C   UNL     1      29.187   6.388 -14.484  1.00  0.00     0.078 A 
ATOM     10  C   UNL     1      29.189   5.554 -13.361  1.00  0.00     0.223 A 
ENDROOT
BRANCH   1  11
ATOM     11  C   UNL     1      28.029   3.770 -11.995  1.00  0.00     0.091 A 
ATOM     12  C   UNL     1      28.395   4.186 -10.704  1.00  0.00     0.068 A 
ATOM     13  C   UNL     1      28.349   3.290  -9.627  1.00  0.00     0.162 A 
ATOM     14  C   UNL     1      27.649   2.436 -12.201  1.00  0.00     0.068 A 
ATOM     15  C   UNL     1      27.945   1.961  -9.838  1.00  0.00     0.200 A 
ATOM     16  C   UNL     1      27.599   1.535 -11.132  1.00  0.00     0.162 A 
BRANCH  13  17
ATOM     17  O   UNL     1      28.708   3.715  -8.349  1.00  0.00    -0.504 OA
ATOM     18  H   UNL     1      28.121   4.343  -7.813  1.00  0.00     0.293 HD
ENDBRANCH  13  17
BRANCH  15  19
ATOM     19  O   UNL     1      27.889   1.056  -8.777  1.00  0.00    -0.502 OA
ATOM     20  H   UNL     1      28.250   1.279  -7.857  1.00  0.00     0.293 HD
ENDBRANCH  15  19
BRANCH  16  21
ATOM     21  O   UNL     1      27.201   0.221 -11.376  1.00  0.00    -0.504 OA
ATOM     22  H   UNL     1      26.226  -0.042 -11.456  1.00  0.00     0.293 HD
ENDBRANCH  16  21
ENDBRANCH   1  11
BRANCH  10  23
ATOM     23  O   UNL     1      30.249   5.602 -12.455  1.00  0.00    -0.500 OA
ATOM     24  H   UNL     1      31.044   4.978 -12.532  1.00  0.00     0.294 HD
ENDBRANCH  10  23
BRANCH   5  25
ATOM     25  O   UNL     1      24.706   6.196 -17.856  1.00  0.00    -0.507 OA
ATOM     26  H   UNL     1      24.780   6.259 -18.863  1.00  0.00     0.293 HD
ENDBRANCH   5  25
BRANCH   7  27
ATOM     27  O   UNL     1      29.033   8.084 -16.900  1.00  0.00    -0.507 OA
ATOM     28  H   UNL     1      29.039   9.068 -16.677  1.00  0.00     0.293 HD
ENDBRANCH   7  27
TORSDOF 7
ENDMDL
