MODEL 1
REMARK VINA RESULT:    -2.856      0.000      0.000
REMARK INTER + INTRA:          -9.994
REMARK INTER:                  -6.529
REMARK INTRA:                  -3.465
REMARK UNBOUND:                -3.465
REMARK SMILES CCCCCCCCCCCCCCCCCCCCCCCC(=O)[O-]
REMARK SMILES IDX 13 1 14 2 15 3 16 4 17 5 18 6 19 7 20 8 21 9 22 10 23 11
REMARK SMILES IDX 24 12 25 13 26 14 12 15 11 16 10 17 9 18 8 19 7 20 6 21 5 22
REMARK SMILES IDX 4 23 3 24 2 25 1 26
REMARK H PARENT
REMARK Flexibility Score: inf
ROOT
ATOM      1  C   UNL     1       3.213  10.147  -0.114  1.00  0.00     0.000 C 
ENDROOT
BRANCH   1   2
ATOM      2  C   UNL     1       3.440  11.342   0.824  1.00  0.00     0.000 C 
BRANCH   2   3
ATOM      3  C   UNL     1       3.010  11.050   2.272  1.00  0.00     0.000 C 
BRANCH   3   4
ATOM      4  C   UNL     1       2.875   9.543   2.554  1.00  0.00     0.000 C 
BRANCH   4   5
ATOM      5  C   UNL     1       3.442   9.146   3.929  1.00  0.00     0.000 C 
BRANCH   5   6
ATOM      6  C   UNL     1       4.442   7.981   3.841  1.00  0.00     0.000 C 
BRANCH   6   7
ATOM      7  C   UNL     1       5.904   8.453   3.844  1.00  0.00     0.000 C 
BRANCH   7   8
ATOM      8  C   UNL     1       6.498   8.399   2.428  1.00  0.00     0.000 C 
BRANCH   8   9
ATOM      9  C   UNL     1       5.774   7.393   1.518  1.00  0.00     0.000 C 
BRANCH   9  10
ATOM     10  C   UNL     1       5.669   7.878   0.064  1.00  0.00     0.006 C 
BRANCH  10  11
ATOM     11  C   UNL     1       6.998   7.689  -0.674  1.00  0.00     0.053 C 
BRANCH  11  12
ATOM     12  C   UNL     1       7.027   6.370  -1.382  1.00  0.00     0.041 C 
ATOM     13  O   UNL     1       6.251   5.443  -1.031  1.00  0.00    -0.550 OA
ATOM     14  O   UNL     1       7.908   6.169  -2.437  1.00  0.00    -0.550 OA
ENDBRANCH  11  12
ENDBRANCH  10  11
ENDBRANCH   9  10
ENDBRANCH   8   9
ENDBRANCH   7   8
ENDBRANCH   6   7
ENDBRANCH   5   6
ENDBRANCH   4   5
ENDBRANCH   3   4
ENDBRANCH   2   3
ENDBRANCH   1   2
BRANCH   1  15
ATOM     15  C   UNL     1       3.350  10.519  -1.599  1.00  0.00     0.000 C 
BRANCH  15  16
ATOM     16  C   UNL     1       3.265  12.041  -1.788  1.00  0.00     0.000 C 
BRANCH  16  17
ATOM     17  C   UNL     1       3.044  12.457  -3.255  1.00  0.00     0.000 C 
BRANCH  17  18
ATOM     18  C   UNL     1       3.752  11.569  -4.298  1.00  0.00    -0.000 C 
BRANCH  18  19
ATOM     19  C   UNL     1       5.191  11.986  -4.653  1.00  0.00    -0.000 C 
BRANCH  19  20
ATOM     20  C   UNL     1       6.301  11.294  -3.839  1.00  0.00    -0.000 C 
BRANCH  20  21
ATOM     21  C   UNL     1       7.642  12.057  -3.815  1.00  0.00    -0.000 C 
BRANCH  21  22
ATOM     22  C   UNL     1       7.894  12.790  -2.483  1.00  0.00    -0.000 C 
BRANCH  22  23
ATOM     23  C   UNL     1       6.815  12.489  -1.428  1.00  0.00    -0.000 C 
BRANCH  23  24
ATOM     24  C   UNL     1       7.143  11.314  -0.487  1.00  0.00    -0.000 C 
BRANCH  24  25
ATOM     25  C   UNL     1       7.110  11.692   1.009  1.00  0.00    -0.003 C 
ATOM     26  C   UNL     1       8.041  12.856   1.337  1.00  0.00     0.004 C 
ENDBRANCH  24  25
ENDBRANCH  23  24
ENDBRANCH  22  23
ENDBRANCH  21  22
ENDBRANCH  20  21
ENDBRANCH  19  20
ENDBRANCH  18  19
ENDBRANCH  17  18
ENDBRANCH  16  17
ENDBRANCH  15  16
ENDBRANCH   1  15
TORSDOF 22
ENDMDL
MODEL 2
REMARK VINA RESULT:    -2.782      1.901      4.992
REMARK INTER + INTRA:          -9.825
REMARK INTER:                  -6.561
REMARK INTRA:                  -3.265
REMARK UNBOUND:                -3.465
REMARK SMILES CCCCCCCCCCCCCCCCCCCCCCCC(=O)[O-]
REMARK SMILES IDX 13 1 14 2 15 3 16 4 17 5 18 6 19 7 20 8 21 9 22 10 23 11
REMARK SMILES IDX 24 12 25 13 26 14 12 15 11 16 10 17 9 18 8 19 7 20 6 21 5 22
REMARK SMILES IDX 4 23 3 24 2 25 1 26
REMARK H PARENT
REMARK Flexibility Score: inf
ROOT
ATOM      1  C   UNL     1       7.181   8.065   0.160  1.00  0.00     0.000 C 
ENDROOT
BRANCH   1   2
ATOM      2  C   UNL     1       6.260   8.790  -0.832  1.00  0.00     0.000 C 
BRANCH   2   3
ATOM      3  C   UNL     1       4.807   8.881  -0.336  1.00  0.00     0.000 C 
BRANCH   3   4
ATOM      4  C   UNL     1       4.038  10.051  -0.977  1.00  0.00     0.000 C 
BRANCH   4   5
ATOM      5  C   UNL     1       2.875  10.545  -0.098  1.00  0.00     0.000 C 
BRANCH   5   6
ATOM      6  C   UNL     1       3.205  11.856   0.635  1.00  0.00     0.000 C 
BRANCH   6   7
ATOM      7  C   UNL     1       3.130  11.717   2.163  1.00  0.00     0.000 C 
BRANCH   7   8
ATOM      8  C   UNL     1       3.983  10.533   2.645  1.00  0.00     0.000 C 
BRANCH   8   9
ATOM      9  C   UNL     1       3.139   9.406   3.264  1.00  0.00     0.000 C 
BRANCH   9  10
ATOM     10  C   UNL     1       3.856   8.047   3.238  1.00  0.00     0.006 C 
BRANCH  10  11
ATOM     11  C   UNL     1       5.336   8.202   3.604  1.00  0.00     0.053 C 
BRANCH  11  12
ATOM     12  C   UNL     1       6.056   6.898   3.454  1.00  0.00     0.041 C 
ATOM     13  O   UNL     1       5.974   6.245   2.381  1.00  0.00    -0.550 OA
ATOM     14  O   UNL     1       6.826   6.408   4.501  1.00  0.00    -0.550 OA
ENDBRANCH  11  12
ENDBRANCH  10  11
ENDBRANCH   9  10
ENDBRANCH   8   9
ENDBRANCH   7   8
ENDBRANCH   6   7
ENDBRANCH   5   6
ENDBRANCH   4   5
ENDBRANCH   3   4
ENDBRANCH   2   3
ENDBRANCH   1   2
BRANCH   1  15
ATOM     15  C   UNL     1       8.110   9.022   0.923  1.00  0.00     0.000 C 
BRANCH  15  16
ATOM     16  C   UNL     1       7.346  10.276   1.376  1.00  0.00     0.000 C 
BRANCH  16  17
ATOM     17  C   UNL     1       7.998  11.587   0.899  1.00  0.00     0.000 C 
BRANCH  17  18
ATOM     18  C   UNL     1       7.042  12.792   0.800  1.00  0.00    -0.000 C 
BRANCH  18  19
ATOM     19  C   UNL     1       6.382  13.003  -0.575  1.00  0.00    -0.000 C 
BRANCH  19  20
ATOM     20  C   UNL     1       7.094  12.326  -1.762  1.00  0.00    -0.000 C 
BRANCH  20  21
ATOM     21  C   UNL     1       6.199  12.106  -3.000  1.00  0.00    -0.000 C 
BRANCH  21  22
ATOM     22  C   UNL     1       6.575  13.014  -4.185  1.00  0.00    -0.000 C 
BRANCH  22  23
ATOM     23  C   UNL     1       7.583  12.353  -5.142  1.00  0.00    -0.000 C 
BRANCH  23  24
ATOM     24  C   UNL     1       7.136  12.305  -6.615  1.00  0.00    -0.000 C 
BRANCH  24  25
ATOM     25  C   UNL     1       5.620  12.515  -6.809  1.00  0.00    -0.003 C 
ATOM     26  C   UNL     1       4.833  11.210  -6.707  1.00  0.00     0.004 C 
ENDBRANCH  24  25
ENDBRANCH  23  24
ENDBRANCH  22  23
ENDBRANCH  21  22
ENDBRANCH  20  21
ENDBRANCH  19  20
ENDBRANCH  18  19
ENDBRANCH  17  18
ENDBRANCH  16  17
ENDBRANCH  15  16
ENDBRANCH   1  15
TORSDOF 22
ENDMDL
MODEL 3
REMARK VINA RESULT:    -2.762      2.644      6.654
REMARK INTER + INTRA:          -9.779
REMARK INTER:                  -7.216
REMARK INTRA:                  -2.563
REMARK UNBOUND:                -3.465
REMARK SMILES CCCCCCCCCCCCCCCCCCCCCCCC(=O)[O-]
REMARK SMILES IDX 13 1 14 2 15 3 16 4 17 5 18 6 19 7 20 8 21 9 22 10 23 11
REMARK SMILES IDX 24 12 25 13 26 14 12 15 11 16 10 17 9 18 8 19 7 20 6 21 5 22
REMARK SMILES IDX 4 23 3 24 2 25 1 26
REMARK H PARENT
REMARK Flexibility Score: inf
ROOT
ATOM      1  C   UNL     1       3.125  10.351   0.882  1.00  0.00     0.000 C 
ENDROOT
BRANCH   1   2
ATOM      2  C   UNL     1       3.898  10.138  -0.428  1.00  0.00     0.000 C 
BRANCH   2   3
ATOM      3  C   UNL     1       3.080  10.528  -1.671  1.00  0.00     0.000 C 
BRANCH   3   4
ATOM      4  C   UNL     1       3.970  10.884  -2.875  1.00  0.00     0.000 C 
BRANCH   4   5
ATOM      5  C   UNL     1       5.467  10.913  -2.515  1.00  0.00     0.000 C 
BRANCH   5   6
ATOM      6  C   UNL     1       6.371  10.970  -3.757  1.00  0.00     0.000 C 
BRANCH   6   7
ATOM      7  C   UNL     1       6.824  12.399  -4.096  1.00  0.00     0.000 C 
BRANCH   7   8
ATOM      8  C   UNL     1       7.330  12.484  -5.544  1.00  0.00     0.000 C 
BRANCH   8   9
ATOM      9  C   UNL     1       6.495  11.634  -6.515  1.00  0.00     0.000 C 
BRANCH   9  10
ATOM     10  C   UNL     1       5.217  12.349  -6.980  1.00  0.00     0.006 C 
BRANCH  10  11
ATOM     11  C   UNL     1       4.472  11.513  -8.026  1.00  0.00     0.053 C 
BRANCH  11  12
ATOM     12  C   UNL     1       3.555  10.532  -7.364  1.00  0.00     0.041 C 
ATOM     13  O   UNL     1       3.034  10.800  -6.249  1.00  0.00    -0.550 OA
ATOM     14  O   UNL     1       3.270   9.322  -7.984  1.00  0.00    -0.550 OA
ENDBRANCH  11  12
ENDBRANCH  10  11
ENDBRANCH   9  10
ENDBRANCH   8   9
ENDBRANCH   7   8
ENDBRANCH   6   7
ENDBRANCH   5   6
ENDBRANCH   4   5
ENDBRANCH   3   4
ENDBRANCH   2   3
ENDBRANCH   1   2
BRANCH   1  15
ATOM     15  C   UNL     1       3.469  11.682   1.569  1.00  0.00     0.000 C 
BRANCH  15  16
ATOM     16  C   UNL     1       4.755  12.282   0.980  1.00  0.00     0.000 C 
BRANCH  16  17
ATOM     17  C   UNL     1       5.850  12.519   2.038  1.00  0.00     0.000 C 
BRANCH  17  18
ATOM     18  C   UNL     1       7.296  12.415   1.513  1.00  0.00    -0.000 C 
BRANCH  18  19
ATOM     19  C   UNL     1       7.541  11.317   0.462  1.00  0.00    -0.000 C 
BRANCH  19  20
ATOM     20  C   UNL     1       7.767   9.900   1.024  1.00  0.00    -0.000 C 
BRANCH  20  21
ATOM     21  C   UNL     1       6.644   9.399   1.957  1.00  0.00    -0.000 C 
BRANCH  21  22
ATOM     22  C   UNL     1       6.711   7.883   2.221  1.00  0.00    -0.000 C 
BRANCH  22  23
ATOM     23  C   UNL     1       5.662   7.095   1.416  1.00  0.00    -0.000 C 
BRANCH  23  24
ATOM     24  C   UNL     1       5.766   7.258  -0.112  1.00  0.00    -0.000 C 
BRANCH  24  25
ATOM     25  C   UNL     1       6.387   6.037  -0.823  1.00  0.00    -0.003 C 
ATOM     26  C   UNL     1       7.459   6.436  -1.835  1.00  0.00     0.004 C 
ENDBRANCH  24  25
ENDBRANCH  23  24
ENDBRANCH  22  23
ENDBRANCH  21  22
ENDBRANCH  20  21
ENDBRANCH  19  20
ENDBRANCH  18  19
ENDBRANCH  17  18
ENDBRANCH  16  17
ENDBRANCH  15  16
ENDBRANCH   1  15
TORSDOF 22
ENDMDL
MODEL 4
REMARK VINA RESULT:    -2.707      1.391      3.879
REMARK INTER + INTRA:          -9.653
REMARK INTER:                  -6.585
REMARK INTRA:                  -3.068
REMARK UNBOUND:                -3.465
REMARK SMILES CCCCCCCCCCCCCCCCCCCCCCCC(=O)[O-]
REMARK SMILES IDX 13 1 14 2 15 3 16 4 17 5 18 6 19 7 20 8 21 9 22 10 23 11
REMARK SMILES IDX 24 12 25 13 26 14 12 15 11 16 10 17 9 18 8 19 7 20 6 21 5 22
REMARK SMILES IDX 4 23 3 24 2 25 1 26
REMARK H PARENT
REMARK Flexibility Score: inf
ROOT
ATOM      1  C   UNL     1       7.328  11.698  -0.304  1.00  0.00     0.000 C 
ENDROOT
BRANCH   1   2
ATOM      2  C   UNL     1       6.959  11.869   1.177  1.00  0.00     0.000 C 
BRANCH   2   3
ATOM      3  C   UNL     1       5.640  12.634   1.377  1.00  0.00     0.000 C 
BRANCH   3   4
ATOM      4  C   UNL     1       4.538  11.755   1.996  1.00  0.00     0.000 C 
BRANCH   4   5
ATOM      5  C   UNL     1       3.953  10.745   0.992  1.00  0.00     0.000 C 
BRANCH   5   6
ATOM      6  C   UNL     1       3.055   9.695   1.667  1.00  0.00     0.000 C 
BRANCH   6   7
ATOM      7  C   UNL     1       3.250   9.638   3.190  1.00  0.00     0.000 C 
BRANCH   7   8
ATOM      8  C   UNL     1       3.919   8.319   3.605  1.00  0.00     0.000 C 
BRANCH   8   9
ATOM      9  C   UNL     1       5.446   8.442   3.735  1.00  0.00     0.000 C 
BRANCH   9  10
ATOM     10  C   UNL     1       6.199   7.455   2.830  1.00  0.00     0.006 C 
BRANCH  10  11
ATOM     11  C   UNL     1       7.028   8.201   1.778  1.00  0.00     0.053 C 
BRANCH  11  12
ATOM     12  C   UNL     1       6.707   7.705   0.403  1.00  0.00     0.041 C 
ATOM     13  O   UNL     1       5.542   7.823  -0.060  1.00  0.00    -0.550 OA
ATOM     14  O   UNL     1       7.699   7.118  -0.372  1.00  0.00    -0.550 OA
ENDBRANCH  11  12
ENDBRANCH  10  11
ENDBRANCH   9  10
ENDBRANCH   8   9
ENDBRANCH   7   8
ENDBRANCH   6   7
ENDBRANCH   5   6
ENDBRANCH   4   5
ENDBRANCH   3   4
ENDBRANCH   2   3
ENDBRANCH   1   2
BRANCH   1  15
ATOM     15  C   UNL     1       7.775  13.012  -0.964  1.00  0.00     0.000 C 
BRANCH  15  16
ATOM     16  C   UNL     1       7.334  13.060  -2.435  1.00  0.00     0.000 C 
BRANCH  16  17
ATOM     17  C   UNL     1       8.517  13.108  -3.420  1.00  0.00     0.000 C 
BRANCH  17  18
ATOM     18  C   UNL     1       8.218  12.550  -4.826  1.00  0.00    -0.000 C 
BRANCH  18  19
ATOM     19  C   UNL     1       6.738  12.241  -5.114  1.00  0.00    -0.000 C 
BRANCH  19  20
ATOM     20  C   UNL     1       6.451  11.596  -6.484  1.00  0.00    -0.000 C 
BRANCH  20  21
ATOM     21  C   UNL     1       4.951  11.473  -6.827  1.00  0.00    -0.000 C 
BRANCH  21  22
ATOM     22  C   UNL     1       4.036  12.118  -5.769  1.00  0.00    -0.000 C 
BRANCH  22  23
ATOM     23  C   UNL     1       2.902  11.180  -5.317  1.00  0.00    -0.000 C 
BRANCH  23  24
ATOM     24  C   UNL     1       2.875  10.885  -3.805  1.00  0.00    -0.000 C 
BRANCH  24  25
ATOM     25  C   UNL     1       4.148  11.343  -3.063  1.00  0.00    -0.003 C 
ATOM     26  C   UNL     1       3.901  12.568  -2.185  1.00  0.00     0.004 C 
ENDBRANCH  24  25
ENDBRANCH  23  24
ENDBRANCH  22  23
ENDBRANCH  21  22
ENDBRANCH  20  21
ENDBRANCH  19  20
ENDBRANCH  18  19
ENDBRANCH  17  18
ENDBRANCH  16  17
ENDBRANCH  15  16
ENDBRANCH   1  15
TORSDOF 22
ENDMDL
MODEL 5
REMARK VINA RESULT:    -2.571      2.330      5.061
REMARK INTER + INTRA:          -9.343
REMARK INTER:                  -6.084
REMARK INTRA:                  -3.259
REMARK UNBOUND:                -3.465
REMARK SMILES CCCCCCCCCCCCCCCCCCCCCCCC(=O)[O-]
REMARK SMILES IDX 13 1 14 2 15 3 16 4 17 5 18 6 19 7 20 8 21 9 22 10 23 11
REMARK SMILES IDX 24 12 25 13 26 14 12 15 11 16 10 17 9 18 8 19 7 20 6 21 5 22
REMARK SMILES IDX 4 23 3 24 2 25 1 26
REMARK H PARENT
REMARK Flexibility Score: inf
ROOT
ATOM      1  C   UNL     1       7.259   8.562   1.714  1.00  0.00     0.000 C 
ENDROOT
BRANCH   1   2
ATOM      2  C   UNL     1       6.378   7.304   1.733  1.00  0.00     0.000 C 
BRANCH   2   3
ATOM      3  C   UNL     1       5.855   6.967   3.139  1.00  0.00     0.000 C 
BRANCH   3   4
ATOM      4  C   UNL     1       5.035   8.115   3.754  1.00  0.00     0.000 C 
BRANCH   4   5
ATOM      5  C   UNL     1       3.680   8.315   3.051  1.00  0.00     0.000 C 
BRANCH   5   6
ATOM      6  C   UNL     1       3.036   9.672   3.384  1.00  0.00     0.000 C 
BRANCH   6   7
ATOM      7  C   UNL     1       2.875  10.571   2.149  1.00  0.00     0.000 C 
BRANCH   7   8
ATOM      8  C   UNL     1       3.650  11.886   2.325  1.00  0.00     0.000 C 
BRANCH   8   9
ATOM      9  C   UNL     1       5.168  11.709   2.153  1.00  0.00     0.000 C 
BRANCH   9  10
ATOM     10  C   UNL     1       5.858  12.981   1.638  1.00  0.00     0.006 C 
BRANCH  10  11
ATOM     11  C   UNL     1       5.917  12.989   0.107  1.00  0.00     0.053 C 
BRANCH  11  12
ATOM     12  C   UNL     1       7.305  12.693  -0.370  1.00  0.00     0.041 C 
ATOM     13  O   UNL     1       8.274  12.728   0.432  1.00  0.00    -0.550 OA
ATOM     14  O   UNL     1       7.526  12.371  -1.703  1.00  0.00    -0.550 OA
ENDBRANCH  11  12
ENDBRANCH  10  11
ENDBRANCH   9  10
ENDBRANCH   8   9
ENDBRANCH   7   8
ENDBRANCH   6   7
ENDBRANCH   5   6
ENDBRANCH   4   5
ENDBRANCH   3   4
ENDBRANCH   2   3
ENDBRANCH   1   2
BRANCH   1  15
ATOM     15  C   UNL     1       7.260   9.270   0.350  1.00  0.00     0.000 C 
BRANCH  15  16
ATOM     16  C   UNL     1       6.234   8.630  -0.596  1.00  0.00     0.000 C 
BRANCH  16  17
ATOM     17  C   UNL     1       4.834   9.265  -0.489  1.00  0.00     0.000 C 
BRANCH  17  18
ATOM     18  C   UNL     1       4.411  10.119  -1.701  1.00  0.00    -0.000 C 
BRANCH  18  19
ATOM     19  C   UNL     1       3.222  11.066  -1.460  1.00  0.00    -0.000 C 
BRANCH  19  20
ATOM     20  C   UNL     1       2.918  12.052  -2.604  1.00  0.00    -0.000 C 
BRANCH  20  21
ATOM     21  C   UNL     1       3.962  12.050  -3.740  1.00  0.00    -0.000 C 
BRANCH  21  22
ATOM     22  C   UNL     1       3.328  12.091  -5.143  1.00  0.00    -0.000 C 
BRANCH  22  23
ATOM     23  C   UNL     1       4.130  11.284  -6.180  1.00  0.00    -0.000 C 
BRANCH  23  24
ATOM     24  C   UNL     1       5.210  12.088  -6.927  1.00  0.00    -0.000 C 
BRANCH  24  25
ATOM     25  C   UNL     1       6.650  11.620  -6.623  1.00  0.00    -0.003 C 
ATOM     26  C   UNL     1       7.118  12.041  -5.232  1.00  0.00     0.004 C 
ENDBRANCH  24  25
ENDBRANCH  23  24
ENDBRANCH  22  23
ENDBRANCH  21  22
ENDBRANCH  20  21
ENDBRANCH  19  20
ENDBRANCH  18  19
ENDBRANCH  17  18
ENDBRANCH  16  17
ENDBRANCH  15  16
ENDBRANCH   1  15
TORSDOF 22
ENDMDL
MODEL 6
REMARK VINA RESULT:    -2.564      2.741      6.780
REMARK INTER + INTRA:          -9.328
REMARK INTER:                  -6.025
REMARK INTRA:                  -3.303
REMARK UNBOUND:                -3.465
REMARK SMILES CCCCCCCCCCCCCCCCCCCCCCCC(=O)[O-]
REMARK SMILES IDX 13 1 14 2 15 3 16 4 17 5 18 6 19 7 20 8 21 9 22 10 23 11
REMARK SMILES IDX 24 12 25 13 26 14 12 15 11 16 10 17 9 18 8 19 7 20 6 21 5 22
REMARK SMILES IDX 4 23 3 24 2 25 1 26
REMARK H PARENT
REMARK Flexibility Score: inf
ROOT
ATOM      1  C   UNL     1       2.953  10.218  -1.412  1.00  0.00     0.000 C 
ENDROOT
BRANCH   1   2
ATOM      2  C   UNL     1       3.712  10.896  -2.562  1.00  0.00     0.000 C 
BRANCH   2   3
ATOM      3  C   UNL     1       4.009  12.380  -2.285  1.00  0.00     0.000 C 
BRANCH   3   4
ATOM      4  C   UNL     1       5.414  12.797  -2.753  1.00  0.00     0.000 C 
BRANCH   4   5
ATOM      5  C   UNL     1       6.344  11.591  -2.982  1.00  0.00     0.000 C 
BRANCH   5   6
ATOM      6  C   UNL     1       6.846  11.499  -4.432  1.00  0.00     0.000 C 
BRANCH   6   7
ATOM      7  C   UNL     1       7.469  12.814  -4.929  1.00  0.00     0.000 C 
BRANCH   7   8
ATOM      8  C   UNL     1       7.633  12.797  -6.456  1.00  0.00     0.000 C 
BRANCH   8   9
ATOM      9  C   UNL     1       6.688  11.800  -7.145  1.00  0.00     0.000 C 
BRANCH   9  10
ATOM     10  C   UNL     1       5.474  12.484  -7.791  1.00  0.00     0.006 C 
BRANCH  10  11
ATOM     11  C   UNL     1       4.245  12.391  -6.880  1.00  0.00     0.053 C 
BRANCH  11  12
ATOM     12  C   UNL     1       3.574  11.062  -7.032  1.00  0.00     0.041 C 
ATOM     13  O   UNL     1       3.643  10.435  -8.121  1.00  0.00    -0.550 OA
ATOM     14  O   UNL     1       2.878  10.511  -5.964  1.00  0.00    -0.550 OA
ENDBRANCH  11  12
ENDBRANCH  10  11
ENDBRANCH   9  10
ENDBRANCH   8   9
ENDBRANCH   7   8
ENDBRANCH   6   7
ENDBRANCH   5   6
ENDBRANCH   4   5
ENDBRANCH   3   4
ENDBRANCH   2   3
ENDBRANCH   1   2
BRANCH   1  15
ATOM     15  C   UNL     1       3.861   9.860  -0.225  1.00  0.00     0.000 C 
BRANCH  15  16
ATOM     16  C   UNL     1       3.108  10.020   1.104  1.00  0.00     0.000 C 
BRANCH  16  17
ATOM     17  C   UNL     1       2.875   8.682   1.832  1.00  0.00     0.000 C 
BRANCH  17  18
ATOM     18  C   UNL     1       4.150   7.857   2.102  1.00  0.00    -0.000 C 
BRANCH  18  19
ATOM     19  C   UNL     1       5.188   8.524   3.022  1.00  0.00    -0.000 C 
BRANCH  19  20
ATOM     20  C   UNL     1       6.660   8.324   2.613  1.00  0.00    -0.000 C 
BRANCH  20  21
ATOM     21  C   UNL     1       6.870   8.028   1.113  1.00  0.00    -0.000 C 
BRANCH  21  22
ATOM     22  C   UNL     1       7.940   8.927   0.465  1.00  0.00    -0.000 C 
BRANCH  22  23
ATOM     23  C   UNL     1       8.043  10.307   1.139  1.00  0.00    -0.000 C 
BRANCH  23  24
ATOM     24  C   UNL     1       7.553  11.484   0.275  1.00  0.00    -0.000 C 
BRANCH  24  25
ATOM     25  C   UNL     1       6.283  12.167   0.823  1.00  0.00    -0.003 C 
ATOM     26  C   UNL     1       6.315  12.324   2.342  1.00  0.00     0.004 C 
ENDBRANCH  24  25
ENDBRANCH  23  24
ENDBRANCH  22  23
ENDBRANCH  21  22
ENDBRANCH  20  21
ENDBRANCH  19  20
ENDBRANCH  18  19
ENDBRANCH  17  18
ENDBRANCH  16  17
ENDBRANCH  15  16
ENDBRANCH   1  15
TORSDOF 22
ENDMDL
MODEL 7
REMARK VINA RESULT:    -2.555      2.320      4.457
REMARK INTER + INTRA:          -9.307
REMARK INTER:                  -6.159
REMARK INTRA:                  -3.148
REMARK UNBOUND:                -3.465
REMARK SMILES CCCCCCCCCCCCCCCCCCCCCCCC(=O)[O-]
REMARK SMILES IDX 13 1 14 2 15 3 16 4 17 5 18 6 19 7 20 8 21 9 22 10 23 11
REMARK SMILES IDX 24 12 25 13 26 14 12 15 11 16 10 17 9 18 8 19 7 20 6 21 5 22
REMARK SMILES IDX 4 23 3 24 2 25 1 26
REMARK H PARENT
REMARK Flexibility Score: inf
ROOT
ATOM      1  C   UNL     1       3.097   9.162   2.662  1.00  0.00     0.000 C 
ENDROOT
BRANCH   1   2
ATOM      2  C   UNL     1       3.969   8.237   3.524  1.00  0.00     0.000 C 
BRANCH   2   3
ATOM      3  C   UNL     1       5.324   8.867   3.888  1.00  0.00     0.000 C 
BRANCH   3   4
ATOM      4  C   UNL     1       6.499   7.894   3.687  1.00  0.00     0.000 C 
BRANCH   4   5
ATOM      5  C   UNL     1       6.057   6.420   3.711  1.00  0.00     0.000 C 
BRANCH   5   6
ATOM      6  C   UNL     1       6.268   5.717   2.359  1.00  0.00     0.000 C 
BRANCH   6   7
ATOM      7  C   UNL     1       5.808   6.573   1.168  1.00  0.00     0.000 C 
BRANCH   7   8
ATOM      8  C   UNL     1       6.760   6.403  -0.026  1.00  0.00     0.000 C 
BRANCH   8   9
ATOM      9  C   UNL     1       7.657   7.630  -0.251  1.00  0.00     0.000 C 
BRANCH   9  10
ATOM     10  C   UNL     1       7.047   8.922   0.315  1.00  0.00     0.006 C 
BRANCH  10  11
ATOM     11  C   UNL     1       8.135   9.836   0.889  1.00  0.00     0.053 C 
BRANCH  11  12
ATOM     12  C   UNL     1       7.594  11.208   1.143  1.00  0.00     0.041 C 
ATOM     13  O   UNL     1       6.760  11.402   2.066  1.00  0.00    -0.550 OA
ATOM     14  O   UNL     1       8.017  12.276   0.362  1.00  0.00    -0.550 OA
ENDBRANCH  11  12
ENDBRANCH  10  11
ENDBRANCH   9  10
ENDBRANCH   8   9
ENDBRANCH   7   8
ENDBRANCH   6   7
ENDBRANCH   5   6
ENDBRANCH   4   5
ENDBRANCH   3   4
ENDBRANCH   2   3
ENDBRANCH   1   2
BRANCH   1  15
ATOM     15  C   UNL     1       3.799   9.614   1.372  1.00  0.00     0.000 C 
BRANCH  15  16
ATOM     16  C   UNL     1       2.976  10.694   0.654  1.00  0.00     0.000 C 
BRANCH  16  17
ATOM     17  C   UNL     1       3.201  12.106   1.228  1.00  0.00     0.000 C 
BRANCH  17  18
ATOM     18  C   UNL     1       4.192  12.982   0.436  1.00  0.00    -0.000 C 
BRANCH  18  19
ATOM     19  C   UNL     1       4.042  12.932  -1.095  1.00  0.00    -0.000 C 
BRANCH  19  20
ATOM     20  C   UNL     1       5.329  12.605  -1.877  1.00  0.00    -0.000 C 
BRANCH  20  21
ATOM     21  C   UNL     1       5.527  11.105  -2.176  1.00  0.00    -0.000 C 
BRANCH  21  22
ATOM     22  C   UNL     1       6.251  10.847  -3.511  1.00  0.00    -0.000 C 
BRANCH  22  23
ATOM     23  C   UNL     1       6.089  12.009  -4.507  1.00  0.00    -0.000 C 
BRANCH  23  24
ATOM     24  C   UNL     1       6.202  11.606  -5.990  1.00  0.00    -0.000 C 
BRANCH  24  25
ATOM     25  C   UNL     1       4.841  11.305  -6.654  1.00  0.00    -0.003 C 
ATOM     26  C   UNL     1       3.662  11.762  -5.799  1.00  0.00     0.004 C 
ENDBRANCH  24  25
ENDBRANCH  23  24
ENDBRANCH  22  23
ENDBRANCH  21  22
ENDBRANCH  20  21
ENDBRANCH  19  20
ENDBRANCH  18  19
ENDBRANCH  17  18
ENDBRANCH  16  17
ENDBRANCH  15  16
ENDBRANCH   1  15
TORSDOF 22
ENDMDL
MODEL 8
REMARK VINA RESULT:    -2.487      2.517      6.755
REMARK INTER + INTRA:          -9.152
REMARK INTER:                  -6.175
REMARK INTRA:                  -2.977
REMARK UNBOUND:                -3.465
REMARK SMILES CCCCCCCCCCCCCCCCCCCCCCCC(=O)[O-]
REMARK SMILES IDX 13 1 14 2 15 3 16 4 17 5 18 6 19 7 20 8 21 9 22 10 23 11
REMARK SMILES IDX 24 12 25 13 26 14 12 15 11 16 10 17 9 18 8 19 7 20 6 21 5 22
REMARK SMILES IDX 4 23 3 24 2 25 1 26
REMARK H PARENT
REMARK Flexibility Score: inf
ROOT
ATOM      1  C   UNL     1       7.022   7.404   0.126  1.00  0.00     0.000 C 
ENDROOT
BRANCH   1   2
ATOM      2  C   UNL     1       6.127   8.045  -0.945  1.00  0.00     0.000 C 
BRANCH   2   3
ATOM      3  C   UNL     1       5.877   9.542  -0.693  1.00  0.00     0.000 C 
BRANCH   3   4
ATOM      4  C   UNL     1       5.619  10.323  -1.994  1.00  0.00     0.000 C 
BRANCH   4   5
ATOM      5  C   UNL     1       4.119  10.505  -2.286  1.00  0.00     0.000 C 
BRANCH   5   6
ATOM      6  C   UNL     1       3.640  11.946  -2.041  1.00  0.00     0.000 C 
BRANCH   6   7
ATOM      7  C   UNL     1       3.063  12.602  -3.305  1.00  0.00     0.000 C 
BRANCH   7   8
ATOM      8  C   UNL     1       3.033  11.605  -4.473  1.00  0.00     0.000 C 
BRANCH   8   9
ATOM      9  C   UNL     1       3.690  12.161  -5.746  1.00  0.00     0.000 C 
BRANCH   9  10
ATOM     10  C   UNL     1       4.785  11.236  -6.300  1.00  0.00     0.006 C 
BRANCH  10  11
ATOM     11  C   UNL     1       5.587  11.937  -7.402  1.00  0.00     0.053 C 
BRANCH  11  12
ATOM     12  C   UNL     1       6.997  12.177  -6.957  1.00  0.00     0.041 C 
ATOM     13  O   UNL     1       7.865  12.569  -7.781  1.00  0.00    -0.550 OA
ATOM     14  O   UNL     1       7.349  11.976  -5.629  1.00  0.00    -0.550 OA
ENDBRANCH  11  12
ENDBRANCH  10  11
ENDBRANCH   9  10
ENDBRANCH   8   9
ENDBRANCH   7   8
ENDBRANCH   6   7
ENDBRANCH   5   6
ENDBRANCH   4   5
ENDBRANCH   3   4
ENDBRANCH   2   3
ENDBRANCH   1   2
BRANCH   1  15
ATOM     15  C   UNL     1       6.238   6.955   1.368  1.00  0.00     0.000 C 
BRANCH  15  16
ATOM     16  C   UNL     1       6.544   7.868   2.565  1.00  0.00     0.000 C 
BRANCH  16  17
ATOM     17  C   UNL     1       5.312   8.138   3.450  1.00  0.00     0.000 C 
BRANCH  17  18
ATOM     18  C   UNL     1       3.970   8.214   2.694  1.00  0.00    -0.000 C 
BRANCH  18  19
ATOM     19  C   UNL     1       2.875   9.056   3.373  1.00  0.00    -0.000 C 
BRANCH  19  20
ATOM     20  C   UNL     1       2.969  10.577   3.140  1.00  0.00    -0.000 C 
BRANCH  20  21
ATOM     21  C   UNL     1       3.541  10.975   1.763  1.00  0.00    -0.000 C 
BRANCH  21  22
ATOM     22  C   UNL     1       3.830  12.483   1.644  1.00  0.00    -0.000 C 
BRANCH  22  23
ATOM     23  C   UNL     1       5.277  12.842   2.030  1.00  0.00    -0.000 C 
BRANCH  23  24
ATOM     24  C   UNL     1       6.289  11.692   1.871  1.00  0.00    -0.000 C 
BRANCH  24  25
ATOM     25  C   UNL     1       7.684  12.157   1.402  1.00  0.00    -0.003 C 
ATOM     26  C   UNL     1       7.668  12.701  -0.025  1.00  0.00     0.004 C 
ENDBRANCH  24  25
ENDBRANCH  23  24
ENDBRANCH  22  23
ENDBRANCH  21  22
ENDBRANCH  20  21
ENDBRANCH  19  20
ENDBRANCH  18  19
ENDBRANCH  17  18
ENDBRANCH  16  17
ENDBRANCH  15  16
ENDBRANCH   1  15
TORSDOF 22
ENDMDL
