MODEL 1
REMARK VINA RESULT:    -5.411      0.000      0.000
REMARK INTER + INTRA:          -6.793
REMARK INTER:                  -6.519
REMARK INTRA:                  -0.274
REMARK UNBOUND:                -0.274
REMARK SMILES O=c1c(O)c(-c2ccc(O)c(O)c2)oc2cc(O)cc(O)c12
REMARK SMILES IDX 5 1 3 2 2 3 1 4 22 5 20 6 19 7 17 8 16 9 15 10 14 11 6 12
REMARK SMILES IDX 7 13 8 14 9 15 13 16 11 17 10 18 12 20 4 22 21 24 18 26
REMARK H PARENT 10 19 12 21 4 23 21 25 18 27
REMARK Flexibility Score: inf
ROOT
ATOM      1  C   UNL     1      18.927  22.121  15.296  1.00  0.00     0.180 A 
ATOM      2  C   UNL     1      17.607  21.653  15.413  1.00  0.00     0.208 A 
ATOM      3  C   UNL     1      17.148  21.216  16.667  1.00  0.00     0.238 A 
ATOM      4  O   UNL     1      15.949  20.850  16.777  1.00  0.00    -0.285 OA
ATOM      5  C   UNL     1      18.019  21.240  17.782  1.00  0.00     0.111 A 
ATOM      6  C   UNL     1      17.672  20.785  19.091  1.00  0.00     0.134 A 
ATOM      7  C   UNL     1      18.570  20.975  20.149  1.00  0.00     0.093 A 
ATOM      8  C   UNL     1      19.827  21.545  19.933  1.00  0.00     0.123 A 
ATOM      9  C   UNL     1      20.197  21.938  18.648  1.00  0.00     0.094 A 
ATOM     10  C   UNL     1      19.310  21.794  17.579  1.00  0.00     0.146 A 
ATOM     11  O   UNL     1      19.699  22.191  16.374  1.00  0.00    -0.452 OA
ENDROOT
BRANCH   1  12
ATOM     12  C   UNL     1      19.490  22.573  14.004  1.00  0.00     0.025 A 
ATOM     13  C   UNL     1      19.853  21.621  13.037  1.00  0.00     0.016 A 
ATOM     14  C   UNL     1      20.369  22.025  11.803  1.00  0.00     0.051 A 
ATOM     15  C   UNL     1      20.513  23.384  11.508  1.00  0.00     0.157 A 
ATOM     16  C   UNL     1      19.617  23.940  13.697  1.00  0.00     0.062 A 
ATOM     17  C   UNL     1      20.132  24.347  12.458  1.00  0.00     0.158 A 
BRANCH  15  18
ATOM     18  O   UNL     1      21.032  23.757  10.269  1.00  0.00    -0.504 OA
ATOM     19  H   UNL     1      21.954  23.467   9.963  1.00  0.00     0.293 HD
ENDBRANCH  15  18
BRANCH  17  20
ATOM     20  O   UNL     1      20.261  25.704  12.165  1.00  0.00    -0.504 OA
ATOM     21  H   UNL     1      19.453  26.290  11.993  1.00  0.00     0.293 HD
ENDBRANCH  17  20
ENDBRANCH   1  12
BRANCH   2  22
ATOM     22  O   UNL     1      16.758  21.659  14.304  1.00  0.00    -0.502 OA
ATOM     23  H   UNL     1      16.494  22.512  13.826  1.00  0.00     0.293 HD
ENDBRANCH   2  22
BRANCH   6  24
ATOM     24  O   UNL     1      16.481  20.120  19.394  1.00  0.00    -0.507 OA
ATOM     25  H   UNL     1      15.576  20.361  19.021  1.00  0.00     0.293 HD
ENDBRANCH   6  24
BRANCH   8  26
ATOM     26  O   UNL     1      20.720  21.717  20.988  1.00  0.00    -0.508 OA
ATOM     27  H   UNL     1      21.637  21.286  20.982  1.00  0.00     0.293 HD
ENDBRANCH   8  26
TORSDOF 6
ENDMDL
MODEL 2
REMARK VINA RESULT:    -5.109      1.310      2.785
REMARK INTER + INTRA:          -6.429
REMARK INTER:                  -6.293
REMARK INTRA:                  -0.136
REMARK UNBOUND:                -0.274
REMARK SMILES O=c1c(O)c(-c2ccc(O)c(O)c2)oc2cc(O)cc(O)c12
REMARK SMILES IDX 5 1 3 2 2 3 1 4 22 5 20 6 19 7 17 8 16 9 15 10 14 11 6 12
REMARK SMILES IDX 7 13 8 14 9 15 13 16 11 17 10 18 12 20 4 22 21 24 18 26
REMARK H PARENT 10 19 12 21 4 23 21 25 18 27
REMARK Flexibility Score: inf
ROOT
ATOM      1  C   UNL     1      19.429  22.667  15.458  1.00  0.00     0.180 A 
ATOM      2  C   UNL     1      20.075  23.264  16.554  1.00  0.00     0.208 A 
ATOM      3  C   UNL     1      19.676  22.914  17.855  1.00  0.00     0.238 A 
ATOM      4  O   UNL     1      20.297  23.410  18.831  1.00  0.00    -0.285 OA
ATOM      5  C   UNL     1      18.627  21.983  18.042  1.00  0.00     0.111 A 
ATOM      6  C   UNL     1      18.115  21.585  19.314  1.00  0.00     0.134 A 
ATOM      7  C   UNL     1      17.162  20.561  19.385  1.00  0.00     0.093 A 
ATOM      8  C   UNL     1      16.657  19.966  18.226  1.00  0.00     0.123 A 
ATOM      9  C   UNL     1      17.107  20.389  16.978  1.00  0.00     0.094 A 
ATOM     10  C   UNL     1      18.083  21.384  16.876  1.00  0.00     0.146 A 
ATOM     11  O   UNL     1      18.491  21.750  15.668  1.00  0.00    -0.452 OA
ENDROOT
BRANCH   1  12
ATOM     12  C   UNL     1      19.775  23.005  14.060  1.00  0.00     0.025 A 
ATOM     13  C   UNL     1      20.169  21.984  13.180  1.00  0.00     0.016 A 
ATOM     14  C   UNL     1      20.482  22.277  11.849  1.00  0.00     0.051 A 
ATOM     15  C   UNL     1      20.390  23.588  11.374  1.00  0.00     0.157 A 
ATOM     16  C   UNL     1      19.663  24.320  13.574  1.00  0.00     0.062 A 
ATOM     17  C   UNL     1      19.975  24.616  12.239  1.00  0.00     0.158 A 
BRANCH  15  18
ATOM     18  O   UNL     1      20.711  23.851  10.043  1.00  0.00    -0.504 OA
ATOM     19  H   UNL     1      21.235  24.673   9.768  1.00  0.00     0.293 HD
ENDBRANCH  15  18
BRANCH  17  20
ATOM     20  O   UNL     1      19.868  25.923  11.767  1.00  0.00    -0.504 OA
ATOM     21  H   UNL     1      19.056  26.495  11.966  1.00  0.00     0.293 HD
ENDBRANCH  17  20
ENDBRANCH   1  12
BRANCH   2  22
ATOM     22  O   UNL     1      21.124  24.163  16.346  1.00  0.00    -0.502 OA
ATOM     23  H   UNL     1      22.056  23.862  16.087  1.00  0.00     0.293 HD
ENDBRANCH   2  22
BRANCH   6  24
ATOM     24  O   UNL     1      18.484  22.179  20.524  1.00  0.00    -0.507 OA
ATOM     25  H   UNL     1      18.011  22.037  21.403  1.00  0.00     0.293 HD
ENDBRANCH   6  24
BRANCH   8  26
ATOM     26  O   UNL     1      15.698  18.957  18.305  1.00  0.00    -0.508 OA
ATOM     27  H   UNL     1      15.032  18.799  17.558  1.00  0.00     0.293 HD
ENDBRANCH   8  26
TORSDOF 6
ENDMDL
MODEL 3
REMARK VINA RESULT:    -5.037      1.633      7.184
REMARK INTER + INTRA:          -6.341
REMARK INTER:                  -6.157
REMARK INTRA:                  -0.185
REMARK UNBOUND:                -0.274
REMARK SMILES O=c1c(O)c(-c2ccc(O)c(O)c2)oc2cc(O)cc(O)c12
REMARK SMILES IDX 5 1 3 2 2 3 1 4 22 5 20 6 19 7 17 8 16 9 15 10 14 11 6 12
REMARK SMILES IDX 7 13 8 14 9 15 13 16 11 17 10 18 12 20 4 22 21 24 18 26
REMARK H PARENT 10 19 12 21 4 23 21 25 18 27
REMARK Flexibility Score: inf
ROOT
ATOM      1  C   UNL     1      19.683  22.291  16.656  1.00  0.00     0.180 A 
ATOM      2  C   UNL     1      20.173  23.584  16.407  1.00  0.00     0.208 A 
ATOM      3  C   UNL     1      20.430  23.972  15.082  1.00  0.00     0.238 A 
ATOM      4  O   UNL     1      20.817  25.150  14.862  1.00  0.00    -0.285 OA
ATOM      5  C   UNL     1      20.208  23.057  14.026  1.00  0.00     0.111 A 
ATOM      6  C   UNL     1      20.472  23.330  12.649  1.00  0.00     0.134 A 
ATOM      7  C   UNL     1      20.093  22.397  11.675  1.00  0.00     0.093 A 
ATOM      8  C   UNL     1      19.520  21.175  12.033  1.00  0.00     0.123 A 
ATOM      9  C   UNL     1      19.313  20.875  13.378  1.00  0.00     0.094 A 
ATOM     10  C   UNL     1      19.647  21.800  14.370  1.00  0.00     0.146 A 
ATOM     11  O   UNL     1      19.424  21.479  15.638  1.00  0.00    -0.452 OA
ENDROOT
BRANCH   1  12
ATOM     12  C   UNL     1      19.412  21.802  18.027  1.00  0.00     0.025 A 
ATOM     13  C   UNL     1      20.481  21.628  18.922  1.00  0.00     0.016 A 
ATOM     14  C   UNL     1      20.247  21.186  20.227  1.00  0.00     0.051 A 
ATOM     15  C   UNL     1      18.944  20.927  20.662  1.00  0.00     0.157 A 
ATOM     16  C   UNL     1      18.101  21.561  18.474  1.00  0.00     0.062 A 
ATOM     17  C   UNL     1      17.864  21.119  19.784  1.00  0.00     0.158 A 
BRANCH  15  18
ATOM     18  O   UNL     1      18.742  20.484  21.969  1.00  0.00    -0.504 OA
ATOM     19  H   UNL     1      18.231  19.634  22.176  1.00  0.00     0.293 HD
ENDBRANCH  15  18
BRANCH  17  20
ATOM     20  O   UNL     1      16.561  20.876  20.216  1.00  0.00    -0.504 OA
ATOM     21  H   UNL     1      15.859  20.491  19.596  1.00  0.00     0.293 HD
ENDBRANCH  17  20
ENDBRANCH   1  12
BRANCH   2  22
ATOM     22  O   UNL     1      20.364  24.479  17.463  1.00  0.00    -0.502 OA
ATOM     23  H   UNL     1      19.714  24.556  18.236  1.00  0.00     0.293 HD
ENDBRANCH   2  22
BRANCH   6  24
ATOM     24  O   UNL     1      21.125  24.479  12.193  1.00  0.00    -0.507 OA
ATOM     25  H   UNL     1      20.699  25.195  11.624  1.00  0.00     0.293 HD
ENDBRANCH   6  24
BRANCH   8  26
ATOM     26  O   UNL     1      19.159  20.246  11.059  1.00  0.00    -0.508 OA
ATOM     27  H   UNL     1      18.433  20.445  10.380  1.00  0.00     0.293 HD
ENDBRANCH   8  26
TORSDOF 6
ENDMDL
MODEL 4
REMARK VINA RESULT:    -4.933      8.706     11.036
REMARK INTER + INTRA:          -6.216
REMARK INTER:                  -6.139
REMARK INTRA:                  -0.077
REMARK UNBOUND:                -0.274
REMARK SMILES O=c1c(O)c(-c2ccc(O)c(O)c2)oc2cc(O)cc(O)c12
REMARK SMILES IDX 5 1 3 2 2 3 1 4 22 5 20 6 19 7 17 8 16 9 15 10 14 11 6 12
REMARK SMILES IDX 7 13 8 14 9 15 13 16 11 17 10 18 12 20 4 22 21 24 18 26
REMARK H PARENT 10 19 12 21 4 23 21 25 18 27
REMARK Flexibility Score: inf
ROOT
ATOM      1  C   UNL     1      16.469  19.324   6.344  1.00  0.00     0.180 A 
ATOM      2  C   UNL     1      16.981  19.650   7.611  1.00  0.00     0.208 A 
ATOM      3  C   UNL     1      17.440  18.619   8.447  1.00  0.00     0.238 A 
ATOM      4  O   UNL     1      17.949  18.924   9.558  1.00  0.00    -0.285 OA
ATOM      5  C   UNL     1      17.366  17.275   8.011  1.00  0.00     0.111 A 
ATOM      6  C   UNL     1      17.766  16.147   8.792  1.00  0.00     0.134 A 
ATOM      7  C   UNL     1      17.770  14.873   8.212  1.00  0.00     0.093 A 
ATOM      8  C   UNL     1      17.328  14.677   6.901  1.00  0.00     0.123 A 
ATOM      9  C   UNL     1      16.880  15.763   6.152  1.00  0.00     0.094 A 
ATOM     10  C   UNL     1      16.898  17.051   6.691  1.00  0.00     0.146 A 
ATOM     11  O   UNL     1      16.472  18.059   5.939  1.00  0.00    -0.452 OA
ENDROOT
BRANCH   1  12
ATOM     12  C   UNL     1      15.942  20.352   5.418  1.00  0.00     0.025 A 
ATOM     13  C   UNL     1      16.788  21.382   4.977  1.00  0.00     0.016 A 
ATOM     14  C   UNL     1      16.319  22.352   4.087  1.00  0.00     0.051 A 
ATOM     15  C   UNL     1      15.005  22.298   3.612  1.00  0.00     0.157 A 
ATOM     16  C   UNL     1      14.628  20.288   4.922  1.00  0.00     0.062 A 
ATOM     17  C   UNL     1      14.155  21.259   4.028  1.00  0.00     0.158 A 
BRANCH  15  18
ATOM     18  O   UNL     1      14.564  23.282   2.727  1.00  0.00    -0.504 OA
ATOM     19  H   UNL     1      14.827  24.255   2.830  1.00  0.00     0.293 HD
ENDBRANCH  15  18
BRANCH  17  20
ATOM     20  O   UNL     1      12.848  21.192   3.547  1.00  0.00    -0.504 OA
ATOM     21  H   UNL     1      12.626  20.723   2.678  1.00  0.00     0.293 HD
ENDBRANCH  17  20
ENDBRANCH   1  12
BRANCH   2  22
ATOM     22  O   UNL     1      17.065  20.986   8.012  1.00  0.00    -0.502 OA
ATOM     23  H   UNL     1      16.358  21.428   8.586  1.00  0.00     0.293 HD
ENDBRANCH   2  22
BRANCH   6  24
ATOM     24  O   UNL     1      18.137  16.222  10.137  1.00  0.00    -0.507 OA
ATOM     25  H   UNL     1      19.002  16.616  10.475  1.00  0.00     0.293 HD
ENDBRANCH   6  24
BRANCH   8  26
ATOM     26  O   UNL     1      17.321  13.403   6.336  1.00  0.00    -0.508 OA
ATOM     27  H   UNL     1      17.656  13.239   5.394  1.00  0.00     0.293 HD
ENDBRANCH   8  26
TORSDOF 6
ENDMDL
MODEL 5
REMARK VINA RESULT:    -4.788      9.801     12.151
REMARK INTER + INTRA:          -6.042
REMARK INTER:                  -5.832
REMARK INTRA:                  -0.210
REMARK UNBOUND:                -0.274
REMARK SMILES O=c1c(O)c(-c2ccc(O)c(O)c2)oc2cc(O)cc(O)c12
REMARK SMILES IDX 5 1 3 2 2 3 1 4 22 5 20 6 19 7 17 8 16 9 15 10 14 11 6 12
REMARK SMILES IDX 7 13 8 14 9 15 13 16 11 17 10 18 12 20 4 22 21 24 18 26
REMARK H PARENT 10 19 12 21 4 23 21 25 18 27
REMARK Flexibility Score: inf
ROOT
ATOM      1  C   UNL     1      15.287  19.021   4.841  1.00  0.00     0.180 A 
ATOM      2  C   UNL     1      14.922  17.873   4.117  1.00  0.00     0.208 A 
ATOM      3  C   UNL     1      15.294  16.611   4.609  1.00  0.00     0.238 A 
ATOM      4  O   UNL     1      14.917  15.584   3.986  1.00  0.00    -0.285 OA
ATOM      5  C   UNL     1      16.040  16.515   5.809  1.00  0.00     0.111 A 
ATOM      6  C   UNL     1      16.504  15.290   6.378  1.00  0.00     0.134 A 
ATOM      7  C   UNL     1      17.120  15.304   7.635  1.00  0.00     0.093 A 
ATOM      8  C   UNL     1      17.347  16.504   8.314  1.00  0.00     0.123 A 
ATOM      9  C   UNL     1      16.950  17.709   7.739  1.00  0.00     0.094 A 
ATOM     10  C   UNL     1      16.301  17.725   6.502  1.00  0.00     0.146 A 
ATOM     11  O   UNL     1      15.931  18.894   5.996  1.00  0.00    -0.452 OA
ENDROOT
BRANCH   1  12
ATOM     12  C   UNL     1      14.954  20.386   4.373  1.00  0.00     0.025 A 
ATOM     13  C   UNL     1      15.973  21.211   3.869  1.00  0.00     0.016 A 
ATOM     14  C   UNL     1      15.678  22.495   3.403  1.00  0.00     0.051 A 
ATOM     15  C   UNL     1      14.362  22.968   3.418  1.00  0.00     0.157 A 
ATOM     16  C   UNL     1      13.628  20.855   4.368  1.00  0.00     0.062 A 
ATOM     17  C   UNL     1      13.331  22.143   3.899  1.00  0.00     0.158 A 
BRANCH  15  18
ATOM     18  O   UNL     1      14.099  24.255   2.950  1.00  0.00    -0.504 OA
ATOM     19  H   UNL     1      14.706  24.718   2.284  1.00  0.00     0.293 HD
ENDBRANCH  15  18
BRANCH  17  20
ATOM     20  O   UNL     1      12.015  22.603   3.904  1.00  0.00    -0.504 OA
ATOM     21  H   UNL     1      11.743  23.429   4.424  1.00  0.00     0.293 HD
ENDBRANCH  17  20
ENDBRANCH   1  12
BRANCH   2  22
ATOM     22  O   UNL     1      14.167  17.989   2.948  1.00  0.00    -0.502 OA
ATOM     23  H   UNL     1      14.587  18.178   2.045  1.00  0.00     0.293 HD
ENDBRANCH   2  22
BRANCH   6  24
ATOM     24  O   UNL     1      16.410  14.050   5.741  1.00  0.00    -0.507 OA
ATOM     25  H   UNL     1      16.903  13.217   6.027  1.00  0.00     0.293 HD
ENDBRANCH   6  24
BRANCH   8  26
ATOM     26  O   UNL     1      17.975  16.509   9.558  1.00  0.00    -0.508 OA
ATOM     27  H   UNL     1      17.486  16.224  10.399  1.00  0.00     0.293 HD
ENDBRANCH   8  26
TORSDOF 6
ENDMDL
MODEL 6
REMARK VINA RESULT:    -4.733      2.860      7.695
REMARK INTER + INTRA:          -5.975
REMARK INTER:                  -5.707
REMARK INTRA:                  -0.268
REMARK UNBOUND:                -0.274
REMARK SMILES O=c1c(O)c(-c2ccc(O)c(O)c2)oc2cc(O)cc(O)c12
REMARK SMILES IDX 5 1 3 2 2 3 1 4 22 5 20 6 19 7 17 8 16 9 15 10 14 11 6 12
REMARK SMILES IDX 7 13 8 14 9 15 13 16 11 17 10 18 12 20 4 22 21 24 18 26
REMARK H PARENT 10 19 12 21 4 23 21 25 18 27
REMARK Flexibility Score: inf
ROOT
ATOM      1  C   UNL     1      19.396  21.403  12.879  1.00  0.00     0.180 A 
ATOM      2  C   UNL     1      20.283  22.180  12.116  1.00  0.00     0.208 A 
ATOM      3  C   UNL     1      20.369  21.954  10.732  1.00  0.00     0.238 A 
ATOM      4  O   UNL     1      21.125  22.691  10.046  1.00  0.00    -0.285 OA
ATOM      5  C   UNL     1      19.578  20.945  10.133  1.00  0.00     0.111 A 
ATOM      6  C   UNL     1      19.613  20.604   8.746  1.00  0.00     0.134 A 
ATOM      7  C   UNL     1      18.693  19.677   8.240  1.00  0.00     0.093 A 
ATOM      8  C   UNL     1      17.784  19.032   9.081  1.00  0.00     0.123 A 
ATOM      9  C   UNL     1      17.782  19.315  10.445  1.00  0.00     0.094 A 
ATOM     10  C   UNL     1      18.663  20.261  10.974  1.00  0.00     0.146 A 
ATOM     11  O   UNL     1      18.620  20.507  12.278  1.00  0.00    -0.452 OA
ENDROOT
BRANCH   1  12
ATOM     12  C   UNL     1      19.269  21.564  14.345  1.00  0.00     0.025 A 
ATOM     13  C   UNL     1      20.279  21.066  15.185  1.00  0.00     0.016 A 
ATOM     14  C   UNL     1      20.189  21.224  16.570  1.00  0.00     0.051 A 
ATOM     15  C   UNL     1      19.101  21.895  17.136  1.00  0.00     0.157 A 
ATOM     16  C   UNL     1      18.185  22.256  14.915  1.00  0.00     0.062 A 
ATOM     17  C   UNL     1      18.095  22.418  16.305  1.00  0.00     0.158 A 
BRANCH  15  18
ATOM     18  O   UNL     1      19.038  22.036  18.522  1.00  0.00    -0.504 OA
ATOM     19  H   UNL     1      18.953  22.942  18.967  1.00  0.00     0.293 HD
ENDBRANCH  15  18
BRANCH  17  20
ATOM     20  O   UNL     1      17.014  23.100  16.863  1.00  0.00    -0.504 OA
ATOM     21  H   UNL     1      16.068  22.746  16.789  1.00  0.00     0.293 HD
ENDBRANCH  17  20
ENDBRANCH   1  12
BRANCH   2  22
ATOM     22  O   UNL     1      21.038  23.186  12.723  1.00  0.00    -0.502 OA
ATOM     23  H   UNL     1      20.952  23.412  13.707  1.00  0.00     0.293 HD
ENDBRANCH   2  22
BRANCH   6  24
ATOM     24  O   UNL     1      20.542  21.121   7.840  1.00  0.00    -0.507 OA
ATOM     25  H   UNL     1      21.521  21.263   8.037  1.00  0.00     0.293 HD
ENDBRANCH   6  24
BRANCH   8  26
ATOM     26  O   UNL     1      16.882  18.100   8.571  1.00  0.00    -0.508 OA
ATOM     27  H   UNL     1      16.945  17.770   7.615  1.00  0.00     0.293 HD
ENDBRANCH   8  26
TORSDOF 6
ENDMDL
MODEL 7
REMARK VINA RESULT:    -4.681     11.264     13.343
REMARK INTER + INTRA:          -5.913
REMARK INTER:                  -5.586
REMARK INTRA:                  -0.327
REMARK UNBOUND:                -0.274
REMARK SMILES O=c1c(O)c(-c2ccc(O)c(O)c2)oc2cc(O)cc(O)c12
REMARK SMILES IDX 5 1 3 2 2 3 1 4 22 5 20 6 19 7 17 8 16 9 15 10 14 11 6 12
REMARK SMILES IDX 7 13 8 14 9 15 13 16 11 17 10 18 12 20 4 22 21 24 18 26
REMARK H PARENT 10 19 12 21 4 23 21 25 18 27
REMARK Flexibility Score: inf
ROOT
ATOM      1  C   UNL     1      15.158  18.902   4.634  1.00  0.00     0.180 A 
ATOM      2  C   UNL     1      15.509  18.559   5.951  1.00  0.00     0.208 A 
ATOM      3  C   UNL     1      15.724  17.207   6.268  1.00  0.00     0.238 A 
ATOM      4  O   UNL     1      16.091  16.913   7.436  1.00  0.00    -0.285 OA
ATOM      5  C   UNL     1      15.571  16.217   5.269  1.00  0.00     0.111 A 
ATOM      6  C   UNL     1      15.726  14.814   5.488  1.00  0.00     0.134 A 
ATOM      7  C   UNL     1      15.679  13.936   4.399  1.00  0.00     0.093 A 
ATOM      8  C   UNL     1      15.418  14.403   3.108  1.00  0.00     0.123 A 
ATOM      9  C   UNL     1      15.207  15.763   2.893  1.00  0.00     0.094 A 
ATOM     10  C   UNL     1      15.283  16.668   3.955  1.00  0.00     0.146 A 
ATOM     11  O   UNL     1      15.086  17.956   3.704  1.00  0.00    -0.452 OA
ENDROOT
BRANCH   1  12
ATOM     12  C   UNL     1      14.890  20.301   4.229  1.00  0.00     0.025 A 
ATOM     13  C   UNL     1      15.946  21.098   3.759  1.00  0.00     0.016 A 
ATOM     14  C   UNL     1      15.713  22.415   3.353  1.00  0.00     0.051 A 
ATOM     15  C   UNL     1      14.421  22.949   3.395  1.00  0.00     0.157 A 
ATOM     16  C   UNL     1      13.589  20.833   4.251  1.00  0.00     0.062 A 
ATOM     17  C   UNL     1      13.352  22.154   3.842  1.00  0.00     0.158 A 
BRANCH  15  18
ATOM     18  O   UNL     1      14.219  24.267   2.986  1.00  0.00    -0.504 OA
ATOM     19  H   UNL     1      13.292  24.667   2.901  1.00  0.00     0.293 HD
ENDBRANCH  15  18
BRANCH  17  20
ATOM     20  O   UNL     1      12.060  22.676   3.874  1.00  0.00    -0.504 OA
ATOM     21  H   UNL     1      11.432  22.494   4.648  1.00  0.00     0.293 HD
ENDBRANCH  17  20
ENDBRANCH   1  12
BRANCH   2  22
ATOM     22  O   UNL     1      15.676  19.555   6.916  1.00  0.00    -0.502 OA
ATOM     23  H   UNL     1      16.571  19.748   7.350  1.00  0.00     0.293 HD
ENDBRANCH   2  22
BRANCH   6  24
ATOM     24  O   UNL     1      15.897  14.237   6.749  1.00  0.00    -0.507 OA
ATOM     25  H   UNL     1      16.520  13.469   6.951  1.00  0.00     0.293 HD
ENDBRANCH   6  24
BRANCH   8  26
ATOM     26  O   UNL     1      15.358  13.520   2.032  1.00  0.00    -0.508 OA
ATOM     27  H   UNL     1      14.563  12.907   1.892  1.00  0.00     0.293 HD
ENDBRANCH   8  26
TORSDOF 6
ENDMDL
MODEL 8
REMARK VINA RESULT:    -4.648     10.376     12.553
REMARK INTER + INTRA:          -5.874
REMARK INTER:                  -5.676
REMARK INTRA:                  -0.198
REMARK UNBOUND:                -0.274
REMARK SMILES O=c1c(O)c(-c2ccc(O)c(O)c2)oc2cc(O)cc(O)c12
REMARK SMILES IDX 5 1 3 2 2 3 1 4 22 5 20 6 19 7 17 8 16 9 15 10 14 11 6 12
REMARK SMILES IDX 7 13 8 14 9 15 13 16 11 17 10 18 12 20 4 22 21 24 18 26
REMARK H PARENT 10 19 12 21 4 23 21 25 18 27
REMARK Flexibility Score: inf
ROOT
ATOM      1  C   UNL     1      16.750  14.320   6.722  1.00  0.00     0.180 A 
ATOM      2  C   UNL     1      16.196  15.610   6.654  1.00  0.00     0.208 A 
ATOM      3  C   UNL     1      16.685  16.608   7.513  1.00  0.00     0.238 A 
ATOM      4  O   UNL     1      16.223  17.774   7.408  1.00  0.00    -0.285 OA
ATOM      5  C   UNL     1      17.711  16.299   8.438  1.00  0.00     0.111 A 
ATOM      6  C   UNL     1      18.255  17.223   9.382  1.00  0.00     0.134 A 
ATOM      7  C   UNL     1      19.356  16.845  10.161  1.00  0.00     0.093 A 
ATOM      8  C   UNL     1      19.891  15.558  10.076  1.00  0.00     0.123 A 
ATOM      9  C   UNL     1      19.329  14.632   9.200  1.00  0.00     0.094 A 
ATOM     10  C   UNL     1      18.253  14.989   8.384  1.00  0.00     0.146 A 
ATOM     11  O   UNL     1      17.755  14.079   7.557  1.00  0.00    -0.452 OA
ENDROOT
BRANCH   1  12
ATOM     12  C   UNL     1      16.269  13.211   5.869  1.00  0.00     0.025 A 
ATOM     13  C   UNL     1      17.148  12.615   4.949  1.00  0.00     0.016 A 
ATOM     14  C   UNL     1      16.722  11.553   4.148  1.00  0.00     0.051 A 
ATOM     15  C   UNL     1      15.419  11.059   4.264  1.00  0.00     0.157 A 
ATOM     16  C   UNL     1      14.966  12.698   5.998  1.00  0.00     0.062 A 
ATOM     17  C   UNL     1      14.537  11.631   5.196  1.00  0.00     0.158 A 
BRANCH  15  18
ATOM     18  O   UNL     1      15.021  10.000   3.448  1.00  0.00    -0.504 OA
ATOM     19  H   UNL     1      14.047   9.829   3.226  1.00  0.00     0.293 HD
ENDBRANCH  15  18
BRANCH  17  20
ATOM     20  O   UNL     1      13.241  11.134   5.326  1.00  0.00    -0.504 OA
ATOM     21  H   UNL     1      12.683  11.314   6.152  1.00  0.00     0.293 HD
ENDBRANCH  17  20
ENDBRANCH   1  12
BRANCH   2  22
ATOM     22  O   UNL     1      15.200  15.899   5.718  1.00  0.00    -0.502 OA
ATOM     23  H   UNL     1      14.414  15.282   5.552  1.00  0.00     0.293 HD
ENDBRANCH   2  22
BRANCH   6  24
ATOM     24  O   UNL     1      17.736  18.500   9.612  1.00  0.00    -0.507 OA
ATOM     25  H   UNL     1      18.044  19.339   9.144  1.00  0.00     0.293 HD
ENDBRANCH   6  24
BRANCH   8  26
ATOM     26  O   UNL     1      20.977  15.186  10.865  1.00  0.00    -0.508 OA
ATOM     27  H   UNL     1      21.536  15.875  11.356  1.00  0.00     0.293 HD
ENDBRANCH   8  26
TORSDOF 6
ENDMDL
MODEL 9
REMARK VINA RESULT:    -4.619      1.892      7.282
REMARK INTER + INTRA:          -5.839
REMARK INTER:                  -5.554
REMARK INTRA:                  -0.284
REMARK UNBOUND:                -0.274
REMARK SMILES O=c1c(O)c(-c2ccc(O)c(O)c2)oc2cc(O)cc(O)c12
REMARK SMILES IDX 5 1 3 2 2 3 1 4 22 5 20 6 19 7 17 8 16 9 15 10 14 11 6 12
REMARK SMILES IDX 7 13 8 14 9 15 13 16 11 17 10 18 12 20 4 22 21 24 18 26
REMARK H PARENT 10 19 12 21 4 23 21 25 18 27
REMARK Flexibility Score: inf
ROOT
ATOM      1  C   UNL     1      19.570  21.869  14.391  1.00  0.00     0.180 A 
ATOM      2  C   UNL     1      19.615  23.166  13.852  1.00  0.00     0.208 A 
ATOM      3  C   UNL     1      20.010  23.334  12.515  1.00  0.00     0.238 A 
ATOM      4  O   UNL     1      19.995  24.493  12.022  1.00  0.00    -0.285 OA
ATOM      5  C   UNL     1      20.369  22.206  11.740  1.00  0.00     0.111 A 
ATOM      6  C   UNL     1      20.822  22.263  10.386  1.00  0.00     0.134 A 
ATOM      7  C   UNL     1      21.026  21.074   9.675  1.00  0.00     0.093 A 
ATOM      8  C   UNL     1      20.856  19.830  10.288  1.00  0.00     0.123 A 
ATOM      9  C   UNL     1      20.471  19.765  11.626  1.00  0.00     0.094 A 
ATOM     10  C   UNL     1      20.225  20.933  12.351  1.00  0.00     0.146 A 
ATOM     11  O   UNL     1      19.851  20.825  13.619  1.00  0.00    -0.452 OA
ENDROOT
BRANCH   1  12
ATOM     12  C   UNL     1      19.189  21.614  15.799  1.00  0.00     0.025 A 
ATOM     13  C   UNL     1      20.118  21.865  16.822  1.00  0.00     0.016 A 
ATOM     14  C   UNL     1      19.773  21.650  18.160  1.00  0.00     0.051 A 
ATOM     15  C   UNL     1      18.494  21.199  18.496  1.00  0.00     0.157 A 
ATOM     16  C   UNL     1      17.896  21.179  16.141  1.00  0.00     0.062 A 
ATOM     17  C   UNL     1      17.548  20.965  17.483  1.00  0.00     0.158 A 
BRANCH  15  18
ATOM     18  O   UNL     1      18.180  20.991  19.839  1.00  0.00    -0.504 OA
ATOM     19  H   UNL     1      17.989  21.760  20.471  1.00  0.00     0.293 HD
ENDBRANCH  15  18
BRANCH  17  20
ATOM     20  O   UNL     1      16.266  20.528  17.813  1.00  0.00    -0.504 OA
ATOM     21  H   UNL     1      15.915  20.581  18.761  1.00  0.00     0.293 HD
ENDBRANCH  17  20
ENDBRANCH   1  12
BRANCH   2  22
ATOM     22  O   UNL     1      19.235  24.263  14.629  1.00  0.00    -0.502 OA
ATOM     23  H   UNL     1      18.270  24.555  14.723  1.00  0.00     0.293 HD
ENDBRANCH   2  22
BRANCH   6  24
ATOM     24  O   UNL     1      21.111  23.452   9.711  1.00  0.00    -0.507 OA
ATOM     25  H   UNL     1      20.845  23.653   8.759  1.00  0.00     0.293 HD
ENDBRANCH   6  24
BRANCH   8  26
ATOM     26  O   UNL     1      21.075  18.652   9.578  1.00  0.00    -0.508 OA
ATOM     27  H   UNL     1      21.079  18.637   8.564  1.00  0.00     0.293 HD
ENDBRANCH   8  26
TORSDOF 6
ENDMDL
