MODEL 1
REMARK VINA RESULT:    26.967      0.000      0.000
REMARK INTER + INTRA:          32.620
REMARK INTER:                  32.484
REMARK INTRA:                   0.136
REMARK UNBOUND:                 0.136
REMARK SMILES O=c1c(O)c(-c2ccc(O)c(O)c2)oc2cc(O)cc(O)c12
REMARK SMILES IDX 5 1 3 2 2 3 1 4 22 5 20 6 19 7 17 8 16 9 15 10 14 11 6 12
REMARK SMILES IDX 7 13 8 14 9 15 13 16 11 17 10 18 12 20 4 22 21 24 18 26
REMARK H PARENT 10 19 12 21 4 23 21 25 18 27
REMARK Flexibility Score: inf
ROOT
ATOM      1  C   UNL     1     -36.722  24.659   7.022  1.00  0.00     0.180 A 
ATOM      2  C   UNL     1     -36.929  24.477   5.643  1.00  0.00     0.208 A 
ATOM      3  C   UNL     1     -38.203  24.099   5.191  1.00  0.00     0.238 A 
ATOM      4  O   UNL     1     -38.368  23.884   3.962  1.00  0.00    -0.285 OA
ATOM      5  C   UNL     1     -39.258  23.924   6.119  1.00  0.00     0.111 A 
ATOM      6  C   UNL     1     -40.598  23.582   5.767  1.00  0.00     0.134 A 
ATOM      7  C   UNL     1     -41.528  23.307   6.777  1.00  0.00     0.093 A 
ATOM      8  C   UNL     1     -41.183  23.426   8.126  1.00  0.00     0.123 A 
ATOM      9  C   UNL     1     -39.893  23.818   8.479  1.00  0.00     0.094 A 
ATOM     10  C   UNL     1     -38.934  24.063   7.493  1.00  0.00     0.146 A 
ATOM     11  O   UNL     1     -37.714  24.424   7.873  1.00  0.00    -0.452 OA
ENDROOT
BRANCH   1  12
ATOM     12  C   UNL     1     -35.414  25.081   7.573  1.00  0.00     0.025 A 
ATOM     13  C   UNL     1     -35.371  26.074   8.565  1.00  0.00     0.016 A 
ATOM     14  C   UNL     1     -34.146  26.502   9.084  1.00  0.00     0.051 A 
ATOM     15  C   UNL     1     -32.947  25.956   8.608  1.00  0.00     0.157 A 
ATOM     16  C   UNL     1     -34.206  24.550   7.083  1.00  0.00     0.062 A 
ATOM     17  C   UNL     1     -32.977  24.981   7.603  1.00  0.00     0.158 A 
BRANCH  15  18
ATOM     18  O   UNL     1     -31.724  26.380   9.124  1.00  0.00    -0.504 OA
ATOM     19  H   UNL     1     -30.966  26.676   8.520  1.00  0.00     0.293 HD
ENDBRANCH  15  18
BRANCH  17  20
ATOM     20  O   UNL     1     -31.782  24.450   7.121  1.00  0.00    -0.504 OA
ATOM     21  H   UNL     1     -31.770  23.757   6.381  1.00  0.00     0.293 HD
ENDBRANCH  17  20
ENDBRANCH   1  12
BRANCH   2  22
ATOM     22  O   UNL     1     -35.868  24.633   4.746  1.00  0.00    -0.502 OA
ATOM     23  H   UNL     1     -35.543  23.880   4.153  1.00  0.00     0.293 HD
ENDBRANCH   2  22
BRANCH   6  24
ATOM     24  O   UNL     1     -41.070  23.525   4.453  1.00  0.00    -0.507 OA
ATOM     25  H   UNL     1     -41.820  24.091   4.087  1.00  0.00     0.293 HD
ENDBRANCH   6  24
BRANCH   8  26
ATOM     26  O   UNL     1     -42.119  23.166   9.125  1.00  0.00    -0.508 OA
ATOM     27  H   UNL     1     -41.856  22.711   9.991  1.00  0.00     0.293 HD
ENDBRANCH   8  26
TORSDOF 6
ENDMDL
