MODEL 1
REMARK VINA RESULT:    -5.825      0.000      0.000
REMARK INTER + INTRA:         -11.731
REMARK INTER:                 -10.592
REMARK INTRA:                  -1.139
REMARK UNBOUND:                -1.139
REMARK SMILES CCCCCCCCCCCCCCCC(=O)[O-]
REMARK SMILES IDX 9 1 10 2 11 3 12 4 13 5 14 6 15 7 16 8 17 9 18 10 8 11 7 12
REMARK SMILES IDX 6 13 5 14 4 15 3 16 2 17 1 18
REMARK H PARENT
REMARK Flexibility Score: inf
ROOT
ATOM      1  C   UNL     1     -16.271  28.398   1.831  1.00  0.00     0.000 C 
ENDROOT
BRANCH   1   2
ATOM      2  C   UNL     1     -16.378  28.373   0.299  1.00  0.00     0.000 C 
BRANCH   2   3
ATOM      3  C   UNL     1     -16.873  27.007  -0.195  1.00  0.00     0.000 C 
BRANCH   3   4
ATOM      4  C   UNL     1     -17.119  26.053   0.981  1.00  0.00     0.000 C 
BRANCH   4   5
ATOM      5  C   UNL     1     -18.416  25.260   0.784  1.00  0.00     0.000 C 
BRANCH   5   6
ATOM      6  C   UNL     1     -18.357  24.416  -0.498  1.00  0.00     0.006 C 
BRANCH   6   7
ATOM      7  C   UNL     1     -19.300  23.208  -0.442  1.00  0.00     0.053 C 
BRANCH   7   8
ATOM      8  C   UNL     1     -18.805  22.080  -1.294  1.00  0.00     0.041 C 
ATOM      9  O   UNL     1     -17.742  21.476  -0.992  1.00  0.00    -0.550 OA
ATOM     10  O   UNL     1     -19.535  21.673  -2.403  1.00  0.00    -0.550 OA
ENDBRANCH   7   8
ENDBRANCH   6   7
ENDBRANCH   5   6
ENDBRANCH   4   5
ENDBRANCH   3   4
ENDBRANCH   2   3
ENDBRANCH   1   2
BRANCH   1  11
ATOM     11  C   UNL     1     -15.826  29.766   2.371  1.00  0.00     0.000 C 
BRANCH  11  12
ATOM     12  C   UNL     1     -15.605  30.800   1.258  1.00  0.00    -0.000 C 
BRANCH  12  13
ATOM     13  C   UNL     1     -16.629  31.942   1.360  1.00  0.00    -0.000 C 
BRANCH  13  14
ATOM     14  C   UNL     1     -16.198  33.199   0.586  1.00  0.00    -0.000 C 
BRANCH  14  15
ATOM     15  C   UNL     1     -17.019  33.412  -0.697  1.00  0.00    -0.000 C 
BRANCH  15  16
ATOM     16  C   UNL     1     -18.209  32.442  -0.813  1.00  0.00    -0.000 C 
BRANCH  16  17
ATOM     17  C   UNL     1     -18.165  31.499  -2.029  1.00  0.00    -0.003 C 
ATOM     18  C   UNL     1     -18.794  30.134  -1.752  1.00  0.00     0.004 C 
ENDBRANCH  16  17
ENDBRANCH  15  16
ENDBRANCH  14  15
ENDBRANCH  13  14
ENDBRANCH  12  13
ENDBRANCH  11  12
ENDBRANCH   1  11
TORSDOF 14
ENDMDL
MODEL 2
REMARK VINA RESULT:    -5.646      1.212      1.867
REMARK INTER + INTRA:         -11.406
REMARK INTER:                 -10.258
REMARK INTRA:                  -1.148
REMARK UNBOUND:                -1.139
REMARK SMILES CCCCCCCCCCCCCCCC(=O)[O-]
REMARK SMILES IDX 9 1 10 2 11 3 12 4 13 5 14 6 15 7 16 8 17 9 18 10 8 11 7 12
REMARK SMILES IDX 6 13 5 14 4 15 3 16 2 17 1 18
REMARK H PARENT
REMARK Flexibility Score: inf
ROOT
ATOM      1  C   UNL     1     -15.654  29.905   2.469  1.00  0.00     0.000 C 
ENDROOT
BRANCH   1   2
ATOM      2  C   UNL     1     -16.250  28.516   2.192  1.00  0.00     0.000 C 
BRANCH   2   3
ATOM      3  C   UNL     1     -16.402  28.276   0.685  1.00  0.00     0.000 C 
BRANCH   3   4
ATOM      4  C   UNL     1     -16.370  26.777   0.360  1.00  0.00     0.000 C 
BRANCH   4   5
ATOM      5  C   UNL     1     -17.691  26.323  -0.271  1.00  0.00     0.000 C 
BRANCH   5   6
ATOM      6  C   UNL     1     -18.283  25.127   0.490  1.00  0.00     0.006 C 
BRANCH   6   7
ATOM      7  C   UNL     1     -18.653  23.969  -0.444  1.00  0.00     0.053 C 
BRANCH   7   8
ATOM      8  C   UNL     1     -20.062  23.510  -0.226  1.00  0.00     0.041 C 
ATOM      9  O   UNL     1     -20.394  22.326  -0.500  1.00  0.00    -0.550 OA
ATOM     10  O   UNL     1     -21.002  24.381   0.309  1.00  0.00    -0.550 OA
ENDBRANCH   7   8
ENDBRANCH   6   7
ENDBRANCH   5   6
ENDBRANCH   4   5
ENDBRANCH   3   4
ENDBRANCH   2   3
ENDBRANCH   1   2
BRANCH   1  11
ATOM     11  C   UNL     1     -15.695  30.824   1.238  1.00  0.00     0.000 C 
BRANCH  11  12
ATOM     12  C   UNL     1     -16.625  32.032   1.430  1.00  0.00    -0.000 C 
BRANCH  12  13
ATOM     13  C   UNL     1     -16.123  33.241   0.625  1.00  0.00    -0.000 C 
BRANCH  13  14
ATOM     14  C   UNL     1     -16.920  33.465  -0.671  1.00  0.00    -0.000 C 
BRANCH  14  15
ATOM     15  C   UNL     1     -18.176  32.581  -0.750  1.00  0.00    -0.000 C 
BRANCH  15  16
ATOM     16  C   UNL     1     -18.126  31.575  -1.914  1.00  0.00    -0.000 C 
BRANCH  16  17
ATOM     17  C   UNL     1     -18.375  30.108  -1.519  1.00  0.00    -0.003 C 
ATOM     18  C   UNL     1     -19.671  29.543  -2.100  1.00  0.00     0.004 C 
ENDBRANCH  16  17
ENDBRANCH  15  16
ENDBRANCH  14  15
ENDBRANCH  13  14
ENDBRANCH  12  13
ENDBRANCH  11  12
ENDBRANCH   1  11
TORSDOF 14
ENDMDL
MODEL 3
REMARK VINA RESULT:    -5.605      3.171      7.454
REMARK INTER + INTRA:         -11.332
REMARK INTER:                 -10.634
REMARK INTRA:                  -0.697
REMARK UNBOUND:                -1.139
REMARK SMILES CCCCCCCCCCCCCCCC(=O)[O-]
REMARK SMILES IDX 9 1 10 2 11 3 12 4 13 5 14 6 15 7 16 8 17 9 18 10 8 11 7 12
REMARK SMILES IDX 6 13 5 14 4 15 3 16 2 17 1 18
REMARK H PARENT
REMARK Flexibility Score: inf
ROOT
ATOM      1  C   UNL     1     -16.470  28.738   0.294  1.00  0.00     0.000 C 
ENDROOT
BRANCH   1   2
ATOM      2  C   UNL     1     -16.076  29.488   1.576  1.00  0.00     0.000 C 
BRANCH   2   3
ATOM      3  C   UNL     1     -15.587  30.906   1.254  1.00  0.00     0.000 C 
BRANCH   3   4
ATOM      4  C   UNL     1     -16.746  31.909   1.290  1.00  0.00     0.000 C 
BRANCH   4   5
ATOM      5  C   UNL     1     -16.417  33.159   0.465  1.00  0.00     0.000 C 
BRANCH   5   6
ATOM      6  C   UNL     1     -17.004  33.055  -0.950  1.00  0.00     0.006 C 
BRANCH   6   7
ATOM      7  C   UNL     1     -18.349  32.319  -0.968  1.00  0.00     0.053 C 
BRANCH   7   8
ATOM      8  C   UNL     1     -18.333  31.159  -1.917  1.00  0.00     0.041 C 
ATOM      9  O   UNL     1     -18.561  29.994  -1.499  1.00  0.00    -0.550 OA
ATOM     10  O   UNL     1     -18.098  31.370  -3.269  1.00  0.00    -0.550 OA
ENDBRANCH   7   8
ENDBRANCH   6   7
ENDBRANCH   5   6
ENDBRANCH   4   5
ENDBRANCH   3   4
ENDBRANCH   2   3
ENDBRANCH   1   2
BRANCH   1  11
ATOM     11  C   UNL     1     -15.893  27.316   0.239  1.00  0.00     0.000 C 
BRANCH  11  12
ATOM     12  C   UNL     1     -16.295  26.464   1.452  1.00  0.00    -0.000 C 
BRANCH  12  13
ATOM     13  C   UNL     1     -17.659  25.794   1.223  1.00  0.00    -0.000 C 
BRANCH  13  14
ATOM     14  C   UNL     1     -17.793  25.184  -0.182  1.00  0.00    -0.000 C 
BRANCH  14  15
ATOM     15  C   UNL     1     -18.954  24.179  -0.280  1.00  0.00    -0.000 C 
BRANCH  15  16
ATOM     16  C   UNL     1     -18.872  23.292  -1.535  1.00  0.00    -0.000 C 
BRANCH  16  17
ATOM     17  C   UNL     1     -20.123  22.441  -1.815  1.00  0.00    -0.003 C 
ATOM     18  C   UNL     1     -21.170  22.533  -0.705  1.00  0.00     0.004 C 
ENDBRANCH  16  17
ENDBRANCH  15  16
ENDBRANCH  14  15
ENDBRANCH  13  14
ENDBRANCH  12  13
ENDBRANCH  11  12
ENDBRANCH   1  11
TORSDOF 14
ENDMDL
MODEL 4
REMARK VINA RESULT:    -5.426      1.240      1.806
REMARK INTER + INTRA:         -11.006
REMARK INTER:                  -9.950
REMARK INTRA:                  -1.055
REMARK UNBOUND:                -1.139
REMARK SMILES CCCCCCCCCCCCCCCC(=O)[O-]
REMARK SMILES IDX 9 1 10 2 11 3 12 4 13 5 14 6 15 7 16 8 17 9 18 10 8 11 7 12
REMARK SMILES IDX 6 13 5 14 4 15 3 16 2 17 1 18
REMARK H PARENT
REMARK Flexibility Score: inf
ROOT
ATOM      1  C   UNL     1     -16.296  28.530   0.423  1.00  0.00     0.000 C 
ENDROOT
BRANCH   1   2
ATOM      2  C   UNL     1     -17.082  27.315  -0.094  1.00  0.00     0.000 C 
BRANCH   2   3
ATOM      3  C   UNL     1     -17.158  26.216   0.973  1.00  0.00     0.000 C 
BRANCH   3   4
ATOM      4  C   UNL     1     -18.342  25.278   0.714  1.00  0.00     0.000 C 
BRANCH   4   5
ATOM      5  C   UNL     1     -18.140  24.481  -0.581  1.00  0.00     0.000 C 
BRANCH   5   6
ATOM      6  C   UNL     1     -19.061  23.252  -0.621  1.00  0.00     0.006 C 
BRANCH   6   7
ATOM      7  C   UNL     1     -20.476  23.569  -0.121  1.00  0.00     0.053 C 
BRANCH   7   8
ATOM      8  C   UNL     1     -21.513  22.778  -0.857  1.00  0.00     0.041 C 
ATOM      9  O   UNL     1     -21.193  21.723  -1.466  1.00  0.00    -0.550 OA
ATOM     10  O   UNL     1     -22.840  23.189  -0.845  1.00  0.00    -0.550 OA
ENDBRANCH   7   8
ENDBRANCH   6   7
ENDBRANCH   5   6
ENDBRANCH   4   5
ENDBRANCH   3   4
ENDBRANCH   2   3
ENDBRANCH   1   2
BRANCH   1  11
ATOM     11  C   UNL     1     -16.263  28.605   1.957  1.00  0.00     0.000 C 
BRANCH  11  12
ATOM     12  C   UNL     1     -15.829  29.985   2.475  1.00  0.00    -0.000 C 
BRANCH  12  13
ATOM     13  C   UNL     1     -15.599  30.959   1.308  1.00  0.00    -0.000 C 
BRANCH  13  14
ATOM     14  C   UNL     1     -16.657  32.073   1.246  1.00  0.00    -0.000 C 
BRANCH  14  15
ATOM     15  C   UNL     1     -16.749  32.720  -0.146  1.00  0.00    -0.000 C 
BRANCH  15  16
ATOM     16  C   UNL     1     -18.142  32.570  -0.785  1.00  0.00    -0.000 C 
BRANCH  16  17
ATOM     17  C   UNL     1     -18.187  31.697  -2.051  1.00  0.00    -0.003 C 
ATOM     18  C   UNL     1     -18.708  30.285  -1.787  1.00  0.00     0.004 C 
ENDBRANCH  16  17
ENDBRANCH  15  16
ENDBRANCH  14  15
ENDBRANCH  13  14
ENDBRANCH  12  13
ENDBRANCH  11  12
ENDBRANCH   1  11
TORSDOF 14
ENDMDL
MODEL 5
REMARK VINA RESULT:    -5.416      4.134      8.110
REMARK INTER + INTRA:         -10.987
REMARK INTER:                 -10.089
REMARK INTRA:                  -0.898
REMARK UNBOUND:                -1.139
REMARK SMILES CCCCCCCCCCCCCCCC(=O)[O-]
REMARK SMILES IDX 9 1 10 2 11 3 12 4 13 5 14 6 15 7 16 8 17 9 18 10 8 11 7 12
REMARK SMILES IDX 6 13 5 14 4 15 3 16 2 17 1 18
REMARK H PARENT
REMARK Flexibility Score: inf
ROOT
ATOM      1  C   UNL     1     -16.254  28.060  -0.033  1.00  0.00     0.000 C 
ENDROOT
BRANCH   1   2
ATOM      2  C   UNL     1     -17.017  29.334  -0.428  1.00  0.00     0.000 C 
BRANCH   2   3
ATOM      3  C   UNL     1     -18.325  28.989  -1.150  1.00  0.00     0.000 C 
BRANCH   3   4
ATOM      4  C   UNL     1     -18.963  30.242  -1.762  1.00  0.00     0.000 C 
BRANCH   4   5
ATOM      5  C   UNL     1     -17.931  31.365  -1.919  1.00  0.00     0.000 C 
BRANCH   5   6
ATOM      6  C   UNL     1     -18.246  32.537  -0.978  1.00  0.00     0.006 C 
BRANCH   6   7
ATOM      7  C   UNL     1     -16.995  33.350  -0.623  1.00  0.00     0.053 C 
BRANCH   7   8
ATOM      8  C   UNL     1     -16.613  33.179   0.816  1.00  0.00     0.041 C 
ATOM      9  O   UNL     1     -16.931  32.131   1.437  1.00  0.00    -0.550 OA
ATOM     10  O   UNL     1     -15.879  34.165   1.463  1.00  0.00    -0.550 OA
ENDBRANCH   7   8
ENDBRANCH   6   7
ENDBRANCH   5   6
ENDBRANCH   4   5
ENDBRANCH   3   4
ENDBRANCH   2   3
ENDBRANCH   1   2
BRANCH   1  11
ATOM     11  C   UNL     1     -16.539  27.623   1.412  1.00  0.00     0.000 C 
BRANCH  11  12
ATOM     12  C   UNL     1     -16.756  26.107   1.542  1.00  0.00    -0.000 C 
BRANCH  12  13
ATOM     13  C   UNL     1     -18.071  25.683   0.870  1.00  0.00    -0.000 C 
BRANCH  13  14
ATOM     14  C   UNL     1     -17.854  24.715  -0.304  1.00  0.00    -0.000 C 
BRANCH  14  15
ATOM     15  C   UNL     1     -18.783  23.491  -0.239  1.00  0.00    -0.000 C 
BRANCH  15  16
ATOM     16  C   UNL     1     -19.268  23.034  -1.627  1.00  0.00    -0.000 C 
BRANCH  16  17
ATOM     17  C   UNL     1     -20.711  22.502  -1.670  1.00  0.00    -0.003 C 
ATOM     18  C   UNL     1     -21.550  22.948  -0.473  1.00  0.00     0.004 C 
ENDBRANCH  16  17
ENDBRANCH  15  16
ENDBRANCH  14  15
ENDBRANCH  13  14
ENDBRANCH  12  13
ENDBRANCH  11  12
ENDBRANCH   1  11
TORSDOF 14
ENDMDL
MODEL 6
REMARK VINA RESULT:    -5.414      3.886      7.257
REMARK INTER + INTRA:         -10.984
REMARK INTER:                  -9.662
REMARK INTRA:                  -1.323
REMARK UNBOUND:                -1.139
REMARK SMILES CCCCCCCCCCCCCCCC(=O)[O-]
REMARK SMILES IDX 9 1 10 2 11 3 12 4 13 5 14 6 15 7 16 8 17 9 18 10 8 11 7 12
REMARK SMILES IDX 6 13 5 14 4 15 3 16 2 17 1 18
REMARK H PARENT
REMARK Flexibility Score: inf
ROOT
ATOM      1  C   UNL     1     -18.168  32.483  -0.752  1.00  0.00     0.000 C 
ENDROOT
BRANCH   1   2
ATOM      2  C   UNL     1     -16.878  33.315  -0.695  1.00  0.00     0.000 C 
BRANCH   2   3
ATOM      3  C   UNL     1     -16.301  33.336   0.726  1.00  0.00     0.000 C 
BRANCH   3   4
ATOM      4  C   UNL     1     -16.677  32.062   1.492  1.00  0.00     0.000 C 
BRANCH   4   5
ATOM      5  C   UNL     1     -15.488  31.098   1.575  1.00  0.00     0.000 C 
BRANCH   5   6
ATOM      6  C   UNL     1     -15.806  29.909   2.495  1.00  0.00     0.006 C 
BRANCH   6   7
ATOM      7  C   UNL     1     -15.365  30.161   3.942  1.00  0.00     0.053 C 
BRANCH   7   8
ATOM      8  C   UNL     1     -16.490  30.690   4.779  1.00  0.00     0.041 C 
ATOM      9  O   UNL     1     -16.457  31.872   5.213  1.00  0.00    -0.550 OA
ATOM     10  O   UNL     1     -17.590  29.888   5.053  1.00  0.00    -0.550 OA
ENDBRANCH   7   8
ENDBRANCH   6   7
ENDBRANCH   5   6
ENDBRANCH   4   5
ENDBRANCH   3   4
ENDBRANCH   2   3
ENDBRANCH   1   2
BRANCH   1  11
ATOM     11  C   UNL     1     -18.193  31.511  -1.942  1.00  0.00     0.000 C 
BRANCH  11  12
ATOM     12  C   UNL     1     -18.524  30.070  -1.524  1.00  0.00    -0.000 C 
BRANCH  12  13
ATOM     13  C   UNL     1     -17.343  29.433  -0.775  1.00  0.00    -0.000 C 
BRANCH  13  14
ATOM     14  C   UNL     1     -17.605  27.969  -0.386  1.00  0.00    -0.000 C 
BRANCH  14  15
ATOM     15  C   UNL     1     -16.328  27.241   0.067  1.00  0.00    -0.000 C 
BRANCH  15  16
ATOM     16  C   UNL     1     -16.606  25.825   0.603  1.00  0.00    -0.000 C 
BRANCH  16  17
ATOM     17  C   UNL     1     -18.088  25.410   0.612  1.00  0.00    -0.003 C 
ATOM     18  C   UNL     1     -18.390  24.249  -0.336  1.00  0.00     0.004 C 
ENDBRANCH  16  17
ENDBRANCH  15  16
ENDBRANCH  14  15
ENDBRANCH  13  14
ENDBRANCH  12  13
ENDBRANCH  11  12
ENDBRANCH   1  11
TORSDOF 14
ENDMDL
MODEL 7
REMARK VINA RESULT:    -5.310      1.670      2.993
REMARK INTER + INTRA:         -10.794
REMARK INTER:                  -9.959
REMARK INTRA:                  -0.835
REMARK UNBOUND:                -1.139
REMARK SMILES CCCCCCCCCCCCCCCC(=O)[O-]
REMARK SMILES IDX 9 1 10 2 11 3 12 4 13 5 14 6 15 7 16 8 17 9 18 10 8 11 7 12
REMARK SMILES IDX 6 13 5 14 4 15 3 16 2 17 1 18
REMARK H PARENT
REMARK Flexibility Score: inf
ROOT
ATOM      1  C   UNL     1     -17.286  27.054  -0.114  1.00  0.00     0.000 C 
ENDROOT
BRANCH   1   2
ATOM      2  C   UNL     1     -17.320  25.911   0.912  1.00  0.00     0.000 C 
BRANCH   2   3
ATOM      3  C   UNL     1     -18.418  24.897   0.567  1.00  0.00     0.000 C 
BRANCH   3   4
ATOM      4  C   UNL     1     -18.388  24.539  -0.924  1.00  0.00     0.000 C 
BRANCH   4   5
ATOM      5  C   UNL     1     -18.318  23.020  -1.124  1.00  0.00     0.000 C 
BRANCH   5   6
ATOM      6  C   UNL     1     -19.500  22.320  -0.437  1.00  0.00     0.006 C 
BRANCH   6   7
ATOM      7  C   UNL     1     -20.781  22.381  -1.279  1.00  0.00     0.053 C 
BRANCH   7   8
ATOM      8  C   UNL     1     -21.860  23.158  -0.589  1.00  0.00     0.041 C 
ATOM      9  O   UNL     1     -23.051  23.083  -0.990  1.00  0.00    -0.550 OA
ATOM     10  O   UNL     1     -21.555  23.941   0.517  1.00  0.00    -0.550 OA
ENDBRANCH   7   8
ENDBRANCH   6   7
ENDBRANCH   5   6
ENDBRANCH   4   5
ENDBRANCH   3   4
ENDBRANCH   2   3
ENDBRANCH   1   2
BRANCH   1  11
ATOM     11  C   UNL     1     -16.443  28.249   0.359  1.00  0.00     0.000 C 
BRANCH  11  12
ATOM     12  C   UNL     1     -16.196  28.239   1.875  1.00  0.00    -0.000 C 
BRANCH  12  13
ATOM     13  C   UNL     1     -15.967  29.664   2.401  1.00  0.00    -0.000 C 
BRANCH  13  14
ATOM     14  C   UNL     1     -15.718  30.681   1.276  1.00  0.00    -0.000 C 
BRANCH  14  15
ATOM     15  C   UNL     1     -16.575  31.949   1.427  1.00  0.00    -0.000 C 
BRANCH  15  16
ATOM     16  C   UNL     1     -16.098  33.104   0.527  1.00  0.00    -0.000 C 
BRANCH  16  17
ATOM     17  C   UNL     1     -17.079  33.510  -0.587  1.00  0.00    -0.003 C 
ATOM     18  C   UNL     1     -18.037  32.386  -0.981  1.00  0.00     0.004 C 
ENDBRANCH  16  17
ENDBRANCH  15  16
ENDBRANCH  14  15
ENDBRANCH  13  14
ENDBRANCH  12  13
ENDBRANCH  11  12
ENDBRANCH   1  11
TORSDOF 14
ENDMDL
MODEL 8
REMARK VINA RESULT:    -5.290      1.804      4.429
REMARK INTER + INTRA:         -10.758
REMARK INTER:                  -9.303
REMARK INTRA:                  -1.455
REMARK UNBOUND:                -1.139
REMARK SMILES CCCCCCCCCCCCCCCC(=O)[O-]
REMARK SMILES IDX 9 1 10 2 11 3 12 4 13 5 14 6 15 7 16 8 17 9 18 10 8 11 7 12
REMARK SMILES IDX 6 13 5 14 4 15 3 16 2 17 1 18
REMARK H PARENT
REMARK Flexibility Score: inf
ROOT
ATOM      1  C   UNL     1     -18.203  32.240  -0.697  1.00  0.00     0.000 C 
ENDROOT
BRANCH   1   2
ATOM      2  C   UNL     1     -18.143  31.428  -2.000  1.00  0.00     0.000 C 
BRANCH   2   3
ATOM      3  C   UNL     1     -18.552  29.970  -1.758  1.00  0.00     0.000 C 
BRANCH   3   4
ATOM      4  C   UNL     1     -17.587  29.282  -0.784  1.00  0.00     0.000 C 
BRANCH   4   5
ATOM      5  C   UNL     1     -17.961  27.808  -0.588  1.00  0.00     0.000 C 
BRANCH   5   6
ATOM      6  C   UNL     1     -16.850  27.052   0.156  1.00  0.00     0.006 C 
BRANCH   6   7
ATOM      7  C   UNL     1     -17.409  26.069   1.192  1.00  0.00     0.053 C 
BRANCH   7   8
ATOM      8  C   UNL     1     -18.302  25.047   0.560  1.00  0.00     0.041 C 
ATOM      9  O   UNL     1     -17.825  24.186  -0.225  1.00  0.00    -0.550 OA
ATOM     10  O   UNL     1     -19.657  25.024   0.863  1.00  0.00    -0.550 OA
ENDBRANCH   7   8
ENDBRANCH   6   7
ENDBRANCH   5   6
ENDBRANCH   4   5
ENDBRANCH   3   4
ENDBRANCH   2   3
ENDBRANCH   1   2
BRANCH   1  11
ATOM     11  C   UNL     1     -17.121  33.329  -0.627  1.00  0.00     0.000 C 
BRANCH  11  12
ATOM     12  C   UNL     1     -15.979  32.970   0.336  1.00  0.00    -0.000 C 
BRANCH  12  13
ATOM     13  C   UNL     1     -16.450  31.955   1.390  1.00  0.00    -0.000 C 
BRANCH  13  14
ATOM     14  C   UNL     1     -15.458  30.797   1.586  1.00  0.00    -0.000 C 
BRANCH  14  15
ATOM     15  C   UNL     1     -16.027  29.677   2.473  1.00  0.00    -0.000 C 
BRANCH  15  16
ATOM     16  C   UNL     1     -15.750  29.900   3.970  1.00  0.00    -0.000 C 
BRANCH  16  17
ATOM     17  C   UNL     1     -16.946  30.425   4.784  1.00  0.00    -0.003 C 
ATOM     18  C   UNL     1     -16.595  31.632   5.654  1.00  0.00     0.004 C 
ENDBRANCH  16  17
ENDBRANCH  15  16
ENDBRANCH  14  15
ENDBRANCH  13  14
ENDBRANCH  12  13
ENDBRANCH  11  12
ENDBRANCH   1  11
TORSDOF 14
ENDMDL
MODEL 9
REMARK VINA RESULT:    -5.240      3.824      8.272
REMARK INTER + INTRA:         -10.667
REMARK INTER:                  -9.725
REMARK INTRA:                  -0.941
REMARK UNBOUND:                -1.139
REMARK SMILES CCCCCCCCCCCCCCCC(=O)[O-]
REMARK SMILES IDX 9 1 10 2 11 3 12 4 13 5 14 6 15 7 16 8 17 9 18 10 8 11 7 12
REMARK SMILES IDX 6 13 5 14 4 15 3 16 2 17 1 18
REMARK H PARENT
REMARK Flexibility Score: inf
ROOT
ATOM      1  C   UNL     1     -17.474  27.466  -0.301  1.00  0.00     0.000 C 
ENDROOT
BRANCH   1   2
ATOM      2  C   UNL     1     -16.349  28.346   0.264  1.00  0.00     0.000 C 
BRANCH   2   3
ATOM      3  C   UNL     1     -16.251  28.200   1.788  1.00  0.00     0.000 C 
BRANCH   3   4
ATOM      4  C   UNL     1     -15.887  29.537   2.446  1.00  0.00     0.000 C 
BRANCH   4   5
ATOM      5  C   UNL     1     -15.639  30.621   1.390  1.00  0.00     0.000 C 
BRANCH   5   6
ATOM      6  C   UNL     1     -16.568  31.825   1.608  1.00  0.00     0.006 C 
BRANCH   6   7
ATOM      7  C   UNL     1     -16.551  32.794   0.420  1.00  0.00     0.053 C 
BRANCH   7   8
ATOM      8  C   UNL     1     -17.665  32.511  -0.541  1.00  0.00     0.041 C 
ATOM      9  O   UNL     1     -18.265  33.458  -1.114  1.00  0.00    -0.550 OA
ATOM     10  O   UNL     1     -18.020  31.199  -0.828  1.00  0.00    -0.550 OA
ENDBRANCH   7   8
ENDBRANCH   6   7
ENDBRANCH   5   6
ENDBRANCH   4   5
ENDBRANCH   3   4
ENDBRANCH   2   3
ENDBRANCH   1   2
BRANCH   1  11
ATOM     11  C   UNL     1     -17.313  25.984   0.075  1.00  0.00     0.000 C 
BRANCH  11  12
ATOM     12  C   UNL     1     -18.650  25.312   0.424  1.00  0.00    -0.000 C 
BRANCH  12  13
ATOM     13  C   UNL     1     -18.654  23.840  -0.017  1.00  0.00    -0.000 C 
BRANCH  13  14
ATOM     14  C   UNL     1     -18.828  23.674  -1.535  1.00  0.00    -0.000 C 
BRANCH  14  15
ATOM     15  C   UNL     1     -19.803  22.540  -1.896  1.00  0.00    -0.000 C 
BRANCH  15  16
ATOM     16  C   UNL     1     -20.282  21.749  -0.665  1.00  0.00    -0.000 C 
BRANCH  16  17
ATOM     17  C   UNL     1     -21.797  21.813  -0.399  1.00  0.00    -0.003 C 
ATOM     18  C   UNL     1     -22.307  23.237  -0.182  1.00  0.00     0.004 C 
ENDBRANCH  16  17
ENDBRANCH  15  16
ENDBRANCH  14  15
ENDBRANCH  13  14
ENDBRANCH  12  13
ENDBRANCH  11  12
ENDBRANCH   1  11
TORSDOF 14
ENDMDL
