MODEL 1
REMARK VINA RESULT:    27.239      0.000      0.000
REMARK INTER + INTRA:          55.963
REMARK INTER:                  44.755
REMARK INTRA:                  11.208
REMARK UNBOUND:                11.208
REMARK SMILES C[C@H]1O[C@@H](OC[C@H]2O[C@H](Oc3c(-c4ccc(O)c(O)c4)oc4cc(O)cc(O)c4c3=O)[C@@H](O)[C@@H](O)[C@H]2O)[C@@H](O)[C@H](O)[C@@H]1O
REMARK SMILES IDX 7 1 36 2 34 3 32 4 9 5 8 6 6 7 5 8 4 9 1 10 2 11 42 12 3 13
REMARK SMILES IDX 40 14 38 15 43 16 41 18 39 20 37 22 35 24 10 26 11 27 12 28
REMARK SMILES IDX 30 29 21 30 29 31 31 32 22 33 27 34 23 35 26 36 24 37 13 38
REMARK SMILES IDX 20 39 14 40 18 41 15 42 16 43 19 44 17 46 28 48 25 50 33 52
REMARK H PARENT 43 17 41 19 39 21 37 23 35 25 19 45 17 47 28 49 25 51 33 53
REMARK Flexibility Score: inf
ROOT
ATOM      1  C   UNL     1       7.653  10.571   8.276  1.00  0.00     0.180 C 
ATOM      2  C   UNL     1       8.880  11.028   7.346  1.00  0.00     0.177 C 
ATOM      3  C   UNL     1       8.961  12.550   7.386  1.00  0.00     0.180 C 
ATOM      4  C   UNL     1       8.891  13.093   8.824  1.00  0.00     0.214 C 
ATOM      5  C   UNL     1       7.485  12.768   9.322  1.00  0.00     0.339 C 
ATOM      6  O   UNL     1       7.444  11.358   9.481  1.00  0.00    -0.332 OA
ENDROOT
BRANCH   1   7
ATOM      7  C   UNL     1       7.725   9.124   8.812  1.00  0.00     0.198 C 
BRANCH   7   8
ATOM      8  O   UNL     1       6.467   8.554   9.163  1.00  0.00    -0.347 OA
BRANCH   8   9
ATOM      9  C   UNL     1       5.380   9.426   8.815  1.00  0.00     0.281 C 
ATOM     10  C   UNL     1       4.053   6.743   9.309  1.00  0.00     0.041 C 
ATOM     11  C   UNL     1       3.387   8.127   9.224  1.00  0.00     0.150 C 
ATOM     12  C   UNL     1       2.752   8.474   7.847  1.00  0.00     0.174 C 
ATOM     13  O   UNL     1       4.254   9.155   9.674  1.00  0.00    -0.344 OA
ATOM     14  C   UNL     1       3.859   8.605   6.793  1.00  0.00     0.179 C 
ATOM     15  C   UNL     1       4.982   9.561   7.261  1.00  0.00     0.202 C 
BRANCH  12  16
ATOM     16  O   UNL     1       2.003   9.664   7.891  1.00  0.00    -0.388 OA
ATOM     17  H   UNL     1       1.895   9.904   8.860  1.00  0.00     0.211 HD
ENDBRANCH  12  16
BRANCH  14  18
ATOM     18  O   UNL     1       3.288   9.028   5.592  1.00  0.00    -0.387 OA
ATOM     19  H   UNL     1       3.996   8.950   4.892  1.00  0.00     0.211 HD
ENDBRANCH  14  18
BRANCH  15  20
ATOM     20  O   UNL     1       6.068   9.507   6.348  1.00  0.00    -0.385 OA
ATOM     21  H   UNL     1       6.903   9.574   6.883  1.00  0.00     0.211 HD
ENDBRANCH  15  20
ENDBRANCH   8   9
ENDBRANCH   7   8
ENDBRANCH   1   7
BRANCH   2  22
ATOM     22  O   UNL     1      10.124  10.480   7.715  1.00  0.00    -0.387 OA
ATOM     23  H   UNL     1      10.743  10.559   6.951  1.00  0.00     0.211 HD
ENDBRANCH   2  22
BRANCH   3  24
ATOM     24  O   UNL     1      10.077  13.081   6.740  1.00  0.00    -0.387 OA
ATOM     25  H   UNL     1      10.074  12.602   5.886  1.00  0.00     0.211 HD
ENDBRANCH   3  24
BRANCH   5  26
ATOM     26  O   UNL     1       6.388  13.122   8.461  1.00  0.00    -0.454 OA
BRANCH  26  27
ATOM     27  C   UNL     1       5.939  12.742   7.142  1.00  0.00     0.214 A 
ATOM     28  C   UNL     1       4.586  12.338   6.975  1.00  0.00     0.180 A 
ATOM     29  C   UNL     1       6.759  12.663   5.987  1.00  0.00     0.239 A 
ATOM     30  O   UNL     1       4.148  11.897   5.799  1.00  0.00    -0.452 OA
ATOM     31  C   UNL     1       6.297  12.037   4.811  1.00  0.00     0.111 A 
ATOM     32  O   UNL     1       7.913  13.124   5.977  1.00  0.00    -0.285 OA
ATOM     33  C   UNL     1       4.924  11.725   4.752  1.00  0.00     0.146 A 
ATOM     34  C   UNL     1       7.127  11.681   3.708  1.00  0.00     0.134 A 
ATOM     35  C   UNL     1       4.382  11.184   3.578  1.00  0.00     0.094 A 
ATOM     36  C   UNL     1       6.560  11.115   2.554  1.00  0.00     0.093 A 
ATOM     37  C   UNL     1       5.201  10.841   2.504  1.00  0.00     0.123 A 
BRANCH  28  38
ATOM     38  C   UNL     1       3.606  12.345   8.065  1.00  0.00     0.025 A 
ATOM     39  C   UNL     1       2.263  12.096   7.756  1.00  0.00     0.062 A 
ATOM     40  C   UNL     1       4.000  12.373   9.404  1.00  0.00     0.016 A 
ATOM     41  C   UNL     1       1.314  11.919   8.755  1.00  0.00     0.158 A 
ATOM     42  C   UNL     1       3.053  12.195  10.417  1.00  0.00     0.051 A 
ATOM     43  C   UNL     1       1.704  11.975  10.099  1.00  0.00     0.157 A 
BRANCH  41  44
ATOM     44  O   UNL     1      -0.016  11.662   8.428  1.00  0.00    -0.504 OA
ATOM     45  H   UNL     1      -0.786  12.098   8.937  1.00  0.00     0.293 HD
ENDBRANCH  41  44
BRANCH  43  46
ATOM     46  O   UNL     1       0.800  11.710  11.120  1.00  0.00    -0.504 OA
ATOM     47  H   UNL     1       0.838  12.187  12.017  1.00  0.00     0.293 HD
ENDBRANCH  43  46
ENDBRANCH  28  38
BRANCH  34  48
ATOM     48  O   UNL     1       8.519  11.815   3.703  1.00  0.00    -0.507 OA
ATOM     49  H   UNL     1       9.019  12.469   3.114  1.00  0.00     0.293 HD
ENDBRANCH  34  48
BRANCH  37  50
ATOM     50  O   UNL     1       4.679  10.165   1.405  1.00  0.00    -0.508 OA
ATOM     51  H   UNL     1       4.640   9.181   1.427  1.00  0.00     0.293 HD
ENDBRANCH  37  50
ENDBRANCH  26  27
ENDBRANCH   5  26
BRANCH   4  52
ATOM     52  O   UNL     1       9.866  12.555   9.713  1.00  0.00    -0.384 OA
ATOM     53  H   UNL     1      10.717  12.386   9.212  1.00  0.00     0.211 HD
ENDBRANCH   4  52
TORSDOF 16
ENDMDL
