MODEL 1
REMARK VINA RESULT:    10.859      0.000      0.000
REMARK INTER + INTRA:          17.886
REMARK INTER:                  18.477
REMARK INTRA:                  -0.591
REMARK UNBOUND:                -0.591
REMARK SMILES CCCCCCCCCCCCCC(=O)[O-]
REMARK SMILES IDX 8 1 9 2 10 3 11 4 12 5 13 6 14 7 15 8 16 9 7 10 6 11 5 12
REMARK SMILES IDX 4 13 3 14 2 15 1 16
REMARK H PARENT
REMARK Flexibility Score: inf
ROOT
ATOM      1  C   UNL     1      18.593  18.217  21.081  1.00  0.00     0.000 C 
ENDROOT
BRANCH   1   2
ATOM      2  C   UNL     1      18.038  17.368  19.927  1.00  0.00     0.000 C 
BRANCH   2   3
ATOM      3  C   UNL     1      16.699  17.899  19.394  1.00  0.00     0.000 C 
BRANCH   3   4
ATOM      4  C   UNL     1      16.283  17.159  18.115  1.00  0.00     0.000 C 
BRANCH   4   5
ATOM      5  C   UNL     1      17.230  17.420  16.930  1.00  0.00     0.006 C 
BRANCH   5   6
ATOM      6  C   UNL     1      16.528  17.440  15.561  1.00  0.00     0.053 C 
BRANCH   6   7
ATOM      7  C   UNL     1      17.494  17.350  14.418  1.00  0.00     0.041 C 
ATOM      8  O   UNL     1      18.038  18.392  13.966  1.00  0.00    -0.550 OA
ATOM      9  O   UNL     1      17.821  16.114  13.875  1.00  0.00    -0.550 OA
ENDBRANCH   6   7
ENDBRANCH   5   6
ENDBRANCH   4   5
ENDBRANCH   3   4
ENDBRANCH   2   3
ENDBRANCH   1   2
BRANCH   1  10
ATOM     10  C   UNL     1      20.116  18.416  20.993  1.00  0.00     0.000 C 
BRANCH  10  11
ATOM     11  C   UNL     1      20.717  17.827  19.706  1.00  0.00    -0.000 C 
BRANCH  11  12
ATOM     12  C   UNL     1      22.254  17.910  19.681  1.00  0.00    -0.000 C 
BRANCH  12  13
ATOM     13  C   UNL     1      22.872  17.823  21.086  1.00  0.00    -0.000 C 
BRANCH  13  14
ATOM     14  C   UNL     1      24.356  18.227  21.105  1.00  0.00    -0.000 C 
BRANCH  14  15
ATOM     15  C   UNL     1      24.801  18.772  22.472  1.00  0.00    -0.003 C 
ATOM     16  C   UNL     1      25.441  17.702  23.356  1.00  0.00     0.004 C 
ENDBRANCH  14  15
ENDBRANCH  13  14
ENDBRANCH  12  13
ENDBRANCH  11  12
ENDBRANCH  10  11
ENDBRANCH   1  10
TORSDOF 12
ENDMDL
MODEL 2
REMARK VINA RESULT:    11.096      3.957      7.903
REMARK INTER + INTRA:          18.288
REMARK INTER:                  18.835
REMARK INTRA:                  -0.546
REMARK UNBOUND:                -0.591
REMARK SMILES CCCCCCCCCCCCCC(=O)[O-]
REMARK SMILES IDX 8 1 9 2 10 3 11 4 12 5 13 6 14 7 15 8 16 9 7 10 6 11 5 12
REMARK SMILES IDX 4 13 3 14 2 15 1 16
REMARK H PARENT
REMARK Flexibility Score: inf
ROOT
ATOM      1  C   UNL     1      17.111  17.595  19.959  1.00  0.00     0.000 C 
ENDROOT
BRANCH   1   2
ATOM      2  C   UNL     1      18.578  17.170  19.795  1.00  0.00     0.000 C 
BRANCH   2   3
ATOM      3  C   UNL     1      19.549  18.099  20.541  1.00  0.00     0.000 C 
BRANCH   3   4
ATOM      4  C   UNL     1      20.969  17.986  19.969  1.00  0.00     0.000 C 
BRANCH   4   5
ATOM      5  C   UNL     1      22.054  17.909  21.058  1.00  0.00     0.006 C 
BRANCH   5   6
ATOM      6  C   UNL     1      23.492  17.938  20.511  1.00  0.00     0.053 C 
BRANCH   6   7
ATOM      7  C   UNL     1      24.511  18.177  21.585  1.00  0.00     0.041 C 
ATOM      8  O   UNL     1      24.781  17.269  22.415  1.00  0.00    -0.550 OA
ATOM      9  O   UNL     1      25.189  19.388  21.649  1.00  0.00    -0.550 OA
ENDBRANCH   6   7
ENDBRANCH   5   6
ENDBRANCH   4   5
ENDBRANCH   3   4
ENDBRANCH   2   3
ENDBRANCH   1   2
BRANCH   1  10
ATOM     10  C   UNL     1      16.323  17.527  18.639  1.00  0.00     0.000 C 
BRANCH  10  11
ATOM     11  C   UNL     1      17.238  17.453  17.405  1.00  0.00    -0.000 C 
BRANCH  11  12
ATOM     12  C   UNL     1      16.511  17.851  16.108  1.00  0.00    -0.000 C 
BRANCH  12  13
ATOM     13  C   UNL     1      17.046  17.101  14.877  1.00  0.00    -0.000 C 
BRANCH  13  14
ATOM     14  C   UNL     1      18.061  17.933  14.074  1.00  0.00    -0.000 C 
BRANCH  14  15
ATOM     15  C   UNL     1      17.710  19.429  14.050  1.00  0.00    -0.003 C 
ATOM     16  C   UNL     1      18.938  20.329  14.187  1.00  0.00     0.004 C 
ENDBRANCH  14  15
ENDBRANCH  13  14
ENDBRANCH  12  13
ENDBRANCH  11  12
ENDBRANCH  10  11
ENDBRANCH   1  10
TORSDOF 12
ENDMDL
MODEL 3
REMARK VINA RESULT:    11.098      4.093      8.163
REMARK INTER + INTRA:          18.291
REMARK INTER:                  18.553
REMARK INTRA:                  -0.262
REMARK UNBOUND:                -0.591
REMARK SMILES CCCCCCCCCCCCCC(=O)[O-]
REMARK SMILES IDX 8 1 9 2 10 3 11 4 12 5 13 6 14 7 15 8 16 9 7 10 6 11 5 12
REMARK SMILES IDX 4 13 3 14 2 15 1 16
REMARK H PARENT
REMARK Flexibility Score: inf
ROOT
ATOM      1  C   UNL     1      17.917  17.503  20.414  1.00  0.00     0.000 C 
ENDROOT
BRANCH   1   2
ATOM      2  C   UNL     1      19.265  17.557  19.679  1.00  0.00     0.000 C 
BRANCH   2   3
ATOM      3  C   UNL     1      20.341  18.314  20.473  1.00  0.00     0.000 C 
BRANCH   3   4
ATOM      4  C   UNL     1      21.747  17.971  19.961  1.00  0.00     0.000 C 
BRANCH   4   5
ATOM      5  C   UNL     1      22.718  17.572  21.087  1.00  0.00     0.006 C 
BRANCH   5   6
ATOM      6  C   UNL     1      24.163  18.054  20.866  1.00  0.00     0.053 C 
BRANCH   6   7
ATOM      7  C   UNL     1      24.846  18.428  22.147  1.00  0.00     0.041 C 
ATOM      8  O   UNL     1      25.001  19.641  22.451  1.00  0.00    -0.550 OA
ATOM      9  O   UNL     1      25.279  17.441  23.023  1.00  0.00    -0.550 OA
ENDBRANCH   6   7
ENDBRANCH   5   6
ENDBRANCH   4   5
ENDBRANCH   3   4
ENDBRANCH   2   3
ENDBRANCH   1   2
BRANCH   1  10
ATOM     10  C   UNL     1      16.820  16.807  19.589  1.00  0.00     0.000 C 
BRANCH  10  11
ATOM     11  C   UNL     1      16.329  17.664  18.412  1.00  0.00    -0.000 C 
BRANCH  11  12
ATOM     12  C   UNL     1      17.122  17.400  17.119  1.00  0.00    -0.000 C 
BRANCH  12  13
ATOM     13  C   UNL     1      16.314  17.728  15.854  1.00  0.00    -0.000 C 
BRANCH  13  14
ATOM     14  C   UNL     1      16.855  17.011  14.605  1.00  0.00    -0.000 C 
BRANCH  14  15
ATOM     15  C   UNL     1      18.084  17.714  14.008  1.00  0.00    -0.003 C 
ATOM     16  C   UNL     1      17.976  19.239  14.055  1.00  0.00     0.004 C 
ENDBRANCH  14  15
ENDBRANCH  13  14
ENDBRANCH  12  13
ENDBRANCH  11  12
ENDBRANCH  10  11
ENDBRANCH   1  10
TORSDOF 12
ENDMDL
MODEL 4
REMARK VINA RESULT:    11.239      4.831      8.322
REMARK INTER + INTRA:          18.532
REMARK INTER:                  18.999
REMARK INTRA:                  -0.467
REMARK UNBOUND:                -0.591
REMARK SMILES CCCCCCCCCCCCCC(=O)[O-]
REMARK SMILES IDX 8 1 9 2 10 3 11 4 12 5 13 6 14 7 15 8 16 9 7 10 6 11 5 12
REMARK SMILES IDX 4 13 3 14 2 15 1 16
REMARK H PARENT
REMARK Flexibility Score: inf
ROOT
ATOM      1  C   UNL     1      16.946  17.081  19.750  1.00  0.00     0.000 C 
ENDROOT
BRANCH   1   2
ATOM      2  C   UNL     1      18.430  17.447  19.902  1.00  0.00     0.000 C 
BRANCH   2   3
ATOM      3  C   UNL     1      18.773  17.948  21.313  1.00  0.00     0.000 C 
BRANCH   3   4
ATOM      4  C   UNL     1      20.155  18.615  21.341  1.00  0.00     0.000 C 
BRANCH   4   5
ATOM      5  C   UNL     1      20.266  19.731  22.395  1.00  0.00     0.006 C 
BRANCH   5   6
ATOM      6  C   UNL     1      20.967  19.297  23.694  1.00  0.00     0.053 C 
BRANCH   6   7
ATOM      7  C   UNL     1      21.660  20.435  24.382  1.00  0.00     0.041 C 
ATOM      8  O   UNL     1      20.988  21.385  24.866  1.00  0.00    -0.550 OA
ATOM      9  O   UNL     1      23.041  20.430  24.524  1.00  0.00    -0.550 OA
ENDBRANCH   6   7
ENDBRANCH   5   6
ENDBRANCH   4   5
ENDBRANCH   3   4
ENDBRANCH   2   3
ENDBRANCH   1   2
BRANCH   1  10
ATOM     10  C   UNL     1      16.333  17.623  18.447  1.00  0.00     0.000 C 
BRANCH  10  11
ATOM     11  C   UNL     1      17.194  17.312  17.211  1.00  0.00    -0.000 C 
BRANCH  11  12
ATOM     12  C   UNL     1      16.513  17.733  15.897  1.00  0.00    -0.000 C 
BRANCH  12  13
ATOM     13  C   UNL     1      17.133  17.053  14.666  1.00  0.00    -0.000 C 
BRANCH  13  14
ATOM     14  C   UNL     1      18.145  17.955  13.939  1.00  0.00    -0.000 C 
BRANCH  14  15
ATOM     15  C   UNL     1      17.744  19.439  13.977  1.00  0.00    -0.003 C 
ATOM     16  C   UNL     1      18.950  20.377  14.035  1.00  0.00     0.004 C 
ENDBRANCH  14  15
ENDBRANCH  13  14
ENDBRANCH  12  13
ENDBRANCH  11  12
ENDBRANCH  10  11
ENDBRANCH   1  10
TORSDOF 12
ENDMDL
MODEL 5
REMARK VINA RESULT:    11.510      1.927      2.454
REMARK INTER + INTRA:          18.992
REMARK INTER:                  19.537
REMARK INTRA:                  -0.544
REMARK UNBOUND:                -0.591
REMARK SMILES CCCCCCCCCCCCCC(=O)[O-]
REMARK SMILES IDX 8 1 9 2 10 3 11 4 12 5 13 6 14 7 15 8 16 9 7 10 6 11 5 12
REMARK SMILES IDX 4 13 3 14 2 15 1 16
REMARK H PARENT
REMARK Flexibility Score: inf
ROOT
ATOM      1  C   UNL     1      19.398  17.841  19.898  1.00  0.00     0.000 C 
ENDROOT
BRANCH   1   2
ATOM      2  C   UNL     1      18.044  17.181  20.200  1.00  0.00     0.000 C 
BRANCH   2   3
ATOM      3  C   UNL     1      16.862  17.959  19.603  1.00  0.00     0.000 C 
BRANCH   3   4
ATOM      4  C   UNL     1      16.328  17.270  18.341  1.00  0.00     0.000 C 
BRANCH   4   5
ATOM      5  C   UNL     1      17.242  17.459  17.117  1.00  0.00     0.006 C 
BRANCH   5   6
ATOM      6  C   UNL     1      16.497  17.439  15.770  1.00  0.00     0.053 C 
BRANCH   6   7
ATOM      7  C   UNL     1      17.430  17.398  14.597  1.00  0.00     0.041 C 
ATOM      8  O   UNL     1      17.930  18.464  14.150  1.00  0.00    -0.550 OA
ATOM      9  O   UNL     1      17.777  16.183  14.021  1.00  0.00    -0.550 OA
ENDBRANCH   6   7
ENDBRANCH   5   6
ENDBRANCH   4   5
ENDBRANCH   3   4
ENDBRANCH   2   3
ENDBRANCH   1   2
BRANCH   1  10
ATOM     10  C   UNL     1      19.957  18.623  21.099  1.00  0.00     0.000 C 
BRANCH  10  11
ATOM     11  C   UNL     1      19.307  18.210  22.430  1.00  0.00    -0.000 C 
BRANCH  11  12
ATOM     12  C   UNL     1      20.183  18.559  23.647  1.00  0.00    -0.000 C 
BRANCH  12  13
ATOM     13  C   UNL     1      21.105  19.761  23.386  1.00  0.00    -0.000 C 
BRANCH  13  14
ATOM     14  C   UNL     1      21.342  20.609  24.647  1.00  0.00    -0.000 C 
BRANCH  14  15
ATOM     15  C   UNL     1      22.834  20.853  24.920  1.00  0.00    -0.003 C 
ATOM     16  C   UNL     1      23.736  20.324  23.805  1.00  0.00     0.004 C 
ENDBRANCH  14  15
ENDBRANCH  13  14
ENDBRANCH  12  13
ENDBRANCH  11  12
ENDBRANCH  10  11
ENDBRANCH   1  10
TORSDOF 12
ENDMDL
MODEL 6
REMARK VINA RESULT:    11.921      4.850      8.668
REMARK INTER + INTRA:          19.692
REMARK INTER:                  20.130
REMARK INTRA:                  -0.438
REMARK UNBOUND:                -0.591
REMARK SMILES CCCCCCCCCCCCCC(=O)[O-]
REMARK SMILES IDX 8 1 9 2 10 3 11 4 12 5 13 6 14 7 15 8 16 9 7 10 6 11 5 12
REMARK SMILES IDX 4 13 3 14 2 15 1 16
REMARK H PARENT
REMARK Flexibility Score: inf
ROOT
ATOM      1  C   UNL     1      18.060  17.085  20.722  1.00  0.00     0.000 C 
ENDROOT
BRANCH   1   2
ATOM      2  C   UNL     1      18.879  18.376  20.566  1.00  0.00     0.000 C 
BRANCH   2   3
ATOM      3  C   UNL     1      20.177  18.354  21.387  1.00  0.00     0.000 C 
BRANCH   3   4
ATOM      4  C   UNL     1      19.989  19.065  22.735  1.00  0.00     0.000 C 
BRANCH   4   5
ATOM      5  C   UNL     1      21.303  19.229  23.520  1.00  0.00     0.006 C 
BRANCH   5   6
ATOM      6  C   UNL     1      21.434  20.581  24.244  1.00  0.00     0.053 C 
BRANCH   6   7
ATOM      7  C   UNL     1      22.852  20.903  24.609  1.00  0.00     0.041 C 
ATOM      8  O   UNL     1      23.419  20.287  25.550  1.00  0.00    -0.550 OA
ATOM      9  O   UNL     1      23.561  21.855  23.888  1.00  0.00    -0.550 OA
ENDBRANCH   6   7
ENDBRANCH   5   6
ENDBRANCH   4   5
ENDBRANCH   3   4
ENDBRANCH   2   3
ENDBRANCH   1   2
BRANCH   1  10
ATOM     10  C   UNL     1      17.215  16.766  19.476  1.00  0.00     0.000 C 
BRANCH  10  11
ATOM     11  C   UNL     1      16.388  17.970  18.995  1.00  0.00    -0.000 C 
BRANCH  11  12
ATOM     12  C   UNL     1      15.933  17.825  17.532  1.00  0.00    -0.000 C 
BRANCH  12  13
ATOM     13  C   UNL     1      17.080  17.416  16.595  1.00  0.00    -0.000 C 
BRANCH  13  14
ATOM     14  C   UNL     1      16.815  17.807  15.131  1.00  0.00    -0.000 C 
BRANCH  14  15
ATOM     15  C   UNL     1      17.887  17.263  14.173  1.00  0.00    -0.003 C 
ATOM     16  C   UNL     1      17.809  15.747  13.996  1.00  0.00     0.004 C 
ENDBRANCH  14  15
ENDBRANCH  13  14
ENDBRANCH  12  13
ENDBRANCH  11  12
ENDBRANCH  10  11
ENDBRANCH   1  10
TORSDOF 12
ENDMDL
MODEL 7
REMARK VINA RESULT:    11.940      2.269      2.913
REMARK INTER + INTRA:          19.724
REMARK INTER:                  20.251
REMARK INTRA:                  -0.526
REMARK UNBOUND:                -0.591
REMARK SMILES CCCCCCCCCCCCCC(=O)[O-]
REMARK SMILES IDX 8 1 9 2 10 3 11 4 12 5 13 6 14 7 15 8 16 9 7 10 6 11 5 12
REMARK SMILES IDX 4 13 3 14 2 15 1 16
REMARK H PARENT
REMARK Flexibility Score: inf
ROOT
ATOM      1  C   UNL     1      16.823  17.949  19.835  1.00  0.00     0.000 C 
ENDROOT
BRANCH   1   2
ATOM      2  C   UNL     1      16.455  17.077  18.625  1.00  0.00     0.000 C 
BRANCH   2   3
ATOM      3  C   UNL     1      16.480  17.860  17.304  1.00  0.00     0.000 C 
BRANCH   3   4
ATOM      4  C   UNL     1      17.582  17.335  16.373  1.00  0.00     0.000 C 
BRANCH   4   5
ATOM      5  C   UNL     1      17.114  17.173  14.915  1.00  0.00     0.006 C 
BRANCH   5   6
ATOM      6  C   UNL     1      17.971  17.943  13.895  1.00  0.00     0.053 C 
BRANCH   6   7
ATOM      7  C   UNL     1      17.984  19.420  14.154  1.00  0.00     0.041 C 
ATOM      8  O   UNL     1      16.976  19.984  14.654  1.00  0.00    -0.550 OA
ATOM      9  O   UNL     1      19.122  20.168  13.878  1.00  0.00    -0.550 OA
ENDBRANCH   6   7
ENDBRANCH   5   6
ENDBRANCH   4   5
ENDBRANCH   3   4
ENDBRANCH   2   3
ENDBRANCH   1   2
BRANCH   1  10
ATOM     10  C   UNL     1      18.056  17.424  20.591  1.00  0.00     0.000 C 
BRANCH  10  11
ATOM     11  C   UNL     1      19.380  17.897  19.968  1.00  0.00    -0.000 C 
BRANCH  11  12
ATOM     12  C   UNL     1      20.395  18.365  21.027  1.00  0.00    -0.000 C 
BRANCH  12  13
ATOM     13  C   UNL     1      19.717  18.907  22.295  1.00  0.00    -0.000 C 
BRANCH  13  14
ATOM     14  C   UNL     1      20.647  18.879  23.520  1.00  0.00    -0.000 C 
BRANCH  14  15
ATOM     15  C   UNL     1      21.009  20.287  24.018  1.00  0.00    -0.003 C 
ATOM     16  C   UNL     1      22.500  20.446  24.315  1.00  0.00     0.004 C 
ENDBRANCH  14  15
ENDBRANCH  13  14
ENDBRANCH  12  13
ENDBRANCH  11  12
ENDBRANCH  10  11
ENDBRANCH   1  10
TORSDOF 12
ENDMDL
MODEL 8
REMARK VINA RESULT:    11.995      1.362      2.139
REMARK INTER + INTRA:          19.819
REMARK INTER:                  20.329
REMARK INTRA:                  -0.510
REMARK UNBOUND:                -0.591
REMARK SMILES CCCCCCCCCCCCCC(=O)[O-]
REMARK SMILES IDX 8 1 9 2 10 3 11 4 12 5 13 6 14 7 15 8 16 9 7 10 6 11 5 12
REMARK SMILES IDX 4 13 3 14 2 15 1 16
REMARK H PARENT
REMARK Flexibility Score: inf
ROOT
ATOM      1  C   UNL     1      16.969  17.982  19.824  1.00  0.00     0.000 C 
ENDROOT
BRANCH   1   2
ATOM      2  C   UNL     1      16.259  17.148  18.746  1.00  0.00     0.000 C 
BRANCH   2   3
ATOM      3  C   UNL     1      16.290  17.821  17.365  1.00  0.00     0.000 C 
BRANCH   3   4
ATOM      4  C   UNL     1      17.391  17.217  16.482  1.00  0.00     0.000 C 
BRANCH   4   5
ATOM      5  C   UNL     1      17.017  17.185  14.989  1.00  0.00     0.006 C 
BRANCH   5   6
ATOM      6  C   UNL     1      18.017  17.919  14.078  1.00  0.00     0.053 C 
BRANCH   6   7
ATOM      7  C   UNL     1      17.987  19.406  14.272  1.00  0.00     0.041 C 
ATOM      8  O   UNL     1      16.954  19.964  14.726  1.00  0.00    -0.550 OA
ATOM      9  O   UNL     1      19.111  20.171  13.986  1.00  0.00    -0.550 OA
ENDBRANCH   6   7
ENDBRANCH   5   6
ENDBRANCH   4   5
ENDBRANCH   3   4
ENDBRANCH   2   3
ENDBRANCH   1   2
BRANCH   1  10
ATOM     10  C   UNL     1      18.222  17.284  20.383  1.00  0.00     0.000 C 
BRANCH  10  11
ATOM     11  C   UNL     1      19.507  17.688  19.641  1.00  0.00    -0.000 C 
BRANCH  11  12
ATOM     12  C   UNL     1      20.616  18.160  20.598  1.00  0.00    -0.000 C 
BRANCH  12  13
ATOM     13  C   UNL     1      22.021  18.001  19.997  1.00  0.00    -0.000 C 
BRANCH  13  14
ATOM     14  C   UNL     1      23.053  17.511  21.027  1.00  0.00    -0.000 C 
BRANCH  14  15
ATOM     15  C   UNL     1      24.390  18.262  20.925  1.00  0.00    -0.003 C 
ATOM     16  C   UNL     1      24.758  18.996  22.215  1.00  0.00     0.004 C 
ENDBRANCH  14  15
ENDBRANCH  13  14
ENDBRANCH  12  13
ENDBRANCH  11  12
ENDBRANCH  10  11
ENDBRANCH   1  10
TORSDOF 12
ENDMDL
