MODEL 1
REMARK VINA RESULT:    -6.123      0.000      0.000
REMARK INTER + INTRA:         -16.976
REMARK INTER:                 -13.997
REMARK INTRA:                  -2.980
REMARK UNBOUND:                -2.980
REMARK SMILES CCCCCCCCCCCCCCCCCCCCCCCC(=O)[O-]
REMARK SMILES IDX 13 1 14 2 15 3 16 4 17 5 18 6 19 7 20 8 21 9 22 10 23 11
REMARK SMILES IDX 24 12 25 13 26 14 12 15 11 16 10 17 9 18 8 19 7 20 6 21 5 22
REMARK SMILES IDX 4 23 3 24 2 25 1 26
REMARK H PARENT
REMARK Flexibility Score: inf
ROOT
ATOM      1  C   UNL     1      -3.249  38.695 101.589  1.00  0.00     0.000 C 
ENDROOT
BRANCH   1   2
ATOM      2  C   UNL     1      -1.759  38.996 101.816  1.00  0.00     0.000 C 
BRANCH   2   3
ATOM      3  C   UNL     1      -1.534  40.229 102.709  1.00  0.00     0.000 C 
BRANCH   3   4
ATOM      4  C   UNL     1      -2.833  40.734 103.357  1.00  0.00     0.000 C 
BRANCH   4   5
ATOM      5  C   UNL     1      -3.114  42.212 103.043  1.00  0.00     0.000 C 
BRANCH   5   6
ATOM      6  C   UNL     1      -3.641  42.376 101.610  1.00  0.00     0.000 C 
BRANCH   6   7
ATOM      7  C   UNL     1      -3.554  43.826 101.111  1.00  0.00     0.000 C 
BRANCH   7   8
ATOM      8  C   UNL     1      -4.709  44.196 100.162  1.00  0.00     0.000 C 
BRANCH   8   9
ATOM      9  C   UNL     1      -5.675  45.220 100.779  1.00  0.00     0.000 C 
BRANCH   9  10
ATOM     10  C   UNL     1      -6.522  44.625 101.914  1.00  0.00     0.006 C 
BRANCH  10  11
ATOM     11  C   UNL     1      -5.917  44.962 103.281  1.00  0.00     0.053 C 
BRANCH  11  12
ATOM     12  C   UNL     1      -6.363  43.972 104.310  1.00  0.00     0.041 C 
ATOM     13  O   UNL     1      -7.508  43.452 104.237  1.00  0.00    -0.550 OA
ATOM     14  O   UNL     1      -5.531  43.658 105.378  1.00  0.00    -0.550 OA
ENDBRANCH  11  12
ENDBRANCH  10  11
ENDBRANCH   9  10
ENDBRANCH   8   9
ENDBRANCH   7   8
ENDBRANCH   6   7
ENDBRANCH   5   6
ENDBRANCH   4   5
ENDBRANCH   3   4
ENDBRANCH   2   3
ENDBRANCH   1   2
BRANCH   1  15
ATOM     15  C   UNL     1      -3.572  37.196 101.683  1.00  0.00     0.000 C 
BRANCH  15  16
ATOM     16  C   UNL     1      -4.996  36.910 101.182  1.00  0.00     0.000 C 
BRANCH  16  17
ATOM     17  C   UNL     1      -5.232  35.424 100.872  1.00  0.00     0.000 C 
BRANCH  17  18
ATOM     18  C   UNL     1      -5.985  35.208  99.548  1.00  0.00    -0.000 C 
BRANCH  18  19
ATOM     19  C   UNL     1      -5.080  34.643  98.441  1.00  0.00    -0.000 C 
BRANCH  19  20
ATOM     20  C   UNL     1      -3.642  34.381  98.926  1.00  0.00    -0.000 C 
BRANCH  20  21
ATOM     21  C   UNL     1      -2.619  35.317  98.265  1.00  0.00    -0.000 C 
BRANCH  21  22
ATOM     22  C   UNL     1      -3.286  36.441  97.451  1.00  0.00    -0.000 C 
BRANCH  22  23
ATOM     23  C   UNL     1      -3.287  37.786  98.196  1.00  0.00    -0.000 C 
BRANCH  23  24
ATOM     24  C   UNL     1      -4.564  38.604  97.933  1.00  0.00    -0.000 C 
BRANCH  24  25
ATOM     25  C   UNL     1      -5.447  37.983  96.842  1.00  0.00    -0.003 C 
ATOM     26  C   UNL     1      -6.935  38.033  97.188  1.00  0.00     0.004 C 
ENDBRANCH  24  25
ENDBRANCH  23  24
ENDBRANCH  22  23
ENDBRANCH  21  22
ENDBRANCH  20  21
ENDBRANCH  19  20
ENDBRANCH  18  19
ENDBRANCH  17  18
ENDBRANCH  16  17
ENDBRANCH  15  16
ENDBRANCH   1  15
TORSDOF 22
ENDMDL
MODEL 2
REMARK VINA RESULT:    -6.036      2.727      8.201
REMARK INTER + INTRA:         -16.778
REMARK INTER:                 -13.968
REMARK INTRA:                  -2.810
REMARK UNBOUND:                -2.980
REMARK SMILES CCCCCCCCCCCCCCCCCCCCCCCC(=O)[O-]
REMARK SMILES IDX 13 1 14 2 15 3 16 4 17 5 18 6 19 7 20 8 21 9 22 10 23 11
REMARK SMILES IDX 24 12 25 13 26 14 12 15 11 16 10 17 9 18 8 19 7 20 6 21 5 22
REMARK SMILES IDX 4 23 3 24 2 25 1 26
REMARK H PARENT
REMARK Flexibility Score: inf
ROOT
ATOM      1  C   UNL     1      -1.661  38.989 101.691  1.00  0.00     0.000 C 
ENDROOT
BRANCH   1   2
ATOM      2  C   UNL     1      -2.783  38.330 100.873  1.00  0.00     0.000 C 
BRANCH   2   3
ATOM      3  C   UNL     1      -3.234  36.983 101.464  1.00  0.00     0.000 C 
BRANCH   3   4
ATOM      4  C   UNL     1      -4.763  36.827 101.483  1.00  0.00     0.000 C 
BRANCH   4   5
ATOM      5  C   UNL     1      -5.238  35.565 100.747  1.00  0.00     0.000 C 
BRANCH   5   6
ATOM      6  C   UNL     1      -4.045  34.690 100.335  1.00  0.00     0.000 C 
BRANCH   6   7
ATOM      7  C   UNL     1      -3.902  34.562  98.811  1.00  0.00     0.000 C 
BRANCH   7   8
ATOM      8  C   UNL     1      -2.674  35.313  98.267  1.00  0.00     0.000 C 
BRANCH   8   9
ATOM      9  C   UNL     1      -3.053  36.440  97.293  1.00  0.00     0.000 C 
BRANCH   9  10
ATOM     10  C   UNL     1      -4.563  36.722  97.274  1.00  0.00     0.006 C 
BRANCH  10  11
ATOM     11  C   UNL     1      -4.866  38.115  97.832  1.00  0.00     0.053 C 
BRANCH  11  12
ATOM     12  C   UNL     1      -5.954  38.772  97.042  1.00  0.00     0.041 C 
ATOM     13  O   UNL     1      -7.089  38.234  96.958  1.00  0.00    -0.550 OA
ATOM     14  O   UNL     1      -5.699  39.955  96.359  1.00  0.00    -0.550 OA
ENDBRANCH  11  12
ENDBRANCH  10  11
ENDBRANCH   9  10
ENDBRANCH   8   9
ENDBRANCH   7   8
ENDBRANCH   6   7
ENDBRANCH   5   6
ENDBRANCH   4   5
ENDBRANCH   3   4
ENDBRANCH   2   3
ENDBRANCH   1   2
BRANCH   1  15
ATOM     15  C   UNL     1      -2.170  39.621 102.995  1.00  0.00     0.000 C 
BRANCH  15  16
ATOM     16  C   UNL     1      -3.015  40.870 102.703  1.00  0.00     0.000 C 
BRANCH  16  17
ATOM     17  C   UNL     1      -2.364  42.164 103.218  1.00  0.00     0.000 C 
BRANCH  17  18
ATOM     18  C   UNL     1      -3.381  43.126 103.855  1.00  0.00    -0.000 C 
BRANCH  18  19
ATOM     19  C   UNL     1      -4.599  42.392 104.440  1.00  0.00    -0.000 C 
BRANCH  19  20
ATOM     20  C   UNL     1      -5.590  43.345 105.133  1.00  0.00    -0.000 C 
BRANCH  20  21
ATOM     21  C   UNL     1      -5.481  44.787 104.612  1.00  0.00    -0.000 C 
BRANCH  21  22
ATOM     22  C   UNL     1      -6.652  45.171 103.690  1.00  0.00    -0.000 C 
BRANCH  22  23
ATOM     23  C   UNL     1      -6.581  44.469 102.325  1.00  0.00    -0.000 C 
BRANCH  23  24
ATOM     24  C   UNL     1      -5.923  45.346 101.244  1.00  0.00    -0.000 C 
BRANCH  24  25
ATOM     25  C   UNL     1      -5.446  44.531 100.034  1.00  0.00    -0.003 C 
ATOM     26  C   UNL     1      -4.164  43.749 100.317  1.00  0.00     0.004 C 
ENDBRANCH  24  25
ENDBRANCH  23  24
ENDBRANCH  22  23
ENDBRANCH  21  22
ENDBRANCH  20  21
ENDBRANCH  19  20
ENDBRANCH  18  19
ENDBRANCH  17  18
ENDBRANCH  16  17
ENDBRANCH  15  16
ENDBRANCH   1  15
TORSDOF 22
ENDMDL
MODEL 3
REMARK VINA RESULT:    -5.998      1.525      2.395
REMARK INTER + INTRA:         -16.692
REMARK INTER:                 -13.984
REMARK INTRA:                  -2.708
REMARK UNBOUND:                -2.980
REMARK SMILES CCCCCCCCCCCCCCCCCCCCCCCC(=O)[O-]
REMARK SMILES IDX 13 1 14 2 15 3 16 4 17 5 18 6 19 7 20 8 21 9 22 10 23 11
REMARK SMILES IDX 24 12 25 13 26 14 12 15 11 16 10 17 9 18 8 19 7 20 6 21 5 22
REMARK SMILES IDX 4 23 3 24 2 25 1 26
REMARK H PARENT
REMARK Flexibility Score: inf
ROOT
ATOM      1  C   UNL     1      -2.966  38.353 101.087  1.00  0.00     0.000 C 
ENDROOT
BRANCH   1   2
ATOM      2  C   UNL     1      -1.912  38.973 102.018  1.00  0.00     0.000 C 
BRANCH   2   3
ATOM      3  C   UNL     1      -2.375  40.306 102.631  1.00  0.00     0.000 C 
BRANCH   3   4
ATOM      4  C   UNL     1      -3.236  41.135 101.663  1.00  0.00     0.000 C 
BRANCH   4   5
ATOM      5  C   UNL     1      -3.545  42.540 102.201  1.00  0.00     0.000 C 
BRANCH   5   6
ATOM      6  C   UNL     1      -3.396  42.586 103.729  1.00  0.00     0.000 C 
BRANCH   6   7
ATOM      7  C   UNL     1      -4.294  43.649 104.380  1.00  0.00     0.000 C 
BRANCH   7   8
ATOM      8  C   UNL     1      -5.656  43.083 104.819  1.00  0.00     0.000 C 
BRANCH   8   9
ATOM      9  C   UNL     1      -6.827  44.008 104.449  1.00  0.00     0.000 C 
BRANCH   9  10
ATOM     10  C   UNL     1      -6.498  44.936 103.270  1.00  0.00     0.006 C 
BRANCH  10  11
ATOM     11  C   UNL     1      -7.055  44.373 101.959  1.00  0.00     0.053 C 
BRANCH  11  12
ATOM     12  C   UNL     1      -6.437  45.068 100.786  1.00  0.00     0.041 C 
ATOM     13  O   UNL     1      -5.201  45.306 100.768  1.00  0.00    -0.550 OA
ATOM     14  O   UNL     1      -7.237  45.495  99.733  1.00  0.00    -0.550 OA
ENDBRANCH  11  12
ENDBRANCH  10  11
ENDBRANCH   9  10
ENDBRANCH   8   9
ENDBRANCH   7   8
ENDBRANCH   6   7
ENDBRANCH   5   6
ENDBRANCH   4   5
ENDBRANCH   3   4
ENDBRANCH   2   3
ENDBRANCH   1   2
BRANCH   1  15
ATOM     15  C   UNL     1      -3.808  37.272 101.782  1.00  0.00     0.000 C 
BRANCH  15  16
ATOM     16  C   UNL     1      -5.097  36.992 100.995  1.00  0.00     0.000 C 
BRANCH  16  17
ATOM     17  C   UNL     1      -5.360  35.491 100.796  1.00  0.00     0.000 C 
BRANCH  17  18
ATOM     18  C   UNL     1      -5.963  35.174  99.417  1.00  0.00    -0.000 C 
BRANCH  18  19
ATOM     19  C   UNL     1      -5.003  34.371  98.524  1.00  0.00    -0.000 C 
BRANCH  19  20
ATOM     20  C   UNL     1      -3.582  34.284  99.109  1.00  0.00    -0.000 C 
BRANCH  20  21
ATOM     21  C   UNL     1      -2.576  35.156  98.342  1.00  0.00    -0.000 C 
BRANCH  21  22
ATOM     22  C   UNL     1      -3.134  36.553  98.017  1.00  0.00    -0.000 C 
BRANCH  22  23
ATOM     23  C   UNL     1      -3.358  36.762  96.511  1.00  0.00    -0.000 C 
BRANCH  23  24
ATOM     24  C   UNL     1      -4.800  37.189  96.183  1.00  0.00    -0.000 C 
BRANCH  24  25
ATOM     25  C   UNL     1      -5.391  38.129  97.243  1.00  0.00    -0.003 C 
ATOM     26  C   UNL     1      -6.917  38.190  97.193  1.00  0.00     0.004 C 
ENDBRANCH  24  25
ENDBRANCH  23  24
ENDBRANCH  22  23
ENDBRANCH  21  22
ENDBRANCH  20  21
ENDBRANCH  19  20
ENDBRANCH  18  19
ENDBRANCH  17  18
ENDBRANCH  16  17
ENDBRANCH  15  16
ENDBRANCH   1  15
TORSDOF 22
ENDMDL
MODEL 4
REMARK VINA RESULT:    -5.943      2.767      8.340
REMARK INTER + INTRA:         -16.565
REMARK INTER:                 -13.989
REMARK INTRA:                  -2.576
REMARK UNBOUND:                -2.980
REMARK SMILES CCCCCCCCCCCCCCCCCCCCCCCC(=O)[O-]
REMARK SMILES IDX 13 1 14 2 15 3 16 4 17 5 18 6 19 7 20 8 21 9 22 10 23 11
REMARK SMILES IDX 24 12 25 13 26 14 12 15 11 16 10 17 9 18 8 19 7 20 6 21 5 22
REMARK SMILES IDX 4 23 3 24 2 25 1 26
REMARK H PARENT
REMARK Flexibility Score: inf
ROOT
ATOM      1  C   UNL     1      -2.841  40.380 101.850  1.00  0.00     0.000 C 
ENDROOT
BRANCH   1   2
ATOM      2  C   UNL     1      -3.131  39.115 101.027  1.00  0.00     0.000 C 
BRANCH   2   3
ATOM      3  C   UNL     1      -2.140  37.975 101.326  1.00  0.00     0.000 C 
BRANCH   3   4
ATOM      4  C   UNL     1      -2.837  36.616 101.496  1.00  0.00     0.000 C 
BRANCH   4   5
ATOM      5  C   UNL     1      -4.361  36.747 101.645  1.00  0.00     0.000 C 
BRANCH   5   6
ATOM      6  C   UNL     1      -5.089  35.763 100.717  1.00  0.00     0.000 C 
BRANCH   6   7
ATOM      7  C   UNL     1      -4.146  34.709 100.116  1.00  0.00     0.000 C 
BRANCH   7   8
ATOM      8  C   UNL     1      -4.116  34.750  98.578  1.00  0.00     0.000 C 
BRANCH   8   9
ATOM      9  C   UNL     1      -2.982  35.632  98.032  1.00  0.00     0.000 C 
BRANCH   9  10
ATOM     10  C   UNL     1      -3.490  36.728  97.083  1.00  0.00     0.006 C 
BRANCH  10  11
ATOM     11  C   UNL     1      -4.183  37.849  97.863  1.00  0.00     0.053 C 
BRANCH  11  12
ATOM     12  C   UNL     1      -5.443  38.267  97.173  1.00  0.00     0.041 C 
ATOM     13  O   UNL     1      -5.519  39.395  96.619  1.00  0.00    -0.550 OA
ATOM     14  O   UNL     1      -6.551  37.428  97.182  1.00  0.00    -0.550 OA
ENDBRANCH  11  12
ENDBRANCH  10  11
ENDBRANCH   9  10
ENDBRANCH   8   9
ENDBRANCH   7   8
ENDBRANCH   6   7
ENDBRANCH   5   6
ENDBRANCH   4   5
ENDBRANCH   3   4
ENDBRANCH   2   3
ENDBRANCH   1   2
BRANCH   1  15
ATOM     15  C   UNL     1      -1.831  40.133 102.981  1.00  0.00     0.000 C 
BRANCH  15  16
ATOM     16  C   UNL     1      -0.794  41.264 103.045  1.00  0.00     0.000 C 
BRANCH  16  17
ATOM     17  C   UNL     1      -1.350  42.548 103.681  1.00  0.00     0.000 C 
BRANCH  17  18
ATOM     18  C   UNL     1      -1.039  43.804 102.849  1.00  0.00    -0.000 C 
BRANCH  18  19
ATOM     19  C   UNL     1      -2.310  44.538 102.392  1.00  0.00    -0.000 C 
BRANCH  19  20
ATOM     20  C   UNL     1      -3.581  43.686 102.562  1.00  0.00    -0.000 C 
BRANCH  20  21
ATOM     21  C   UNL     1      -4.551  43.835 101.380  1.00  0.00    -0.000 C 
BRANCH  21  22
ATOM     22  C   UNL     1      -5.425  45.098 101.489  1.00  0.00    -0.000 C 
BRANCH  22  23
ATOM     23  C   UNL     1      -6.923  44.770 101.592  1.00  0.00    -0.000 C 
BRANCH  23  24
ATOM     24  C   UNL     1      -7.462  44.914 103.026  1.00  0.00    -0.000 C 
BRANCH  24  25
ATOM     25  C   UNL     1      -7.257  43.643 103.863  1.00  0.00    -0.003 C 
ATOM     26  C   UNL     1      -6.117  43.779 104.872  1.00  0.00     0.004 C 
ENDBRANCH  24  25
ENDBRANCH  23  24
ENDBRANCH  22  23
ENDBRANCH  21  22
ENDBRANCH  20  21
ENDBRANCH  19  20
ENDBRANCH  18  19
ENDBRANCH  17  18
ENDBRANCH  16  17
ENDBRANCH  15  16
ENDBRANCH   1  15
TORSDOF 22
ENDMDL
MODEL 5
REMARK VINA RESULT:    -5.937      1.708      3.018
REMARK INTER + INTRA:         -16.551
REMARK INTER:                 -13.729
REMARK INTRA:                  -2.823
REMARK UNBOUND:                -2.980
REMARK SMILES CCCCCCCCCCCCCCCCCCCCCCCC(=O)[O-]
REMARK SMILES IDX 13 1 14 2 15 3 16 4 17 5 18 6 19 7 20 8 21 9 22 10 23 11
REMARK SMILES IDX 24 12 25 13 26 14 12 15 11 16 10 17 9 18 8 19 7 20 6 21 5 22
REMARK SMILES IDX 4 23 3 24 2 25 1 26
REMARK H PARENT
REMARK Flexibility Score: inf
ROOT
ATOM      1  C   UNL     1      -2.392  40.196 103.023  1.00  0.00     0.000 C 
ENDROOT
BRANCH   1   2
ATOM      2  C   UNL     1      -3.257  41.413 103.386  1.00  0.00     0.000 C 
BRANCH   2   3
ATOM      3  C   UNL     1      -3.300  42.464 102.262  1.00  0.00     0.000 C 
BRANCH   3   4
ATOM      4  C   UNL     1      -2.425  43.691 102.567  1.00  0.00     0.000 C 
BRANCH   4   5
ATOM      5  C   UNL     1      -2.386  44.033 104.064  1.00  0.00     0.000 C 
BRANCH   5   6
ATOM      6  C   UNL     1      -3.460  45.073 104.416  1.00  0.00     0.000 C 
BRANCH   6   7
ATOM      7  C   UNL     1      -4.382  44.609 105.554  1.00  0.00     0.000 C 
BRANCH   7   8
ATOM      8  C   UNL     1      -5.534  43.718 105.055  1.00  0.00     0.000 C 
BRANCH   8   9
ATOM      9  C   UNL     1      -6.640  44.520 104.351  1.00  0.00     0.000 C 
BRANCH   9  10
ATOM     10  C   UNL     1      -6.988  43.956 102.965  1.00  0.00     0.006 C 
BRANCH  10  11
ATOM     11  C   UNL     1      -6.189  44.668 101.869  1.00  0.00     0.053 C 
BRANCH  11  12
ATOM     12  C   UNL     1      -7.105  45.185 100.804  1.00  0.00     0.041 C 
ATOM     13  O   UNL     1      -8.342  44.956 100.865  1.00  0.00    -0.550 OA
ATOM     14  O   UNL     1      -6.585  45.879  99.718  1.00  0.00    -0.550 OA
ENDBRANCH  11  12
ENDBRANCH  10  11
ENDBRANCH   9  10
ENDBRANCH   8   9
ENDBRANCH   7   8
ENDBRANCH   6   7
ENDBRANCH   5   6
ENDBRANCH   4   5
ENDBRANCH   3   4
ENDBRANCH   2   3
ENDBRANCH   1   2
BRANCH   1  15
ATOM     15  C   UNL     1      -2.853  39.506 101.730  1.00  0.00     0.000 C 
BRANCH  15  16
ATOM     16  C   UNL     1      -2.378  38.045 101.691  1.00  0.00     0.000 C 
BRANCH  16  17
ATOM     17  C   UNL     1      -3.473  37.050 102.108  1.00  0.00     0.000 C 
BRANCH  17  18
ATOM     18  C   UNL     1      -4.666  37.041 101.137  1.00  0.00    -0.000 C 
BRANCH  18  19
ATOM     19  C   UNL     1      -5.295  35.646 100.990  1.00  0.00    -0.000 C 
BRANCH  19  20
ATOM     20  C   UNL     1      -4.778  34.889  99.754  1.00  0.00    -0.000 C 
BRANCH  20  21
ATOM     21  C   UNL     1      -3.243  34.872  99.673  1.00  0.00    -0.000 C 
BRANCH  21  22
ATOM     22  C   UNL     1      -2.719  35.327  98.299  1.00  0.00    -0.000 C 
BRANCH  22  23
ATOM     23  C   UNL     1      -3.626  36.379  97.642  1.00  0.00    -0.000 C 
BRANCH  23  24
ATOM     24  C   UNL     1      -3.343  37.803  98.152  1.00  0.00    -0.000 C 
BRANCH  24  25
ATOM     25  C   UNL     1      -4.562  38.728  98.023  1.00  0.00    -0.003 C 
ATOM     26  C   UNL     1      -5.851  37.967  97.716  1.00  0.00     0.004 C 
ENDBRANCH  24  25
ENDBRANCH  23  24
ENDBRANCH  22  23
ENDBRANCH  21  22
ENDBRANCH  20  21
ENDBRANCH  19  20
ENDBRANCH  18  19
ENDBRANCH  17  18
ENDBRANCH  16  17
ENDBRANCH  15  16
ENDBRANCH   1  15
TORSDOF 22
ENDMDL
MODEL 6
REMARK VINA RESULT:    -5.928      3.424      4.481
REMARK INTER + INTRA:         -16.532
REMARK INTER:                 -14.332
REMARK INTRA:                  -2.200
REMARK UNBOUND:                -2.980
REMARK SMILES CCCCCCCCCCCCCCCCCCCCCCCC(=O)[O-]
REMARK SMILES IDX 13 1 14 2 15 3 16 4 17 5 18 6 19 7 20 8 21 9 22 10 23 11
REMARK SMILES IDX 24 12 25 13 26 14 12 15 11 16 10 17 9 18 8 19 7 20 6 21 5 22
REMARK SMILES IDX 4 23 3 24 2 25 1 26
REMARK H PARENT
REMARK Flexibility Score: inf
ROOT
ATOM      1  C   UNL     1      -1.445  39.785 102.422  1.00  0.00     0.000 C 
ENDROOT
BRANCH   1   2
ATOM      2  C   UNL     1      -2.720  40.565 102.778  1.00  0.00     0.000 C 
BRANCH   2   3
ATOM      3  C   UNL     1      -2.430  42.025 103.169  1.00  0.00     0.000 C 
BRANCH   3   4
ATOM      4  C   UNL     1      -3.676  42.755 103.696  1.00  0.00     0.000 C 
BRANCH   4   5
ATOM      5  C   UNL     1      -4.509  43.390 102.572  1.00  0.00     0.000 C 
BRANCH   5   6
ATOM      6  C   UNL     1      -3.646  43.638 101.325  1.00  0.00     0.000 C 
BRANCH   6   7
ATOM      7  C   UNL     1      -4.203  44.759 100.435  1.00  0.00     0.000 C 
BRANCH   7   8
ATOM      8  C   UNL     1      -5.179  44.236  99.366  1.00  0.00     0.000 C 
BRANCH   8   9
ATOM      9  C   UNL     1      -4.474  43.422  98.269  1.00  0.00     0.000 C 
BRANCH   9  10
ATOM     10  C   UNL     1      -4.953  43.792  96.858  1.00  0.00     0.006 C 
BRANCH  10  11
ATOM     11  C   UNL     1      -5.132  42.539  95.995  1.00  0.00     0.053 C 
BRANCH  11  12
ATOM     12  C   UNL     1      -4.549  42.751  94.634  1.00  0.00     0.041 C 
ATOM     13  O   UNL     1      -4.461  41.791  93.824  1.00  0.00    -0.550 OA
ATOM     14  O   UNL     1      -4.057  44.001  94.276  1.00  0.00    -0.550 OA
ENDBRANCH  11  12
ENDBRANCH  10  11
ENDBRANCH   9  10
ENDBRANCH   8   9
ENDBRANCH   7   8
ENDBRANCH   6   7
ENDBRANCH   5   6
ENDBRANCH   4   5
ENDBRANCH   3   4
ENDBRANCH   2   3
ENDBRANCH   1   2
BRANCH   1  15
ATOM     15  C   UNL     1      -1.722  38.582 101.507  1.00  0.00     0.000 C 
BRANCH  15  16
ATOM     16  C   UNL     1      -3.230  38.421 101.258  1.00  0.00     0.000 C 
BRANCH  16  17
ATOM     17  C   UNL     1      -3.785  37.093 101.799  1.00  0.00     0.000 C 
BRANCH  17  18
ATOM     18  C   UNL     1      -5.107  36.687 101.126  1.00  0.00    -0.000 C 
BRANCH  18  19
ATOM     19  C   UNL     1      -5.115  35.214 100.685  1.00  0.00    -0.000 C 
BRANCH  19  20
ATOM     20  C   UNL     1      -5.619  35.029  99.242  1.00  0.00    -0.000 C 
BRANCH  20  21
ATOM     21  C   UNL     1      -4.554  34.412  98.322  1.00  0.00    -0.000 C 
BRANCH  21  22
ATOM     22  C   UNL     1      -3.182  35.096  98.465  1.00  0.00    -0.000 C 
BRANCH  22  23
ATOM     23  C   UNL     1      -3.206  36.565  98.012  1.00  0.00    -0.000 C 
BRANCH  23  24
ATOM     24  C   UNL     1      -4.043  36.775  96.738  1.00  0.00    -0.000 C 
BRANCH  24  25
ATOM     25  C   UNL     1      -5.143  37.831  96.923  1.00  0.00    -0.003 C 
ATOM     26  C   UNL     1      -4.756  38.917  97.926  1.00  0.00     0.004 C 
ENDBRANCH  24  25
ENDBRANCH  23  24
ENDBRANCH  22  23
ENDBRANCH  21  22
ENDBRANCH  20  21
ENDBRANCH  19  20
ENDBRANCH  18  19
ENDBRANCH  17  18
ENDBRANCH  16  17
ENDBRANCH  15  16
ENDBRANCH   1  15
TORSDOF 22
ENDMDL
MODEL 7
REMARK VINA RESULT:    -5.912      2.736      8.642
REMARK INTER + INTRA:         -16.495
REMARK INTER:                 -13.706
REMARK INTRA:                  -2.790
REMARK UNBOUND:                -2.980
REMARK SMILES CCCCCCCCCCCCCCCCCCCCCCCC(=O)[O-]
REMARK SMILES IDX 13 1 14 2 15 3 16 4 17 5 18 6 19 7 20 8 21 9 22 10 23 11
REMARK SMILES IDX 24 12 25 13 26 14 12 15 11 16 10 17 9 18 8 19 7 20 6 21 5 22
REMARK SMILES IDX 4 23 3 24 2 25 1 26
REMARK H PARENT
REMARK Flexibility Score: inf
ROOT
ATOM      1  C   UNL     1      -2.863  40.147 103.502  1.00  0.00     0.000 C 
ENDROOT
BRANCH   1   2
ATOM      2  C   UNL     1      -1.610  40.103 102.613  1.00  0.00     0.000 C 
BRANCH   2   3
ATOM      3  C   UNL     1      -1.662  38.970 101.573  1.00  0.00     0.000 C 
BRANCH   3   4
ATOM      4  C   UNL     1      -3.018  38.888 100.854  1.00  0.00     0.000 C 
BRANCH   4   5
ATOM      5  C   UNL     1      -3.657  37.495 100.953  1.00  0.00     0.000 C 
BRANCH   5   6
ATOM      6  C   UNL     1      -2.580  36.405 101.068  1.00  0.00     0.000 C 
BRANCH   6   7
ATOM      7  C   UNL     1      -2.655  35.376  99.930  1.00  0.00     0.000 C 
BRANCH   7   8
ATOM      8  C   UNL     1      -3.909  34.487 100.018  1.00  0.00     0.000 C 
BRANCH   8   9
ATOM      9  C   UNL     1      -4.656  34.383  98.679  1.00  0.00     0.000 C 
BRANCH   9  10
ATOM     10  C   UNL     1      -5.617  35.558  98.444  1.00  0.00     0.006 C 
BRANCH  10  11
ATOM     11  C   UNL     1      -5.146  36.424  97.272  1.00  0.00     0.053 C 
BRANCH  11  12
ATOM     12  C   UNL     1      -5.668  37.819  97.408  1.00  0.00     0.041 C 
ATOM     13  O   UNL     1      -6.863  38.082  97.108  1.00  0.00    -0.550 OA
ATOM     14  O   UNL     1      -4.821  38.841  97.820  1.00  0.00    -0.550 OA
ENDBRANCH  11  12
ENDBRANCH  10  11
ENDBRANCH   9  10
ENDBRANCH   8   9
ENDBRANCH   7   8
ENDBRANCH   6   7
ENDBRANCH   5   6
ENDBRANCH   4   5
ENDBRANCH   3   4
ENDBRANCH   2   3
ENDBRANCH   1   2
BRANCH   1  15
ATOM     15  C   UNL     1      -3.512  41.538 103.542  1.00  0.00     0.000 C 
BRANCH  15  16
ATOM     16  C   UNL     1      -2.888  42.464 102.486  1.00  0.00     0.000 C 
BRANCH  16  17
ATOM     17  C   UNL     1      -3.856  42.798 101.340  1.00  0.00     0.000 C 
BRANCH  17  18
ATOM     18  C   UNL     1      -4.200  44.296 101.274  1.00  0.00    -0.000 C 
BRANCH  18  19
ATOM     19  C   UNL     1      -5.398  44.585 100.355  1.00  0.00    -0.000 C 
BRANCH  19  20
ATOM     20  C   UNL     1      -6.696  44.850 101.139  1.00  0.00    -0.000 C 
BRANCH  20  21
ATOM     21  C   UNL     1      -6.446  45.052 102.642  1.00  0.00    -0.000 C 
BRANCH  21  22
ATOM     22  C   UNL     1      -7.014  43.904 103.494  1.00  0.00    -0.000 C 
BRANCH  22  23
ATOM     23  C   UNL     1      -6.118  43.564 104.697  1.00  0.00    -0.000 C 
BRANCH  23  24
ATOM     24  C   UNL     1      -5.368  44.794 105.238  1.00  0.00    -0.000 C 
BRANCH  24  25
ATOM     25  C   UNL     1      -3.859  44.547 105.380  1.00  0.00    -0.003 C 
ATOM     26  C   UNL     1      -3.222  45.400 106.477  1.00  0.00     0.004 C 
ENDBRANCH  24  25
ENDBRANCH  23  24
ENDBRANCH  22  23
ENDBRANCH  21  22
ENDBRANCH  20  21
ENDBRANCH  19  20
ENDBRANCH  18  19
ENDBRANCH  17  18
ENDBRANCH  16  17
ENDBRANCH  15  16
ENDBRANCH   1  15
TORSDOF 22
ENDMDL
MODEL 8
REMARK VINA RESULT:    -5.905      1.998      5.659
REMARK INTER + INTRA:         -16.478
REMARK INTER:                 -13.753
REMARK INTRA:                  -2.726
REMARK UNBOUND:                -2.980
REMARK SMILES CCCCCCCCCCCCCCCCCCCCCCCC(=O)[O-]
REMARK SMILES IDX 13 1 14 2 15 3 16 4 17 5 18 6 19 7 20 8 21 9 22 10 23 11
REMARK SMILES IDX 24 12 25 13 26 14 12 15 11 16 10 17 9 18 8 19 7 20 6 21 5 22
REMARK SMILES IDX 4 23 3 24 2 25 1 26
REMARK H PARENT
REMARK Flexibility Score: inf
ROOT
ATOM      1  C   UNL     1      -2.894  35.373  98.268  1.00  0.00     0.000 C 
ENDROOT
BRANCH   1   2
ATOM      2  C   UNL     1      -4.111  34.494  98.596  1.00  0.00     0.000 C 
BRANCH   2   3
ATOM      3  C   UNL     1      -4.462  34.505 100.094  1.00  0.00     0.000 C 
BRANCH   3   4
ATOM      4  C   UNL     1      -5.482  35.598 100.454  1.00  0.00     0.000 C 
BRANCH   4   5
ATOM      5  C   UNL     1      -4.993  36.514 101.587  1.00  0.00     0.000 C 
BRANCH   5   6
ATOM      6  C   UNL     1      -3.459  36.586 101.609  1.00  0.00     0.000 C 
BRANCH   6   7
ATOM      7  C   UNL     1      -2.933  37.730 102.488  1.00  0.00     0.000 C 
BRANCH   7   8
ATOM      8  C   UNL     1      -2.202  38.814 101.675  1.00  0.00     0.000 C 
BRANCH   8   9
ATOM      9  C   UNL     1      -1.951  40.094 102.488  1.00  0.00     0.000 C 
BRANCH   9  10
ATOM     10  C   UNL     1      -2.987  41.191 102.198  1.00  0.00     0.006 C 
BRANCH  10  11
ATOM     11  C   UNL     1      -3.296  41.998 103.463  1.00  0.00     0.053 C 
BRANCH  11  12
ATOM     12  C   UNL     1      -2.805  43.404 103.319  1.00  0.00     0.041 C 
ATOM     13  O   UNL     1      -2.274  43.994 104.297  1.00  0.00    -0.550 OA
ATOM     14  O   UNL     1      -2.977  44.081 102.118  1.00  0.00    -0.550 OA
ENDBRANCH  11  12
ENDBRANCH  10  11
ENDBRANCH   9  10
ENDBRANCH   8   9
ENDBRANCH   7   8
ENDBRANCH   6   7
ENDBRANCH   5   6
ENDBRANCH   4   5
ENDBRANCH   3   4
ENDBRANCH   2   3
ENDBRANCH   1   2
BRANCH   1  15
ATOM     15  C   UNL     1      -3.259  36.592  97.408  1.00  0.00     0.000 C 
BRANCH  15  16
ATOM     16  C   UNL     1      -3.278  37.874  98.256  1.00  0.00     0.000 C 
BRANCH  16  17
ATOM     17  C   UNL     1      -4.699  38.410  98.493  1.00  0.00     0.000 C 
BRANCH  17  18
ATOM     18  C   UNL     1      -5.659  38.075  97.340  1.00  0.00    -0.000 C 
BRANCH  18  19
ATOM     19  C   UNL     1      -6.225  39.333  96.660  1.00  0.00    -0.000 C 
BRANCH  19  20
ATOM     20  C   UNL     1      -5.123  40.294  96.179  1.00  0.00    -0.000 C 
BRANCH  20  21
ATOM     21  C   UNL     1      -5.656  41.710  95.906  1.00  0.00    -0.000 C 
BRANCH  21  22
ATOM     22  C   UNL     1      -4.529  42.751  95.785  1.00  0.00    -0.000 C 
BRANCH  22  23
ATOM     23  C   UNL     1      -4.653  43.876  96.825  1.00  0.00    -0.000 C 
BRANCH  23  24
ATOM     24  C   UNL     1      -4.278  43.412  98.243  1.00  0.00    -0.000 C 
BRANCH  24  25
ATOM     25  C   UNL     1      -5.015  44.200  99.335  1.00  0.00    -0.003 C 
ATOM     26  C   UNL     1      -6.059  45.161  98.767  1.00  0.00     0.004 C 
ENDBRANCH  24  25
ENDBRANCH  23  24
ENDBRANCH  22  23
ENDBRANCH  21  22
ENDBRANCH  20  21
ENDBRANCH  19  20
ENDBRANCH  18  19
ENDBRANCH  17  18
ENDBRANCH  16  17
ENDBRANCH  15  16
ENDBRANCH   1  15
TORSDOF 22
ENDMDL
MODEL 9
REMARK VINA RESULT:    -5.817      1.938      3.580
REMARK INTER + INTRA:         -16.278
REMARK INTER:                 -13.671
REMARK INTRA:                  -2.607
REMARK UNBOUND:                -2.980
REMARK SMILES CCCCCCCCCCCCCCCCCCCCCCCC(=O)[O-]
REMARK SMILES IDX 13 1 14 2 15 3 16 4 17 5 18 6 19 7 20 8 21 9 22 10 23 11
REMARK SMILES IDX 24 12 25 13 26 14 12 15 11 16 10 17 9 18 8 19 7 20 6 21 5 22
REMARK SMILES IDX 4 23 3 24 2 25 1 26
REMARK H PARENT
REMARK Flexibility Score: inf
ROOT
ATOM      1  C   UNL     1      -2.833  41.238 102.385  1.00  0.00     0.000 C 
ENDROOT
BRANCH   1   2
ATOM      2  C   UNL     1      -2.652  42.493 103.254  1.00  0.00     0.000 C 
BRANCH   2   3
ATOM      3  C   UNL     1      -3.956  43.295 103.412  1.00  0.00     0.000 C 
BRANCH   3   4
ATOM      4  C   UNL     1      -4.777  42.855 104.635  1.00  0.00     0.000 C 
BRANCH   4   5
ATOM      5  C   UNL     1      -5.912  43.835 104.968  1.00  0.00     0.000 C 
BRANCH   5   6
ATOM      6  C   UNL     1      -7.188  43.481 104.189  1.00  0.00     0.000 C 
BRANCH   6   7
ATOM      7  C   UNL     1      -7.909  44.720 103.639  1.00  0.00     0.000 C 
BRANCH   7   8
ATOM      8  C   UNL     1      -6.959  45.914 103.433  1.00  0.00     0.000 C 
BRANCH   8   9
ATOM      9  C   UNL     1      -6.860  46.343 101.960  1.00  0.00     0.000 C 
BRANCH   9  10
ATOM     10  C   UNL     1      -5.533  45.924 101.310  1.00  0.00     0.006 C 
BRANCH  10  11
ATOM     11  C   UNL     1      -5.709  44.645 100.486  1.00  0.00     0.053 C 
BRANCH  11  12
ATOM     12  C   UNL     1      -4.416  44.254  99.841  1.00  0.00     0.041 C 
ATOM     13  O   UNL     1      -4.389  43.339  98.977  1.00  0.00    -0.550 OA
ATOM     14  O   UNL     1      -3.233  44.870 100.230  1.00  0.00    -0.550 OA
ENDBRANCH  11  12
ENDBRANCH  10  11
ENDBRANCH   9  10
ENDBRANCH   8   9
ENDBRANCH   7   8
ENDBRANCH   6   7
ENDBRANCH   5   6
ENDBRANCH   4   5
ENDBRANCH   3   4
ENDBRANCH   2   3
ENDBRANCH   1   2
BRANCH   1  15
ATOM     15  C   UNL     1      -1.924  40.079 102.822  1.00  0.00     0.000 C 
BRANCH  15  16
ATOM     16  C   UNL     1      -2.700  38.754 102.846  1.00  0.00     0.000 C 
BRANCH  16  17
ATOM     17  C   UNL     1      -2.725  38.052 101.479  1.00  0.00     0.000 C 
BRANCH  17  18
ATOM     18  C   UNL     1      -3.466  36.705 101.519  1.00  0.00    -0.000 C 
BRANCH  18  19
ATOM     19  C   UNL     1      -4.888  36.797 100.941  1.00  0.00    -0.000 C 
BRANCH  19  20
ATOM     20  C   UNL     1      -5.460  35.422 100.549  1.00  0.00    -0.000 C 
BRANCH  20  21
ATOM     21  C   UNL     1      -4.385  34.474  99.996  1.00  0.00    -0.000 C 
BRANCH  21  22
ATOM     22  C   UNL     1      -4.166  34.648  98.482  1.00  0.00    -0.000 C 
BRANCH  22  23
ATOM     23  C   UNL     1      -2.904  35.463  98.159  1.00  0.00    -0.000 C 
BRANCH  23  24
ATOM     24  C   UNL     1      -3.198  36.673  97.255  1.00  0.00    -0.000 C 
BRANCH  24  25
ATOM     25  C   UNL     1      -4.698  36.852  96.980  1.00  0.00    -0.003 C 
ATOM     26  C   UNL     1      -5.236  38.190  97.486  1.00  0.00     0.004 C 
ENDBRANCH  24  25
ENDBRANCH  23  24
ENDBRANCH  22  23
ENDBRANCH  21  22
ENDBRANCH  20  21
ENDBRANCH  19  20
ENDBRANCH  18  19
ENDBRANCH  17  18
ENDBRANCH  16  17
ENDBRANCH  15  16
ENDBRANCH   1  15
TORSDOF 22
ENDMDL
