MODEL 1
REMARK VINA RESULT:    -4.436      0.000      0.000
REMARK INTER + INTRA:         -16.886
REMARK INTER:                 -11.697
REMARK INTRA:                  -5.188
REMARK UNBOUND:                -5.188
REMARK SMILES CCCCCCCCCCCCCCCCCCCCCCCCCCCCCC(=O)[O-]
REMARK SMILES IDX 16 1 17 2 18 3 19 4 20 5 21 6 22 7 23 8 24 9 25 10 26 11
REMARK SMILES IDX 27 12 28 13 29 14 30 15 31 16 32 17 15 18 14 19 13 20 12 21
REMARK SMILES IDX 11 22 10 23 9 24 8 25 7 26 6 27 5 28 4 29 3 30 2 31 1 32
REMARK H PARENT
REMARK Flexibility Score: inf
ROOT
ATOM      1  C   UNL     1      96.481  86.784  81.083  1.00  0.00     0.000 C 
ENDROOT
BRANCH   1   2
ATOM      2  C   UNL     1      96.488  86.198  79.661  1.00  0.00     0.000 C 
BRANCH   2   3
ATOM      3  C   UNL     1      95.153  85.530  79.285  1.00  0.00     0.000 C 
BRANCH   3   4
ATOM      4  C   UNL     1      94.772  84.296  80.128  1.00  0.00     0.000 C 
BRANCH   4   5
ATOM      5  C   UNL     1      93.405  83.682  79.761  1.00  0.00     0.000 C 
BRANCH   5   6
ATOM      6  C   UNL     1      92.506  84.661  78.980  1.00  0.00     0.000 C 
BRANCH   6   7
ATOM      7  C   UNL     1      91.091  84.780  79.574  1.00  0.00     0.000 C 
BRANCH   7   8
ATOM      8  C   UNL     1      90.859  83.969  80.861  1.00  0.00     0.000 C 
BRANCH   8   9
ATOM      9  C   UNL     1      90.575  84.856  82.086  1.00  0.00     0.000 C 
BRANCH   9  10
ATOM     10  C   UNL     1      91.834  85.120  82.927  1.00  0.00     0.000 C 
BRANCH  10  11
ATOM     11  C   UNL     1      92.627  86.340  82.437  1.00  0.00     0.000 C 
BRANCH  11  12
ATOM     12  C   UNL     1      93.839  86.608  83.342  1.00  0.00     0.000 C 
BRANCH  12  13
ATOM     13  C   UNL     1      93.441  86.872  84.807  1.00  0.00     0.006 C 
BRANCH  13  14
ATOM     14  C   UNL     1      94.278  86.100  85.839  1.00  0.00     0.053 C 
BRANCH  14  15
ATOM     15  C   UNL     1      95.009  87.019  86.767  1.00  0.00     0.041 C 
ATOM     16  O   UNL     1      95.730  87.942  86.308  1.00  0.00    -0.550 OA
ATOM     17  O   UNL     1      94.912  86.840  88.143  1.00  0.00    -0.550 OA
ENDBRANCH  14  15
ENDBRANCH  13  14
ENDBRANCH  12  13
ENDBRANCH  11  12
ENDBRANCH  10  11
ENDBRANCH   9  10
ENDBRANCH   8   9
ENDBRANCH   7   8
ENDBRANCH   6   7
ENDBRANCH   5   6
ENDBRANCH   4   5
ENDBRANCH   3   4
ENDBRANCH   2   3
ENDBRANCH   1   2
BRANCH   1  18
ATOM     18  C   UNL     1      97.626  86.249  81.962  1.00  0.00     0.000 C 
BRANCH  18  19
ATOM     19  C   UNL     1      97.275  85.035  82.842  1.00  0.00     0.000 C 
BRANCH  19  20
ATOM     20  C   UNL     1      97.785  83.706  82.261  1.00  0.00     0.000 C 
BRANCH  20  21
ATOM     21  C   UNL     1      99.272  83.757  81.865  1.00  0.00     0.000 C 
BRANCH  21  22
ATOM     22  C   UNL     1     100.263  83.697  83.047  1.00  0.00     0.000 C 
BRANCH  22  23
ATOM     23  C   UNL     1     101.689  84.195  82.740  1.00  0.00     0.000 C 
BRANCH  23  24
ATOM     24  C   UNL     1     102.118  85.457  83.513  1.00  0.00    -0.000 C 
BRANCH  24  25
ATOM     25  C   UNL     1     101.110  86.608  83.385  1.00  0.00    -0.000 C 
BRANCH  25  26
ATOM     26  C   UNL     1     101.509  87.789  84.276  1.00  0.00    -0.000 C 
BRANCH  26  27
ATOM     27  C   UNL     1     100.496  87.994  85.410  1.00  0.00    -0.000 C 
BRANCH  27  28
ATOM     28  C   UNL     1      99.231  87.154  85.179  1.00  0.00    -0.000 C 
BRANCH  28  29
ATOM     29  C   UNL     1      98.825  86.349  86.434  1.00  0.00    -0.000 C 
BRANCH  29  30
ATOM     30  C   UNL     1      98.966  84.825  86.266  1.00  0.00    -0.000 C 
BRANCH  30  31
ATOM     31  C   UNL     1     100.319  84.252  86.717  1.00  0.00    -0.003 C 
ATOM     32  C   UNL     1     101.025  85.133  87.747  1.00  0.00     0.004 C 
ENDBRANCH  30  31
ENDBRANCH  29  30
ENDBRANCH  28  29
ENDBRANCH  27  28
ENDBRANCH  26  27
ENDBRANCH  25  26
ENDBRANCH  24  25
ENDBRANCH  23  24
ENDBRANCH  22  23
ENDBRANCH  21  22
ENDBRANCH  20  21
ENDBRANCH  19  20
ENDBRANCH  18  19
ENDBRANCH   1  18
TORSDOF 28
ENDMDL
MODEL 2
REMARK VINA RESULT:    -4.382      1.972      7.551
REMARK INTER + INTRA:         -16.742
REMARK INTER:                 -11.244
REMARK INTRA:                  -5.498
REMARK UNBOUND:                -5.188
REMARK SMILES CCCCCCCCCCCCCCCCCCCCCCCCCCCCCC(=O)[O-]
REMARK SMILES IDX 16 1 17 2 18 3 19 4 20 5 21 6 22 7 23 8 24 9 25 10 26 11
REMARK SMILES IDX 27 12 28 13 29 14 30 15 31 16 32 17 15 18 14 19 13 20 12 21
REMARK SMILES IDX 11 22 10 23 9 24 8 25 7 26 6 27 5 28 4 29 3 30 2 31 1 32
REMARK H PARENT
REMARK Flexibility Score: inf
ROOT
ATOM      1  C   UNL     1      99.389  87.755  81.956  1.00  0.00     0.000 C 
ENDROOT
BRANCH   1   2
ATOM      2  C   UNL     1      98.576  88.514  83.019  1.00  0.00     0.000 C 
BRANCH   2   3
ATOM      3  C   UNL     1      98.131  87.614  84.185  1.00  0.00     0.000 C 
BRANCH   3   4
ATOM      4  C   UNL     1      96.621  87.311  84.245  1.00  0.00     0.000 C 
BRANCH   4   5
ATOM      5  C   UNL     1      96.263  85.837  83.958  1.00  0.00     0.000 C 
BRANCH   5   6
ATOM      6  C   UNL     1      97.507  84.971  83.679  1.00  0.00     0.000 C 
BRANCH   6   7
ATOM      7  C   UNL     1      97.416  84.203  82.348  1.00  0.00     0.000 C 
BRANCH   7   8
ATOM      8  C   UNL     1      98.594  83.254  82.067  1.00  0.00     0.000 C 
BRANCH   8   9
ATOM      9  C   UNL     1      99.869  83.994  81.625  1.00  0.00     0.000 C 
BRANCH   9  10
ATOM     10  C   UNL     1     101.038  83.789  82.601  1.00  0.00     0.000 C 
BRANCH  10  11
ATOM     11  C   UNL     1     101.319  85.033  83.456  1.00  0.00     0.000 C 
BRANCH  11  12
ATOM     12  C   UNL     1     100.971  84.776  84.930  1.00  0.00     0.000 C 
BRANCH  12  13
ATOM     13  C   UNL     1     101.078  86.045  85.797  1.00  0.00     0.006 C 
BRANCH  13  14
ATOM     14  C   UNL     1      99.956  86.198  86.835  1.00  0.00     0.053 C 
BRANCH  14  15
ATOM     15  C   UNL     1     100.308  85.554  88.140  1.00  0.00     0.041 C 
ATOM     16  O   UNL     1      99.401  85.126  88.901  1.00  0.00    -0.550 OA
ATOM     17  O   UNL     1     101.640  85.449  88.528  1.00  0.00    -0.550 OA
ENDBRANCH  14  15
ENDBRANCH  13  14
ENDBRANCH  12  13
ENDBRANCH  11  12
ENDBRANCH  10  11
ENDBRANCH   9  10
ENDBRANCH   8   9
ENDBRANCH   7   8
ENDBRANCH   6   7
ENDBRANCH   5   6
ENDBRANCH   4   5
ENDBRANCH   3   4
ENDBRANCH   2   3
ENDBRANCH   1   2
BRANCH   1  18
ATOM     18  C   UNL     1      98.543  87.322  80.745  1.00  0.00     0.000 C 
BRANCH  18  19
ATOM     19  C   UNL     1      97.171  88.009  80.614  1.00  0.00     0.000 C 
BRANCH  19  20
ATOM     20  C   UNL     1      96.010  87.009  80.488  1.00  0.00     0.000 C 
BRANCH  20  21
ATOM     21  C   UNL     1      95.966  86.312  79.116  1.00  0.00     0.000 C 
BRANCH  21  22
ATOM     22  C   UNL     1      95.004  85.109  79.026  1.00  0.00     0.000 C 
BRANCH  22  23
ATOM     23  C   UNL     1      94.457  84.598  80.373  1.00  0.00     0.000 C 
BRANCH  23  24
ATOM     24  C   UNL     1      93.076  83.919  80.300  1.00  0.00    -0.000 C 
BRANCH  24  25
ATOM     25  C   UNL     1      92.180  84.504  79.199  1.00  0.00    -0.000 C 
BRANCH  25  26
ATOM     26  C   UNL     1      91.025  85.311  79.803  1.00  0.00    -0.000 C 
BRANCH  26  27
ATOM     27  C   UNL     1      90.460  84.619  81.050  1.00  0.00    -0.000 C 
BRANCH  27  28
ATOM     28  C   UNL     1      90.002  85.649  82.094  1.00  0.00    -0.000 C 
BRANCH  28  29
ATOM     29  C   UNL     1      90.402  85.244  83.530  1.00  0.00    -0.000 C 
BRANCH  29  30
ATOM     30  C   UNL     1      91.923  85.247  83.775  1.00  0.00    -0.000 C 
BRANCH  30  31
ATOM     31  C   UNL     1      92.546  86.643  83.930  1.00  0.00    -0.003 C 
ATOM     32  C   UNL     1      93.010  87.238  82.601  1.00  0.00     0.004 C 
ENDBRANCH  30  31
ENDBRANCH  29  30
ENDBRANCH  28  29
ENDBRANCH  27  28
ENDBRANCH  26  27
ENDBRANCH  25  26
ENDBRANCH  24  25
ENDBRANCH  23  24
ENDBRANCH  22  23
ENDBRANCH  21  22
ENDBRANCH  20  21
ENDBRANCH  19  20
ENDBRANCH  18  19
ENDBRANCH   1  18
TORSDOF 28
ENDMDL
MODEL 3
REMARK VINA RESULT:    -4.351      2.395      8.129
REMARK INTER + INTRA:         -16.662
REMARK INTER:                 -11.409
REMARK INTRA:                  -5.254
REMARK UNBOUND:                -5.188
REMARK SMILES CCCCCCCCCCCCCCCCCCCCCCCCCCCCCC(=O)[O-]
REMARK SMILES IDX 16 1 17 2 18 3 19 4 20 5 21 6 22 7 23 8 24 9 25 10 26 11
REMARK SMILES IDX 27 12 28 13 29 14 30 15 31 16 32 17 15 18 14 19 13 20 12 21
REMARK SMILES IDX 11 22 10 23 9 24 8 25 7 26 6 27 5 28 4 29 3 30 2 31 1 32
REMARK H PARENT
REMARK Flexibility Score: inf
ROOT
ATOM      1  C   UNL     1      96.416  87.034  80.383  1.00  0.00     0.000 C 
ENDROOT
BRANCH   1   2
ATOM      2  C   UNL     1      97.932  87.295  80.370  1.00  0.00     0.000 C 
BRANCH   2   3
ATOM      3  C   UNL     1      98.365  88.342  81.410  1.00  0.00     0.000 C 
BRANCH   3   4
ATOM      4  C   UNL     1      99.555  87.934  82.302  1.00  0.00     0.000 C 
BRANCH   4   5
ATOM      5  C   UNL     1      99.167  87.614  83.761  1.00  0.00     0.000 C 
BRANCH   5   6
ATOM      6  C   UNL     1      97.644  87.660  83.992  1.00  0.00     0.000 C 
BRANCH   6   7
ATOM      7  C   UNL     1      97.115  86.431  84.753  1.00  0.00     0.000 C 
BRANCH   7   8
ATOM      8  C   UNL     1      97.742  85.090  84.332  1.00  0.00     0.000 C 
BRANCH   8   9
ATOM      9  C   UNL     1      97.266  84.614  82.948  1.00  0.00     0.000 C 
BRANCH   9  10
ATOM     10  C   UNL     1      98.240  83.618  82.300  1.00  0.00     0.000 C 
BRANCH  10  11
ATOM     11  C   UNL     1      99.466  84.307  81.684  1.00  0.00     0.000 C 
BRANCH  11  12
ATOM     12  C   UNL     1     100.768  83.713  82.241  1.00  0.00     0.000 C 
BRANCH  12  13
ATOM     13  C   UNL     1     101.260  84.440  83.507  1.00  0.00     0.006 C 
BRANCH  13  14
ATOM     14  C   UNL     1     102.460  85.370  83.276  1.00  0.00     0.053 C 
BRANCH  14  15
ATOM     15  C   UNL     1     102.609  86.377  84.373  1.00  0.00     0.041 C 
ATOM     16  O   UNL     1     101.850  86.338  85.376  1.00  0.00    -0.550 OA
ATOM     17  O   UNL     1     103.572  87.376  84.277  1.00  0.00    -0.550 OA
ENDBRANCH  14  15
ENDBRANCH  13  14
ENDBRANCH  12  13
ENDBRANCH  11  12
ENDBRANCH  10  11
ENDBRANCH   9  10
ENDBRANCH   8   9
ENDBRANCH   7   8
ENDBRANCH   6   7
ENDBRANCH   5   6
ENDBRANCH   4   5
ENDBRANCH   3   4
ENDBRANCH   2   3
ENDBRANCH   1   2
BRANCH   1  18
ATOM     18  C   UNL     1      95.994  85.883  79.450  1.00  0.00     0.000 C 
BRANCH  18  19
ATOM     19  C   UNL     1      95.212  84.739  80.121  1.00  0.00     0.000 C 
BRANCH  19  20
ATOM     20  C   UNL     1      94.037  84.234  79.266  1.00  0.00     0.000 C 
BRANCH  20  21
ATOM     21  C   UNL     1      92.984  85.324  78.994  1.00  0.00     0.000 C 
BRANCH  21  22
ATOM     22  C   UNL     1      91.536  84.935  79.357  1.00  0.00     0.000 C 
BRANCH  22  23
ATOM     23  C   UNL     1      91.391  83.954  80.538  1.00  0.00     0.000 C 
BRANCH  23  24
ATOM     24  C   UNL     1      89.953  83.771  81.059  1.00  0.00    -0.000 C 
BRANCH  24  25
ATOM     25  C   UNL     1      89.034  84.949  80.705  1.00  0.00    -0.000 C 
BRANCH  25  26
ATOM     26  C   UNL     1      88.716  85.790  81.946  1.00  0.00    -0.000 C 
BRANCH  26  27
ATOM     27  C   UNL     1      89.697  86.960  82.088  1.00  0.00    -0.000 C 
BRANCH  27  28
ATOM     28  C   UNL     1      90.288  87.019  83.504  1.00  0.00    -0.000 C 
BRANCH  28  29
ATOM     29  C   UNL     1      90.814  85.645  83.976  1.00  0.00    -0.000 C 
BRANCH  29  30
ATOM     30  C   UNL     1      92.339  85.603  84.185  1.00  0.00    -0.000 C 
BRANCH  30  31
ATOM     31  C   UNL     1      93.168  85.926  82.932  1.00  0.00    -0.003 C 
ATOM     32  C   UNL     1      93.933  87.245  83.049  1.00  0.00     0.004 C 
ENDBRANCH  30  31
ENDBRANCH  29  30
ENDBRANCH  28  29
ENDBRANCH  27  28
ENDBRANCH  26  27
ENDBRANCH  25  26
ENDBRANCH  24  25
ENDBRANCH  23  24
ENDBRANCH  22  23
ENDBRANCH  21  22
ENDBRANCH  20  21
ENDBRANCH  19  20
ENDBRANCH  18  19
ENDBRANCH   1  18
TORSDOF 28
ENDMDL
MODEL 4
REMARK VINA RESULT:    -4.296      2.415      5.145
REMARK INTER + INTRA:         -16.515
REMARK INTER:                 -11.095
REMARK INTRA:                  -5.420
REMARK UNBOUND:                -5.188
REMARK SMILES CCCCCCCCCCCCCCCCCCCCCCCCCCCCCC(=O)[O-]
REMARK SMILES IDX 16 1 17 2 18 3 19 4 20 5 21 6 22 7 23 8 24 9 25 10 26 11
REMARK SMILES IDX 27 12 28 13 29 14 30 15 31 16 32 17 15 18 14 19 13 20 12 21
REMARK SMILES IDX 11 22 10 23 9 24 8 25 7 26 6 27 5 28 4 29 3 30 2 31 1 32
REMARK H PARENT
REMARK Flexibility Score: inf
ROOT
ATOM      1  C   UNL     1      99.076  87.421  85.150  1.00  0.00     0.000 C 
ENDROOT
BRANCH   1   2
ATOM      2  C   UNL     1      97.888  86.934  85.997  1.00  0.00     0.000 C 
BRANCH   2   3
ATOM      3  C   UNL     1      97.768  85.400  86.032  1.00  0.00     0.000 C 
BRANCH   3   4
ATOM      4  C   UNL     1      96.437  84.830  85.504  1.00  0.00     0.000 C 
BRANCH   4   5
ATOM      5  C   UNL     1      95.281  85.851  85.478  1.00  0.00     0.000 C 
BRANCH   5   6
ATOM      6  C   UNL     1      94.558  85.893  84.118  1.00  0.00     0.000 C 
BRANCH   6   7
ATOM      7  C   UNL     1      93.195  86.606  84.184  1.00  0.00     0.000 C 
BRANCH   7   8
ATOM      8  C   UNL     1      92.088  85.819  84.906  1.00  0.00     0.000 C 
BRANCH   8   9
ATOM      9  C   UNL     1      91.181  85.036  83.941  1.00  0.00     0.000 C 
BRANCH   9  10
ATOM     10  C   UNL     1      90.336  85.957  83.047  1.00  0.00     0.000 C 
BRANCH  10  11
ATOM     11  C   UNL     1      89.935  85.291  81.723  1.00  0.00     0.000 C 
BRANCH  11  12
ATOM     12  C   UNL     1      90.674  83.958  81.534  1.00  0.00     0.000 C 
BRANCH  12  13
ATOM     13  C   UNL     1      91.735  84.018  80.420  1.00  0.00     0.006 C 
BRANCH  13  14
ATOM     14  C   UNL     1      93.114  84.511  80.885  1.00  0.00     0.053 C 
BRANCH  14  15
ATOM     15  C   UNL     1      93.986  84.906  79.734  1.00  0.00     0.041 C 
ATOM     16  O   UNL     1      94.159  86.122  79.459  1.00  0.00    -0.550 OA
ATOM     17  O   UNL     1      94.588  83.929  78.948  1.00  0.00    -0.550 OA
ENDBRANCH  14  15
ENDBRANCH  13  14
ENDBRANCH  12  13
ENDBRANCH  11  12
ENDBRANCH  10  11
ENDBRANCH   9  10
ENDBRANCH   8   9
ENDBRANCH   7   8
ENDBRANCH   6   7
ENDBRANCH   5   6
ENDBRANCH   4   5
ENDBRANCH   3   4
ENDBRANCH   2   3
ENDBRANCH   1   2
BRANCH   1  18
ATOM     18  C   UNL     1      98.750  87.511  83.648  1.00  0.00     0.000 C 
BRANCH  18  19
ATOM     19  C   UNL     1      97.399  88.163  83.300  1.00  0.00     0.000 C 
BRANCH  19  20
ATOM     20  C   UNL     1      96.875  87.752  81.914  1.00  0.00     0.000 C 
BRANCH  20  21
ATOM     21  C   UNL     1      97.972  87.161  81.010  1.00  0.00     0.000 C 
BRANCH  21  22
ATOM     22  C   UNL     1      97.774  85.679  80.630  1.00  0.00     0.000 C 
BRANCH  22  23
ATOM     23  C   UNL     1      97.173  84.787  81.735  1.00  0.00     0.000 C 
BRANCH  23  24
ATOM     24  C   UNL     1      98.155  83.785  82.370  1.00  0.00    -0.000 C 
BRANCH  24  25
ATOM     25  C   UNL     1      99.447  83.617  81.557  1.00  0.00    -0.000 C 
BRANCH  25  26
ATOM     26  C   UNL     1     100.668  84.062  82.370  1.00  0.00    -0.000 C 
BRANCH  26  27
ATOM     27  C   UNL     1     100.382  84.001  83.875  1.00  0.00    -0.000 C 
BRANCH  27  28
ATOM     28  C   UNL     1     101.384  84.857  84.664  1.00  0.00    -0.000 C 
BRANCH  28  29
ATOM     29  C   UNL     1     102.376  85.598  83.739  1.00  0.00    -0.000 C 
BRANCH  29  30
ATOM     30  C   UNL     1     103.141  86.738  84.437  1.00  0.00    -0.000 C 
BRANCH  30  31
ATOM     31  C   UNL     1     102.758  88.151  83.967  1.00  0.00    -0.003 C 
ATOM     32  C   UNL     1     102.187  88.172  82.550  1.00  0.00     0.004 C 
ENDBRANCH  30  31
ENDBRANCH  29  30
ENDBRANCH  28  29
ENDBRANCH  27  28
ENDBRANCH  26  27
ENDBRANCH  25  26
ENDBRANCH  24  25
ENDBRANCH  23  24
ENDBRANCH  22  23
ENDBRANCH  21  22
ENDBRANCH  20  21
ENDBRANCH  19  20
ENDBRANCH  18  19
ENDBRANCH   1  18
TORSDOF 28
ENDMDL
MODEL 5
REMARK VINA RESULT:    -4.263      2.616      7.705
REMARK INTER + INTRA:         -16.429
REMARK INTER:                 -11.456
REMARK INTRA:                  -4.973
REMARK UNBOUND:                -5.188
REMARK SMILES CCCCCCCCCCCCCCCCCCCCCCCCCCCCCC(=O)[O-]
REMARK SMILES IDX 16 1 17 2 18 3 19 4 20 5 21 6 22 7 23 8 24 9 25 10 26 11
REMARK SMILES IDX 27 12 28 13 29 14 30 15 31 16 32 17 15 18 14 19 13 20 12 21
REMARK SMILES IDX 11 22 10 23 9 24 8 25 7 26 6 27 5 28 4 29 3 30 2 31 1 32
REMARK H PARENT
REMARK Flexibility Score: inf
ROOT
ATOM      1  C   UNL     1      94.623  85.891  80.990  1.00  0.00     0.000 C 
ENDROOT
BRANCH   1   2
ATOM      2  C   UNL     1      95.927  86.688  81.164  1.00  0.00     0.000 C 
BRANCH   2   3
ATOM      3  C   UNL     1      97.003  86.304  80.133  1.00  0.00     0.000 C 
BRANCH   3   4
ATOM      4  C   UNL     1      98.350  85.844  80.726  1.00  0.00     0.000 C 
BRANCH   4   5
ATOM      5  C   UNL     1      98.283  84.488  81.460  1.00  0.00     0.000 C 
BRANCH   5   6
ATOM      6  C   UNL     1      99.668  83.827  81.609  1.00  0.00     0.000 C 
BRANCH   6   7
ATOM      7  C   UNL     1     100.195  83.858  83.055  1.00  0.00     0.000 C 
BRANCH   7   8
ATOM      8  C   UNL     1     101.636  84.376  83.207  1.00  0.00     0.000 C 
BRANCH   8   9
ATOM      9  C   UNL     1     101.798  85.363  84.376  1.00  0.00     0.000 C 
BRANCH   9  10
ATOM     10  C   UNL     1     102.564  86.633  83.974  1.00  0.00     0.000 C 
BRANCH  10  11
ATOM     11  C   UNL     1     101.647  87.855  83.823  1.00  0.00     0.000 C 
BRANCH  11  12
ATOM     12  C   UNL     1     100.922  87.834  82.469  1.00  0.00     0.000 C 
BRANCH  12  13
ATOM     13  C   UNL     1     100.730  89.242  81.875  1.00  0.00     0.006 C 
BRANCH  13  14
ATOM     14  C   UNL     1      99.300  89.536  81.394  1.00  0.00     0.053 C 
BRANCH  14  15
ATOM     15  C   UNL     1      99.249  89.818  79.925  1.00  0.00     0.041 C 
ATOM     16  O   UNL     1     100.229  90.358  79.349  1.00  0.00    -0.550 OA
ATOM     17  O   UNL     1      98.108  89.504  79.195  1.00  0.00    -0.550 OA
ENDBRANCH  14  15
ENDBRANCH  13  14
ENDBRANCH  12  13
ENDBRANCH  11  12
ENDBRANCH  10  11
ENDBRANCH   9  10
ENDBRANCH   8   9
ENDBRANCH   7   8
ENDBRANCH   6   7
ENDBRANCH   5   6
ENDBRANCH   4   5
ENDBRANCH   3   4
ENDBRANCH   2   3
ENDBRANCH   1   2
BRANCH   1  18
ATOM     18  C   UNL     1      94.844  84.504  80.358  1.00  0.00     0.000 C 
BRANCH  18  19
ATOM     19  C   UNL     1      93.833  84.104  79.267  1.00  0.00     0.000 C 
BRANCH  19  20
ATOM     20  C   UNL     1      92.815  85.214  78.957  1.00  0.00     0.000 C 
BRANCH  20  21
ATOM     21  C   UNL     1      91.356  84.729  79.040  1.00  0.00     0.000 C 
BRANCH  21  22
ATOM     22  C   UNL     1      90.597  85.160  80.312  1.00  0.00     0.000 C 
BRANCH  22  23
ATOM     23  C   UNL     1      90.841  84.284  81.557  1.00  0.00     0.000 C 
BRANCH  23  24
ATOM     24  C   UNL     1      90.784  85.034  82.901  1.00  0.00    -0.000 C 
BRANCH  24  25
ATOM     25  C   UNL     1      92.176  85.363  83.462  1.00  0.00    -0.000 C 
BRANCH  25  26
ATOM     26  C   UNL     1      92.311  86.862  83.749  1.00  0.00    -0.000 C 
BRANCH  26  27
ATOM     27  C   UNL     1      93.350  87.123  84.847  1.00  0.00    -0.000 C 
BRANCH  27  28
ATOM     28  C   UNL     1      94.067  85.826  85.249  1.00  0.00    -0.000 C 
BRANCH  28  29
ATOM     29  C   UNL     1      95.547  86.067  85.624  1.00  0.00    -0.000 C 
BRANCH  29  30
ATOM     30  C   UNL     1      96.547  85.515  84.591  1.00  0.00    -0.000 C 
BRANCH  30  31
ATOM     31  C   UNL     1      97.896  86.249  84.547  1.00  0.00    -0.003 C 
ATOM     32  C   UNL     1      97.746  87.753  84.314  1.00  0.00     0.004 C 
ENDBRANCH  30  31
ENDBRANCH  29  30
ENDBRANCH  28  29
ENDBRANCH  27  28
ENDBRANCH  26  27
ENDBRANCH  25  26
ENDBRANCH  24  25
ENDBRANCH  23  24
ENDBRANCH  22  23
ENDBRANCH  21  22
ENDBRANCH  20  21
ENDBRANCH  19  20
ENDBRANCH  18  19
ENDBRANCH   1  18
TORSDOF 28
ENDMDL
MODEL 6
REMARK VINA RESULT:    -4.240      2.322      7.252
REMARK INTER + INTRA:         -16.368
REMARK INTER:                 -11.947
REMARK INTRA:                  -4.421
REMARK UNBOUND:                -5.188
REMARK SMILES CCCCCCCCCCCCCCCCCCCCCCCCCCCCCC(=O)[O-]
REMARK SMILES IDX 16 1 17 2 18 3 19 4 20 5 21 6 22 7 23 8 24 9 25 10 26 11
REMARK SMILES IDX 27 12 28 13 29 14 30 15 31 16 32 17 15 18 14 19 13 20 12 21
REMARK SMILES IDX 11 22 10 23 9 24 8 25 7 26 6 27 5 28 4 29 3 30 2 31 1 32
REMARK H PARENT
REMARK Flexibility Score: inf
ROOT
ATOM      1  C   UNL     1     101.559  86.317  83.665  1.00  0.00     0.000 C 
ENDROOT
BRANCH   1   2
ATOM      2  C   UNL     1     100.130  86.835  83.429  1.00  0.00     0.000 C 
BRANCH   2   3
ATOM      3  C   UNL     1     100.068  88.366  83.279  1.00  0.00     0.000 C 
BRANCH   3   4
ATOM      4  C   UNL     1     100.203  88.894  81.836  1.00  0.00     0.000 C 
BRANCH   4   5
ATOM      5  C   UNL     1      98.926  88.732  80.985  1.00  0.00     0.000 C 
BRANCH   5   6
ATOM      6  C   UNL     1      97.937  89.897  81.176  1.00  0.00     0.000 C 
BRANCH   6   7
ATOM      7  C   UNL     1      96.549  89.433  81.653  1.00  0.00     0.000 C 
BRANCH   7   8
ATOM      8  C   UNL     1      96.474  89.038  83.139  1.00  0.00     0.000 C 
BRANCH   8   9
ATOM      9  C   UNL     1      96.153  87.547  83.348  1.00  0.00     0.000 C 
BRANCH   9  10
ATOM     10  C   UNL     1      96.556  87.047  84.744  1.00  0.00     0.000 C 
BRANCH  10  11
ATOM     11  C   UNL     1      96.400  85.528  84.895  1.00  0.00     0.000 C 
BRANCH  11  12
ATOM     12  C   UNL     1      97.542  84.940  85.738  1.00  0.00     0.000 C 
BRANCH  12  13
ATOM     13  C   UNL     1      97.988  85.879  86.874  1.00  0.00     0.006 C 
BRANCH  13  14
ATOM     14  C   UNL     1      98.978  85.249  87.865  1.00  0.00     0.053 C 
BRANCH  14  15
ATOM     15  C   UNL     1     100.273  84.885  87.208  1.00  0.00     0.041 C 
ATOM     16  O   UNL     1     100.467  83.712  86.795  1.00  0.00    -0.550 OA
ATOM     17  O   UNL     1     101.278  85.838  87.074  1.00  0.00    -0.550 OA
ENDBRANCH  14  15
ENDBRANCH  13  14
ENDBRANCH  12  13
ENDBRANCH  11  12
ENDBRANCH  10  11
ENDBRANCH   9  10
ENDBRANCH   8   9
ENDBRANCH   7   8
ENDBRANCH   6   7
ENDBRANCH   5   6
ENDBRANCH   4   5
ENDBRANCH   3   4
ENDBRANCH   2   3
ENDBRANCH   1   2
BRANCH   1  18
ATOM     18  C   UNL     1     101.723  84.824  83.325  1.00  0.00     0.000 C 
BRANCH  18  19
ATOM     19  C   UNL     1     100.427  83.991  83.352  1.00  0.00     0.000 C 
BRANCH  19  20
ATOM     20  C   UNL     1      99.958  83.569  81.949  1.00  0.00     0.000 C 
BRANCH  20  21
ATOM     21  C   UNL     1      98.460  83.214  81.901  1.00  0.00     0.000 C 
BRANCH  21  22
ATOM     22  C   UNL     1      97.503  84.424  81.925  1.00  0.00     0.000 C 
BRANCH  22  23
ATOM     23  C   UNL     1      97.777  85.505  80.860  1.00  0.00     0.000 C 
BRANCH  23  24
ATOM     24  C   UNL     1      96.563  85.885  79.991  1.00  0.00    -0.000 C 
BRANCH  24  25
ATOM     25  C   UNL     1      95.265  85.200  80.444  1.00  0.00    -0.000 C 
BRANCH  25  26
ATOM     26  C   UNL     1      94.695  84.313  79.332  1.00  0.00    -0.000 C 
BRANCH  26  27
ATOM     27  C   UNL     1      93.399  83.626  79.782  1.00  0.00    -0.000 C 
BRANCH  27  28
ATOM     28  C   UNL     1      92.233  84.624  79.828  1.00  0.00    -0.000 C 
BRANCH  28  29
ATOM     29  C   UNL     1      91.493  84.596  81.185  1.00  0.00    -0.000 C 
BRANCH  29  30
ATOM     30  C   UNL     1      90.168  83.811  81.153  1.00  0.00    -0.000 C 
BRANCH  30  31
ATOM     31  C   UNL     1      89.260  84.131  79.955  1.00  0.00    -0.003 C 
ATOM     32  C   UNL     1      88.140  85.111  80.303  1.00  0.00     0.004 C 
ENDBRANCH  30  31
ENDBRANCH  29  30
ENDBRANCH  28  29
ENDBRANCH  27  28
ENDBRANCH  26  27
ENDBRANCH  25  26
ENDBRANCH  24  25
ENDBRANCH  23  24
ENDBRANCH  22  23
ENDBRANCH  21  22
ENDBRANCH  20  21
ENDBRANCH  19  20
ENDBRANCH  18  19
ENDBRANCH   1  18
TORSDOF 28
ENDMDL
MODEL 7
REMARK VINA RESULT:    -4.217      3.291      6.084
REMARK INTER + INTRA:         -16.309
REMARK INTER:                 -11.810
REMARK INTRA:                  -4.500
REMARK UNBOUND:                -5.188
REMARK SMILES CCCCCCCCCCCCCCCCCCCCCCCCCCCCCC(=O)[O-]
REMARK SMILES IDX 16 1 17 2 18 3 19 4 20 5 21 6 22 7 23 8 24 9 25 10 26 11
REMARK SMILES IDX 27 12 28 13 29 14 30 15 31 16 32 17 15 18 14 19 13 20 12 21
REMARK SMILES IDX 11 22 10 23 9 24 8 25 7 26 6 27 5 28 4 29 3 30 2 31 1 32
REMARK H PARENT
REMARK Flexibility Score: inf
ROOT
ATOM      1  C   UNL     1     100.299  83.970  84.338  1.00  0.00     0.000 C 
ENDROOT
BRANCH   1   2
ATOM      2  C   UNL     1     101.014  84.300  83.017  1.00  0.00     0.000 C 
BRANCH   2   3
ATOM      3  C   UNL     1     100.165  83.964  81.779  1.00  0.00     0.000 C 
BRANCH   3   4
ATOM      4  C   UNL     1      98.787  83.338  82.073  1.00  0.00     0.000 C 
BRANCH   4   5
ATOM      5  C   UNL     1      97.595  84.167  81.548  1.00  0.00     0.000 C 
BRANCH   5   6
ATOM      6  C   UNL     1      98.041  85.462  80.842  1.00  0.00     0.000 C 
BRANCH   6   7
ATOM      7  C   UNL     1      96.907  86.131  80.044  1.00  0.00     0.000 C 
BRANCH   7   8
ATOM      8  C   UNL     1      95.487  85.717  80.468  1.00  0.00     0.000 C 
BRANCH   8   9
ATOM      9  C   UNL     1      94.786  84.826  79.427  1.00  0.00     0.000 C 
BRANCH   9  10
ATOM     10  C   UNL     1      93.649  83.990  80.036  1.00  0.00     0.000 C 
BRANCH  10  11
ATOM     11  C   UNL     1      92.310  84.740  80.058  1.00  0.00     0.000 C 
BRANCH  11  12
ATOM     12  C   UNL     1      91.479  84.346  81.288  1.00  0.00     0.000 C 
BRANCH  12  13
ATOM     13  C   UNL     1      90.128  83.706  80.914  1.00  0.00     0.006 C 
BRANCH  13  14
ATOM     14  C   UNL     1      89.055  84.710  80.465  1.00  0.00     0.053 C 
BRANCH  14  15
ATOM     15  C   UNL     1      87.816  84.025  79.978  1.00  0.00     0.041 C 
ATOM     16  O   UNL     1      86.732  84.157  80.604  1.00  0.00    -0.550 OA
ATOM     17  O   UNL     1      87.864  83.222  78.844  1.00  0.00    -0.550 OA
ENDBRANCH  14  15
ENDBRANCH  13  14
ENDBRANCH  12  13
ENDBRANCH  11  12
ENDBRANCH  10  11
ENDBRANCH   9  10
ENDBRANCH   8   9
ENDBRANCH   7   8
ENDBRANCH   6   7
ENDBRANCH   5   6
ENDBRANCH   4   5
ENDBRANCH   3   4
ENDBRANCH   2   3
ENDBRANCH   1   2
BRANCH   1  18
ATOM     18  C   UNL     1     100.754  84.859  85.510  1.00  0.00     0.000 C 
BRANCH  18  19
ATOM     19  C   UNL     1     100.481  84.294  86.916  1.00  0.00     0.000 C 
BRANCH  19  20
ATOM     20  C   UNL     1      99.759  85.295  87.834  1.00  0.00     0.000 C 
BRANCH  20  21
ATOM     21  C   UNL     1      98.610  86.035  87.126  1.00  0.00     0.000 C 
BRANCH  21  22
ATOM     22  C   UNL     1      97.198  85.499  87.440  1.00  0.00     0.000 C 
BRANCH  22  23
ATOM     23  C   UNL     1      96.436  84.899  86.241  1.00  0.00     0.000 C 
BRANCH  23  24
ATOM     24  C   UNL     1      96.911  85.385  84.859  1.00  0.00    -0.000 C 
BRANCH  24  25
ATOM     25  C   UNL     1      95.878  86.273  84.150  1.00  0.00    -0.000 C 
BRANCH  25  26
ATOM     26  C   UNL     1      96.545  87.510  83.538  1.00  0.00    -0.000 C 
BRANCH  26  27
ATOM     27  C   UNL     1      97.271  88.333  84.609  1.00  0.00    -0.000 C 
BRANCH  27  28
ATOM     28  C   UNL     1      98.686  88.714  84.149  1.00  0.00    -0.000 C 
BRANCH  28  29
ATOM     29  C   UNL     1      99.431  87.525  83.502  1.00  0.00    -0.000 C 
BRANCH  29  30
ATOM     30  C   UNL     1     100.430  87.940  82.406  1.00  0.00    -0.000 C 
BRANCH  30  31
ATOM     31  C   UNL     1     101.602  88.804  82.899  1.00  0.00    -0.003 C 
ATOM     32  C   UNL     1     102.967  88.197  82.572  1.00  0.00     0.004 C 
ENDBRANCH  30  31
ENDBRANCH  29  30
ENDBRANCH  28  29
ENDBRANCH  27  28
ENDBRANCH  26  27
ENDBRANCH  25  26
ENDBRANCH  24  25
ENDBRANCH  23  24
ENDBRANCH  22  23
ENDBRANCH  21  22
ENDBRANCH  20  21
ENDBRANCH  19  20
ENDBRANCH  18  19
ENDBRANCH   1  18
TORSDOF 28
ENDMDL
MODEL 8
REMARK VINA RESULT:    -4.145      3.610      5.935
REMARK INTER + INTRA:         -16.119
REMARK INTER:                 -11.636
REMARK INTRA:                  -4.483
REMARK UNBOUND:                -5.188
REMARK SMILES CCCCCCCCCCCCCCCCCCCCCCCCCCCCCC(=O)[O-]
REMARK SMILES IDX 16 1 17 2 18 3 19 4 20 5 21 6 22 7 23 8 24 9 25 10 26 11
REMARK SMILES IDX 27 12 28 13 29 14 30 15 31 16 32 17 15 18 14 19 13 20 12 21
REMARK SMILES IDX 11 22 10 23 9 24 8 25 7 26 6 27 5 28 4 29 3 30 2 31 1 32
REMARK H PARENT
REMARK Flexibility Score: inf
ROOT
ATOM      1  C   UNL     1      99.077  83.535  81.919  1.00  0.00     0.000 C 
ENDROOT
BRANCH   1   2
ATOM      2  C   UNL     1      97.957  84.568  81.707  1.00  0.00     0.000 C 
BRANCH   2   3
ATOM      3  C   UNL     1      98.356  85.687  80.729  1.00  0.00     0.000 C 
BRANCH   3   4
ATOM      4  C   UNL     1      97.793  87.084  81.059  1.00  0.00     0.000 C 
BRANCH   4   5
ATOM      5  C   UNL     1      96.372  87.335  80.513  1.00  0.00     0.000 C 
BRANCH   5   6
ATOM      6  C   UNL     1      96.066  86.501  79.254  1.00  0.00     0.000 C 
BRANCH   6   7
ATOM      7  C   UNL     1      94.688  85.816  79.309  1.00  0.00     0.000 C 
BRANCH   7   8
ATOM      8  C   UNL     1      94.724  84.318  79.658  1.00  0.00     0.000 C 
BRANCH   8   9
ATOM      9  C   UNL     1      93.348  83.764  80.067  1.00  0.00     0.000 C 
BRANCH   9  10
ATOM     10  C   UNL     1      92.418  84.851  80.629  1.00  0.00     0.000 C 
BRANCH  10  11
ATOM     11  C   UNL     1      91.095  84.281  81.158  1.00  0.00     0.000 C 
BRANCH  11  12
ATOM     12  C   UNL     1      89.916  84.721  80.277  1.00  0.00     0.000 C 
BRANCH  12  13
ATOM     13  C   UNL     1      88.804  83.657  80.196  1.00  0.00     0.006 C 
BRANCH  13  14
ATOM     14  C   UNL     1      88.092  83.589  78.836  1.00  0.00     0.053 C 
BRANCH  14  15
ATOM     15  C   UNL     1      86.626  83.321  78.984  1.00  0.00     0.041 C 
ATOM     16  O   UNL     1      86.163  82.922  80.084  1.00  0.00    -0.550 OA
ATOM     17  O   UNL     1      85.774  83.490  77.898  1.00  0.00    -0.550 OA
ENDBRANCH  14  15
ENDBRANCH  13  14
ENDBRANCH  12  13
ENDBRANCH  11  12
ENDBRANCH  10  11
ENDBRANCH   9  10
ENDBRANCH   8   9
ENDBRANCH   7   8
ENDBRANCH   6   7
ENDBRANCH   5   6
ENDBRANCH   4   5
ENDBRANCH   3   4
ENDBRANCH   2   3
ENDBRANCH   1   2
BRANCH   1  18
ATOM     18  C   UNL     1     100.060  83.931  83.035  1.00  0.00     0.000 C 
BRANCH  18  19
ATOM     19  C   UNL     1     101.541  84.009  82.619  1.00  0.00     0.000 C 
BRANCH  19  20
ATOM     20  C   UNL     1     102.304  85.139  83.330  1.00  0.00     0.000 C 
BRANCH  20  21
ATOM     21  C   UNL     1     101.463  86.417  83.496  1.00  0.00     0.000 C 
BRANCH  21  22
ATOM     22  C   UNL     1     101.914  87.350  84.639  1.00  0.00     0.000 C 
BRANCH  22  23
ATOM     23  C   UNL     1     100.977  88.539  84.931  1.00  0.00     0.000 C 
BRANCH  23  24
ATOM     24  C   UNL     1     100.438  88.604  86.373  1.00  0.00    -0.000 C 
BRANCH  24  25
ATOM     25  C   UNL     1     100.650  87.297  87.150  1.00  0.00    -0.000 C 
BRANCH  25  26
ATOM     26  C   UNL     1      99.320  86.568  87.371  1.00  0.00    -0.000 C 
BRANCH  26  27
ATOM     27  C   UNL     1      99.239  85.294  86.520  1.00  0.00    -0.000 C 
BRANCH  27  28
ATOM     28  C   UNL     1      97.954  85.271  85.679  1.00  0.00    -0.000 C 
BRANCH  28  29
ATOM     29  C   UNL     1      97.843  86.497  84.745  1.00  0.00    -0.000 C 
BRANCH  29  30
ATOM     30  C   UNL     1      96.404  87.019  84.575  1.00  0.00    -0.000 C 
BRANCH  30  31
ATOM     31  C   UNL     1      95.374  85.949  84.183  1.00  0.00    -0.003 C 
ATOM     32  C   UNL     1      94.259  86.495  83.291  1.00  0.00     0.004 C 
ENDBRANCH  30  31
ENDBRANCH  29  30
ENDBRANCH  28  29
ENDBRANCH  27  28
ENDBRANCH  26  27
ENDBRANCH  25  26
ENDBRANCH  24  25
ENDBRANCH  23  24
ENDBRANCH  22  23
ENDBRANCH  21  22
ENDBRANCH  20  21
ENDBRANCH  19  20
ENDBRANCH  18  19
ENDBRANCH   1  18
TORSDOF 28
ENDMDL
MODEL 9
REMARK VINA RESULT:    -4.125      3.586      8.449
REMARK INTER + INTRA:         -16.064
REMARK INTER:                 -11.828
REMARK INTRA:                  -4.236
REMARK UNBOUND:                -5.188
REMARK SMILES CCCCCCCCCCCCCCCCCCCCCCCCCCCCCC(=O)[O-]
REMARK SMILES IDX 16 1 17 2 18 3 19 4 20 5 21 6 22 7 23 8 24 9 25 10 26 11
REMARK SMILES IDX 27 12 28 13 29 14 30 15 31 16 32 17 15 18 14 19 13 20 12 21
REMARK SMILES IDX 11 22 10 23 9 24 8 25 7 26 6 27 5 28 4 29 3 30 2 31 1 32
REMARK H PARENT
REMARK Flexibility Score: inf
ROOT
ATOM      1  C   UNL     1      98.057  85.508  80.746  1.00  0.00     0.000 C 
ENDROOT
BRANCH   1   2
ATOM      2  C   UNL     1      97.608  84.568  81.878  1.00  0.00     0.000 C 
BRANCH   2   3
ATOM      3  C   UNL     1      98.532  83.348  82.043  1.00  0.00     0.000 C 
BRANCH   3   4
ATOM      4  C   UNL     1     100.026  83.673  82.241  1.00  0.00     0.000 C 
BRANCH   4   5
ATOM      5  C   UNL     1     100.395  84.087  83.681  1.00  0.00     0.000 C 
BRANCH   5   6
ATOM      6  C   UNL     1     101.581  85.069  83.729  1.00  0.00     0.000 C 
BRANCH   6   7
ATOM      7  C   UNL     1     101.449  86.115  84.850  1.00  0.00     0.000 C 
BRANCH   7   8
ATOM      8  C   UNL     1     101.366  87.574  84.367  1.00  0.00     0.000 C 
BRANCH   8   9
ATOM      9  C   UNL     1     101.543  87.713  82.845  1.00  0.00     0.000 C 
BRANCH   9  10
ATOM     10  C   UNL     1     100.233  88.082  82.131  1.00  0.00     0.000 C 
BRANCH  10  11
ATOM     11  C   UNL     1     100.387  89.298  81.206  1.00  0.00     0.000 C 
BRANCH  11  12
ATOM     12  C   UNL     1      99.159  89.455  80.296  1.00  0.00     0.000 C 
BRANCH  12  13
ATOM     13  C   UNL     1      99.311  90.604  79.282  1.00  0.00     0.006 C 
BRANCH  13  14
ATOM     14  C   UNL     1     100.017  91.850  79.840  1.00  0.00     0.053 C 
BRANCH  14  15
ATOM     15  C   UNL     1     101.046  92.383  78.892  1.00  0.00     0.041 C 
ATOM     16  O   UNL     1     102.270  92.198  79.118  1.00  0.00    -0.550 OA
ATOM     17  O   UNL     1     100.653  93.105  77.771  1.00  0.00    -0.550 OA
ENDBRANCH  14  15
ENDBRANCH  13  14
ENDBRANCH  12  13
ENDBRANCH  11  12
ENDBRANCH  10  11
ENDBRANCH   9  10
ENDBRANCH   8   9
ENDBRANCH   7   8
ENDBRANCH   6   7
ENDBRANCH   5   6
ENDBRANCH   4   5
ENDBRANCH   3   4
ENDBRANCH   2   3
ENDBRANCH   1   2
BRANCH   1  18
ATOM     18  C   UNL     1      97.089  86.683  80.517  1.00  0.00     0.000 C 
BRANCH  18  19
ATOM     19  C   UNL     1      95.592  86.324  80.546  1.00  0.00     0.000 C 
BRANCH  19  20
ATOM     20  C   UNL     1      95.174  85.407  79.384  1.00  0.00     0.000 C 
BRANCH  20  21
ATOM     21  C   UNL     1      94.633  84.046  79.861  1.00  0.00     0.000 C 
BRANCH  21  22
ATOM     22  C   UNL     1      93.267  83.643  79.267  1.00  0.00     0.000 C 
BRANCH  22  23
ATOM     23  C   UNL     1      92.339  84.815  78.890  1.00  0.00     0.000 C 
BRANCH  23  24
ATOM     24  C   UNL     1      90.931  84.757  79.513  1.00  0.00    -0.000 C 
BRANCH  24  25
ATOM     25  C   UNL     1      90.959  84.619  81.042  1.00  0.00    -0.000 C 
BRANCH  25  26
ATOM     26  C   UNL     1      90.769  85.980  81.720  1.00  0.00    -0.000 C 
BRANCH  26  27
ATOM     27  C   UNL     1      92.120  86.631  82.042  1.00  0.00    -0.000 C 
BRANCH  27  28
ATOM     28  C   UNL     1      93.010  85.681  82.857  1.00  0.00    -0.000 C 
BRANCH  28  29
ATOM     29  C   UNL     1      93.601  86.364  84.111  1.00  0.00    -0.000 C 
BRANCH  29  30
ATOM     30  C   UNL     1      95.112  86.126  84.294  1.00  0.00    -0.000 C 
BRANCH  30  31
ATOM     31  C   UNL     1      95.986  87.377  84.109  1.00  0.00    -0.003 C 
ATOM     32  C   UNL     1      97.469  87.109  84.363  1.00  0.00     0.004 C 
ENDBRANCH  30  31
ENDBRANCH  29  30
ENDBRANCH  28  29
ENDBRANCH  27  28
ENDBRANCH  26  27
ENDBRANCH  25  26
ENDBRANCH  24  25
ENDBRANCH  23  24
ENDBRANCH  22  23
ENDBRANCH  21  22
ENDBRANCH  20  21
ENDBRANCH  19  20
ENDBRANCH  18  19
ENDBRANCH   1  18
TORSDOF 28
ENDMDL
