MODEL 1
REMARK VINA RESULT:    -5.221      0.000      0.000
REMARK INTER + INTRA:          -5.588
REMARK INTER:                  -5.679
REMARK INTRA:                   0.091
REMARK UNBOUND:                 0.091
REMARK SMILES C[C@@H]1[C@H](C)CC[C@@]2(C(=O)[O-])CC[C@]3(C)C(=CC[C@@H]4[C@]5(C)CC[C@@H](O)C(C)(C)[C@@H]5CC[C@@]43C)[C@@H]12
REMARK SMILES IDX 7 1 6 2 11 3 33 4 5 5 12 6 15 7 2 8 3 9 13 10 16 11 1 12
REMARK SMILES IDX 4 13 14 14 31 15 17 16 18 17 30 18 32 19 19 20 29 21 28 22
REMARK SMILES IDX 21 23 20 24 25 25 22 26 23 27 26 28 27 29 8 30 9 31 10 32
REMARK SMILES IDX 24 33
REMARK H PARENT 24 34
REMARK Flexibility Score: inf
ROOT
ATOM      1  C   UNL     1      10.305 -21.729 -10.036  1.00  0.00     0.017 C 
ATOM      2  C   UNL     1      10.709 -23.006  -9.245  1.00  0.00     0.014 C 
ATOM      3  C   UNL     1       9.007 -22.046 -10.858  1.00  0.00     0.014 C 
ATOM      4  C   UNL     1      10.128 -20.522  -9.026  1.00  0.00     0.030 C 
ATOM      5  C   UNL     1      12.005 -22.814  -8.449  1.00  0.00     0.004 C 
ATOM      6  C   UNL     1       7.659 -21.907 -10.112  1.00  0.00     0.013 C 
ATOM      7  C   UNL     1       8.735 -20.583  -8.366  1.00  0.00    -0.063 C 
ATOM      8  C   UNL     1      11.349 -20.355  -8.033  1.00  0.00    -0.003 C 
ATOM      9  C   UNL     1      11.838 -21.708  -7.404  1.00  0.00    -0.011 C 
ATOM     10  C   UNL     1       7.510 -20.582  -9.295  1.00  0.00    -0.006 C 
ATOM     11  C   UNL     1       8.594 -21.057  -7.114  1.00  0.00    -0.027 C 
ATOM     12  C   UNL     1      12.508 -19.571  -8.692  1.00  0.00     0.008 C 
ATOM     13  C   UNL     1      13.118 -21.558  -6.566  1.00  0.00     0.008 C 
ATOM     14  C   UNL     1       7.618 -19.399 -10.322  1.00  0.00     0.017 C 
ATOM     15  C   UNL     1       6.092 -20.454  -8.467  1.00  0.00    -0.020 C 
ATOM     16  C   UNL     1       7.398 -21.859  -6.730  1.00  0.00     0.032 C 
ATOM     17  C   UNL     1       6.124 -21.052  -6.991  1.00  0.00     0.006 C 
ATOM     18  C   UNL     1       4.967 -21.150  -9.259  1.00  0.00     0.008 C 
ATOM     19  C   UNL     1       5.699 -18.942  -8.314  1.00  0.00     0.012 C 
ATOM     20  C   UNL     1       4.801 -21.771  -6.422  1.00  0.00    -0.025 C 
ATOM     21  C   UNL     1       3.579 -21.050  -8.634  1.00  0.00     0.005 C 
ATOM     22  C   UNL     1       3.482 -21.176  -7.075  1.00  0.00     0.003 C 
ATOM     23  C   UNL     1       4.819 -23.317  -6.656  1.00  0.00     0.010 C 
ATOM     24  C   UNL     1       4.811 -21.501  -4.875  1.00  0.00     0.012 C 
ATOM     25  C   UNL     1       2.128 -21.906  -6.653  1.00  0.00    -0.006 C 
ATOM     26  C   UNL     1       3.520 -24.043  -6.257  1.00  0.00     0.033 C 
ATOM     27  C   UNL     1       2.261 -23.442  -6.902  1.00  0.00     0.120 C 
ATOM     28  C   UNL     1       1.741 -21.616  -5.172  1.00  0.00     0.014 C 
ATOM     29  C   UNL     1       0.929 -21.354  -7.489  1.00  0.00     0.014 C 
ENDROOT
BRANCH   1  30
ATOM     30  C   UNL     1      11.368 -21.400 -11.082  1.00  0.00     0.048 C 
ATOM     31  O   UNL     1      12.102 -22.304 -11.565  1.00  0.00    -0.550 OA
ATOM     32  O   UNL     1      11.444 -20.122 -11.626  1.00  0.00    -0.550 OA
ENDBRANCH   1  30
BRANCH  27  33
ATOM     33  O   UNL     1       1.136 -24.125  -6.402  1.00  0.00    -0.393 OA
ATOM     34  H   UNL     1       1.451 -25.002  -6.060  1.00  0.00     0.210 HD
ENDBRANCH  27  33
TORSDOF 2
ENDMDL
