MODEL 1
REMARK VINA RESULT:     5.664      0.000      0.000
REMARK INTER + INTRA:           7.918
REMARK INTER:                   8.148
REMARK INTRA:                  -0.229
REMARK UNBOUND:                -0.229
REMARK SMILES O=c1c(O[C@H]2O[C@@H](CO)[C@H](O)[C@H](O)[C@H]2O)c(-c2ccc(O)cc2)oc2cc(O)cc(O)c12
REMARK SMILES IDX 4 1 3 2 16 3 24 4 2 5 25 6 1 7 32 8 26 9 30 10 27 11 29 12
REMARK SMILES IDX 17 13 18 14 19 15 20 16 23 17 22 18 21 19 31 21 28 23 5 25
REMARK SMILES IDX 14 26 6 27 12 28 7 29 10 30 15 31 13 33 8 35 9 36 11 38
REMARK H PARENT 21 20 31 22 28 24 15 32 13 34 9 37 11 39
REMARK Flexibility Score: inf
ROOT
ATOM      1  O   UNL     1      12.371 -10.853  27.475  1.00  0.00    -0.454 OA
ENDROOT
BRANCH   1   2
ATOM      2  C   UNL     1      13.482 -10.037  27.193  1.00  0.00     0.214 A 
ATOM      3  C   UNL     1      14.774 -10.576  27.358  1.00  0.00     0.180 A 
ATOM      4  O   UNL     1      15.846  -9.821  27.147  1.00  0.00    -0.452 OA
ATOM      5  C   UNL     1      13.365  -8.696  26.770  1.00  0.00     0.239 A 
ATOM      6  C   UNL     1      15.780  -8.554  26.758  1.00  0.00     0.146 A 
ATOM      7  O   UNL     1      12.228  -8.189  26.579  1.00  0.00    -0.285 OA
ATOM      8  C   UNL     1      14.530  -7.930  26.547  1.00  0.00     0.111 A 
ATOM      9  C   UNL     1      16.968  -7.844  26.558  1.00  0.00     0.094 A 
ATOM     10  C   UNL     1      14.499  -6.577  26.127  1.00  0.00     0.134 A 
ATOM     11  C   UNL     1      16.930  -6.509  26.144  1.00  0.00     0.123 A 
ATOM     12  C   UNL     1      15.701  -5.882  25.930  1.00  0.00     0.093 A 
BRANCH   3  13
ATOM     13  C   UNL     1      14.985 -11.968  27.815  1.00  0.00     0.021 A 
ATOM     14  C   UNL     1      14.956 -12.303  29.181  1.00  0.00     0.016 A 
ATOM     15  C   UNL     1      15.162 -13.624  29.589  1.00  0.00     0.047 A 
ATOM     16  C   UNL     1      15.380 -14.628  28.641  1.00  0.00     0.115 A 
ATOM     17  C   UNL     1      15.183 -12.984  26.867  1.00  0.00     0.016 A 
ATOM     18  C   UNL     1      15.386 -14.305  27.277  1.00  0.00     0.047 A 
BRANCH  16  19
ATOM     19  O   UNL     1      15.586 -15.939  29.061  1.00  0.00    -0.508 OA
ATOM     20  H   UNL     1      14.980 -16.377  29.746  1.00  0.00     0.293 HD
ENDBRANCH  16  19
ENDBRANCH   3  13
BRANCH  10  21
ATOM     21  O   UNL     1      13.288  -5.920  25.906  1.00  0.00    -0.507 OA
ATOM     22  H   UNL     1      13.076  -5.476  25.020  1.00  0.00     0.293 HD
ENDBRANCH  10  21
BRANCH  11  23
ATOM     23  O   UNL     1      18.110  -5.795  25.942  1.00  0.00    -0.508 OA
ATOM     24  H   UNL     1      18.884  -6.189  25.420  1.00  0.00     0.293 HD
ENDBRANCH  11  23
ENDBRANCH   1   2
BRANCH   1  25
ATOM     25  C   UNL     1      11.293 -10.539  28.362  1.00  0.00     0.339 C 
ATOM     26  C   UNL     1      11.835 -10.152  29.750  1.00  0.00     0.214 C 
ATOM     27  O   UNL     1      10.341 -11.593  28.433  1.00  0.00    -0.332 OA
ATOM     28  C   UNL     1      12.441 -11.378  30.452  1.00  0.00     0.180 C 
ATOM     29  C   UNL     1      10.811 -12.772  29.080  1.00  0.00     0.179 C 
ATOM     30  C   UNL     1      11.403 -12.506  30.489  1.00  0.00     0.177 C 
BRANCH  26  31
ATOM     31  O   UNL     1      12.766  -9.101  29.652  1.00  0.00    -0.384 OA
ATOM     32  H   UNL     1      12.798  -8.636  30.528  1.00  0.00     0.211 HD
ENDBRANCH  26  31
BRANCH  28  33
ATOM     33  O   UNL     1      12.820 -11.049  31.764  1.00  0.00    -0.387 OA
ATOM     34  H   UNL     1      11.999 -10.746  32.234  1.00  0.00     0.211 HD
ENDBRANCH  28  33
BRANCH  29  35
ATOM     35  C   UNL     1      11.734 -13.613  28.172  1.00  0.00     0.191 C 
BRANCH  35  36
ATOM     36  O   UNL     1      11.335 -13.510  26.831  1.00  0.00    -0.394 OA
ATOM     37  H   UNL     1      10.380 -13.237  26.837  1.00  0.00     0.210 HD
ENDBRANCH  35  36
ENDBRANCH  29  35
BRANCH  30  38
ATOM     38  O   UNL     1      10.368 -12.160  31.377  1.00  0.00    -0.387 OA
ATOM     39  H   UNL     1       9.624 -12.798  31.216  1.00  0.00     0.211 HD
ENDBRANCH  30  38
ENDBRANCH   1  25
TORSDOF 11
ENDMDL
MODEL 2
REMARK VINA RESULT:     6.968      1.743      6.299
REMARK INTER + INTRA:           9.794
REMARK INTER:                   8.254
REMARK INTRA:                   1.540
REMARK UNBOUND:                -0.229
REMARK SMILES O=c1c(O[C@H]2O[C@@H](CO)[C@H](O)[C@H](O)[C@H]2O)c(-c2ccc(O)cc2)oc2cc(O)cc(O)c12
REMARK SMILES IDX 4 1 3 2 16 3 24 4 2 5 25 6 1 7 32 8 26 9 30 10 27 11 29 12
REMARK SMILES IDX 17 13 18 14 19 15 20 16 23 17 22 18 21 19 31 21 28 23 5 25
REMARK SMILES IDX 14 26 6 27 12 28 7 29 10 30 15 31 13 33 8 35 9 36 11 38
REMARK H PARENT 21 20 31 22 28 24 15 32 13 34 9 37 11 39
REMARK Flexibility Score: inf
ROOT
ATOM      1  O   UNL     1      13.592 -11.691  30.074  1.00  0.00    -0.454 OA
ENDROOT
BRANCH   1   2
ATOM      2  C   UNL     1      14.210 -12.580  29.175  1.00  0.00     0.214 A 
ATOM      3  C   UNL     1      14.571 -12.103  27.898  1.00  0.00     0.180 A 
ATOM      4  O   UNL     1      15.113 -12.925  27.005  1.00  0.00    -0.452 OA
ATOM      5  C   UNL     1      14.471 -13.932  29.483  1.00  0.00     0.239 A 
ATOM      6  C   UNL     1      15.366 -14.204  27.252  1.00  0.00     0.146 A 
ATOM      7  O   UNL     1      14.193 -14.386  30.625  1.00  0.00    -0.285 OA
ATOM      8  C   UNL     1      15.057 -14.769  28.510  1.00  0.00     0.111 A 
ATOM      9  C   UNL     1      15.943 -14.987  26.247  1.00  0.00     0.094 A 
ATOM     10  C   UNL     1      15.345 -16.138  28.738  1.00  0.00     0.134 A 
ATOM     11  C   UNL     1      16.224 -16.337  26.479  1.00  0.00     0.123 A 
ATOM     12  C   UNL     1      15.927 -16.906  27.718  1.00  0.00     0.093 A 
BRANCH   3  13
ATOM     13  C   UNL     1      14.317 -10.705  27.487  1.00  0.00     0.021 A 
ATOM     14  C   UNL     1      13.018 -10.166  27.482  1.00  0.00     0.016 A 
ATOM     15  C   UNL     1      12.802  -8.843  27.088  1.00  0.00     0.047 A 
ATOM     16  C   UNL     1      13.880  -8.036  26.711  1.00  0.00     0.115 A 
ATOM     17  C   UNL     1      15.398  -9.883  27.129  1.00  0.00     0.016 A 
ATOM     18  C   UNL     1      15.180  -8.559  26.736  1.00  0.00     0.047 A 
BRANCH  16  19
ATOM     19  O   UNL     1      13.651  -6.720  26.318  1.00  0.00    -0.508 OA
ATOM     20  H   UNL     1      13.740  -6.433  25.350  1.00  0.00     0.293 HD
ENDBRANCH  16  19
ENDBRANCH   3  13
BRANCH  10  21
ATOM     21  O   UNL     1      15.059 -16.739  29.964  1.00  0.00    -0.507 OA
ATOM     22  H   UNL     1      15.776 -16.895  30.663  1.00  0.00     0.293 HD
ENDBRANCH  10  21
BRANCH  11  23
ATOM     23  O   UNL     1      16.800 -17.123  25.482  1.00  0.00    -0.508 OA
ATOM     24  H   UNL     1      16.262 -17.451  24.690  1.00  0.00     0.293 HD
ENDBRANCH  11  23
ENDBRANCH   1   2
BRANCH   1  25
ATOM     25  C   UNL     1      12.390 -11.934  30.812  1.00  0.00     0.339 C 
ATOM     26  C   UNL     1      11.263 -12.391  29.867  1.00  0.00     0.214 C 
ATOM     27  O   UNL     1      12.011 -10.807  31.592  1.00  0.00    -0.332 OA
ATOM     28  C   UNL     1      10.819 -11.233  28.959  1.00  0.00     0.180 C 
ATOM     29  C   UNL     1      11.572  -9.683  30.835  1.00  0.00     0.179 C 
ATOM     30  C   UNL     1      10.443 -10.024  29.826  1.00  0.00     0.177 C 
BRANCH  26  31
ATOM     31  O   UNL     1      11.660 -13.513  29.115  1.00  0.00    -0.384 OA
ATOM     32  H   UNL     1      11.562 -14.317  29.687  1.00  0.00     0.211 HD
ENDBRANCH  26  31
BRANCH  28  33
ATOM     33  O   UNL     1       9.709 -11.617  28.189  1.00  0.00    -0.387 OA
ATOM     34  H   UNL     1      10.022 -12.323  27.564  1.00  0.00     0.211 HD
ENDBRANCH  28  33
BRANCH  29  35
ATOM     35  C   UNL     1      12.746  -8.903  30.205  1.00  0.00     0.191 C 
BRANCH  35  36
ATOM     36  O   UNL     1      13.384  -8.108  31.169  1.00  0.00    -0.394 OA
ATOM     37  H   UNL     1      12.978  -8.340  32.045  1.00  0.00     0.210 HD
ENDBRANCH  35  36
ENDBRANCH  29  35
BRANCH  30  38
ATOM     38  O   UNL     1       9.255 -10.302  30.526  1.00  0.00    -0.387 OA
ATOM     39  H   UNL     1       9.126 -11.286  30.497  1.00  0.00     0.211 HD
ENDBRANCH  30  38
ENDBRANCH   1  25
TORSDOF 11
ENDMDL
MODEL 3
REMARK VINA RESULT:     8.104      1.505      5.839
REMARK INTER + INTRA:          11.428
REMARK INTER:                   4.234
REMARK INTRA:                   7.194
REMARK UNBOUND:                -0.229
REMARK SMILES O=c1c(O[C@H]2O[C@@H](CO)[C@H](O)[C@H](O)[C@H]2O)c(-c2ccc(O)cc2)oc2cc(O)cc(O)c12
REMARK SMILES IDX 4 1 3 2 16 3 24 4 2 5 25 6 1 7 32 8 26 9 30 10 27 11 29 12
REMARK SMILES IDX 17 13 18 14 19 15 20 16 23 17 22 18 21 19 31 21 28 23 5 25
REMARK SMILES IDX 14 26 6 27 12 28 7 29 10 30 15 31 13 33 8 35 9 36 11 38
REMARK H PARENT 21 20 31 22 28 24 15 32 13 34 9 37 11 39
REMARK Flexibility Score: inf
ROOT
ATOM      1  O   UNL     1      13.718 -10.804  29.593  1.00  0.00    -0.454 OA
ENDROOT
BRANCH   1   2
ATOM      2  C   UNL     1      14.318 -11.865  28.889  1.00  0.00     0.214 A 
ATOM      3  C   UNL     1      14.944 -11.588  27.657  1.00  0.00     0.180 A 
ATOM      4  O   UNL     1      15.479 -12.571  26.942  1.00  0.00    -0.452 OA
ATOM      5  C   UNL     1      14.307 -13.199  29.349  1.00  0.00     0.239 A 
ATOM      6  C   UNL     1      15.482 -13.839  27.333  1.00  0.00     0.146 A 
ATOM      7  O   UNL     1      13.786 -13.481  30.461  1.00  0.00    -0.285 OA
ATOM      8  C   UNL     1      14.895 -14.213  28.564  1.00  0.00     0.111 A 
ATOM      9  C   UNL     1      16.075 -14.801  26.511  1.00  0.00     0.094 A 
ATOM     10  C   UNL     1      14.921 -15.576  28.951  1.00  0.00     0.134 A 
ATOM     11  C   UNL     1      16.097 -16.145  26.899  1.00  0.00     0.123 A 
ATOM     12  C   UNL     1      15.523 -16.527  28.113  1.00  0.00     0.093 A 
BRANCH   3  13
ATOM     13  C   UNL     1      14.985 -10.220  27.094  1.00  0.00     0.021 A 
ATOM     14  C   UNL     1      13.836  -9.616  26.550  1.00  0.00     0.016 A 
ATOM     15  C   UNL     1      13.900  -8.324  26.021  1.00  0.00     0.047 A 
ATOM     16  C   UNL     1      15.104  -7.613  26.043  1.00  0.00     0.115 A 
ATOM     17  C   UNL     1      16.185  -9.492  27.133  1.00  0.00     0.016 A 
ATOM     18  C   UNL     1      16.246  -8.199  26.605  1.00  0.00     0.047 A 
BRANCH  16  19
ATOM     19  O   UNL     1      15.154  -6.327  25.511  1.00  0.00    -0.508 OA
ATOM     20  H   UNL     1      16.021  -5.804  25.471  1.00  0.00     0.293 HD
ENDBRANCH  16  19
ENDBRANCH   3  13
BRANCH  10  21
ATOM     21  O   UNL     1      14.355 -15.992  30.156  1.00  0.00    -0.507 OA
ATOM     22  H   UNL     1      13.565 -16.626  30.184  1.00  0.00     0.293 HD
ENDBRANCH  10  21
BRANCH  11  23
ATOM     23  O   UNL     1      16.687 -17.109  26.085  1.00  0.00    -0.508 OA
ATOM     24  H   UNL     1      16.255 -18.013  25.936  1.00  0.00     0.293 HD
ENDBRANCH  11  23
ENDBRANCH   1   2
BRANCH   1  25
ATOM     25  C   UNL     1      12.765  -9.874  29.069  1.00  0.00     0.339 C 
ATOM     26  C   UNL     1      11.672  -9.579  30.114  1.00  0.00     0.214 C 
ATOM     27  O   UNL     1      12.217 -10.316  27.833  1.00  0.00    -0.332 OA
ATOM     28  C   UNL     1      10.785 -10.816  30.330  1.00  0.00     0.180 C 
ATOM     29  C   UNL     1      11.369 -11.456  27.935  1.00  0.00     0.179 C 
ATOM     30  C   UNL     1      10.233 -11.286  28.978  1.00  0.00     0.177 C 
BRANCH  26  31
ATOM     31  O   UNL     1      12.239  -9.134  31.323  1.00  0.00    -0.384 OA
ATOM     32  H   UNL     1      13.222  -9.258  31.266  1.00  0.00     0.211 HD
ENDBRANCH  26  31
BRANCH  28  33
ATOM     33  O   UNL     1       9.717 -10.505  31.187  1.00  0.00    -0.387 OA
ATOM     34  H   UNL     1       9.048 -11.232  31.091  1.00  0.00     0.211 HD
ENDBRANCH  28  33
BRANCH  29  35
ATOM     35  C   UNL     1      12.164 -12.769  28.099  1.00  0.00     0.191 C 
BRANCH  35  36
ATOM     36  O   UNL     1      11.806 -13.691  27.104  1.00  0.00    -0.394 OA
ATOM     37  H   UNL     1      11.527 -13.162  26.311  1.00  0.00     0.210 HD
ENDBRANCH  35  36
ENDBRANCH  29  35
BRANCH  30  38
ATOM     38  O   UNL     1       9.296 -10.350  28.505  1.00  0.00    -0.387 OA
ATOM     39  H   UNL     1       9.699  -9.915  27.708  1.00  0.00     0.211 HD
ENDBRANCH  30  38
ENDBRANCH   1  25
TORSDOF 11
ENDMDL
MODEL 4
REMARK VINA RESULT:     8.575      5.675     10.006
REMARK INTER + INTRA:          12.105
REMARK INTER:                   4.647
REMARK INTRA:                   7.458
REMARK UNBOUND:                -0.229
REMARK SMILES O=c1c(O[C@H]2O[C@@H](CO)[C@H](O)[C@H](O)[C@H]2O)c(-c2ccc(O)cc2)oc2cc(O)cc(O)c12
REMARK SMILES IDX 4 1 3 2 16 3 24 4 2 5 25 6 1 7 32 8 26 9 30 10 27 11 29 12
REMARK SMILES IDX 17 13 18 14 19 15 20 16 23 17 22 18 21 19 31 21 28 23 5 25
REMARK SMILES IDX 14 26 6 27 12 28 7 29 10 30 15 31 13 33 8 35 9 36 11 38
REMARK H PARENT 21 20 31 22 28 24 15 32 13 34 9 37 11 39
REMARK Flexibility Score: inf
ROOT
ATOM      1  O   UNL     1      16.757  -2.652  28.424  1.00  0.00    -0.454 OA
ENDROOT
BRANCH   1   2
ATOM      2  C   UNL     1      16.151  -1.835  27.451  1.00  0.00     0.214 A 
ATOM      3  C   UNL     1      15.522  -2.452  26.350  1.00  0.00     0.180 A 
ATOM      4  O   UNL     1      14.982  -1.713  25.388  1.00  0.00    -0.452 OA
ATOM      5  C   UNL     1      16.158  -0.426  27.514  1.00  0.00     0.239 A 
ATOM      6  C   UNL     1      14.975  -0.386  25.405  1.00  0.00     0.146 A 
ATOM      7  O   UNL     1      16.682   0.161  28.499  1.00  0.00    -0.285 OA
ATOM      8  C   UNL     1      15.564   0.323  26.476  1.00  0.00     0.111 A 
ATOM      9  C   UNL     1      14.376   0.302  24.346  1.00  0.00     0.094 A 
ATOM     10  C   UNL     1      15.535   1.739  26.462  1.00  0.00     0.134 A 
ATOM     11  C   UNL     1      14.351   1.701  24.338  1.00  0.00     0.123 A 
ATOM     12  C   UNL     1      14.927   2.412  25.391  1.00  0.00     0.093 A 
BRANCH   3  13
ATOM     13  C   UNL     1      15.485  -3.923  26.198  1.00  0.00     0.021 A 
ATOM     14  C   UNL     1      16.632  -4.653  25.837  1.00  0.00     0.016 A 
ATOM     15  C   UNL     1      16.571  -6.042  25.695  1.00  0.00     0.047 A 
ATOM     16  C   UNL     1      15.372  -6.722  25.929  1.00  0.00     0.115 A 
ATOM     17  C   UNL     1      14.289  -4.614  26.453  1.00  0.00     0.016 A 
ATOM     18  C   UNL     1      14.231  -6.004  26.313  1.00  0.00     0.047 A 
BRANCH  16  19
ATOM     19  O   UNL     1      15.325  -8.105  25.783  1.00  0.00    -0.508 OA
ATOM     20  H   UNL     1      14.860  -8.695  26.464  1.00  0.00     0.293 HD
ENDBRANCH  16  19
ENDBRANCH   3  13
BRANCH  10  21
ATOM     21  O   UNL     1      16.103   2.482  27.498  1.00  0.00    -0.507 OA
ATOM     22  H   UNL     1      15.685   3.344  27.828  1.00  0.00     0.293 HD
ENDBRANCH  10  21
BRANCH  11  23
ATOM     23  O   UNL     1      13.754   2.393  23.286  1.00  0.00    -0.508 OA
ATOM     24  H   UNL     1      13.325   3.300  23.425  1.00  0.00     0.293 HD
ENDBRANCH  11  23
ENDBRANCH   1   2
BRANCH   1  25
ATOM     25  C   UNL     1      17.683  -3.715  28.178  1.00  0.00     0.339 C 
ATOM     26  C   UNL     1      18.796  -3.715  29.242  1.00  0.00     0.214 C 
ATOM     27  O   UNL     1      18.205  -3.668  26.857  1.00  0.00    -0.332 OA
ATOM     28  C   UNL     1      19.707  -2.488  29.067  1.00  0.00     0.180 C 
ATOM     29  C   UNL     1      19.073  -2.567  26.602  1.00  0.00     0.179 C 
ATOM     30  C   UNL     1      20.232  -2.448  27.627  1.00  0.00     0.177 C 
BRANCH  26  31
ATOM     31  O   UNL     1      18.253  -3.773  30.539  1.00  0.00    -0.384 OA
ATOM     32  H   UNL     1      18.579  -4.604  30.972  1.00  0.00     0.211 HD
ENDBRANCH  26  31
BRANCH  28  33
ATOM     33  O   UNL     1      20.791  -2.557  29.957  1.00  0.00    -0.387 OA
ATOM     34  H   UNL     1      20.474  -2.201  30.828  1.00  0.00     0.211 HD
ENDBRANCH  28  33
BRANCH  29  35
ATOM     35  C   UNL     1      18.302  -1.247  26.388  1.00  0.00     0.191 C 
BRANCH  35  36
ATOM     36  O   UNL     1      18.590  -0.705  25.127  1.00  0.00    -0.394 OA
ATOM     37  H   UNL     1      18.674  -1.470  24.500  1.00  0.00     0.210 HD
ENDBRANCH  35  36
ENDBRANCH  29  35
BRANCH  30  38
ATOM     38  O   UNL     1      21.143  -3.502  27.431  1.00  0.00    -0.387 OA
ATOM     39  H   UNL     1      21.169  -3.684  26.455  1.00  0.00     0.211 HD
ENDBRANCH  30  38
ENDBRANCH   1  25
TORSDOF 11
ENDMDL
