MODEL 1
REMARK VINA RESULT:    46.029      0.000      0.000
REMARK INTER + INTRA:          60.492
REMARK INTER:                  60.829
REMARK INTRA:                  -0.337
REMARK UNBOUND:                -0.337
REMARK SMILES CC[C@@H](C=C[C@@H](C)[C@@H]1CC[C@@H]2[C@@H]3CC=C4C[C@H](O)CC[C@@]4(C)[C@@H]3CC[C@]21C)C(C)C
REMARK SMILES IDX 6 1 7 2 5 3 4 4 3 5 2 6 1 7 28 8 29 9 30 10 8 11 9 12 26 13
REMARK SMILES IDX 10 14 11 15 25 16 27 17 12 18 24 19 23 20 13 21 21 22 14 23
REMARK SMILES IDX 15 24 20 25 22 26 16 27 19 28 17 29 18 30
REMARK H PARENT 18 31
REMARK Flexibility Score: inf
ROOT
ATOM      1  C   UNL     1       3.283  64.852  -5.128  1.00  0.00     0.012 C 
ATOM      2  C   UNL     1       4.549  65.721  -5.229  1.00  0.00     0.012 C 
ENDROOT
BRANCH   1   3
ATOM      3  C   UNL     1       3.591  63.478  -5.684  1.00  0.00    -0.028 C 
ATOM      4  C   UNL     1       2.777  62.436  -5.450  1.00  0.00    -0.027 C 
BRANCH   4   5
ATOM      5  C   UNL     1       3.036  61.072  -6.058  1.00  0.00     0.014 C 
BRANCH   5   6
ATOM      6  C   UNL     1       3.157  61.180  -7.599  1.00  0.00     0.004 C 
ATOM      7  C   UNL     1       4.438  60.530  -8.125  1.00  0.00     0.004 C 
ENDBRANCH   5   6
BRANCH   5   8
ATOM      8  C   UNL     1       1.950  60.054  -5.594  1.00  0.00    -0.011 C 
ATOM      9  C   UNL     1       0.874  60.684  -4.695  1.00  0.00     0.008 C 
ATOM     10  C   UNL     1       1.297  59.322  -6.777  1.00  0.00     0.008 C 
ENDBRANCH   5   8
ENDBRANCH   4   5
ENDBRANCH   1   3
BRANCH   1  11
ATOM     11  C   UNL     1       2.004  65.444  -5.823  1.00  0.00     0.002 C 
ATOM     12  C   UNL     1       2.037  65.595  -7.371  1.00  0.00     0.005 C 
ATOM     13  C   UNL     1       1.485  66.823  -5.323  1.00  0.00    -0.026 C 
ATOM     14  C   UNL     1       1.034  66.714  -7.724  1.00  0.00     0.005 C 
ATOM     15  C   UNL     1       0.395  67.062  -6.387  1.00  0.00    -0.001 C 
ATOM     16  C   UNL     1       0.793  66.803  -3.940  1.00  0.00     0.007 C 
ATOM     17  C   UNL     1       2.650  67.863  -5.325  1.00  0.00     0.012 C 
ATOM     18  C   UNL     1      -0.485  68.322  -6.236  1.00  0.00     0.000 C 
ATOM     19  C   UNL     1      -0.065  68.078  -3.703  1.00  0.00     0.005 C 
ATOM     20  C   UNL     1      -1.134  68.323  -4.822  1.00  0.00     0.003 C 
ATOM     21  C   UNL     1       0.200  69.662  -6.526  1.00  0.00     0.031 C 
ATOM     22  C   UNL     1      -2.117  69.568  -4.616  1.00  0.00    -0.008 C 
ATOM     23  C   UNL     1      -0.789  70.774  -6.424  1.00  0.00    -0.027 C 
ATOM     24  C   UNL     1      -1.797  70.773  -5.528  1.00  0.00    -0.065 C 
ATOM     25  C   UNL     1      -3.560  69.100  -4.989  1.00  0.00     0.014 C 
ATOM     26  C   UNL     1      -2.115  70.044  -3.138  1.00  0.00     0.016 C 
ATOM     27  C   UNL     1      -2.798  71.912  -5.572  1.00  0.00     0.063 C 
ATOM     28  C   UNL     1      -4.607  70.231  -5.030  1.00  0.00     0.033 C 
ATOM     29  C   UNL     1      -4.176  71.371  -5.967  1.00  0.00     0.118 C 
BRANCH  29  30
ATOM     30  O   UNL     1      -5.111  72.417  -5.907  1.00  0.00    -0.393 OA
ATOM     31  H   UNL     1      -5.715  72.306  -6.688  1.00  0.00     0.210 HD
ENDBRANCH  29  30
ENDBRANCH   1  11
TORSDOF 6
ENDMDL
