MODEL 1
REMARK VINA RESULT:    -5.516      0.000      0.000
REMARK INTER + INTRA:         -18.719
REMARK INTER:                 -14.546
REMARK INTRA:                  -4.174
REMARK UNBOUND:                -4.174
REMARK SMILES CCCCCCCCCCCCCCCCCCCCCCCCCCCCCC(=O)[O-]
REMARK SMILES IDX 16 1 17 2 18 3 19 4 20 5 21 6 22 7 23 8 24 9 25 10 26 11
REMARK SMILES IDX 27 12 28 13 29 14 30 15 31 16 32 17 15 18 14 19 13 20 12 21
REMARK SMILES IDX 11 22 10 23 9 24 8 25 7 26 6 27 5 28 4 29 3 30 2 31 1 32
REMARK H PARENT
REMARK Flexibility Score: inf
ROOT
ATOM      1  C   UNL     1     251.935 259.339 246.875  1.00  0.00     0.000 C 
ENDROOT
BRANCH   1   2
ATOM      2  C   UNL     1     252.573 260.687 247.254  1.00  0.00     0.000 C 
BRANCH   2   3
ATOM      3  C   UNL     1     253.949 260.897 246.601  1.00  0.00     0.000 C 
BRANCH   3   4
ATOM      4  C   UNL     1     254.279 259.818 245.554  1.00  0.00     0.000 C 
BRANCH   4   5
ATOM      5  C   UNL     1     255.432 260.232 244.627  1.00  0.00     0.000 C 
BRANCH   5   6
ATOM      6  C   UNL     1     256.309 261.341 245.234  1.00  0.00     0.000 C 
BRANCH   6   7
ATOM      7  C   UNL     1     257.752 261.320 244.699  1.00  0.00     0.000 C 
BRANCH   7   8
ATOM      8  C   UNL     1     258.846 261.408 245.783  1.00  0.00     0.000 C 
BRANCH   8   9
ATOM      9  C   UNL     1     258.823 262.694 246.634  1.00  0.00     0.000 C 
BRANCH   9  10
ATOM     10  C   UNL     1     258.570 262.473 248.138  1.00  0.00     0.000 C 
BRANCH  10  11
ATOM     11  C   UNL     1     257.610 261.313 248.471  1.00  0.00     0.000 C 
BRANCH  11  12
ATOM     12  C   UNL     1     257.056 261.317 249.909  1.00  0.00     0.000 C 
BRANCH  12  13
ATOM     13  C   UNL     1     255.533 261.102 250.023  1.00  0.00     0.006 C 
BRANCH  13  14
ATOM     14  C   UNL     1     255.052 260.694 251.425  1.00  0.00     0.053 C 
BRANCH  14  15
ATOM     15  C   UNL     1     254.914 261.876 252.335  1.00  0.00     0.041 C 
ATOM     16  O   UNL     1     254.027 262.743 252.116  1.00  0.00    -0.550 OA
ATOM     17  O   UNL     1     255.798 262.049 253.391  1.00  0.00    -0.550 OA
ENDBRANCH  14  15
ENDBRANCH  13  14
ENDBRANCH  12  13
ENDBRANCH  11  12
ENDBRANCH  10  11
ENDBRANCH   9  10
ENDBRANCH   8   9
ENDBRANCH   7   8
ENDBRANCH   6   7
ENDBRANCH   5   6
ENDBRANCH   4   5
ENDBRANCH   3   4
ENDBRANCH   2   3
ENDBRANCH   1   2
BRANCH   1  18
ATOM     18  C   UNL     1     250.414 259.326 247.091  1.00  0.00     0.000 C 
BRANCH  18  19
ATOM     19  C   UNL     1     249.891 257.958 247.565  1.00  0.00     0.000 C 
BRANCH  19  20
ATOM     20  C   UNL     1     248.595 257.541 246.851  1.00  0.00     0.000 C 
BRANCH  20  21
ATOM     21  C   UNL     1     248.842 256.532 245.717  1.00  0.00     0.000 C 
BRANCH  21  22
ATOM     22  C   UNL     1     249.994 255.560 246.019  1.00  0.00     0.000 C 
BRANCH  22  23
ATOM     23  C   UNL     1     251.083 255.524 244.927  1.00  0.00     0.000 C 
BRANCH  23  24
ATOM     24  C   UNL     1     252.481 255.246 245.508  1.00  0.00    -0.000 C 
BRANCH  24  25
ATOM     25  C   UNL     1     252.604 255.662 246.983  1.00  0.00    -0.000 C 
BRANCH  25  26
ATOM     26  C   UNL     1     253.215 254.552 247.859  1.00  0.00    -0.000 C 
BRANCH  26  27
ATOM     27  C   UNL     1     254.623 254.133 247.384  1.00  0.00    -0.000 C 
BRANCH  27  28
ATOM     28  C   UNL     1     255.722 254.310 248.449  1.00  0.00    -0.000 C 
BRANCH  28  29
ATOM     29  C   UNL     1     255.221 254.720 249.844  1.00  0.00    -0.000 C 
BRANCH  29  30
ATOM     30  C   UNL     1     255.688 256.127 250.255  1.00  0.00    -0.000 C 
BRANCH  30  31
ATOM     31  C   UNL     1     254.738 257.227 249.756  1.00  0.00    -0.003 C 
ATOM     32  C   UNL     1     255.240 257.916 248.488  1.00  0.00     0.004 C 
ENDBRANCH  30  31
ENDBRANCH  29  30
ENDBRANCH  28  29
ENDBRANCH  27  28
ENDBRANCH  26  27
ENDBRANCH  25  26
ENDBRANCH  24  25
ENDBRANCH  23  24
ENDBRANCH  22  23
ENDBRANCH  21  22
ENDBRANCH  20  21
ENDBRANCH  19  20
ENDBRANCH  18  19
ENDBRANCH   1  18
TORSDOF 28
ENDMDL
MODEL 2
REMARK VINA RESULT:    -5.514      1.571      4.118
REMARK INTER + INTRA:         -18.713
REMARK INTER:                 -14.615
REMARK INTRA:                  -4.098
REMARK UNBOUND:                -4.174
REMARK SMILES CCCCCCCCCCCCCCCCCCCCCCCCCCCCCC(=O)[O-]
REMARK SMILES IDX 16 1 17 2 18 3 19 4 20 5 21 6 22 7 23 8 24 9 25 10 26 11
REMARK SMILES IDX 27 12 28 13 29 14 30 15 31 16 32 17 15 18 14 19 13 20 12 21
REMARK SMILES IDX 11 22 10 23 9 24 8 25 7 26 6 27 5 28 4 29 3 30 2 31 1 32
REMARK H PARENT
REMARK Flexibility Score: inf
ROOT
ATOM      1  C   UNL     1     256.590 261.416 246.236  1.00  0.00     0.000 C 
ENDROOT
BRANCH   1   2
ATOM      2  C   UNL     1     257.487 261.248 244.998  1.00  0.00     0.000 C 
BRANCH   2   3
ATOM      3  C   UNL     1     258.975 261.482 245.307  1.00  0.00     0.000 C 
BRANCH   3   4
ATOM      4  C   UNL     1     259.717 260.182 245.665  1.00  0.00     0.000 C 
BRANCH   4   5
ATOM      5  C   UNL     1     260.351 260.232 247.064  1.00  0.00     0.000 C 
BRANCH   5   6
ATOM      6  C   UNL     1     260.020 261.534 247.815  1.00  0.00     0.000 C 
BRANCH   6   7
ATOM      7  C   UNL     1     259.145 261.299 249.059  1.00  0.00     0.000 C 
BRANCH   7   8
ATOM      8  C   UNL     1     258.262 262.496 249.466  1.00  0.00     0.000 C 
BRANCH   8   9
ATOM      9  C   UNL     1     257.173 262.181 250.512  1.00  0.00     0.000 C 
BRANCH   9  10
ATOM     10  C   UNL     1     256.374 260.890 250.248  1.00  0.00     0.000 C 
BRANCH  10  11
ATOM     11  C   UNL     1     255.067 260.761 251.055  1.00  0.00     0.000 C 
BRANCH  11  12
ATOM     12  C   UNL     1     255.156 259.859 252.301  1.00  0.00     0.000 C 
BRANCH  12  13
ATOM     13  C   UNL     1     254.128 260.170 253.409  1.00  0.00     0.006 C 
BRANCH  13  14
ATOM     14  C   UNL     1     254.515 261.344 254.323  1.00  0.00     0.053 C 
BRANCH  14  15
ATOM     15  C   UNL     1     255.983 261.362 254.619  1.00  0.00     0.041 C 
ATOM     16  O   UNL     1     256.477 260.525 255.419  1.00  0.00    -0.550 OA
ATOM     17  O   UNL     1     256.795 262.337 254.056  1.00  0.00    -0.550 OA
ENDBRANCH  14  15
ENDBRANCH  13  14
ENDBRANCH  12  13
ENDBRANCH  11  12
ENDBRANCH  10  11
ENDBRANCH   9  10
ENDBRANCH   8   9
ENDBRANCH   7   8
ENDBRANCH   6   7
ENDBRANCH   5   6
ENDBRANCH   4   5
ENDBRANCH   3   4
ENDBRANCH   2   3
ENDBRANCH   1   2
BRANCH   1  18
ATOM     18  C   UNL     1     255.258 260.660 246.106  1.00  0.00     0.000 C 
BRANCH  18  19
ATOM     19  C   UNL     1     254.323 260.888 247.307  1.00  0.00     0.000 C 
BRANCH  19  20
ATOM     20  C   UNL     1     252.875 261.179 246.881  1.00  0.00     0.000 C 
BRANCH  20  21
ATOM     21  C   UNL     1     251.915 260.027 247.227  1.00  0.00     0.000 C 
BRANCH  21  22
ATOM     22  C   UNL     1     250.438 260.391 247.008  1.00  0.00     0.000 C 
BRANCH  22  23
ATOM     23  C   UNL     1     249.461 259.230 247.286  1.00  0.00     0.000 C 
BRANCH  23  24
ATOM     24  C   UNL     1     250.012 257.877 246.801  1.00  0.00    -0.000 C 
BRANCH  24  25
ATOM     25  C   UNL     1     250.074 256.825 247.921  1.00  0.00    -0.000 C 
BRANCH  25  26
ATOM     26  C   UNL     1     251.510 256.334 248.189  1.00  0.00    -0.000 C 
BRANCH  26  27
ATOM     27  C   UNL     1     252.388 256.357 246.919  1.00  0.00    -0.000 C 
BRANCH  27  28
ATOM     28  C   UNL     1     253.794 256.944 247.141  1.00  0.00    -0.000 C 
BRANCH  28  29
ATOM     29  C   UNL     1     254.085 257.422 248.573  1.00  0.00    -0.000 C 
BRANCH  29  30
ATOM     30  C   UNL     1     255.591 257.467 248.892  1.00  0.00    -0.000 C 
BRANCH  30  31
ATOM     31  C   UNL     1     256.082 256.181 249.574  1.00  0.00    -0.003 C 
ATOM     32  C   UNL     1     257.144 255.445 248.758  1.00  0.00     0.004 C 
ENDBRANCH  30  31
ENDBRANCH  29  30
ENDBRANCH  28  29
ENDBRANCH  27  28
ENDBRANCH  26  27
ENDBRANCH  25  26
ENDBRANCH  24  25
ENDBRANCH  23  24
ENDBRANCH  22  23
ENDBRANCH  21  22
ENDBRANCH  20  21
ENDBRANCH  19  20
ENDBRANCH  18  19
ENDBRANCH   1  18
TORSDOF 28
ENDMDL
MODEL 3
REMARK VINA RESULT:    -5.485      2.558      7.968
REMARK INTER + INTRA:         -18.637
REMARK INTER:                 -14.944
REMARK INTRA:                  -3.694
REMARK UNBOUND:                -4.174
REMARK SMILES CCCCCCCCCCCCCCCCCCCCCCCCCCCCCC(=O)[O-]
REMARK SMILES IDX 16 1 17 2 18 3 19 4 20 5 21 6 22 7 23 8 24 9 25 10 26 11
REMARK SMILES IDX 27 12 28 13 29 14 30 15 31 16 32 17 15 18 14 19 13 20 12 21
REMARK SMILES IDX 11 22 10 23 9 24 8 25 7 26 6 27 5 28 4 29 3 30 2 31 1 32
REMARK H PARENT
REMARK Flexibility Score: inf
ROOT
ATOM      1  C   UNL     1     253.758 260.652 246.448  1.00  0.00     0.000 C 
ENDROOT
BRANCH   1   2
ATOM      2  C   UNL     1     252.917 259.382 246.666  1.00  0.00     0.000 C 
BRANCH   2   3
ATOM      3  C   UNL     1     253.742 258.212 247.229  1.00  0.00     0.000 C 
BRANCH   3   4
ATOM      4  C   UNL     1     254.328 258.517 248.619  1.00  0.00     0.000 C 
BRANCH   4   5
ATOM      5  C   UNL     1     255.649 257.775 248.875  1.00  0.00     0.000 C 
BRANCH   5   6
ATOM      6  C   UNL     1     255.432 256.346 249.402  1.00  0.00     0.000 C 
BRANCH   6   7
ATOM      7  C   UNL     1     256.202 255.288 248.594  1.00  0.00     0.000 C 
BRANCH   7   8
ATOM      8  C   UNL     1     255.348 254.494 247.584  1.00  0.00     0.000 C 
BRANCH   8   9
ATOM      9  C   UNL     1     253.824 254.690 247.720  1.00  0.00     0.000 C 
BRANCH   9  10
ATOM     10  C   UNL     1     252.995 254.177 246.527  1.00  0.00     0.000 C 
BRANCH  10  11
ATOM     11  C   UNL     1     252.433 255.279 245.607  1.00  0.00     0.000 C 
BRANCH  11  12
ATOM     12  C   UNL     1     251.004 255.029 245.086  1.00  0.00     0.000 C 
BRANCH  12  13
ATOM     13  C   UNL     1     249.924 255.967 245.663  1.00  0.00     0.006 C 
BRANCH  13  14
ATOM     14  C   UNL     1     250.349 256.719 246.935  1.00  0.00     0.053 C 
BRANCH  14  15
ATOM     15  C   UNL     1     250.034 255.943 248.176  1.00  0.00     0.041 C 
ATOM     16  O   UNL     1     250.797 256.009 249.175  1.00  0.00    -0.550 OA
ATOM     17  O   UNL     1     248.929 255.103 248.211  1.00  0.00    -0.550 OA
ENDBRANCH  14  15
ENDBRANCH  13  14
ENDBRANCH  12  13
ENDBRANCH  11  12
ENDBRANCH  10  11
ENDBRANCH   9  10
ENDBRANCH   8   9
ENDBRANCH   7   8
ENDBRANCH   6   7
ENDBRANCH   5   6
ENDBRANCH   4   5
ENDBRANCH   3   4
ENDBRANCH   2   3
ENDBRANCH   1   2
BRANCH   1  18
ATOM     18  C   UNL     1     254.890 260.441 245.430  1.00  0.00     0.000 C 
BRANCH  18  19
ATOM     19  C   UNL     1     256.154 261.251 245.769  1.00  0.00     0.000 C 
BRANCH  19  20
ATOM     20  C   UNL     1     257.244 261.124 244.692  1.00  0.00     0.000 C 
BRANCH  20  21
ATOM     21  C   UNL     1     258.325 262.211 244.814  1.00  0.00     0.000 C 
BRANCH  21  22
ATOM     22  C   UNL     1     258.843 262.384 246.251  1.00  0.00     0.000 C 
BRANCH  22  23
ATOM     23  C   UNL     1     259.687 261.195 246.756  1.00  0.00     0.000 C 
BRANCH  23  24
ATOM     24  C   UNL     1     259.002 260.444 247.913  1.00  0.00    -0.000 C 
BRANCH  24  25
ATOM     25  C   UNL     1     258.447 261.391 248.989  1.00  0.00    -0.000 C 
BRANCH  25  26
ATOM     26  C   UNL     1     256.930 261.220 249.199  1.00  0.00    -0.000 C 
BRANCH  26  27
ATOM     27  C   UNL     1     256.494 261.549 250.643  1.00  0.00    -0.000 C 
BRANCH  27  28
ATOM     28  C   UNL     1     254.984 261.382 250.894  1.00  0.00    -0.000 C 
BRANCH  28  29
ATOM     29  C   UNL     1     254.401 262.281 251.998  1.00  0.00    -0.000 C 
BRANCH  29  30
ATOM     30  C   UNL     1     254.364 261.590 253.372  1.00  0.00    -0.000 C 
BRANCH  30  31
ATOM     31  C   UNL     1     255.494 262.068 254.297  1.00  0.00    -0.003 C 
ATOM     32  C   UNL     1     256.250 260.915 254.956  1.00  0.00     0.004 C 
ENDBRANCH  30  31
ENDBRANCH  29  30
ENDBRANCH  28  29
ENDBRANCH  27  28
ENDBRANCH  26  27
ENDBRANCH  25  26
ENDBRANCH  24  25
ENDBRANCH  23  24
ENDBRANCH  22  23
ENDBRANCH  21  22
ENDBRANCH  20  21
ENDBRANCH  19  20
ENDBRANCH  18  19
ENDBRANCH   1  18
TORSDOF 28
ENDMDL
MODEL 4
REMARK VINA RESULT:    -5.464      2.465      4.946
REMARK INTER + INTRA:         -18.581
REMARK INTER:                 -14.061
REMARK INTRA:                  -4.520
REMARK UNBOUND:                -4.174
REMARK SMILES CCCCCCCCCCCCCCCCCCCCCCCCCCCCCC(=O)[O-]
REMARK SMILES IDX 16 1 17 2 18 3 19 4 20 5 21 6 22 7 23 8 24 9 25 10 26 11
REMARK SMILES IDX 27 12 28 13 29 14 30 15 31 16 32 17 15 18 14 19 13 20 12 21
REMARK SMILES IDX 11 22 10 23 9 24 8 25 7 26 6 27 5 28 4 29 3 30 2 31 1 32
REMARK H PARENT
REMARK Flexibility Score: inf
ROOT
ATOM      1  C   UNL     1     249.166 255.252 246.600  1.00  0.00     0.000 C 
ENDROOT
BRANCH   1   2
ATOM      2  C   UNL     1     249.315 256.760 246.333  1.00  0.00     0.000 C 
BRANCH   2   3
ATOM      3  C   UNL     1     249.839 257.531 247.556  1.00  0.00     0.000 C 
BRANCH   3   4
ATOM      4  C   UNL     1     250.219 258.984 247.221  1.00  0.00     0.000 C 
BRANCH   4   5
ATOM      5  C   UNL     1     251.707 259.136 246.870  1.00  0.00     0.000 C 
BRANCH   5   6
ATOM      6  C   UNL     1     252.590 258.092 247.575  1.00  0.00     0.000 C 
BRANCH   6   7
ATOM      7  C   UNL     1     254.062 258.158 247.130  1.00  0.00     0.000 C 
BRANCH   7   8
ATOM      8  C   UNL     1     254.972 259.020 248.028  1.00  0.00     0.000 C 
BRANCH   8   9
ATOM      9  C   UNL     1     255.119 260.491 247.590  1.00  0.00     0.000 C 
BRANCH   9  10
ATOM     10  C   UNL     1     255.253 260.706 246.070  1.00  0.00     0.000 C 
BRANCH  10  11
ATOM     11  C   UNL     1     256.410 261.633 245.645  1.00  0.00     0.000 C 
BRANCH  11  12
ATOM     12  C   UNL     1     257.426 261.005 244.672  1.00  0.00     0.000 C 
BRANCH  12  13
ATOM     13  C   UNL     1     258.899 261.381 244.933  1.00  0.00     0.006 C 
BRANCH  13  14
ATOM     14  C   UNL     1     259.595 260.523 246.003  1.00  0.00     0.053 C 
BRANCH  14  15
ATOM     15  C   UNL     1     259.778 261.272 247.287  1.00  0.00     0.041 C 
ATOM     16  O   UNL     1     259.966 260.645 248.363  1.00  0.00    -0.550 OA
ATOM     17  O   UNL     1     259.686 262.656 247.306  1.00  0.00    -0.550 OA
ENDBRANCH  14  15
ENDBRANCH  13  14
ENDBRANCH  12  13
ENDBRANCH  11  12
ENDBRANCH  10  11
ENDBRANCH   9  10
ENDBRANCH   8   9
ENDBRANCH   7   8
ENDBRANCH   6   7
ENDBRANCH   5   6
ENDBRANCH   4   5
ENDBRANCH   3   4
ENDBRANCH   2   3
ENDBRANCH   1   2
BRANCH   1  18
ATOM     18  C   UNL     1     250.139 254.406 245.763  1.00  0.00     0.000 C 
BRANCH  18  19
ATOM     19  C   UNL     1     251.274 255.242 245.145  1.00  0.00     0.000 C 
BRANCH  19  20
ATOM     20  C   UNL     1     252.634 254.976 245.811  1.00  0.00     0.000 C 
BRANCH  20  21
ATOM     21  C   UNL     1     252.561 253.877 246.885  1.00  0.00     0.000 C 
BRANCH  21  22
ATOM     22  C   UNL     1     252.698 254.425 248.314  1.00  0.00     0.000 C 
BRANCH  22  23
ATOM     23  C   UNL     1     252.805 253.329 249.395  1.00  0.00     0.000 C 
BRANCH  23  24
ATOM     24  C   UNL     1     253.924 252.317 249.089  1.00  0.00    -0.000 C 
BRANCH  24  25
ATOM     25  C   UNL     1     254.499 251.666 250.357  1.00  0.00    -0.000 C 
BRANCH  25  26
ATOM     26  C   UNL     1     254.655 252.669 251.516  1.00  0.00    -0.000 C 
BRANCH  26  27
ATOM     27  C   UNL     1     256.132 253.022 251.795  1.00  0.00    -0.000 C 
BRANCH  27  28
ATOM     28  C   UNL     1     256.409 254.535 251.882  1.00  0.00    -0.000 C 
BRANCH  28  29
ATOM     29  C   UNL     1     255.233 255.439 251.476  1.00  0.00    -0.000 C 
BRANCH  29  30
ATOM     30  C   UNL     1     255.364 255.978 250.040  1.00  0.00    -0.000 C 
BRANCH  30  31
ATOM     31  C   UNL     1     256.676 255.540 249.369  1.00  0.00    -0.003 C 
ATOM     32  C   UNL     1     256.454 254.862 248.018  1.00  0.00     0.004 C 
ENDBRANCH  30  31
ENDBRANCH  29  30
ENDBRANCH  28  29
ENDBRANCH  27  28
ENDBRANCH  26  27
ENDBRANCH  25  26
ENDBRANCH  24  25
ENDBRANCH  23  24
ENDBRANCH  22  23
ENDBRANCH  21  22
ENDBRANCH  20  21
ENDBRANCH  19  20
ENDBRANCH  18  19
ENDBRANCH   1  18
TORSDOF 28
ENDMDL
MODEL 5
REMARK VINA RESULT:    -5.463      3.098      7.607
REMARK INTER + INTRA:         -18.579
REMARK INTER:                 -12.904
REMARK INTRA:                  -5.675
REMARK UNBOUND:                -4.174
REMARK SMILES CCCCCCCCCCCCCCCCCCCCCCCCCCCCCC(=O)[O-]
REMARK SMILES IDX 16 1 17 2 18 3 19 4 20 5 21 6 22 7 23 8 24 9 25 10 26 11
REMARK SMILES IDX 27 12 28 13 29 14 30 15 31 16 32 17 15 18 14 19 13 20 12 21
REMARK SMILES IDX 11 22 10 23 9 24 8 25 7 26 6 27 5 28 4 29 3 30 2 31 1 32
REMARK H PARENT
REMARK Flexibility Score: inf
ROOT
ATOM      1  C   UNL     1     251.110 259.063 247.044  1.00  0.00     0.000 C 
ENDROOT
BRANCH   1   2
ATOM      2  C   UNL     1     249.586 258.850 247.036  1.00  0.00     0.000 C 
BRANCH   2   3
ATOM      3  C   UNL     1     249.179 257.490 246.443  1.00  0.00     0.000 C 
BRANCH   3   4
ATOM      4  C   UNL     1     247.825 256.994 246.978  1.00  0.00     0.000 C 
BRANCH   4   5
ATOM      5  C   UNL     1     247.713 255.461 246.962  1.00  0.00     0.000 C 
BRANCH   5   6
ATOM      6  C   UNL     1     248.991 254.770 247.467  1.00  0.00     0.000 C 
BRANCH   6   7
ATOM      7  C   UNL     1     249.564 253.762 246.456  1.00  0.00     0.000 C 
BRANCH   7   8
ATOM      8  C   UNL     1     249.459 252.284 246.884  1.00  0.00     0.000 C 
BRANCH   8   9
ATOM      9  C   UNL     1     250.803 251.595 247.195  1.00  0.00     0.000 C 
BRANCH   9  10
ATOM     10  C   UNL     1     251.573 252.183 248.394  1.00  0.00     0.000 C 
BRANCH  10  11
ATOM     11  C   UNL     1     250.918 251.938 249.768  1.00  0.00     0.000 C 
BRANCH  11  12
ATOM     12  C   UNL     1     250.993 253.126 250.747  1.00  0.00     0.000 C 
BRANCH  12  13
ATOM     13  C   UNL     1     252.239 254.022 250.594  1.00  0.00     0.006 C 
BRANCH  13  14
ATOM     14  C   UNL     1     253.156 254.052 251.828  1.00  0.00     0.053 C 
BRANCH  14  15
ATOM     15  C   UNL     1     254.357 253.175 251.654  1.00  0.00     0.041 C 
ATOM     16  O   UNL     1     255.421 253.429 252.277  1.00  0.00    -0.550 OA
ATOM     17  O   UNL     1     254.320 252.111 250.764  1.00  0.00    -0.550 OA
ENDBRANCH  14  15
ENDBRANCH  13  14
ENDBRANCH  12  13
ENDBRANCH  11  12
ENDBRANCH  10  11
ENDBRANCH   9  10
ENDBRANCH   8   9
ENDBRANCH   7   8
ENDBRANCH   6   7
ENDBRANCH   5   6
ENDBRANCH   4   5
ENDBRANCH   3   4
ENDBRANCH   2   3
ENDBRANCH   1   2
BRANCH   1  18
ATOM     18  C   UNL     1     251.856 257.946 247.791  1.00  0.00     0.000 C 
BRANCH  18  19
ATOM     19  C   UNL     1     252.676 257.045 246.851  1.00  0.00     0.000 C 
BRANCH  19  20
ATOM     20  C   UNL     1     252.621 255.563 247.256  1.00  0.00     0.000 C 
BRANCH  20  21
ATOM     21  C   UNL     1     253.280 254.640 246.216  1.00  0.00     0.000 C 
BRANCH  21  22
ATOM     22  C   UNL     1     254.416 253.789 246.803  1.00  0.00     0.000 C 
BRANCH  22  23
ATOM     23  C   UNL     1     254.958 254.316 248.149  1.00  0.00     0.000 C 
BRANCH  23  24
ATOM     24  C   UNL     1     256.267 255.109 247.979  1.00  0.00    -0.000 C 
BRANCH  24  25
ATOM     25  C   UNL     1     256.337 256.340 248.896  1.00  0.00    -0.000 C 
BRANCH  25  26
ATOM     26  C   UNL     1     255.045 256.544 249.710  1.00  0.00    -0.000 C 
BRANCH  26  27
ATOM     27  C   UNL     1     254.819 258.021 250.098  1.00  0.00    -0.000 C 
BRANCH  27  28
ATOM     28  C   UNL     1     255.537 259.027 249.178  1.00  0.00    -0.000 C 
BRANCH  28  29
ATOM     29  C   UNL     1     254.884 260.417 249.093  1.00  0.00    -0.000 C 
BRANCH  29  30
ATOM     30  C   UNL     1     254.298 260.715 247.702  1.00  0.00    -0.000 C 
BRANCH  30  31
ATOM     31  C   UNL     1     255.023 259.947 246.586  1.00  0.00    -0.003 C 
ATOM     32  C   UNL     1     254.464 260.252 245.196  1.00  0.00     0.004 C 
ENDBRANCH  30  31
ENDBRANCH  29  30
ENDBRANCH  28  29
ENDBRANCH  27  28
ENDBRANCH  26  27
ENDBRANCH  25  26
ENDBRANCH  24  25
ENDBRANCH  23  24
ENDBRANCH  22  23
ENDBRANCH  21  22
ENDBRANCH  20  21
ENDBRANCH  19  20
ENDBRANCH  18  19
ENDBRANCH   1  18
TORSDOF 28
ENDMDL
MODEL 6
REMARK VINA RESULT:    -5.453      2.462      5.568
REMARK INTER + INTRA:         -18.553
REMARK INTER:                 -13.795
REMARK INTRA:                  -4.758
REMARK UNBOUND:                -4.174
REMARK SMILES CCCCCCCCCCCCCCCCCCCCCCCCCCCCCC(=O)[O-]
REMARK SMILES IDX 16 1 17 2 18 3 19 4 20 5 21 6 22 7 23 8 24 9 25 10 26 11
REMARK SMILES IDX 27 12 28 13 29 14 30 15 31 16 32 17 15 18 14 19 13 20 12 21
REMARK SMILES IDX 11 22 10 23 9 24 8 25 7 26 6 27 5 28 4 29 3 30 2 31 1 32
REMARK H PARENT
REMARK Flexibility Score: inf
ROOT
ATOM      1  C   UNL     1     256.122 261.230 245.374  1.00  0.00     0.000 C 
ENDROOT
BRANCH   1   2
ATOM      2  C   UNL     1     257.520 261.260 244.733  1.00  0.00     0.000 C 
BRANCH   2   3
ATOM      3  C   UNL     1     258.598 261.809 245.683  1.00  0.00     0.000 C 
BRANCH   3   4
ATOM      4  C   UNL     1     259.423 260.694 246.348  1.00  0.00     0.000 C 
BRANCH   4   5
ATOM      5  C   UNL     1     259.105 260.538 247.843  1.00  0.00     0.000 C 
BRANCH   5   6
ATOM      6  C   UNL     1     258.301 261.726 248.402  1.00  0.00     0.000 C 
BRANCH   6   7
ATOM      7  C   UNL     1     257.094 261.284 249.247  1.00  0.00     0.000 C 
BRANCH   7   8
ATOM      8  C   UNL     1     256.395 260.000 248.757  1.00  0.00     0.000 C 
BRANCH   8   9
ATOM      9  C   UNL     1     255.142 259.590 249.558  1.00  0.00     0.000 C 
BRANCH   9  10
ATOM     10  C   UNL     1     254.474 258.281 249.094  1.00  0.00     0.000 C 
BRANCH  10  11
ATOM     11  C   UNL     1     255.270 256.999 249.411  1.00  0.00     0.000 C 
BRANCH  11  12
ATOM     12  C   UNL     1     254.868 256.288 250.719  1.00  0.00     0.000 C 
BRANCH  12  13
ATOM     13  C   UNL     1     255.104 254.764 250.733  1.00  0.00     0.006 C 
BRANCH  13  14
ATOM     14  C   UNL     1     256.387 254.327 251.459  1.00  0.00     0.053 C 
BRANCH  14  15
ATOM     15  C   UNL     1     256.091 253.687 252.781  1.00  0.00     0.041 C 
ATOM     16  O   UNL     1     255.209 252.793 252.868  1.00  0.00    -0.550 OA
ATOM     17  O   UNL     1     256.749 254.117 253.925  1.00  0.00    -0.550 OA
ENDBRANCH  14  15
ENDBRANCH  13  14
ENDBRANCH  12  13
ENDBRANCH  11  12
ENDBRANCH  10  11
ENDBRANCH   9  10
ENDBRANCH   8   9
ENDBRANCH   7   8
ENDBRANCH   6   7
ENDBRANCH   5   6
ENDBRANCH   4   5
ENDBRANCH   3   4
ENDBRANCH   2   3
ENDBRANCH   1   2
BRANCH   1  18
ATOM     18  C   UNL     1     255.230 260.123 244.789  1.00  0.00     0.000 C 
BRANCH  18  19
ATOM     19  C   UNL     1     254.075 259.731 245.728  1.00  0.00     0.000 C 
BRANCH  19  20
ATOM     20  C   UNL     1     253.559 260.918 246.558  1.00  0.00     0.000 C 
BRANCH  20  21
ATOM     21  C   UNL     1     252.170 260.655 247.166  1.00  0.00     0.000 C 
BRANCH  21  22
ATOM     22  C   UNL     1     251.644 259.242 246.871  1.00  0.00     0.000 C 
BRANCH  22  23
ATOM     23  C   UNL     1     250.327 258.902 247.600  1.00  0.00     0.000 C 
BRANCH  23  24
ATOM     24  C   UNL     1     249.224 258.446 246.627  1.00  0.00    -0.000 C 
BRANCH  24  25
ATOM     25  C   UNL     1     248.389 257.280 247.181  1.00  0.00    -0.000 C 
BRANCH  25  26
ATOM     26  C   UNL     1     248.749 255.933 246.526  1.00  0.00    -0.000 C 
BRANCH  26  27
ATOM     27  C   UNL     1     249.798 256.085 245.404  1.00  0.00    -0.000 C 
BRANCH  27  28
ATOM     28  C   UNL     1     250.759 254.888 245.279  1.00  0.00    -0.000 C 
BRANCH  28  29
ATOM     29  C   UNL     1     252.253 255.233 245.399  1.00  0.00    -0.000 C 
BRANCH  29  30
ATOM     30  C   UNL     1     252.587 255.992 246.695  1.00  0.00    -0.000 C 
BRANCH  30  31
ATOM     31  C   UNL     1     252.500 255.092 247.938  1.00  0.00    -0.003 C 
ATOM     32  C   UNL     1     251.535 255.630 248.993  1.00  0.00     0.004 C 
ENDBRANCH  30  31
ENDBRANCH  29  30
ENDBRANCH  28  29
ENDBRANCH  27  28
ENDBRANCH  26  27
ENDBRANCH  25  26
ENDBRANCH  24  25
ENDBRANCH  23  24
ENDBRANCH  22  23
ENDBRANCH  21  22
ENDBRANCH  20  21
ENDBRANCH  19  20
ENDBRANCH  18  19
ENDBRANCH   1  18
TORSDOF 28
ENDMDL
MODEL 7
REMARK VINA RESULT:    -5.430      2.450      7.476
REMARK INTER + INTRA:         -18.492
REMARK INTER:                 -13.997
REMARK INTRA:                  -4.496
REMARK UNBOUND:                -4.174
REMARK SMILES CCCCCCCCCCCCCCCCCCCCCCCCCCCCCC(=O)[O-]
REMARK SMILES IDX 16 1 17 2 18 3 19 4 20 5 21 6 22 7 23 8 24 9 25 10 26 11
REMARK SMILES IDX 27 12 28 13 29 14 30 15 31 16 32 17 15 18 14 19 13 20 12 21
REMARK SMILES IDX 11 22 10 23 9 24 8 25 7 26 6 27 5 28 4 29 3 30 2 31 1 32
REMARK H PARENT
REMARK Flexibility Score: inf
ROOT
ATOM      1  C   UNL     1     251.875 259.905 247.163  1.00  0.00     0.000 C 
ENDROOT
BRANCH   1   2
ATOM      2  C   UNL     1     251.870 258.367 247.171  1.00  0.00     0.000 C 
BRANCH   2   3
ATOM      3  C   UNL     1     250.521 257.779 247.618  1.00  0.00     0.000 C 
BRANCH   3   4
ATOM      4  C   UNL     1     249.400 258.027 246.593  1.00  0.00     0.000 C 
BRANCH   4   5
ATOM      5  C   UNL     1     248.880 256.724 245.965  1.00  0.00     0.000 C 
BRANCH   5   6
ATOM      6  C   UNL     1     249.403 255.470 246.687  1.00  0.00     0.000 C 
BRANCH   6   7
ATOM      7  C   UNL     1     250.148 254.507 245.746  1.00  0.00     0.000 C 
BRANCH   7   8
ATOM      8  C   UNL     1     251.325 255.137 244.973  1.00  0.00     0.000 C 
BRANCH   8   9
ATOM      9  C   UNL     1     252.628 255.298 245.782  1.00  0.00     0.000 C 
BRANCH   9  10
ATOM     10  C   UNL     1     252.971 254.111 246.704  1.00  0.00     0.000 C 
BRANCH  10  11
ATOM     11  C   UNL     1     252.684 254.348 248.200  1.00  0.00     0.000 C 
BRANCH  11  12
ATOM     12  C   UNL     1     252.092 253.139 248.950  1.00  0.00     0.000 C 
BRANCH  12  13
ATOM     13  C   UNL     1     253.121 252.267 249.699  1.00  0.00     0.006 C 
BRANCH  13  14
ATOM     14  C   UNL     1     254.477 252.950 249.942  1.00  0.00     0.053 C 
BRANCH  14  15
ATOM     15  C   UNL     1     254.598 253.472 251.340  1.00  0.00     0.041 C 
ATOM     16  O   UNL     1     253.991 254.522 251.678  1.00  0.00    -0.550 OA
ATOM     17  O   UNL     1     255.423 252.831 252.254  1.00  0.00    -0.550 OA
ENDBRANCH  14  15
ENDBRANCH  13  14
ENDBRANCH  12  13
ENDBRANCH  11  12
ENDBRANCH  10  11
ENDBRANCH   9  10
ENDBRANCH   8   9
ENDBRANCH   7   8
ENDBRANCH   6   7
ENDBRANCH   5   6
ENDBRANCH   4   5
ENDBRANCH   3   4
ENDBRANCH   2   3
ENDBRANCH   1   2
BRANCH   1  18
ATOM     18  C   UNL     1     253.248 260.488 246.795  1.00  0.00     0.000 C 
BRANCH  18  19
ATOM     19  C   UNL     1     254.110 259.511 245.976  1.00  0.00     0.000 C 
BRANCH  19  20
ATOM     20  C   UNL     1     255.014 260.228 244.961  1.00  0.00     0.000 C 
BRANCH  20  21
ATOM     21  C   UNL     1     255.970 261.233 245.626  1.00  0.00     0.000 C 
BRANCH  21  22
ATOM     22  C   UNL     1     257.360 261.263 244.971  1.00  0.00     0.000 C 
BRANCH  22  23
ATOM     23  C   UNL     1     258.525 261.324 245.982  1.00  0.00     0.000 C 
BRANCH  23  24
ATOM     24  C   UNL     1     258.108 260.834 247.381  1.00  0.00    -0.000 C 
BRANCH  24  25
ATOM     25  C   UNL     1     258.119 261.958 248.430  1.00  0.00    -0.000 C 
BRANCH  25  26
ATOM     26  C   UNL     1     257.240 261.630 249.653  1.00  0.00    -0.000 C 
BRANCH  26  27
ATOM     27  C   UNL     1     255.943 260.888 249.265  1.00  0.00    -0.000 C 
BRANCH  27  28
ATOM     28  C   UNL     1     255.642 259.656 250.138  1.00  0.00    -0.000 C 
BRANCH  28  29
ATOM     29  C   UNL     1     254.670 258.637 249.520  1.00  0.00    -0.000 C 
BRANCH  29  30
ATOM     30  C   UNL     1     255.090 257.179 249.781  1.00  0.00    -0.000 C 
BRANCH  30  31
ATOM     31  C   UNL     1     255.545 256.464 248.499  1.00  0.00    -0.003 C 
ATOM     32  C   UNL     1     256.819 255.643 248.699  1.00  0.00     0.004 C 
ENDBRANCH  30  31
ENDBRANCH  29  30
ENDBRANCH  28  29
ENDBRANCH  27  28
ENDBRANCH  26  27
ENDBRANCH  25  26
ENDBRANCH  24  25
ENDBRANCH  23  24
ENDBRANCH  22  23
ENDBRANCH  21  22
ENDBRANCH  20  21
ENDBRANCH  19  20
ENDBRANCH  18  19
ENDBRANCH   1  18
TORSDOF 28
ENDMDL
MODEL 8
REMARK VINA RESULT:    -5.405      1.298      4.112
REMARK INTER + INTRA:         -18.426
REMARK INTER:                 -14.335
REMARK INTRA:                  -4.091
REMARK UNBOUND:                -4.174
REMARK SMILES CCCCCCCCCCCCCCCCCCCCCCCCCCCCCC(=O)[O-]
REMARK SMILES IDX 16 1 17 2 18 3 19 4 20 5 21 6 22 7 23 8 24 9 25 10 26 11
REMARK SMILES IDX 27 12 28 13 29 14 30 15 31 16 32 17 15 18 14 19 13 20 12 21
REMARK SMILES IDX 11 22 10 23 9 24 8 25 7 26 6 27 5 28 4 29 3 30 2 31 1 32
REMARK H PARENT
REMARK Flexibility Score: inf
ROOT
ATOM      1  C   UNL     1     253.660 259.388 246.648  1.00  0.00     0.000 C 
ENDROOT
BRANCH   1   2
ATOM      2  C   UNL     1     254.492 259.775 245.413  1.00  0.00     0.000 C 
BRANCH   2   3
ATOM      3  C   UNL     1     255.583 260.811 245.733  1.00  0.00     0.000 C 
BRANCH   3   4
ATOM      4  C   UNL     1     256.657 260.897 244.634  1.00  0.00     0.000 C 
BRANCH   4   5
ATOM      5  C   UNL     1     258.028 261.320 245.184  1.00  0.00     0.000 C 
BRANCH   5   6
ATOM      6  C   UNL     1     258.168 262.847 245.309  1.00  0.00     0.000 C 
BRANCH   6   7
ATOM      7  C   UNL     1     258.604 263.294 246.715  1.00  0.00     0.000 C 
BRANCH   7   8
ATOM      8  C   UNL     1     258.809 262.146 247.725  1.00  0.00     0.000 C 
BRANCH   8   9
ATOM      9  C   UNL     1     258.731 262.558 249.209  1.00  0.00     0.000 C 
BRANCH   9  10
ATOM     10  C   UNL     1     257.528 261.982 249.981  1.00  0.00     0.000 C 
BRANCH  10  11
ATOM     11  C   UNL     1     256.681 260.963 249.194  1.00  0.00     0.000 C 
BRANCH  11  12
ATOM     12  C   UNL     1     255.202 260.875 249.622  1.00  0.00     0.000 C 
BRANCH  12  13
ATOM     13  C   UNL     1     254.952 261.002 251.138  1.00  0.00     0.006 C 
BRANCH  13  14
ATOM     14  C   UNL     1     255.128 259.692 251.924  1.00  0.00     0.053 C 
BRANCH  14  15
ATOM     15  C   UNL     1     254.679 259.827 253.346  1.00  0.00     0.041 C 
ATOM     16  O   UNL     1     253.627 260.463 253.619  1.00  0.00    -0.550 OA
ATOM     17  O   UNL     1     255.449 259.300 254.373  1.00  0.00    -0.550 OA
ENDBRANCH  14  15
ENDBRANCH  13  14
ENDBRANCH  12  13
ENDBRANCH  11  12
ENDBRANCH  10  11
ENDBRANCH   9  10
ENDBRANCH   8   9
ENDBRANCH   7   8
ENDBRANCH   6   7
ENDBRANCH   5   6
ENDBRANCH   4   5
ENDBRANCH   3   4
ENDBRANCH   2   3
ENDBRANCH   1   2
BRANCH   1  18
ATOM     18  C   UNL     1     253.734 257.885 246.960  1.00  0.00     0.000 C 
BRANCH  18  19
ATOM     19  C   UNL     1     253.528 257.577 248.454  1.00  0.00     0.000 C 
BRANCH  19  20
ATOM     20  C   UNL     1     254.837 257.199 249.166  1.00  0.00     0.000 C 
BRANCH  20  21
ATOM     21  C   UNL     1     255.756 256.329 248.291  1.00  0.00     0.000 C 
BRANCH  21  22
ATOM     22  C   UNL     1     256.022 254.941 248.895  1.00  0.00     0.000 C 
BRANCH  22  23
ATOM     23  C   UNL     1     254.978 253.877 248.498  1.00  0.00     0.000 C 
BRANCH  23  24
ATOM     24  C   UNL     1     254.388 254.133 247.100  1.00  0.00    -0.000 C 
BRANCH  24  25
ATOM     25  C   UNL     1     252.852 254.061 247.081  1.00  0.00    -0.000 C 
BRANCH  25  26
ATOM     26  C   UNL     1     252.238 254.867 245.921  1.00  0.00    -0.000 C 
BRANCH  26  27
ATOM     27  C   UNL     1     250.706 254.698 245.831  1.00  0.00    -0.000 C 
BRANCH  27  28
ATOM     28  C   UNL     1     249.942 256.017 245.615  1.00  0.00    -0.000 C 
BRANCH  28  29
ATOM     29  C   UNL     1     249.824 256.916 246.857  1.00  0.00    -0.000 C 
BRANCH  29  30
ATOM     30  C   UNL     1     250.235 258.373 246.580  1.00  0.00    -0.000 C 
BRANCH  30  31
ATOM     31  C   UNL     1     249.370 259.381 247.353  1.00  0.00    -0.003 C 
ATOM     32  C   UNL     1     249.685 260.832 246.992  1.00  0.00     0.004 C 
ENDBRANCH  30  31
ENDBRANCH  29  30
ENDBRANCH  28  29
ENDBRANCH  27  28
ENDBRANCH  26  27
ENDBRANCH  25  26
ENDBRANCH  24  25
ENDBRANCH  23  24
ENDBRANCH  22  23
ENDBRANCH  21  22
ENDBRANCH  20  21
ENDBRANCH  19  20
ENDBRANCH  18  19
ENDBRANCH   1  18
TORSDOF 28
ENDMDL
MODEL 9
REMARK VINA RESULT:    -5.388      3.131      6.185
REMARK INTER + INTRA:         -18.380
REMARK INTER:                 -12.319
REMARK INTRA:                  -6.061
REMARK UNBOUND:                -4.174
REMARK SMILES CCCCCCCCCCCCCCCCCCCCCCCCCCCCCC(=O)[O-]
REMARK SMILES IDX 16 1 17 2 18 3 19 4 20 5 21 6 22 7 23 8 24 9 25 10 26 11
REMARK SMILES IDX 27 12 28 13 29 14 30 15 31 16 32 17 15 18 14 19 13 20 12 21
REMARK SMILES IDX 11 22 10 23 9 24 8 25 7 26 6 27 5 28 4 29 3 30 2 31 1 32
REMARK H PARENT
REMARK Flexibility Score: inf
ROOT
ATOM      1  C   UNL     1     252.410 259.670 246.879  1.00  0.00     0.000 C 
ENDROOT
BRANCH   1   2
ATOM      2  C   UNL     1     253.753 259.819 246.143  1.00  0.00     0.000 C 
BRANCH   2   3
ATOM      3  C   UNL     1     254.689 260.837 246.815  1.00  0.00     0.000 C 
BRANCH   3   4
ATOM      4  C   UNL     1     254.534 260.862 248.346  1.00  0.00     0.000 C 
BRANCH   4   5
ATOM      5  C   UNL     1     255.706 260.177 249.066  1.00  0.00     0.000 C 
BRANCH   5   6
ATOM      6  C   UNL     1     255.617 258.642 249.012  1.00  0.00     0.000 C 
BRANCH   6   7
ATOM      7  C   UNL     1     254.845 258.047 250.202  1.00  0.00     0.000 C 
BRANCH   7   8
ATOM      8  C   UNL     1     254.634 256.520 250.139  1.00  0.00     0.000 C 
BRANCH   8   9
ATOM      9  C   UNL     1     255.605 255.689 251.001  1.00  0.00     0.000 C 
BRANCH   9  10
ATOM     10  C   UNL     1     256.387 254.603 250.236  1.00  0.00     0.000 C 
BRANCH  10  11
ATOM     11  C   UNL     1     255.764 254.182 248.890  1.00  0.00     0.000 C 
BRANCH  11  12
ATOM     12  C   UNL     1     254.809 252.975 248.963  1.00  0.00     0.000 C 
BRANCH  12  13
ATOM     13  C   UNL     1     255.147 251.938 250.054  1.00  0.00     0.006 C 
BRANCH  13  14
ATOM     14  C   UNL     1     253.990 251.629 251.018  1.00  0.00     0.053 C 
BRANCH  14  15
ATOM     15  C   UNL     1     254.005 252.528 252.216  1.00  0.00     0.041 C 
ATOM     16  O   UNL     1     255.055 252.653 252.899  1.00  0.00    -0.550 OA
ATOM     17  O   UNL     1     252.847 253.183 252.610  1.00  0.00    -0.550 OA
ENDBRANCH  14  15
ENDBRANCH  13  14
ENDBRANCH  12  13
ENDBRANCH  11  12
ENDBRANCH  10  11
ENDBRANCH   9  10
ENDBRANCH   8   9
ENDBRANCH   7   8
ENDBRANCH   6   7
ENDBRANCH   5   6
ENDBRANCH   4   5
ENDBRANCH   3   4
ENDBRANCH   2   3
ENDBRANCH   1   2
BRANCH   1  18
ATOM     18  C   UNL     1     252.097 258.209 247.242  1.00  0.00     0.000 C 
BRANCH  18  19
ATOM     19  C   UNL     1     253.131 257.220 246.677  1.00  0.00     0.000 C 
BRANCH  19  20
ATOM     20  C   UNL     1     252.952 255.797 247.230  1.00  0.00     0.000 C 
BRANCH  20  21
ATOM     21  C   UNL     1     252.690 254.760 246.124  1.00  0.00     0.000 C 
BRANCH  21  22
ATOM     22  C   UNL     1     251.634 255.222 245.108  1.00  0.00     0.000 C 
BRANCH  22  23
ATOM     23  C   UNL     1     250.180 254.974 245.563  1.00  0.00     0.000 C 
BRANCH  23  24
ATOM     24  C   UNL     1     249.355 256.273 245.611  1.00  0.00    -0.000 C 
BRANCH  24  25
ATOM     25  C   UNL     1     248.814 256.580 247.017  1.00  0.00    -0.000 C 
BRANCH  25  26
ATOM     26  C   UNL     1     249.009 255.404 247.993  1.00  0.00    -0.000 C 
BRANCH  26  27
ATOM     27  C   UNL     1     249.943 255.764 249.169  1.00  0.00    -0.000 C 
BRANCH  27  28
ATOM     28  C   UNL     1     250.297 254.569 250.075  1.00  0.00    -0.000 C 
BRANCH  28  29
ATOM     29  C   UNL     1     251.332 253.591 249.493  1.00  0.00    -0.000 C 
BRANCH  29  30
ATOM     30  C   UNL     1     250.752 252.186 249.250  1.00  0.00    -0.000 C 
BRANCH  30  31
ATOM     31  C   UNL     1     250.402 251.946 247.773  1.00  0.00    -0.003 C 
ATOM     32  C   UNL     1     251.572 251.379 246.970  1.00  0.00     0.004 C 
ENDBRANCH  30  31
ENDBRANCH  29  30
ENDBRANCH  28  29
ENDBRANCH  27  28
ENDBRANCH  26  27
ENDBRANCH  25  26
ENDBRANCH  24  25
ENDBRANCH  23  24
ENDBRANCH  22  23
ENDBRANCH  21  22
ENDBRANCH  20  21
ENDBRANCH  19  20
ENDBRANCH  18  19
ENDBRANCH   1  18
TORSDOF 28
ENDMDL
