MODEL 1
REMARK VINA RESULT:    -3.161      0.000      0.000
REMARK INTER + INTRA:         -11.289
REMARK INTER:                  -7.225
REMARK INTRA:                  -4.064
REMARK UNBOUND:                -4.064
REMARK SMILES CCCCCCCCCCCCCCCCCCCCCCCC(=O)[O-]
REMARK SMILES IDX 13 1 14 2 15 3 16 4 17 5 18 6 19 7 20 8 21 9 22 10 23 11
REMARK SMILES IDX 24 12 25 13 26 14 12 15 11 16 10 17 9 18 8 19 7 20 6 21 5 22
REMARK SMILES IDX 4 23 3 24 2 25 1 26
REMARK H PARENT
REMARK Flexibility Score: inf
ROOT
ATOM      1  C   UNL     1      63.673  30.492  61.167  1.00  0.00     0.000 C 
ENDROOT
BRANCH   1   2
ATOM      2  C   UNL     1      64.719  30.056  60.122  1.00  0.00     0.000 C 
BRANCH   2   3
ATOM      3  C   UNL     1      64.580  30.719  58.735  1.00  0.00     0.000 C 
BRANCH   3   4
ATOM      4  C   UNL     1      64.144  29.770  57.605  1.00  0.00     0.000 C 
BRANCH   4   5
ATOM      5  C   UNL     1      62.815  30.185  56.960  1.00  0.00     0.000 C 
BRANCH   5   6
ATOM      6  C   UNL     1      61.845  28.995  56.895  1.00  0.00     0.000 C 
BRANCH   6   7
ATOM      7  C   UNL     1      62.013  28.031  58.081  1.00  0.00     0.000 C 
BRANCH   7   8
ATOM      8  C   UNL     1      60.662  27.523  58.616  1.00  0.00     0.000 C 
BRANCH   8   9
ATOM      9  C   UNL     1      60.816  26.587  59.826  1.00  0.00     0.000 C 
BRANCH   9  10
ATOM     10  C   UNL     1      59.673  26.736  60.842  1.00  0.00     0.006 C 
BRANCH  10  11
ATOM     11  C   UNL     1      58.746  27.895  60.459  1.00  0.00     0.053 C 
BRANCH  11  12
ATOM     12  C   UNL     1      57.318  27.534  60.719  1.00  0.00     0.041 C 
ATOM     13  O   UNL     1      57.030  26.677  61.594  1.00  0.00    -0.550 OA
ATOM     14  O   UNL     1      56.306  28.116  59.965  1.00  0.00    -0.550 OA
ENDBRANCH  11  12
ENDBRANCH  10  11
ENDBRANCH   9  10
ENDBRANCH   8   9
ENDBRANCH   7   8
ENDBRANCH   6   7
ENDBRANCH   5   6
ENDBRANCH   4   5
ENDBRANCH   3   4
ENDBRANCH   2   3
ENDBRANCH   1   2
BRANCH   1  15
ATOM     15  C   UNL     1      62.504  29.510  61.364  1.00  0.00     0.000 C 
BRANCH  15  16
ATOM     16  C   UNL     1      61.159  30.222  61.580  1.00  0.00     0.000 C 
BRANCH  16  17
ATOM     17  C   UNL     1      61.044  31.519  60.763  1.00  0.00     0.000 C 
BRANCH  17  18
ATOM     18  C   UNL     1      60.400  31.290  59.385  1.00  0.00    -0.000 C 
BRANCH  18  19
ATOM     19  C   UNL     1      60.418  32.547  58.497  1.00  0.00    -0.000 C 
BRANCH  19  20
ATOM     20  C   UNL     1      61.637  33.467  58.691  1.00  0.00    -0.000 C 
BRANCH  20  21
ATOM     21  C   UNL     1      61.287  34.781  59.412  1.00  0.00    -0.000 C 
BRANCH  21  22
ATOM     22  C   UNL     1      62.179  35.047  60.639  1.00  0.00    -0.000 C 
BRANCH  22  23
ATOM     23  C   UNL     1      63.518  34.287  60.655  1.00  0.00    -0.000 C 
BRANCH  23  24
ATOM     24  C   UNL     1      64.624  35.036  61.410  1.00  0.00    -0.000 C 
BRANCH  24  25
ATOM     25  C   UNL     1      65.703  35.540  60.445  1.00  0.00    -0.003 C 
ATOM     26  C   UNL     1      65.387  35.140  59.006  1.00  0.00     0.004 C 
ENDBRANCH  24  25
ENDBRANCH  23  24
ENDBRANCH  22  23
ENDBRANCH  21  22
ENDBRANCH  20  21
ENDBRANCH  19  20
ENDBRANCH  18  19
ENDBRANCH  17  18
ENDBRANCH  16  17
ENDBRANCH  15  16
ENDBRANCH   1  15
TORSDOF 22
ENDMDL
MODEL 2
REMARK VINA RESULT:    -3.102      2.727      6.710
REMARK INTER + INTRA:         -11.155
REMARK INTER:                  -6.650
REMARK INTRA:                  -4.505
REMARK UNBOUND:                -4.064
REMARK SMILES CCCCCCCCCCCCCCCCCCCCCCCC(=O)[O-]
REMARK SMILES IDX 13 1 14 2 15 3 16 4 17 5 18 6 19 7 20 8 21 9 22 10 23 11
REMARK SMILES IDX 24 12 25 13 26 14 12 15 11 16 10 17 9 18 8 19 7 20 6 21 5 22
REMARK SMILES IDX 4 23 3 24 2 25 1 26
REMARK H PARENT
REMARK Flexibility Score: inf
ROOT
ATOM      1  C   UNL     1      64.029  33.236  59.500  1.00  0.00     0.000 C 
ENDROOT
BRANCH   1   2
ATOM      2  C   UNL     1      64.166  33.734  60.952  1.00  0.00     0.000 C 
BRANCH   2   3
ATOM      3  C   UNL     1      64.936  35.060  61.124  1.00  0.00     0.000 C 
BRANCH   3   4
ATOM      4  C   UNL     1      64.050  36.298  61.351  1.00  0.00     0.000 C 
BRANCH   4   5
ATOM      5  C   UNL     1      63.834  37.116  60.071  1.00  0.00     0.000 C 
BRANCH   5   6
ATOM      6  C   UNL     1      62.535  36.696  59.366  1.00  0.00     0.000 C 
BRANCH   6   7
ATOM      7  C   UNL     1      61.342  36.606  60.332  1.00  0.00     0.000 C 
BRANCH   7   8
ATOM      8  C   UNL     1      60.058  36.128  59.631  1.00  0.00     0.000 C 
BRANCH   8   9
ATOM      9  C   UNL     1      60.292  35.744  58.161  1.00  0.00     0.000 C 
BRANCH   9  10
ATOM     10  C   UNL     1      59.399  34.580  57.702  1.00  0.00     0.006 C 
BRANCH  10  11
ATOM     11  C   UNL     1      59.996  33.882  56.475  1.00  0.00     0.053 C 
BRANCH  11  12
ATOM     12  C   UNL     1      58.978  32.997  55.828  1.00  0.00     0.041 C 
ATOM     13  O   UNL     1      57.753  33.164  56.062  1.00  0.00    -0.550 OA
ATOM     14  O   UNL     1      59.387  31.962  54.996  1.00  0.00    -0.550 OA
ENDBRANCH  11  12
ENDBRANCH  10  11
ENDBRANCH   9  10
ENDBRANCH   8   9
ENDBRANCH   7   8
ENDBRANCH   6   7
ENDBRANCH   5   6
ENDBRANCH   4   5
ENDBRANCH   3   4
ENDBRANCH   2   3
ENDBRANCH   1   2
BRANCH   1  15
ATOM     15  C   UNL     1      62.585  32.977  59.035  1.00  0.00     0.000 C 
BRANCH  15  16
ATOM     16  C   UNL     1      61.598  32.841  60.207  1.00  0.00     0.000 C 
BRANCH  16  17
ATOM     17  C   UNL     1      60.908  31.467  60.237  1.00  0.00     0.000 C 
BRANCH  17  18
ATOM     18  C   UNL     1      61.081  30.753  61.588  1.00  0.00    -0.000 C 
BRANCH  18  19
ATOM     19  C   UNL     1      62.041  29.552  61.515  1.00  0.00    -0.000 C 
BRANCH  19  20
ATOM     20  C   UNL     1      63.511  29.906  61.229  1.00  0.00    -0.000 C 
BRANCH  20  21
ATOM     21  C   UNL     1      64.165  28.969  60.198  1.00  0.00    -0.000 C 
BRANCH  21  22
ATOM     22  C   UNL     1      64.311  29.615  58.808  1.00  0.00    -0.000 C 
BRANCH  22  23
ATOM     23  C   UNL     1      63.077  29.495  57.895  1.00  0.00    -0.000 C 
BRANCH  23  24
ATOM     24  C   UNL     1      62.297  28.190  58.109  1.00  0.00    -0.000 C 
BRANCH  24  25
ATOM     25  C   UNL     1      60.788  28.456  58.161  1.00  0.00    -0.003 C 
ATOM     26  C   UNL     1      60.311  29.181  56.905  1.00  0.00     0.004 C 
ENDBRANCH  24  25
ENDBRANCH  23  24
ENDBRANCH  22  23
ENDBRANCH  21  22
ENDBRANCH  20  21
ENDBRANCH  19  20
ENDBRANCH  18  19
ENDBRANCH  17  18
ENDBRANCH  16  17
ENDBRANCH  15  16
ENDBRANCH   1  15
TORSDOF 22
ENDMDL
MODEL 3
REMARK VINA RESULT:    -3.083      2.969      6.332
REMARK INTER + INTRA:         -11.112
REMARK INTER:                  -6.281
REMARK INTRA:                  -4.831
REMARK UNBOUND:                -4.064
REMARK SMILES CCCCCCCCCCCCCCCCCCCCCCCC(=O)[O-]
REMARK SMILES IDX 13 1 14 2 15 3 16 4 17 5 18 6 19 7 20 8 21 9 22 10 23 11
REMARK SMILES IDX 24 12 25 13 26 14 12 15 11 16 10 17 9 18 8 19 7 20 6 21 5 22
REMARK SMILES IDX 4 23 3 24 2 25 1 26
REMARK H PARENT
REMARK Flexibility Score: inf
ROOT
ATOM      1  C   UNL     1      61.743  35.508  60.348  1.00  0.00     0.000 C 
ENDROOT
BRANCH   1   2
ATOM      2  C   UNL     1      63.043  36.070  60.957  1.00  0.00     0.000 C 
BRANCH   2   3
ATOM      3  C   UNL     1      64.129  35.021  61.275  1.00  0.00     0.000 C 
BRANCH   3   4
ATOM      4  C   UNL     1      65.518  35.332  60.691  1.00  0.00     0.000 C 
BRANCH   4   5
ATOM      5  C   UNL     1      65.450  36.181  59.415  1.00  0.00     0.000 C 
BRANCH   5   6
ATOM      6  C   UNL     1      65.224  35.294  58.180  1.00  0.00     0.000 C 
BRANCH   6   7
ATOM      7  C   UNL     1      64.085  35.809  57.285  1.00  0.00     0.000 C 
BRANCH   7   8
ATOM      8  C   UNL     1      63.773  34.846  56.126  1.00  0.00     0.000 C 
BRANCH   8   9
ATOM      9  C   UNL     1      64.378  33.448  56.335  1.00  0.00     0.000 C 
BRANCH   9  10
ATOM     10  C   UNL     1      63.994  32.461  55.222  1.00  0.00     0.006 C 
BRANCH  10  11
ATOM     11  C   UNL     1      62.764  31.638  55.620  1.00  0.00     0.053 C 
BRANCH  11  12
ATOM     12  C   UNL     1      61.636  31.886  54.668  1.00  0.00     0.041 C 
ATOM     13  O   UNL     1      61.873  32.182  53.468  1.00  0.00    -0.550 OA
ATOM     14  O   UNL     1      60.322  31.830  55.118  1.00  0.00    -0.550 OA
ENDBRANCH  11  12
ENDBRANCH  10  11
ENDBRANCH   9  10
ENDBRANCH   8   9
ENDBRANCH   7   8
ENDBRANCH   6   7
ENDBRANCH   5   6
ENDBRANCH   4   5
ENDBRANCH   3   4
ENDBRANCH   2   3
ENDBRANCH   1   2
BRANCH   1  15
ATOM     15  C   UNL     1      61.686  33.973  60.243  1.00  0.00     0.000 C 
BRANCH  15  16
ATOM     16  C   UNL     1      61.565  33.480  58.791  1.00  0.00     0.000 C 
BRANCH  16  17
ATOM     17  C   UNL     1      60.456  32.430  58.619  1.00  0.00     0.000 C 
BRANCH  17  18
ATOM     18  C   UNL     1      60.981  30.992  58.775  1.00  0.00    -0.000 C 
BRANCH  18  19
ATOM     19  C   UNL     1      60.436  30.286  60.030  1.00  0.00    -0.000 C 
BRANCH  19  20
ATOM     20  C   UNL     1      61.305  30.435  61.292  1.00  0.00    -0.000 C 
BRANCH  20  21
ATOM     21  C   UNL     1      62.344  29.311  61.440  1.00  0.00    -0.000 C 
BRANCH  21  22
ATOM     22  C   UNL     1      63.754  29.734  60.987  1.00  0.00    -0.000 C 
BRANCH  22  23
ATOM     23  C   UNL     1      64.002  31.253  60.945  1.00  0.00    -0.000 C 
BRANCH  23  24
ATOM     24  C   UNL     1      64.614  31.725  59.618  1.00  0.00    -0.000 C 
BRANCH  24  25
ATOM     25  C   UNL     1      64.715  30.567  58.619  1.00  0.00    -0.003 C 
ATOM     26  C   UNL     1      66.142  30.411  58.098  1.00  0.00     0.004 C 
ENDBRANCH  24  25
ENDBRANCH  23  24
ENDBRANCH  22  23
ENDBRANCH  21  22
ENDBRANCH  20  21
ENDBRANCH  19  20
ENDBRANCH  18  19
ENDBRANCH  17  18
ENDBRANCH  16  17
ENDBRANCH  15  16
ENDBRANCH   1  15
TORSDOF 22
ENDMDL
MODEL 4
REMARK VINA RESULT:    -3.076      9.574     11.594
REMARK INTER + INTRA:         -11.096
REMARK INTER:                  -6.680
REMARK INTRA:                  -4.417
REMARK UNBOUND:                -4.064
REMARK SMILES CCCCCCCCCCCCCCCCCCCCCCCC(=O)[O-]
REMARK SMILES IDX 13 1 14 2 15 3 16 4 17 5 18 6 19 7 20 8 21 9 22 10 23 11
REMARK SMILES IDX 24 12 25 13 26 14 12 15 11 16 10 17 9 18 8 19 7 20 6 21 5 22
REMARK SMILES IDX 4 23 3 24 2 25 1 26
REMARK H PARENT
REMARK Flexibility Score: inf
ROOT
ATOM      1  C   UNL     1      59.332  25.884  52.531  1.00  0.00     0.000 C 
ENDROOT
BRANCH   1   2
ATOM      2  C   UNL     1      58.944  25.202  51.204  1.00  0.00     0.000 C 
BRANCH   2   3
ATOM      3  C   UNL     1      59.431  25.920  49.928  1.00  0.00     0.000 C 
BRANCH   3   4
ATOM      4  C   UNL     1      60.260  27.192  50.179  1.00  0.00     0.000 C 
BRANCH   4   5
ATOM      5  C   UNL     1      60.128  28.220  49.047  1.00  0.00     0.000 C 
BRANCH   5   6
ATOM      6  C   UNL     1      59.172  29.355  49.447  1.00  0.00     0.000 C 
BRANCH   6   7
ATOM      7  C   UNL     1      58.910  29.398  50.962  1.00  0.00     0.000 C 
BRANCH   7   8
ATOM      8  C   UNL     1      57.411  29.300  51.298  1.00  0.00     0.000 C 
BRANCH   8   9
ATOM      9  C   UNL     1      56.600  28.598  50.197  1.00  0.00     0.000 C 
BRANCH   9  10
ATOM     10  C   UNL     1      55.844  27.363  50.712  1.00  0.00     0.006 C 
BRANCH  10  11
ATOM     11  C   UNL     1      55.754  26.283  49.628  1.00  0.00     0.053 C 
BRANCH  11  12
ATOM     12  C   UNL     1      54.325  25.973  49.315  1.00  0.00     0.041 C 
ATOM     13  O   UNL     1      53.946  24.778  49.199  1.00  0.00    -0.550 OA
ATOM     14  O   UNL     1      53.418  27.007  49.111  1.00  0.00    -0.550 OA
ENDBRANCH  11  12
ENDBRANCH  10  11
ENDBRANCH   9  10
ENDBRANCH   8   9
ENDBRANCH   7   8
ENDBRANCH   6   7
ENDBRANCH   5   6
ENDBRANCH   4   5
ENDBRANCH   3   4
ENDBRANCH   2   3
ENDBRANCH   1   2
BRANCH   1  15
ATOM     15  C   UNL     1      58.147  26.256  53.441  1.00  0.00     0.000 C 
BRANCH  15  16
ATOM     16  C   UNL     1      57.012  25.219  53.392  1.00  0.00     0.000 C 
BRANCH  16  17
ATOM     17  C   UNL     1      57.254  24.039  54.347  1.00  0.00     0.000 C 
BRANCH  17  18
ATOM     18  C   UNL     1      57.389  22.700  53.601  1.00  0.00    -0.000 C 
BRANCH  18  19
ATOM     19  C   UNL     1      58.745  22.012  53.842  1.00  0.00    -0.000 C 
BRANCH  19  20
ATOM     20  C   UNL     1      59.607  21.810  52.583  1.00  0.00    -0.000 C 
BRANCH  20  21
ATOM     21  C   UNL     1      61.027  22.386  52.730  1.00  0.00    -0.000 C 
BRANCH  21  22
ATOM     22  C   UNL     1      61.639  22.822  51.386  1.00  0.00    -0.000 C 
BRANCH  22  23
ATOM     23  C   UNL     1      62.478  24.112  51.434  1.00  0.00    -0.000 C 
BRANCH  23  24
ATOM     24  C   UNL     1      62.966  24.563  50.050  1.00  0.00    -0.000 C 
BRANCH  24  25
ATOM     25  C   UNL     1      64.076  25.613  50.174  1.00  0.00    -0.003 C 
ATOM     26  C   UNL     1      63.729  26.878  49.394  1.00  0.00     0.004 C 
ENDBRANCH  24  25
ENDBRANCH  23  24
ENDBRANCH  22  23
ENDBRANCH  21  22
ENDBRANCH  20  21
ENDBRANCH  19  20
ENDBRANCH  18  19
ENDBRANCH  17  18
ENDBRANCH  16  17
ENDBRANCH  15  16
ENDBRANCH   1  15
TORSDOF 22
ENDMDL
MODEL 5
REMARK VINA RESULT:    -3.066      4.543      6.524
REMARK INTER + INTRA:         -11.073
REMARK INTER:                  -7.704
REMARK INTRA:                  -3.368
REMARK UNBOUND:                -4.064
REMARK SMILES CCCCCCCCCCCCCCCCCCCCCCCC(=O)[O-]
REMARK SMILES IDX 13 1 14 2 15 3 16 4 17 5 18 6 19 7 20 8 21 9 22 10 23 11
REMARK SMILES IDX 24 12 25 13 26 14 12 15 11 16 10 17 9 18 8 19 7 20 6 21 5 22
REMARK SMILES IDX 4 23 3 24 2 25 1 26
REMARK H PARENT
REMARK Flexibility Score: inf
ROOT
ATOM      1  C   UNL     1      61.141  31.740  60.451  1.00  0.00     0.000 C 
ENDROOT
BRANCH   1   2
ATOM      2  C   UNL     1      60.724  30.707  61.517  1.00  0.00     0.000 C 
BRANCH   2   3
ATOM      3  C   UNL     1      61.670  29.497  61.667  1.00  0.00     0.000 C 
BRANCH   3   4
ATOM      4  C   UNL     1      63.069  29.691  61.056  1.00  0.00     0.000 C 
BRANCH   4   5
ATOM      5  C   UNL     1      63.333  28.755  59.868  1.00  0.00     0.000 C 
BRANCH   5   6
ATOM      6  C   UNL     1      64.827  28.738  59.508  1.00  0.00     0.000 C 
BRANCH   6   7
ATOM      7  C   UNL     1      65.716  29.254  60.651  1.00  0.00     0.000 C 
BRANCH   7   8
ATOM      8  C   UNL     1      66.959  28.374  60.867  1.00  0.00     0.000 C 
BRANCH   8   9
ATOM      9  C   UNL     1      67.351  27.581  59.609  1.00  0.00     0.000 C 
BRANCH   9  10
ATOM     10  C   UNL     1      68.692  28.037  59.013  1.00  0.00     0.006 C 
BRANCH  10  11
ATOM     11  C   UNL     1      69.772  28.127  60.097  1.00  0.00     0.053 C 
BRANCH  11  12
ATOM     12  C   UNL     1      70.364  29.500  60.135  1.00  0.00     0.041 C 
ATOM     13  O   UNL     1      70.902  29.929  61.189  1.00  0.00    -0.550 OA
ATOM     14  O   UNL     1      70.284  30.322  59.017  1.00  0.00    -0.550 OA
ENDBRANCH  11  12
ENDBRANCH  10  11
ENDBRANCH   9  10
ENDBRANCH   8   9
ENDBRANCH   7   8
ENDBRANCH   6   7
ENDBRANCH   5   6
ENDBRANCH   4   5
ENDBRANCH   3   4
ENDBRANCH   2   3
ENDBRANCH   1   2
BRANCH   1  15
ATOM     15  C   UNL     1      60.574  31.486  59.043  1.00  0.00     0.000 C 
BRANCH  15  16
ATOM     16  C   UNL     1      61.052  32.522  58.013  1.00  0.00     0.000 C 
BRANCH  16  17
ATOM     17  C   UNL     1      60.482  33.924  58.282  1.00  0.00     0.000 C 
BRANCH  17  18
ATOM     18  C   UNL     1      61.548  35.025  58.155  1.00  0.00    -0.000 C 
BRANCH  18  19
ATOM     19  C   UNL     1      61.593  35.963  59.375  1.00  0.00    -0.000 C 
BRANCH  19  20
ATOM     20  C   UNL     1      62.107  35.319  60.675  1.00  0.00    -0.000 C 
BRANCH  20  21
ATOM     21  C   UNL     1      63.507  35.814  61.077  1.00  0.00    -0.000 C 
BRANCH  21  22
ATOM     22  C   UNL     1      64.618  34.798  60.752  1.00  0.00    -0.000 C 
BRANCH  22  23
ATOM     23  C   UNL     1      64.167  33.327  60.698  1.00  0.00    -0.000 C 
BRANCH  23  24
ATOM     24  C   UNL     1      64.542  32.632  59.381  1.00  0.00    -0.000 C 
BRANCH  24  25
ATOM     25  C   UNL     1      64.982  33.655  58.327  1.00  0.00    -0.003 C 
ATOM     26  C   UNL     1      65.917  33.023  57.300  1.00  0.00     0.004 C 
ENDBRANCH  24  25
ENDBRANCH  23  24
ENDBRANCH  22  23
ENDBRANCH  21  22
ENDBRANCH  20  21
ENDBRANCH  19  20
ENDBRANCH  18  19
ENDBRANCH  17  18
ENDBRANCH  16  17
ENDBRANCH  15  16
ENDBRANCH   1  15
TORSDOF 22
ENDMDL
MODEL 6
REMARK VINA RESULT:    -3.063      3.319      5.688
REMARK INTER + INTRA:         -11.067
REMARK INTER:                  -6.888
REMARK INTRA:                  -4.179
REMARK UNBOUND:                -4.064
REMARK SMILES CCCCCCCCCCCCCCCCCCCCCCCC(=O)[O-]
REMARK SMILES IDX 13 1 14 2 15 3 16 4 17 5 18 6 19 7 20 8 21 9 22 10 23 11
REMARK SMILES IDX 24 12 25 13 26 14 12 15 11 16 10 17 9 18 8 19 7 20 6 21 5 22
REMARK SMILES IDX 4 23 3 24 2 25 1 26
REMARK H PARENT
REMARK Flexibility Score: inf
ROOT
ATOM      1  C   UNL     1      64.494  34.820  57.282  1.00  0.00     0.000 C 
ENDROOT
BRANCH   1   2
ATOM      2  C   UNL     1      63.534  33.662  56.943  1.00  0.00     0.000 C 
BRANCH   2   3
ATOM      3  C   UNL     1      63.249  32.683  58.101  1.00  0.00     0.000 C 
BRANCH   3   4
ATOM      4  C   UNL     1      62.136  31.658  57.820  1.00  0.00     0.000 C 
BRANCH   4   5
ATOM      5  C   UNL     1      60.947  31.794  58.781  1.00  0.00     0.000 C 
BRANCH   5   6
ATOM      6  C   UNL     1      61.432  31.994  60.225  1.00  0.00     0.000 C 
BRANCH   6   7
ATOM      7  C   UNL     1      60.752  31.033  61.215  1.00  0.00     0.000 C 
BRANCH   7   8
ATOM      8  C   UNL     1      61.710  29.937  61.714  1.00  0.00     0.000 C 
BRANCH   8   9
ATOM      9  C   UNL     1      61.835  28.763  60.729  1.00  0.00     0.000 C 
BRANCH   9  10
ATOM     10  C   UNL     1      63.249  28.628  60.143  1.00  0.00     0.006 C 
BRANCH  10  11
ATOM     11  C   UNL     1      64.216  29.611  60.812  1.00  0.00     0.053 C 
BRANCH  11  12
ATOM     12  C   UNL     1      65.536  29.610  60.107  1.00  0.00     0.041 C 
ATOM     13  O   UNL     1      65.707  30.317  59.081  1.00  0.00    -0.550 OA
ATOM     14  O   UNL     1      66.566  28.796  60.563  1.00  0.00    -0.550 OA
ENDBRANCH  11  12
ENDBRANCH  10  11
ENDBRANCH   9  10
ENDBRANCH   8   9
ENDBRANCH   7   8
ENDBRANCH   6   7
ENDBRANCH   5   6
ENDBRANCH   4   5
ENDBRANCH   3   4
ENDBRANCH   2   3
ENDBRANCH   1   2
BRANCH   1  15
ATOM     15  C   UNL     1      65.482  34.530  58.426  1.00  0.00     0.000 C 
BRANCH  15  16
ATOM     16  C   UNL     1      65.672  35.731  59.367  1.00  0.00     0.000 C 
BRANCH  16  17
ATOM     17  C   UNL     1      65.399  35.374  60.837  1.00  0.00     0.000 C 
BRANCH  17  18
ATOM     18  C   UNL     1      64.025  34.710  61.033  1.00  0.00    -0.000 C 
BRANCH  18  19
ATOM     19  C   UNL     1      62.859  35.713  60.974  1.00  0.00    -0.000 C 
BRANCH  19  20
ATOM     20  C   UNL     1      61.930  35.564  59.756  1.00  0.00    -0.000 C 
BRANCH  20  21
ATOM     21  C   UNL     1      60.487  36.017  60.042  1.00  0.00    -0.000 C 
BRANCH  21  22
ATOM     22  C   UNL     1      59.641  36.169  58.764  1.00  0.00    -0.000 C 
BRANCH  22  23
ATOM     23  C   UNL     1      59.873  35.089  57.691  1.00  0.00    -0.000 C 
BRANCH  23  24
ATOM     24  C   UNL     1      60.427  35.657  56.377  1.00  0.00    -0.000 C 
BRANCH  24  25
ATOM     25  C   UNL     1      60.325  34.625  55.248  1.00  0.00    -0.003 C 
ATOM     26  C   UNL     1      59.540  33.395  55.692  1.00  0.00     0.004 C 
ENDBRANCH  24  25
ENDBRANCH  23  24
ENDBRANCH  22  23
ENDBRANCH  21  22
ENDBRANCH  20  21
ENDBRANCH  19  20
ENDBRANCH  18  19
ENDBRANCH  17  18
ENDBRANCH  16  17
ENDBRANCH  15  16
ENDBRANCH   1  15
TORSDOF 22
ENDMDL
MODEL 7
REMARK VINA RESULT:    -3.062      1.563      3.787
REMARK INTER + INTRA:         -11.064
REMARK INTER:                  -7.254
REMARK INTRA:                  -3.810
REMARK UNBOUND:                -4.064
REMARK SMILES CCCCCCCCCCCCCCCCCCCCCCCC(=O)[O-]
REMARK SMILES IDX 13 1 14 2 15 3 16 4 17 5 18 6 19 7 20 8 21 9 22 10 23 11
REMARK SMILES IDX 24 12 25 13 26 14 12 15 11 16 10 17 9 18 8 19 7 20 6 21 5 22
REMARK SMILES IDX 4 23 3 24 2 25 1 26
REMARK H PARENT
REMARK Flexibility Score: inf
ROOT
ATOM      1  C   UNL     1      64.322  31.791  58.646  1.00  0.00     0.000 C 
ENDROOT
BRANCH   1   2
ATOM      2  C   UNL     1      65.165  30.672  59.289  1.00  0.00     0.000 C 
BRANCH   2   3
ATOM      3  C   UNL     1      64.357  29.551  59.977  1.00  0.00     0.000 C 
BRANCH   3   4
ATOM      4  C   UNL     1      63.665  29.965  61.287  1.00  0.00     0.000 C 
BRANCH   4   5
ATOM      5  C   UNL     1      62.220  29.456  61.382  1.00  0.00     0.000 C 
BRANCH   5   6
ATOM      6  C   UNL     1      61.238  30.626  61.552  1.00  0.00     0.000 C 
BRANCH   6   7
ATOM      7  C   UNL     1      60.989  31.383  60.237  1.00  0.00     0.000 C 
BRANCH   7   8
ATOM      8  C   UNL     1      60.847  30.432  59.035  1.00  0.00     0.000 C 
BRANCH   8   9
ATOM      9  C   UNL     1      59.401  29.953  58.824  1.00  0.00     0.000 C 
BRANCH   9  10
ATOM     10  C   UNL     1      59.240  28.439  59.036  1.00  0.00     0.006 C 
BRANCH  10  11
ATOM     11  C   UNL     1      58.967  28.118  60.510  1.00  0.00     0.053 C 
BRANCH  11  12
ATOM     12  C   UNL     1      57.667  27.391  60.655  1.00  0.00     0.041 C 
ATOM     13  O   UNL     1      57.349  26.490  59.836  1.00  0.00    -0.550 OA
ATOM     14  O   UNL     1      56.788  27.737  61.675  1.00  0.00    -0.550 OA
ENDBRANCH  11  12
ENDBRANCH  10  11
ENDBRANCH   9  10
ENDBRANCH   8   9
ENDBRANCH   7   8
ENDBRANCH   6   7
ENDBRANCH   5   6
ENDBRANCH   4   5
ENDBRANCH   3   4
ENDBRANCH   2   3
ENDBRANCH   1   2
BRANCH   1  15
ATOM     15  C   UNL     1      64.605  33.206  59.182  1.00  0.00     0.000 C 
BRANCH  15  16
ATOM     16  C   UNL     1      64.078  33.418  60.611  1.00  0.00     0.000 C 
BRANCH  16  17
ATOM     17  C   UNL     1      64.473  34.788  61.185  1.00  0.00     0.000 C 
BRANCH  17  18
ATOM     18  C   UNL     1      63.934  35.956  60.341  1.00  0.00    -0.000 C 
BRANCH  18  19
ATOM     19  C   UNL     1      62.628  36.549  60.900  1.00  0.00    -0.000 C 
BRANCH  19  20
ATOM     20  C   UNL     1      61.359  35.730  60.605  1.00  0.00    -0.000 C 
BRANCH  20  21
ATOM     21  C   UNL     1      60.540  36.296  59.432  1.00  0.00    -0.000 C 
BRANCH  21  22
ATOM     22  C   UNL     1      60.030  35.203  58.474  1.00  0.00    -0.000 C 
BRANCH  22  23
ATOM     23  C   UNL     1      61.094  34.193  58.005  1.00  0.00    -0.000 C 
BRANCH  23  24
ATOM     24  C   UNL     1      62.123  34.809  57.047  1.00  0.00    -0.000 C 
BRANCH  24  25
ATOM     25  C   UNL     1      62.538  33.802  55.967  1.00  0.00    -0.003 C 
ATOM     26  C   UNL     1      61.743  32.505  56.086  1.00  0.00     0.004 C 
ENDBRANCH  24  25
ENDBRANCH  23  24
ENDBRANCH  22  23
ENDBRANCH  21  22
ENDBRANCH  20  21
ENDBRANCH  19  20
ENDBRANCH  18  19
ENDBRANCH  17  18
ENDBRANCH  16  17
ENDBRANCH  15  16
ENDBRANCH   1  15
TORSDOF 22
ENDMDL
MODEL 8
REMARK VINA RESULT:    -3.049      2.601      4.913
REMARK INTER + INTRA:         -11.035
REMARK INTER:                  -6.584
REMARK INTRA:                  -4.452
REMARK UNBOUND:                -4.064
REMARK SMILES CCCCCCCCCCCCCCCCCCCCCCCC(=O)[O-]
REMARK SMILES IDX 13 1 14 2 15 3 16 4 17 5 18 6 19 7 20 8 21 9 22 10 23 11
REMARK SMILES IDX 24 12 25 13 26 14 12 15 11 16 10 17 9 18 8 19 7 20 6 21 5 22
REMARK SMILES IDX 4 23 3 24 2 25 1 26
REMARK H PARENT
REMARK Flexibility Score: inf
ROOT
ATOM      1  C   UNL     1      63.228  32.379  57.661  1.00  0.00     0.000 C 
ENDROOT
BRANCH   1   2
ATOM      2  C   UNL     1      64.497  31.508  57.742  1.00  0.00     0.000 C 
BRANCH   2   3
ATOM      3  C   UNL     1      64.932  31.108  59.168  1.00  0.00     0.000 C 
BRANCH   3   4
ATOM      4  C   UNL     1      64.950  29.593  59.437  1.00  0.00     0.000 C 
BRANCH   4   5
ATOM      5  C   UNL     1      63.958  29.171  60.529  1.00  0.00     0.000 C 
BRANCH   5   6
ATOM      6  C   UNL     1      63.380  30.401  61.246  1.00  0.00     0.000 C 
BRANCH   6   7
ATOM      7  C   UNL     1      61.858  30.305  61.447  1.00  0.00     0.000 C 
BRANCH   7   8
ATOM      8  C   UNL     1      61.076  30.768  60.205  1.00  0.00     0.000 C 
BRANCH   8   9
ATOM      9  C   UNL     1      60.143  29.679  59.651  1.00  0.00     0.000 C 
BRANCH   9  10
ATOM     10  C   UNL     1      59.292  30.170  58.469  1.00  0.00     0.006 C 
BRANCH  10  11
ATOM     11  C   UNL     1      59.633  31.622  58.115  1.00  0.00     0.053 C 
BRANCH  11  12
ATOM     12  C   UNL     1      59.598  31.821  56.632  1.00  0.00     0.041 C 
ATOM     13  O   UNL     1      59.221  30.889  55.876  1.00  0.00    -0.550 OA
ATOM     14  O   UNL     1      60.020  33.027  56.084  1.00  0.00    -0.550 OA
ENDBRANCH  11  12
ENDBRANCH  10  11
ENDBRANCH   9  10
ENDBRANCH   8   9
ENDBRANCH   7   8
ENDBRANCH   6   7
ENDBRANCH   5   6
ENDBRANCH   4   5
ENDBRANCH   3   4
ENDBRANCH   2   3
ENDBRANCH   1   2
BRANCH   1  15
ATOM     15  C   UNL     1      63.390  33.690  56.871  1.00  0.00     0.000 C 
BRANCH  15  16
ATOM     16  C   UNL     1      64.578  34.536  57.359  1.00  0.00     0.000 C 
BRANCH  16  17
ATOM     17  C   UNL     1      64.184  35.995  57.638  1.00  0.00     0.000 C 
BRANCH  17  18
ATOM     18  C   UNL     1      65.066  36.645  58.718  1.00  0.00    -0.000 C 
BRANCH  18  19
ATOM     19  C   UNL     1      65.753  35.615  59.632  1.00  0.00    -0.000 C 
BRANCH  19  20
ATOM     20  C   UNL     1      65.058  35.376  60.985  1.00  0.00    -0.000 C 
BRANCH  20  21
ATOM     21  C   UNL     1      64.243  34.071  61.017  1.00  0.00    -0.000 C 
BRANCH  21  22
ATOM     22  C   UNL     1      62.757  34.285  60.673  1.00  0.00    -0.000 C 
BRANCH  22  23
ATOM     23  C   UNL     1      62.245  35.727  60.839  1.00  0.00    -0.000 C 
BRANCH  23  24
ATOM     24  C   UNL     1      60.829  35.930  60.282  1.00  0.00    -0.000 C 
BRANCH  24  25
ATOM     25  C   UNL     1      60.640  35.160  58.970  1.00  0.00    -0.003 C 
ATOM     26  C   UNL     1      59.356  35.583  58.261  1.00  0.00     0.004 C 
ENDBRANCH  24  25
ENDBRANCH  23  24
ENDBRANCH  22  23
ENDBRANCH  21  22
ENDBRANCH  20  21
ENDBRANCH  19  20
ENDBRANCH  18  19
ENDBRANCH  17  18
ENDBRANCH  16  17
ENDBRANCH  15  16
ENDBRANCH   1  15
TORSDOF 22
ENDMDL
MODEL 9
REMARK VINA RESULT:    -3.037      2.821      6.548
REMARK INTER + INTRA:         -11.006
REMARK INTER:                  -6.325
REMARK INTRA:                  -4.681
REMARK UNBOUND:                -4.064
REMARK SMILES CCCCCCCCCCCCCCCCCCCCCCCC(=O)[O-]
REMARK SMILES IDX 13 1 14 2 15 3 16 4 17 5 18 6 19 7 20 8 21 9 22 10 23 11
REMARK SMILES IDX 24 12 25 13 26 14 12 15 11 16 10 17 9 18 8 19 7 20 6 21 5 22
REMARK SMILES IDX 4 23 3 24 2 25 1 26
REMARK H PARENT
REMARK Flexibility Score: inf
ROOT
ATOM      1  C   UNL     1      61.408  35.030  60.148  1.00  0.00     0.000 C 
ENDROOT
BRANCH   1   2
ATOM      2  C   UNL     1      62.556  35.769  60.864  1.00  0.00     0.000 C 
BRANCH   2   3
ATOM      3  C   UNL     1      63.913  35.033  60.864  1.00  0.00     0.000 C 
BRANCH   3   4
ATOM      4  C   UNL     1      64.959  35.607  59.893  1.00  0.00     0.000 C 
BRANCH   4   5
ATOM      5  C   UNL     1      65.150  34.737  58.643  1.00  0.00     0.000 C 
BRANCH   5   6
ATOM      6  C   UNL     1      64.207  35.187  57.515  1.00  0.00     0.000 C 
BRANCH   6   7
ATOM      7  C   UNL     1      63.949  36.703  57.532  1.00  0.00     0.000 C 
BRANCH   7   8
ATOM      8  C   UNL     1      62.491  37.050  57.182  1.00  0.00     0.000 C 
BRANCH   8   9
ATOM      9  C   UNL     1      61.756  35.894  56.485  1.00  0.00     0.000 C 
BRANCH   9  10
ATOM     10  C   UNL     1      60.348  36.286  56.011  1.00  0.00     0.006 C 
BRANCH  10  11
ATOM     11  C   UNL     1      59.366  35.122  56.186  1.00  0.00     0.053 C 
BRANCH  11  12
ATOM     12  C   UNL     1      58.576  35.287  57.446  1.00  0.00     0.041 C 
ATOM     13  O   UNL     1      58.736  36.307  58.165  1.00  0.00    -0.550 OA
ATOM     14  O   UNL     1      57.691  34.293  57.846  1.00  0.00    -0.550 OA
ENDBRANCH  11  12
ENDBRANCH  10  11
ENDBRANCH   9  10
ENDBRANCH   8   9
ENDBRANCH   7   8
ENDBRANCH   6   7
ENDBRANCH   5   6
ENDBRANCH   4   5
ENDBRANCH   3   4
ENDBRANCH   2   3
ENDBRANCH   1   2
BRANCH   1  15
ATOM     15  C   UNL     1      61.613  33.513  59.986  1.00  0.00     0.000 C 
BRANCH  15  16
ATOM     16  C   UNL     1      61.298  33.019  58.564  1.00  0.00     0.000 C 
BRANCH  16  17
ATOM     17  C   UNL     1      60.219  31.925  58.549  1.00  0.00     0.000 C 
BRANCH  17  18
ATOM     18  C   UNL     1      60.763  30.558  58.999  1.00  0.00    -0.000 C 
BRANCH  18  19
ATOM     19  C   UNL     1      60.275  30.149  60.400  1.00  0.00    -0.000 C 
BRANCH  19  20
ATOM     20  C   UNL     1      61.375  30.053  61.473  1.00  0.00    -0.000 C 
BRANCH  20  21
ATOM     21  C   UNL     1      62.265  28.808  61.310  1.00  0.00    -0.000 C 
BRANCH  21  22
ATOM     22  C   UNL     1      63.669  29.140  60.773  1.00  0.00    -0.000 C 
BRANCH  22  23
ATOM     23  C   UNL     1      64.193  30.544  61.128  1.00  0.00    -0.000 C 
BRANCH  23  24
ATOM     24  C   UNL     1      64.491  31.403  59.891  1.00  0.00    -0.000 C 
BRANCH  24  25
ATOM     25  C   UNL     1      64.853  30.526  58.687  1.00  0.00    -0.003 C 
ATOM     26  C   UNL     1      64.137  30.998  57.424  1.00  0.00     0.004 C 
ENDBRANCH  24  25
ENDBRANCH  23  24
ENDBRANCH  22  23
ENDBRANCH  21  22
ENDBRANCH  20  21
ENDBRANCH  19  20
ENDBRANCH  18  19
ENDBRANCH  17  18
ENDBRANCH  16  17
ENDBRANCH  15  16
ENDBRANCH   1  15
TORSDOF 22
ENDMDL
