MODEL 1
REMARK VINA RESULT:    -6.966      0.000      0.000
REMARK INTER + INTRA:          -8.699
REMARK INTER:                  -8.391
REMARK INTRA:                  -0.308
REMARK UNBOUND:                -0.308
REMARK SMILES O=c1c(O)c(-c2ccc(O)c(O)c2)oc2cc(O)cc(O)c12
REMARK SMILES IDX 5 1 3 2 2 3 1 4 22 5 20 6 19 7 17 8 16 9 15 10 14 11 6 12
REMARK SMILES IDX 7 13 8 14 9 15 13 16 11 17 10 18 12 20 4 22 21 24 18 26
REMARK H PARENT 10 19 12 21 4 23 21 25 18 27
REMARK Flexibility Score: inf
ROOT
ATOM      1  C   UNL     1      17.962  32.929  66.308  1.00  0.00     0.180 A 
ATOM      2  C   UNL     1      17.707  32.014  65.272  1.00  0.00     0.208 A 
ATOM      3  C   UNL     1      16.713  31.040  65.453  1.00  0.00     0.238 A 
ATOM      4  O   UNL     1      16.541  30.178  64.552  1.00  0.00    -0.285 OA
ATOM      5  C   UNL     1      15.946  31.028  66.645  1.00  0.00     0.111 A 
ATOM      6  C   UNL     1      14.882  30.114  66.916  1.00  0.00     0.134 A 
ATOM      7  C   UNL     1      14.265  30.128  68.174  1.00  0.00     0.093 A 
ATOM      8  C   UNL     1      14.630  31.062  69.145  1.00  0.00     0.123 A 
ATOM      9  C   UNL     1      15.629  31.993  68.870  1.00  0.00     0.094 A 
ATOM     10  C   UNL     1      16.289  31.981  67.639  1.00  0.00     0.146 A 
ATOM     11  O   UNL     1      17.250  32.872  67.427  1.00  0.00    -0.452 OA
ENDROOT
BRANCH   1  12
ATOM     12  C   UNL     1      19.005  33.974  66.198  1.00  0.00     0.025 A 
ATOM     13  C   UNL     1      18.709  35.176  65.540  1.00  0.00     0.016 A 
ATOM     14  C   UNL     1      19.671  36.183  65.441  1.00  0.00     0.051 A 
ATOM     15  C   UNL     1      20.939  36.019  66.010  1.00  0.00     0.157 A 
ATOM     16  C   UNL     1      20.269  33.813  66.790  1.00  0.00     0.062 A 
ATOM     17  C   UNL     1      21.240  34.820  66.700  1.00  0.00     0.158 A 
BRANCH  15  18
ATOM     18  O   UNL     1      21.857  37.060  65.870  1.00  0.00    -0.504 OA
ATOM     19  H   UNL     1      22.216  37.380  64.982  1.00  0.00     0.293 HD
ENDBRANCH  15  18
BRANCH  17  20
ATOM     20  O   UNL     1      22.475  34.591  67.310  1.00  0.00    -0.504 OA
ATOM     21  H   UNL     1      22.997  35.298  67.807  1.00  0.00     0.293 HD
ENDBRANCH  17  20
ENDBRANCH   1  12
BRANCH   2  22
ATOM     22  O   UNL     1      18.422  32.091  64.074  1.00  0.00    -0.502 OA
ATOM     23  H   UNL     1      18.005  32.420  63.211  1.00  0.00     0.293 HD
ENDBRANCH   2  22
BRANCH   6  24
ATOM     24  O   UNL     1      14.379  29.198  65.987  1.00  0.00    -0.507 OA
ATOM     25  H   UNL     1      14.611  28.216  65.960  1.00  0.00     0.293 HD
ENDBRANCH   6  24
BRANCH   8  26
ATOM     26  O   UNL     1      13.999  31.080  70.387  1.00  0.00    -0.508 OA
ATOM     27  H   UNL     1      12.994  31.175  70.469  1.00  0.00     0.293 HD
ENDBRANCH   8  26
TORSDOF 6
ENDMDL
MODEL 2
REMARK VINA RESULT:    -6.726      3.618      5.376
REMARK INTER + INTRA:          -8.410
REMARK INTER:                  -8.752
REMARK INTRA:                   0.342
REMARK UNBOUND:                -0.308
REMARK SMILES O=c1c(O)c(-c2ccc(O)c(O)c2)oc2cc(O)cc(O)c12
REMARK SMILES IDX 5 1 3 2 2 3 1 4 22 5 20 6 19 7 17 8 16 9 15 10 14 11 6 12
REMARK SMILES IDX 7 13 8 14 9 15 13 16 11 17 10 18 12 20 4 22 21 24 18 26
REMARK H PARENT 10 19 12 21 4 23 21 25 18 27
REMARK Flexibility Score: inf
ROOT
ATOM      1  C   UNL     1      16.301  30.664  66.266  1.00  0.00     0.180 A 
ATOM      2  C   UNL     1      14.984  30.539  66.739  1.00  0.00     0.208 A 
ATOM      3  C   UNL     1      14.757  30.517  68.124  1.00  0.00     0.238 A 
ATOM      4  O   UNL     1      13.584  30.329  68.540  1.00  0.00    -0.285 OA
ATOM      5  C   UNL     1      15.843  30.677  69.019  1.00  0.00     0.111 A 
ATOM      6  C   UNL     1      15.723  30.715  70.442  1.00  0.00     0.134 A 
ATOM      7  C   UNL     1      16.880  30.771  71.230  1.00  0.00     0.093 A 
ATOM      8  C   UNL     1      18.146  30.854  70.648  1.00  0.00     0.123 A 
ATOM      9  C   UNL     1      18.270  30.872  69.261  1.00  0.00     0.094 A 
ATOM     10  C   UNL     1      17.138  30.780  68.447  1.00  0.00     0.146 A 
ATOM     11  O   UNL     1      17.303  30.779  67.130  1.00  0.00    -0.452 OA
ENDROOT
BRANCH   1  12
ATOM     12  C   UNL     1      16.622  30.680  64.820  1.00  0.00     0.025 A 
ATOM     13  C   UNL     1      17.847  31.208  64.392  1.00  0.00     0.016 A 
ATOM     14  C   UNL     1      18.178  31.215  63.036  1.00  0.00     0.051 A 
ATOM     15  C   UNL     1      17.303  30.682  62.083  1.00  0.00     0.157 A 
ATOM     16  C   UNL     1      15.749  30.121  63.870  1.00  0.00     0.062 A 
ATOM     17  C   UNL     1      16.075  30.121  62.508  1.00  0.00     0.158 A 
BRANCH  15  18
ATOM     18  O   UNL     1      17.690  30.726  60.744  1.00  0.00    -0.504 OA
ATOM     19  H   UNL     1      18.059  29.934  60.236  1.00  0.00     0.293 HD
ENDBRANCH  15  18
BRANCH  17  20
ATOM     20  O   UNL     1      15.160  29.551  61.619  1.00  0.00    -0.504 OA
ATOM     21  H   UNL     1      14.158  29.638  61.709  1.00  0.00     0.293 HD
ENDBRANCH  17  20
ENDBRANCH   1  12
BRANCH   2  22
ATOM     22  O   UNL     1      13.918  30.459  65.839  1.00  0.00    -0.502 OA
ATOM     23  H   UNL     1      14.049  30.251  64.856  1.00  0.00     0.293 HD
ENDBRANCH   2  22
BRANCH   6  24
ATOM     24  O   UNL     1      14.504  30.727  71.126  1.00  0.00    -0.507 OA
ATOM     25  H   UNL     1      14.245  31.398  71.834  1.00  0.00     0.293 HD
ENDBRANCH   6  24
BRANCH   8  26
ATOM     26  O   UNL     1      19.290  30.926  71.439  1.00  0.00    -0.508 OA
ATOM     27  H   UNL     1      19.461  30.261  72.184  1.00  0.00     0.293 HD
ENDBRANCH   8  26
TORSDOF 6
ENDMDL
MODEL 3
REMARK VINA RESULT:    -6.708      3.146      5.417
REMARK INTER + INTRA:          -8.389
REMARK INTER:                  -8.723
REMARK INTRA:                   0.334
REMARK UNBOUND:                -0.308
REMARK SMILES O=c1c(O)c(-c2ccc(O)c(O)c2)oc2cc(O)cc(O)c12
REMARK SMILES IDX 5 1 3 2 2 3 1 4 22 5 20 6 19 7 17 8 16 9 15 10 14 11 6 12
REMARK SMILES IDX 7 13 8 14 9 15 13 16 11 17 10 18 12 20 4 22 21 24 18 26
REMARK H PARENT 10 19 12 21 4 23 21 25 18 27
REMARK Flexibility Score: inf
ROOT
ATOM      1  C   UNL     1      17.007  30.602  65.532  1.00  0.00     0.180 A 
ATOM      2  C   UNL     1      18.327  30.856  65.939  1.00  0.00     0.208 A 
ATOM      3  C   UNL     1      18.592  31.067  67.301  1.00  0.00     0.238 A 
ATOM      4  O   UNL     1      19.764  31.368  67.648  1.00  0.00    -0.285 OA
ATOM      5  C   UNL     1      17.543  30.966  68.247  1.00  0.00     0.111 A 
ATOM      6  C   UNL     1      17.705  31.117  69.659  1.00  0.00     0.134 A 
ATOM      7  C   UNL     1      16.576  31.102  70.488  1.00  0.00     0.093 A 
ATOM      8  C   UNL     1      15.300  30.879  69.965  1.00  0.00     0.123 A 
ATOM      9  C   UNL     1      15.139  30.676  68.597  1.00  0.00     0.094 A 
ATOM     10  C   UNL     1      16.240  30.723  67.738  1.00  0.00     0.146 A 
ATOM     11  O   UNL     1      16.038  30.546  66.439  1.00  0.00    -0.452 OA
ENDROOT
BRANCH   1  12
ATOM     12  C   UNL     1      16.646  30.385  64.113  1.00  0.00     0.025 A 
ATOM     13  C   UNL     1      15.450  29.727  63.798  1.00  0.00     0.016 A 
ATOM     14  C   UNL     1      15.081  29.528  62.466  1.00  0.00     0.051 A 
ATOM     15  C   UNL     1      15.889  29.995  61.424  1.00  0.00     0.157 A 
ATOM     16  C   UNL     1      17.451  30.876  63.069  1.00  0.00     0.062 A 
ATOM     17  C   UNL     1      17.087  30.684  61.730  1.00  0.00     0.158 A 
BRANCH  15  18
ATOM     18  O   UNL     1      15.467  29.758  60.115  1.00  0.00    -0.504 OA
ATOM     19  H   UNL     1      14.908  28.964  59.837  1.00  0.00     0.293 HD
ENDBRANCH  15  18
BRANCH  17  20
ATOM     20  O   UNL     1      17.934  31.196  60.745  1.00  0.00    -0.504 OA
ATOM     21  H   UNL     1      18.850  30.824  60.539  1.00  0.00     0.293 HD
ENDBRANCH  17  20
ENDBRANCH   1  12
BRANCH   2  22
ATOM     22  O   UNL     1      19.361  30.876  64.999  1.00  0.00    -0.502 OA
ATOM     23  H   UNL     1      19.427  31.582  64.275  1.00  0.00     0.293 HD
ENDBRANCH   2  22
BRANCH   6  24
ATOM     24  O   UNL     1      18.942  31.257  70.295  1.00  0.00    -0.507 OA
ATOM     25  H   UNL     1      19.681  30.570  70.280  1.00  0.00     0.293 HD
ENDBRANCH   6  24
BRANCH   8  26
ATOM     26  O   UNL     1      14.185  30.848  70.799  1.00  0.00    -0.508 OA
ATOM     27  H   UNL     1      14.084  31.497  71.572  1.00  0.00     0.293 HD
ENDBRANCH   8  26
TORSDOF 6
ENDMDL
MODEL 4
REMARK VINA RESULT:    -6.598      2.347      6.978
REMARK INTER + INTRA:          -8.256
REMARK INTER:                  -7.936
REMARK INTRA:                  -0.320
REMARK UNBOUND:                -0.308
REMARK SMILES O=c1c(O)c(-c2ccc(O)c(O)c2)oc2cc(O)cc(O)c12
REMARK SMILES IDX 5 1 3 2 2 3 1 4 22 5 20 6 19 7 17 8 16 9 15 10 14 11 6 12
REMARK SMILES IDX 7 13 8 14 9 15 13 16 11 17 10 18 12 20 4 22 21 24 18 26
REMARK H PARENT 10 19 12 21 4 23 21 25 18 27
REMARK Flexibility Score: inf
ROOT
ATOM      1  C   UNL     1      15.573  32.865  66.743  1.00  0.00     0.180 A 
ATOM      2  C   UNL     1      16.512  31.822  66.665  1.00  0.00     0.208 A 
ATOM      3  C   UNL     1      17.847  32.129  66.357  1.00  0.00     0.238 A 
ATOM      4  O   UNL     1      18.666  31.184  66.216  1.00  0.00    -0.285 OA
ATOM      5  C   UNL     1      18.238  33.480  66.186  1.00  0.00     0.111 A 
ATOM      6  C   UNL     1      19.573  33.911  65.915  1.00  0.00     0.134 A 
ATOM      7  C   UNL     1      19.822  35.265  65.659  1.00  0.00     0.093 A 
ATOM      8  C   UNL     1      18.798  36.212  65.726  1.00  0.00     0.123 A 
ATOM      9  C   UNL     1      17.503  35.809  66.043  1.00  0.00     0.094 A 
ATOM     10  C   UNL     1      17.215  34.461  66.267  1.00  0.00     0.146 A 
ATOM     11  O   UNL     1      15.963  34.118  66.545  1.00  0.00    -0.452 OA
ENDROOT
BRANCH   1  12
ATOM     12  C   UNL     1      14.145  32.619  67.048  1.00  0.00     0.025 A 
ATOM     13  C   UNL     1      13.265  32.288  66.009  1.00  0.00     0.016 A 
ATOM     14  C   UNL     1      11.919  32.033  66.277  1.00  0.00     0.051 A 
ATOM     15  C   UNL     1      11.428  32.087  67.585  1.00  0.00     0.157 A 
ATOM     16  C   UNL     1      13.662  32.652  68.368  1.00  0.00     0.062 A 
ATOM     17  C   UNL     1      12.313  32.394  68.646  1.00  0.00     0.158 A 
BRANCH  15  18
ATOM     18  O   UNL     1      10.071  31.829  67.785  1.00  0.00    -0.504 OA
ATOM     19  H   UNL     1       9.417  31.640  67.039  1.00  0.00     0.293 HD
ENDBRANCH  15  18
BRANCH  17  20
ATOM     20  O   UNL     1      11.902  32.446  69.980  1.00  0.00    -0.504 OA
ATOM     21  H   UNL     1      11.320  33.178  70.362  1.00  0.00     0.293 HD
ENDBRANCH  17  20
ENDBRANCH   1  12
BRANCH   2  22
ATOM     22  O   UNL     1      16.122  30.504  66.913  1.00  0.00    -0.502 OA
ATOM     23  H   UNL     1      15.218  30.267  67.304  1.00  0.00     0.293 HD
ENDBRANCH   2  22
BRANCH   6  24
ATOM     24  O   UNL     1      20.685  33.063  65.911  1.00  0.00    -0.507 OA
ATOM     25  H   UNL     1      20.643  32.055  65.868  1.00  0.00     0.293 HD
ENDBRANCH   6  24
BRANCH   8  26
ATOM     26  O   UNL     1      19.058  37.559  65.487  1.00  0.00    -0.508 OA
ATOM     27  H   UNL     1      19.257  38.203  66.244  1.00  0.00     0.293 HD
ENDBRANCH   8  26
TORSDOF 6
ENDMDL
MODEL 5
REMARK VINA RESULT:    -6.505      2.871      7.599
REMARK INTER + INTRA:          -8.144
REMARK INTER:                  -7.943
REMARK INTRA:                  -0.201
REMARK UNBOUND:                -0.308
REMARK SMILES O=c1c(O)c(-c2ccc(O)c(O)c2)oc2cc(O)cc(O)c12
REMARK SMILES IDX 5 1 3 2 2 3 1 4 22 5 20 6 19 7 17 8 16 9 15 10 14 11 6 12
REMARK SMILES IDX 7 13 8 14 9 15 13 16 11 17 10 18 12 20 4 22 21 24 18 26
REMARK H PARENT 10 19 12 21 4 23 21 25 18 27
REMARK Flexibility Score: inf
ROOT
ATOM      1  C   UNL     1      14.530  33.337  67.176  1.00  0.00     0.180 A 
ATOM      2  C   UNL     1      14.575  34.741  67.140  1.00  0.00     0.208 A 
ATOM      3  C   UNL     1      15.770  35.375  66.767  1.00  0.00     0.238 A 
ATOM      4  O   UNL     1      15.826  36.632  66.810  1.00  0.00    -0.285 OA
ATOM      5  C   UNL     1      16.890  34.598  66.379  1.00  0.00     0.111 A 
ATOM      6  C   UNL     1      18.138  35.135  65.939  1.00  0.00     0.134 A 
ATOM      7  C   UNL     1      19.209  34.269  65.683  1.00  0.00     0.093 A 
ATOM      8  C   UNL     1      19.059  32.885  65.789  1.00  0.00     0.123 A 
ATOM      9  C   UNL     1      17.829  32.349  66.165  1.00  0.00     0.094 A 
ATOM     10  C   UNL     1      16.753  33.187  66.464  1.00  0.00     0.146 A 
ATOM     11  O   UNL     1      15.605  32.635  66.839  1.00  0.00    -0.452 OA
ENDROOT
BRANCH   1  12
ATOM     12  C   UNL     1      13.311  32.597  67.574  1.00  0.00     0.025 A 
ATOM     13  C   UNL     1      12.867  32.662  68.902  1.00  0.00     0.016 A 
ATOM     14  C   UNL     1      11.709  31.988  69.294  1.00  0.00     0.051 A 
ATOM     15  C   UNL     1      10.963  31.251  68.369  1.00  0.00     0.157 A 
ATOM     16  C   UNL     1      12.552  31.876  66.635  1.00  0.00     0.062 A 
ATOM     17  C   UNL     1      11.387  31.200  67.019  1.00  0.00     0.158 A 
BRANCH  15  18
ATOM     18  O   UNL     1       9.820  30.594  68.827  1.00  0.00    -0.504 OA
ATOM     19  H   UNL     1       9.551  30.541  69.799  1.00  0.00     0.293 HD
ENDBRANCH  15  18
BRANCH  17  20
ATOM     20  O   UNL     1      10.684  30.502  66.035  1.00  0.00    -0.504 OA
ATOM     21  H   UNL     1       9.962  30.911  65.460  1.00  0.00     0.293 HD
ENDBRANCH  17  20
ENDBRANCH   1  12
BRANCH   2  22
ATOM     22  O   UNL     1      13.437  35.490  67.453  1.00  0.00    -0.502 OA
ATOM     23  H   UNL     1      12.507  35.215  67.161  1.00  0.00     0.293 HD
ENDBRANCH   2  22
BRANCH   6  24
ATOM     24  O   UNL     1      18.371  36.495  65.714  1.00  0.00    -0.507 OA
ATOM     25  H   UNL     1      19.249  36.965  65.872  1.00  0.00     0.293 HD
ENDBRANCH   6  24
BRANCH   8  26
ATOM     26  O   UNL     1      20.125  32.030  65.516  1.00  0.00    -0.508 OA
ATOM     27  H   UNL     1      20.584  31.506  66.251  1.00  0.00     0.293 HD
ENDBRANCH   8  26
TORSDOF 6
ENDMDL
MODEL 6
REMARK VINA RESULT:    -6.487      2.903      7.692
REMARK INTER + INTRA:          -8.122
REMARK INTER:                  -7.791
REMARK INTRA:                  -0.331
REMARK UNBOUND:                -0.308
REMARK SMILES O=c1c(O)c(-c2ccc(O)c(O)c2)oc2cc(O)cc(O)c12
REMARK SMILES IDX 5 1 3 2 2 3 1 4 22 5 20 6 19 7 17 8 16 9 15 10 14 11 6 12
REMARK SMILES IDX 7 13 8 14 9 15 13 16 11 17 10 18 12 20 4 22 21 24 18 26
REMARK H PARENT 10 19 12 21 4 23 21 25 18 27
REMARK Flexibility Score: inf
ROOT
ATOM      1  C   UNL     1      14.660  31.067  68.686  1.00  0.00     0.180 A 
ATOM      2  C   UNL     1      15.063  30.824  70.010  1.00  0.00     0.208 A 
ATOM      3  C   UNL     1      16.431  30.858  70.323  1.00  0.00     0.238 A 
ATOM      4  O   UNL     1      16.789  30.566  71.494  1.00  0.00    -0.285 OA
ATOM      5  C   UNL     1      17.376  31.191  69.321  1.00  0.00     0.111 A 
ATOM      6  C   UNL     1      18.784  31.300  69.537  1.00  0.00     0.134 A 
ATOM      7  C   UNL     1      19.632  31.531  68.446  1.00  0.00     0.093 A 
ATOM      8  C   UNL     1      19.120  31.721  67.161  1.00  0.00     0.123 A 
ATOM      9  C   UNL     1      17.744  31.671  66.951  1.00  0.00     0.094 A 
ATOM     10  C   UNL     1      16.874  31.404  68.010  1.00  0.00     0.146 A 
ATOM     11  O   UNL     1      15.572  31.345  67.761  1.00  0.00    -0.452 OA
ENDROOT
BRANCH   1  12
ATOM     12  C   UNL     1      13.238  31.034  68.276  1.00  0.00     0.025 A 
ATOM     13  C   UNL     1      12.487  32.217  68.292  1.00  0.00     0.016 A 
ATOM     14  C   UNL     1      11.150  32.211  67.891  1.00  0.00     0.051 A 
ATOM     15  C   UNL     1      10.541  31.032  67.450  1.00  0.00     0.157 A 
ATOM     16  C   UNL     1      12.637  29.850  67.812  1.00  0.00     0.062 A 
ATOM     17  C   UNL     1      11.297  29.836  67.403  1.00  0.00     0.158 A 
BRANCH  15  18
ATOM     18  O   UNL     1       9.200  31.093  67.069  1.00  0.00    -0.504 OA
ATOM     19  H   UNL     1       8.493  31.609  67.573  1.00  0.00     0.293 HD
ENDBRANCH  15  18
BRANCH  17  20
ATOM     20  O   UNL     1      10.765  28.625  66.956  1.00  0.00    -0.504 OA
ATOM     21  H   UNL     1       9.788  28.482  66.745  1.00  0.00     0.293 HD
ENDBRANCH  17  20
ENDBRANCH   1  12
BRANCH   2  22
ATOM     22  O   UNL     1      14.110  30.572  71.001  1.00  0.00    -0.502 OA
ATOM     23  H   UNL     1      13.878  31.249  71.718  1.00  0.00     0.293 HD
ENDBRANCH   2  22
BRANCH   6  24
ATOM     24  O   UNL     1      19.393  31.216  70.792  1.00  0.00    -0.507 OA
ATOM     25  H   UNL     1      19.971  31.933  71.203  1.00  0.00     0.293 HD
ENDBRANCH   6  24
BRANCH   8  26
ATOM     26  O   UNL     1      19.970  31.967  66.086  1.00  0.00    -0.508 OA
ATOM     27  H   UNL     1      19.962  31.380  65.259  1.00  0.00     0.293 HD
ENDBRANCH   8  26
TORSDOF 6
ENDMDL
MODEL 7
REMARK VINA RESULT:    -6.434      2.092      2.853
REMARK INTER + INTRA:          -8.058
REMARK INTER:                  -7.916
REMARK INTRA:                  -0.142
REMARK UNBOUND:                -0.308
REMARK SMILES O=c1c(O)c(-c2ccc(O)c(O)c2)oc2cc(O)cc(O)c12
REMARK SMILES IDX 5 1 3 2 2 3 1 4 22 5 20 6 19 7 17 8 16 9 15 10 14 11 6 12
REMARK SMILES IDX 7 13 8 14 9 15 13 16 11 17 10 18 12 20 4 22 21 24 18 26
REMARK H PARENT 10 19 12 21 4 23 21 25 18 27
REMARK Flexibility Score: inf
ROOT
ATOM      1  C   UNL     1      16.623  31.891  67.652  1.00  0.00     0.180 A 
ATOM      2  C   UNL     1      15.555  31.244  67.006  1.00  0.00     0.208 A 
ATOM      3  C   UNL     1      14.867  30.224  67.682  1.00  0.00     0.238 A 
ATOM      4  O   UNL     1      13.962  29.599  67.070  1.00  0.00    -0.285 OA
ATOM      5  C   UNL     1      15.218  29.901  69.016  1.00  0.00     0.111 A 
ATOM      6  C   UNL     1      14.559  28.915  69.812  1.00  0.00     0.134 A 
ATOM      7  C   UNL     1      15.062  28.606  71.083  1.00  0.00     0.093 A 
ATOM      8  C   UNL     1      16.159  29.291  71.610  1.00  0.00     0.123 A 
ATOM      9  C   UNL     1      16.774  30.292  70.863  1.00  0.00     0.094 A 
ATOM     10  C   UNL     1      16.321  30.597  69.577  1.00  0.00     0.146 A 
ATOM     11  O   UNL     1      16.949  31.544  68.891  1.00  0.00    -0.452 OA
ENDROOT
BRANCH   1  12
ATOM     12  C   UNL     1      17.405  32.965  66.999  1.00  0.00     0.025 A 
ATOM     13  C   UNL     1      16.775  34.171  66.665  1.00  0.00     0.016 A 
ATOM     14  C   UNL     1      17.498  35.205  66.067  1.00  0.00     0.051 A 
ATOM     15  C   UNL     1      18.865  35.062  65.806  1.00  0.00     0.157 A 
ATOM     16  C   UNL     1      18.783  32.825  66.760  1.00  0.00     0.062 A 
ATOM     17  C   UNL     1      19.518  33.858  66.164  1.00  0.00     0.158 A 
BRANCH  15  18
ATOM     18  O   UNL     1      19.528  36.130  65.200  1.00  0.00    -0.504 OA
ATOM     19  H   UNL     1      20.388  36.530  65.546  1.00  0.00     0.293 HD
ENDBRANCH  15  18
BRANCH  17  20
ATOM     20  O   UNL     1      20.883  33.650  65.953  1.00  0.00    -0.504 OA
ATOM     21  H   UNL     1      21.356  33.848  65.084  1.00  0.00     0.293 HD
ENDBRANCH  17  20
ENDBRANCH   1  12
BRANCH   2  22
ATOM     22  O   UNL     1      15.175  31.630  65.718  1.00  0.00    -0.502 OA
ATOM     23  H   UNL     1      15.176  30.988  64.934  1.00  0.00     0.293 HD
ENDBRANCH   2  22
BRANCH   6  24
ATOM     24  O   UNL     1      13.403  28.234  69.419  1.00  0.00    -0.507 OA
ATOM     25  H   UNL     1      13.391  27.371  68.895  1.00  0.00     0.293 HD
ENDBRANCH   6  24
BRANCH   8  26
ATOM     26  O   UNL     1      16.642  28.989  72.881  1.00  0.00    -0.508 OA
ATOM     27  H   UNL     1      16.855  29.717  73.554  1.00  0.00     0.293 HD
ENDBRANCH   8  26
TORSDOF 6
ENDMDL
MODEL 8
REMARK VINA RESULT:    -6.417      3.027      7.115
REMARK INTER + INTRA:          -8.038
REMARK INTER:                  -7.797
REMARK INTRA:                  -0.241
REMARK UNBOUND:                -0.308
REMARK SMILES O=c1c(O)c(-c2ccc(O)c(O)c2)oc2cc(O)cc(O)c12
REMARK SMILES IDX 5 1 3 2 2 3 1 4 22 5 20 6 19 7 17 8 16 9 15 10 14 11 6 12
REMARK SMILES IDX 7 13 8 14 9 15 13 16 11 17 10 18 12 20 4 22 21 24 18 26
REMARK H PARENT 10 19 12 21 4 23 21 25 18 27
REMARK Flexibility Score: inf
ROOT
ATOM      1  C   UNL     1      14.925  31.161  67.876  1.00  0.00     0.180 A 
ATOM      2  C   UNL     1      15.548  31.451  66.650  1.00  0.00     0.208 A 
ATOM      3  C   UNL     1      16.946  31.561  66.606  1.00  0.00     0.238 A 
ATOM      4  O   UNL     1      17.491  31.894  65.521  1.00  0.00    -0.285 OA
ATOM      5  C   UNL     1      17.710  31.325  67.776  1.00  0.00     0.111 A 
ATOM      6  C   UNL     1      19.136  31.365  67.836  1.00  0.00     0.134 A 
ATOM      7  C   UNL     1      19.779  31.220  69.072  1.00  0.00     0.093 A 
ATOM      8  C   UNL     1      19.051  30.973  70.238  1.00  0.00     0.123 A 
ATOM      9  C   UNL     1      17.663  30.877  70.180  1.00  0.00     0.094 A 
ATOM     10  C   UNL     1      16.990  31.055  68.969  1.00  0.00     0.146 A 
ATOM     11  O   UNL     1      15.665  30.977  68.963  1.00  0.00    -0.452 OA
ENDROOT
BRANCH   1  12
ATOM     12  C   UNL     1      13.454  31.044  68.006  1.00  0.00     0.025 A 
ATOM     13  C   UNL     1      12.731  32.080  68.612  1.00  0.00     0.016 A 
ATOM     14  C   UNL     1      11.342  31.998  68.727  1.00  0.00     0.051 A 
ATOM     15  C   UNL     1      10.647  30.892  68.227  1.00  0.00     0.157 A 
ATOM     16  C   UNL     1      12.759  29.941  67.481  1.00  0.00     0.062 A 
ATOM     17  C   UNL     1      11.365  29.853  67.589  1.00  0.00     0.158 A 
BRANCH  15  18
ATOM     18  O   UNL     1       9.260  30.869  68.380  1.00  0.00    -0.504 OA
ATOM     19  H   UNL     1       8.785  31.061  69.250  1.00  0.00     0.293 HD
ENDBRANCH  15  18
BRANCH  17  20
ATOM     20  O   UNL     1      10.739  28.728  67.047  1.00  0.00    -0.504 OA
ATOM     21  H   UNL     1       9.741  28.645  66.917  1.00  0.00     0.293 HD
ENDBRANCH  17  20
ENDBRANCH   1  12
BRANCH   2  22
ATOM     22  O   UNL     1      14.782  31.605  65.492  1.00  0.00    -0.502 OA
ATOM     23  H   UNL     1      15.162  31.986  64.633  1.00  0.00     0.293 HD
ENDBRANCH   2  22
BRANCH   6  24
ATOM     24  O   UNL     1      19.964  31.518  66.720  1.00  0.00    -0.507 OA
ATOM     25  H   UNL     1      19.640  31.629  65.771  1.00  0.00     0.293 HD
ENDBRANCH   6  24
BRANCH   8  26
ATOM     26  O   UNL     1      19.699  30.813  71.461  1.00  0.00    -0.508 OA
ATOM     27  H   UNL     1      20.688  31.007  71.565  1.00  0.00     0.293 HD
ENDBRANCH   8  26
TORSDOF 6
ENDMDL
MODEL 9
REMARK VINA RESULT:    -6.244      3.817      7.277
REMARK INTER + INTRA:          -7.830
REMARK INTER:                  -7.667
REMARK INTRA:                  -0.163
REMARK UNBOUND:                -0.308
REMARK SMILES O=c1c(O)c(-c2ccc(O)c(O)c2)oc2cc(O)cc(O)c12
REMARK SMILES IDX 5 1 3 2 2 3 1 4 22 5 20 6 19 7 17 8 16 9 15 10 14 11 6 12
REMARK SMILES IDX 7 13 8 14 9 15 13 16 11 17 10 18 12 20 4 22 21 24 18 26
REMARK H PARENT 10 19 12 21 4 23 21 25 18 27
REMARK Flexibility Score: inf
ROOT
ATOM      1  C   UNL     1      13.879  31.405  68.068  1.00  0.00     0.180 A 
ATOM      2  C   UNL     1      14.978  32.003  67.428  1.00  0.00     0.208 A 
ATOM      3  C   UNL     1      16.249  31.895  68.013  1.00  0.00     0.238 A 
ATOM      4  O   UNL     1      17.215  32.496  67.474  1.00  0.00    -0.285 OA
ATOM      5  C   UNL     1      16.417  31.142  69.201  1.00  0.00     0.111 A 
ATOM      6  C   UNL     1      17.668  30.928  69.858  1.00  0.00     0.134 A 
ATOM      7  C   UNL     1      17.695  30.256  71.086  1.00  0.00     0.093 A 
ATOM      8  C   UNL     1      16.529  29.735  71.650  1.00  0.00     0.123 A 
ATOM      9  C   UNL     1      15.312  29.891  70.990  1.00  0.00     0.094 A 
ATOM     10  C   UNL     1      15.245  30.590  69.782  1.00  0.00     0.146 A 
ATOM     11  O   UNL     1      14.062  30.734  69.199  1.00  0.00    -0.452 OA
ENDROOT
BRANCH   1  12
ATOM     12  C   UNL     1      12.506  31.488  67.520  1.00  0.00     0.025 A 
ATOM     13  C   UNL     1      11.874  32.736  67.432  1.00  0.00     0.016 A 
ATOM     14  C   UNL     1      10.587  32.839  66.901  1.00  0.00     0.051 A 
ATOM     15  C   UNL     1       9.913  31.706  66.434  1.00  0.00     0.157 A 
ATOM     16  C   UNL     1      11.843  30.350  67.031  1.00  0.00     0.062 A 
ATOM     17  C   UNL     1      10.552  30.445  66.493  1.00  0.00     0.158 A 
BRANCH  15  18
ATOM     18  O   UNL     1       8.626  31.878  65.921  1.00  0.00    -0.504 OA
ATOM     19  H   UNL     1       7.790  31.886  66.487  1.00  0.00     0.293 HD
ENDBRANCH  15  18
BRANCH  17  20
ATOM     20  O   UNL     1       9.952  29.273  66.027  1.00  0.00    -0.504 OA
ATOM     21  H   UNL     1      10.250  28.345  66.288  1.00  0.00     0.293 HD
ENDBRANCH  17  20
ENDBRANCH   1  12
BRANCH   2  22
ATOM     22  O   UNL     1      14.805  32.676  66.215  1.00  0.00    -0.502 OA
ATOM     23  H   UNL     1      15.168  33.608  66.053  1.00  0.00     0.293 HD
ENDBRANCH   2  22
BRANCH   6  24
ATOM     24  O   UNL     1      18.903  31.328  69.340  1.00  0.00    -0.507 OA
ATOM     25  H   UNL     1      19.689  30.716  69.182  1.00  0.00     0.293 HD
ENDBRANCH   6  24
BRANCH   8  26
ATOM     26  O   UNL     1      16.568  29.053  72.864  1.00  0.00    -0.508 OA
ATOM     27  H   UNL     1      17.447  28.808  73.305  1.00  0.00     0.293 HD
ENDBRANCH   8  26
TORSDOF 6
ENDMDL
