MODEL 1
REMARK VINA RESULT:    -7.522      0.000      0.000
REMARK INTER + INTRA:          -9.133
REMARK INTER:                  -8.841
REMARK INTRA:                  -0.292
REMARK UNBOUND:                -0.292
REMARK SMILES O=c1cc(-c2ccc(O)c(O)c2)oc2cc(O)cc(O)c12
REMARK SMILES IDX 4 1 3 2 2 3 1 4 21 5 19 6 18 7 16 8 15 9 14 10 13 11 5 12
REMARK SMILES IDX 6 13 7 14 8 15 12 16 10 17 9 18 11 20 20 22 17 24
REMARK H PARENT 9 19 11 21 20 23 17 25
REMARK Flexibility Score: inf
ROOT
ATOM      1  C   UNL     1      -8.582  48.979  55.801  1.00  0.00     0.138 A 
ATOM      2  C   UNL     1      -9.421  47.869  56.000  1.00  0.00     0.100 A 
ATOM      3  C   UNL     1     -10.714  47.882  55.473  1.00  0.00     0.197 A 
ATOM      4  O   UNL     1     -11.458  46.881  55.655  1.00  0.00    -0.289 OA
ATOM      5  C   UNL     1     -11.157  49.005  54.746  1.00  0.00     0.107 A 
ATOM      6  C   UNL     1     -12.450  49.099  54.180  1.00  0.00     0.134 A 
ATOM      7  C   UNL     1     -12.814  50.251  53.466  1.00  0.00     0.093 A 
ATOM      8  C   UNL     1     -11.912  51.305  53.307  1.00  0.00     0.123 A 
ATOM      9  C   UNL     1     -10.632  51.217  53.864  1.00  0.00     0.094 A 
ATOM     10  C   UNL     1     -10.251  50.079  54.580  1.00  0.00     0.146 A 
ATOM     11  O   UNL     1      -9.030  50.019  55.101  1.00  0.00    -0.456 OA
ENDROOT
BRANCH   1  12
ATOM     12  C   UNL     1      -7.199  49.020  56.337  1.00  0.00     0.021 A 
ATOM     13  C   UNL     1      -6.357  47.911  56.162  1.00  0.00     0.016 A 
ATOM     14  C   UNL     1      -5.050  47.928  56.650  1.00  0.00     0.051 A 
ATOM     15  C   UNL     1      -4.550  49.052  57.316  1.00  0.00     0.157 A 
ATOM     16  C   UNL     1      -6.694  50.157  56.994  1.00  0.00     0.062 A 
ATOM     17  C   UNL     1      -5.381  50.184  57.486  1.00  0.00     0.158 A 
BRANCH  15  18
ATOM     18  O   UNL     1      -3.236  49.003  57.786  1.00  0.00    -0.504 OA
ATOM     19  H   UNL     1      -2.516  49.658  57.519  1.00  0.00     0.293 HD
ENDBRANCH  15  18
BRANCH  17  20
ATOM     20  O   UNL     1      -4.948  51.347  58.125  1.00  0.00    -0.504 OA
ATOM     21  H   UNL     1      -5.543  51.935  58.692  1.00  0.00     0.293 HD
ENDBRANCH  17  20
ENDBRANCH   1  12
BRANCH   6  22
ATOM     22  O   UNL     1     -13.374  48.062  54.322  1.00  0.00    -0.507 OA
ATOM     23  H   UNL     1     -13.848  47.887  55.201  1.00  0.00     0.293 HD
ENDBRANCH   6  22
BRANCH   8  24
ATOM     24  O   UNL     1     -12.298  52.437  52.591  1.00  0.00    -0.508 OA
ATOM     25  H   UNL     1     -12.757  52.363  51.691  1.00  0.00     0.293 HD
ENDBRANCH   8  24
TORSDOF 5
ENDMDL
MODEL 2
REMARK VINA RESULT:    -7.453      3.673      8.700
REMARK INTER + INTRA:          -9.052
REMARK INTER:                  -8.771
REMARK INTRA:                  -0.281
REMARK UNBOUND:                -0.292
REMARK SMILES O=c1cc(-c2ccc(O)c(O)c2)oc2cc(O)cc(O)c12
REMARK SMILES IDX 4 1 3 2 2 3 1 4 21 5 19 6 18 7 16 8 15 9 14 10 13 11 5 12
REMARK SMILES IDX 6 13 7 14 8 15 12 16 10 17 9 18 11 20 20 22 17 24
REMARK H PARENT 9 19 11 21 20 23 17 25
REMARK Flexibility Score: inf
ROOT
ATOM      1  C   UNL     1     -14.579  48.457  53.677  1.00  0.00     0.138 A 
ATOM      2  C   UNL     1     -13.824  47.485  54.355  1.00  0.00     0.100 A 
ATOM      3  C   UNL     1     -12.495  47.753  54.684  1.00  0.00     0.197 A 
ATOM      4  O   UNL     1     -11.826  46.875  55.294  1.00  0.00    -0.289 OA
ATOM      5  C   UNL     1     -11.930  48.997  54.337  1.00  0.00     0.107 A 
ATOM      6  C   UNL     1     -10.592  49.349  54.633  1.00  0.00     0.134 A 
ATOM      7  C   UNL     1     -10.105  50.610  54.257  1.00  0.00     0.093 A 
ATOM      8  C   UNL     1     -10.929  51.522  53.594  1.00  0.00     0.123 A 
ATOM      9  C   UNL     1     -12.253  51.180  53.299  1.00  0.00     0.094 A 
ATOM     10  C   UNL     1     -12.756  49.928  53.665  1.00  0.00     0.146 A 
ATOM     11  O   UNL     1     -14.016  49.625  53.372  1.00  0.00    -0.456 OA
ENDROOT
BRANCH   1  12
ATOM     12  C   UNL     1     -15.996  48.227  53.301  1.00  0.00     0.021 A 
ATOM     13  C   UNL     1     -16.329  47.117  52.510  1.00  0.00     0.016 A 
ATOM     14  C   UNL     1     -17.655  46.875  52.150  1.00  0.00     0.051 A 
ATOM     15  C   UNL     1     -18.679  47.728  52.575  1.00  0.00     0.157 A 
ATOM     16  C   UNL     1     -17.026  49.079  53.743  1.00  0.00     0.062 A 
ATOM     17  C   UNL     1     -18.361  48.841  53.388  1.00  0.00     0.158 A 
BRANCH  15  18
ATOM     18  O   UNL     1     -19.984  47.433  52.175  1.00  0.00    -0.504 OA
ATOM     19  H   UNL     1     -20.789  47.501  52.780  1.00  0.00     0.293 HD
ENDBRANCH  15  18
BRANCH  17  20
ATOM     20  O   UNL     1     -19.329  49.727  53.865  1.00  0.00    -0.504 OA
ATOM     21  H   UNL     1     -19.803  49.623  54.750  1.00  0.00     0.293 HD
ENDBRANCH  17  20
ENDBRANCH   1  12
BRANCH   6  22
ATOM     22  O   UNL     1      -9.745  48.459  55.294  1.00  0.00    -0.507 OA
ATOM     23  H   UNL     1      -9.683  48.433  56.306  1.00  0.00     0.293 HD
ENDBRANCH   6  22
BRANCH   8  24
ATOM     24  O   UNL     1     -10.421  52.769  53.233  1.00  0.00    -0.508 OA
ATOM     25  H   UNL     1     -11.031  53.563  53.071  1.00  0.00     0.293 HD
ENDBRANCH   8  24
TORSDOF 5
ENDMDL
MODEL 3
REMARK VINA RESULT:    -7.205      1.991      6.968
REMARK INTER + INTRA:          -8.760
REMARK INTER:                  -8.483
REMARK INTRA:                  -0.278
REMARK UNBOUND:                -0.292
REMARK SMILES O=c1cc(-c2ccc(O)c(O)c2)oc2cc(O)cc(O)c12
REMARK SMILES IDX 4 1 3 2 2 3 1 4 21 5 19 6 18 7 16 8 15 9 14 10 13 11 5 12
REMARK SMILES IDX 6 13 7 14 8 15 12 16 10 17 9 18 11 20 20 22 17 24
REMARK H PARENT 9 19 11 21 20 23 17 25
REMARK Flexibility Score: inf
ROOT
ATOM      1  C   UNL     1      -8.478  49.486  55.187  1.00  0.00     0.138 A 
ATOM      2  C   UNL     1      -8.100  49.488  56.540  1.00  0.00     0.100 A 
ATOM      3  C   UNL     1      -6.745  49.482  56.875  1.00  0.00     0.197 A 
ATOM      4  O   UNL     1      -6.416  49.486  58.092  1.00  0.00    -0.289 OA
ATOM      5  C   UNL     1      -5.776  49.481  55.851  1.00  0.00     0.107 A 
ATOM      6  C   UNL     1      -4.384  49.475  56.104  1.00  0.00     0.134 A 
ATOM      7  C   UNL     1      -3.483  49.478  55.028  1.00  0.00     0.093 A 
ATOM      8  C   UNL     1      -3.946  49.488  53.711  1.00  0.00     0.123 A 
ATOM      9  C   UNL     1      -5.321  49.494  53.455  1.00  0.00     0.094 A 
ATOM     10  C   UNL     1      -6.235  49.490  54.513  1.00  0.00     0.146 A 
ATOM     11  O   UNL     1      -7.537  49.494  54.245  1.00  0.00    -0.456 OA
ENDROOT
BRANCH   1  12
ATOM     12  C   UNL     1      -9.904  49.492  54.772  1.00  0.00     0.021 A 
ATOM     13  C   UNL     1     -10.742  48.438  55.167  1.00  0.00     0.016 A 
ATOM     14  C   UNL     1     -12.087  48.424  54.796  1.00  0.00     0.051 A 
ATOM     15  C   UNL     1     -12.628  49.462  54.031  1.00  0.00     0.157 A 
ATOM     16  C   UNL     1     -10.449  50.545  54.014  1.00  0.00     0.062 A 
ATOM     17  C   UNL     1     -11.800  50.540  53.640  1.00  0.00     0.158 A 
BRANCH  15  18
ATOM     18  O   UNL     1     -13.979  49.385  53.688  1.00  0.00    -0.504 OA
ATOM     19  H   UNL     1     -14.439  50.022  53.054  1.00  0.00     0.293 HD
ENDBRANCH  15  18
BRANCH  17  20
ATOM     20  O   UNL     1     -12.272  51.619  52.890  1.00  0.00    -0.504 OA
ATOM     21  H   UNL     1     -11.887  51.899  51.999  1.00  0.00     0.293 HD
ENDBRANCH  17  20
ENDBRANCH   1  12
BRANCH   6  22
ATOM     22  O   UNL     1      -3.891  49.465  57.409  1.00  0.00    -0.507 OA
ATOM     23  H   UNL     1      -4.254  50.090  58.120  1.00  0.00     0.293 HD
ENDBRANCH   6  22
BRANCH   8  24
ATOM     24  O   UNL     1      -3.030  49.492  52.661  1.00  0.00    -0.508 OA
ATOM     25  H   UNL     1      -3.040  48.773  51.946  1.00  0.00     0.293 HD
ENDBRANCH   8  24
TORSDOF 5
ENDMDL
MODEL 4
REMARK VINA RESULT:    -7.103      1.252      2.810
REMARK INTER + INTRA:          -8.641
REMARK INTER:                  -8.356
REMARK INTRA:                  -0.285
REMARK UNBOUND:                -0.292
REMARK SMILES O=c1cc(-c2ccc(O)c(O)c2)oc2cc(O)cc(O)c12
REMARK SMILES IDX 4 1 3 2 2 3 1 4 21 5 19 6 18 7 16 8 15 9 14 10 13 11 5 12
REMARK SMILES IDX 6 13 7 14 8 15 12 16 10 17 9 18 11 20 20 22 17 24
REMARK H PARENT 9 19 11 21 20 23 17 25
REMARK Flexibility Score: inf
ROOT
ATOM      1  C   UNL     1      -9.432  49.503  55.279  1.00  0.00     0.138 A 
ATOM      2  C   UNL     1      -9.617  50.712  54.586  1.00  0.00     0.100 A 
ATOM      3  C   UNL     1     -10.808  50.931  53.893  1.00  0.00     0.197 A 
ATOM      4  O   UNL     1     -10.965  52.019  53.276  1.00  0.00    -0.289 OA
ATOM      5  C   UNL     1     -11.811  49.940  53.902  1.00  0.00     0.107 A 
ATOM      6  C   UNL     1     -13.045  50.083  53.226  1.00  0.00     0.134 A 
ATOM      7  C   UNL     1     -13.994  49.050  53.288  1.00  0.00     0.093 A 
ATOM      8  C   UNL     1     -13.732  47.885  54.011  1.00  0.00     0.123 A 
ATOM      9  C   UNL     1     -12.513  47.738  54.681  1.00  0.00     0.094 A 
ATOM     10  C   UNL     1     -11.555  48.755  54.631  1.00  0.00     0.146 A 
ATOM     11  O   UNL     1     -10.403  48.592  55.274  1.00  0.00    -0.456 OA
ENDROOT
BRANCH   1  12
ATOM     12  C   UNL     1      -8.186  49.215  56.033  1.00  0.00     0.021 A 
ATOM     13  C   UNL     1      -7.689  47.903  56.069  1.00  0.00     0.016 A 
ATOM     14  C   UNL     1      -6.516  47.608  56.766  1.00  0.00     0.051 A 
ATOM     15  C   UNL     1      -5.809  48.613  57.434  1.00  0.00     0.157 A 
ATOM     16  C   UNL     1      -7.469  50.231  56.692  1.00  0.00     0.062 A 
ATOM     17  C   UNL     1      -6.288  49.943  57.392  1.00  0.00     0.158 A 
BRANCH  15  18
ATOM     18  O   UNL     1      -4.647  48.251  58.116  1.00  0.00    -0.504 OA
ATOM     19  H   UNL     1      -4.634  47.898  59.062  1.00  0.00     0.293 HD
ENDBRANCH  15  18
BRANCH  17  20
ATOM     20  O   UNL     1      -5.630  51.002  58.020  1.00  0.00    -0.504 OA
ATOM     21  H   UNL     1      -6.101  51.759  58.494  1.00  0.00     0.293 HD
ENDBRANCH  17  20
ENDBRANCH   1  12
BRANCH   6  22
ATOM     22  O   UNL     1     -13.336  51.236  52.496  1.00  0.00    -0.507 OA
ATOM     23  H   UNL     1     -12.851  52.110  52.665  1.00  0.00     0.293 HD
ENDBRANCH   6  22
BRANCH   8  24
ATOM     24  O   UNL     1     -14.692  46.875  54.056  1.00  0.00    -0.508 OA
ATOM     25  H   UNL     1     -14.992  46.391  53.218  1.00  0.00     0.293 HD
ENDBRANCH   8  24
TORSDOF 5
ENDMDL
MODEL 5
REMARK VINA RESULT:    -7.079     20.541     21.703
REMARK INTER + INTRA:          -8.613
REMARK INTER:                  -8.347
REMARK INTRA:                  -0.266
REMARK UNBOUND:                -0.292
REMARK SMILES O=c1cc(-c2ccc(O)c(O)c2)oc2cc(O)cc(O)c12
REMARK SMILES IDX 4 1 3 2 2 3 1 4 21 5 19 6 18 7 16 8 15 9 14 10 13 11 5 12
REMARK SMILES IDX 6 13 7 14 8 15 12 16 10 17 9 18 11 20 20 22 17 24
REMARK H PARENT 9 19 11 21 20 23 17 25
REMARK Flexibility Score: inf
ROOT
ATOM      1  C   UNL     1     -11.824  62.801  39.267  1.00  0.00     0.138 A 
ATOM      2  C   UNL     1     -11.871  61.398  39.209  1.00  0.00     0.100 A 
ATOM      3  C   UNL     1     -13.074  60.763  38.894  1.00  0.00     0.197 A 
ATOM      4  O   UNL     1     -13.106  59.504  38.843  1.00  0.00    -0.289 OA
ATOM      5  C   UNL     1     -14.222  61.539  38.634  1.00  0.00     0.107 A 
ATOM      6  C   UNL     1     -15.478  60.976  38.309  1.00  0.00     0.134 A 
ATOM      7  C   UNL     1     -16.573  61.817  38.060  1.00  0.00     0.093 A 
ATOM      8  C   UNL     1     -16.434  63.205  38.128  1.00  0.00     0.123 A 
ATOM      9  C   UNL     1     -15.195  63.768  38.449  1.00  0.00     0.094 A 
ATOM     10  C   UNL     1     -14.092  62.946  38.702  1.00  0.00     0.146 A 
ATOM     11  O   UNL     1     -12.925  63.503  39.007  1.00  0.00    -0.456 OA
ENDROOT
BRANCH   1  12
ATOM     12  C   UNL     1     -10.573  63.529  39.596  1.00  0.00     0.021 A 
ATOM     13  C   UNL     1     -10.237  63.753  40.940  1.00  0.00     0.016 A 
ATOM     14  C   UNL     1      -9.064  64.429  41.276  1.00  0.00     0.051 A 
ATOM     15  C   UNL     1      -8.195  64.890  40.281  1.00  0.00     0.157 A 
ATOM     16  C   UNL     1      -9.693  63.979  38.594  1.00  0.00     0.062 A 
ATOM     17  C   UNL     1      -8.511  64.657  38.922  1.00  0.00     0.158 A 
BRANCH  15  18
ATOM     18  O   UNL     1      -7.041  65.564  40.683  1.00  0.00    -0.504 OA
ATOM     19  H   UNL     1      -6.922  65.991  41.590  1.00  0.00     0.293 HD
ENDBRANCH  15  18
BRANCH  17  20
ATOM     20  O   UNL     1      -7.686  65.072  37.875  1.00  0.00    -0.504 OA
ATOM     21  H   UNL     1      -7.521  64.532  37.038  1.00  0.00     0.293 HD
ENDBRANCH  17  20
ENDBRANCH   1  12
BRANCH   6  22
ATOM     22  O   UNL     1     -15.647  59.593  38.233  1.00  0.00    -0.507 OA
ATOM     23  H   UNL     1     -14.894  58.978  37.947  1.00  0.00     0.293 HD
ENDBRANCH   6  22
BRANCH   8  24
ATOM     24  O   UNL     1     -17.538  64.018  37.875  1.00  0.00    -0.508 OA
ATOM     25  H   UNL     1     -17.443  64.903  37.389  1.00  0.00     0.293 HD
ENDBRANCH   8  24
TORSDOF 5
ENDMDL
MODEL 6
REMARK VINA RESULT:    -6.942      3.086      8.617
REMARK INTER + INTRA:          -8.451
REMARK INTER:                  -8.182
REMARK INTRA:                  -0.269
REMARK UNBOUND:                -0.292
REMARK SMILES O=c1cc(-c2ccc(O)c(O)c2)oc2cc(O)cc(O)c12
REMARK SMILES IDX 4 1 3 2 2 3 1 4 21 5 19 6 18 7 16 8 15 9 14 10 13 11 5 12
REMARK SMILES IDX 6 13 7 14 8 15 12 16 10 17 9 18 11 20 20 22 17 24
REMARK H PARENT 9 19 11 21 20 23 17 25
REMARK Flexibility Score: inf
ROOT
ATOM      1  C   UNL     1     -13.746  48.935  53.620  1.00  0.00     0.138 A 
ATOM      2  C   UNL     1     -13.206  50.154  53.175  1.00  0.00     0.100 A 
ATOM      3  C   UNL     1     -11.907  50.506  53.545  1.00  0.00     0.197 A 
ATOM      4  O   UNL     1     -11.432  51.601  53.139  1.00  0.00    -0.289 OA
ATOM      5  C   UNL     1     -11.153  49.632  54.354  1.00  0.00     0.107 A 
ATOM      6  C   UNL     1      -9.832  49.913  54.773  1.00  0.00     0.134 A 
ATOM      7  C   UNL     1      -9.146  48.988  55.575  1.00  0.00     0.093 A 
ATOM      8  C   UNL     1      -9.755  47.792  55.963  1.00  0.00     0.123 A 
ATOM      9  C   UNL     1     -11.062  47.510  55.552  1.00  0.00     0.094 A 
ATOM     10  C   UNL     1     -11.762  48.418  54.753  1.00  0.00     0.146 A 
ATOM     11  O   UNL     1     -13.003  48.129  54.376  1.00  0.00    -0.456 OA
ENDROOT
BRANCH   1  12
ATOM     12  C   UNL     1     -15.121  48.508  53.259  1.00  0.00     0.021 A 
ATOM     13  C   UNL     1     -15.310  47.302  52.567  1.00  0.00     0.016 A 
ATOM     14  C   UNL     1     -16.593  46.876  52.221  1.00  0.00     0.051 A 
ATOM     15  C   UNL     1     -17.715  47.636  52.565  1.00  0.00     0.157 A 
ATOM     16  C   UNL     1     -16.250  49.268  53.618  1.00  0.00     0.062 A 
ATOM     17  C   UNL     1     -17.542  48.845  53.278  1.00  0.00     0.158 A 
BRANCH  15  18
ATOM     18  O   UNL     1     -18.970  47.157  52.185  1.00  0.00    -0.504 OA
ATOM     19  H   UNL     1     -19.482  47.488  51.380  1.00  0.00     0.293 HD
ENDBRANCH  15  18
BRANCH  17  20
ATOM     20  O   UNL     1     -18.614  49.649  53.669  1.00  0.00    -0.504 OA
ATOM     21  H   UNL     1     -19.220  50.136  53.024  1.00  0.00     0.293 HD
ENDBRANCH  17  20
ENDBRANCH   1  12
BRANCH   6  22
ATOM     22  O   UNL     1      -9.197  51.098  54.401  1.00  0.00    -0.507 OA
ATOM     23  H   UNL     1      -8.342  51.408  54.849  1.00  0.00     0.293 HD
ENDBRANCH   6  22
BRANCH   8  24
ATOM     24  O   UNL     1      -9.051  46.891  56.760  1.00  0.00    -0.508 OA
ATOM     25  H   UNL     1      -8.108  46.602  56.526  1.00  0.00     0.293 HD
ENDBRANCH   8  24
TORSDOF 5
ENDMDL
MODEL 7
REMARK VINA RESULT:    -6.741     19.568     21.580
REMARK INTER + INTRA:          -8.215
REMARK INTER:                  -7.950
REMARK INTRA:                  -0.265
REMARK UNBOUND:                -0.292
REMARK SMILES O=c1cc(-c2ccc(O)c(O)c2)oc2cc(O)cc(O)c12
REMARK SMILES IDX 4 1 3 2 2 3 1 4 21 5 19 6 18 7 16 8 15 9 14 10 13 11 5 12
REMARK SMILES IDX 6 13 7 14 8 15 12 16 10 17 9 18 11 20 20 22 17 24
REMARK H PARENT 9 19 11 21 20 23 17 25
REMARK Flexibility Score: inf
ROOT
ATOM      1  C   UNL     1     -10.690  63.291  39.455  1.00  0.00     0.138 A 
ATOM      2  C   UNL     1     -10.486  62.029  40.039  1.00  0.00     0.100 A 
ATOM      3  C   UNL     1     -11.549  61.127  40.114  1.00  0.00     0.197 A 
ATOM      4  O   UNL     1     -11.356  59.997  40.638  1.00  0.00    -0.289 OA
ATOM      5  C   UNL     1     -12.809  61.493  39.600  1.00  0.00     0.107 A 
ATOM      6  C   UNL     1     -13.937  60.640  39.637  1.00  0.00     0.134 A 
ATOM      7  C   UNL     1     -15.157  61.078  39.099  1.00  0.00     0.093 A 
ATOM      8  C   UNL     1     -15.268  62.347  38.526  1.00  0.00     0.123 A 
ATOM      9  C   UNL     1     -14.156  63.194  38.486  1.00  0.00     0.094 A 
ATOM     10  C   UNL     1     -12.933  62.777  39.018  1.00  0.00     0.146 A 
ATOM     11  O   UNL     1     -11.891  63.601  38.971  1.00  0.00    -0.456 OA
ENDROOT
BRANCH   1  12
ATOM     12  C   UNL     1      -9.597  64.289  39.347  1.00  0.00     0.021 A 
ATOM     13  C   UNL     1      -9.052  64.583  38.087  1.00  0.00     0.016 A 
ATOM     14  C   UNL     1      -8.028  65.522  37.958  1.00  0.00     0.051 A 
ATOM     15  C   UNL     1      -7.531  66.196  39.079  1.00  0.00     0.157 A 
ATOM     16  C   UNL     1      -9.108  64.976  40.474  1.00  0.00     0.062 A 
ATOM     17  C   UNL     1      -8.082  65.924  40.353  1.00  0.00     0.158 A 
BRANCH  15  18
ATOM     18  O   UNL     1      -6.503  67.119  38.883  1.00  0.00    -0.504 OA
ATOM     19  H   UNL     1      -6.638  68.042  38.495  1.00  0.00     0.293 HD
ENDBRANCH  15  18
BRANCH  17  20
ATOM     20  O   UNL     1      -7.649  66.566  41.514  1.00  0.00    -0.504 OA
ATOM     21  H   UNL     1      -7.663  67.568  41.644  1.00  0.00     0.293 HD
ENDBRANCH  17  20
ENDBRANCH   1  12
BRANCH   6  22
ATOM     22  O   UNL     1     -13.857  59.367  40.202  1.00  0.00    -0.507 OA
ATOM     23  H   UNL     1     -14.666  58.913  40.610  1.00  0.00     0.293 HD
ENDBRANCH   6  22
BRANCH   8  24
ATOM     24  O   UNL     1     -16.491  62.756  37.997  1.00  0.00    -0.508 OA
ATOM     25  H   UNL     1     -17.367  62.541  38.461  1.00  0.00     0.293 HD
ENDBRANCH   8  24
TORSDOF 5
ENDMDL
MODEL 8
REMARK VINA RESULT:    -5.952     19.472     22.548
REMARK INTER + INTRA:          -7.288
REMARK INTER:                  -6.974
REMARK INTRA:                  -0.315
REMARK UNBOUND:                -0.292
REMARK SMILES O=c1cc(-c2ccc(O)c(O)c2)oc2cc(O)cc(O)c12
REMARK SMILES IDX 4 1 3 2 2 3 1 4 21 5 19 6 18 7 16 8 15 9 14 10 13 11 5 12
REMARK SMILES IDX 6 13 7 14 8 15 12 16 10 17 9 18 11 20 20 22 17 24
REMARK H PARENT 9 19 11 21 20 23 17 25
REMARK Flexibility Score: inf
ROOT
ATOM      1  C   UNL     1     -14.596  61.812  39.056  1.00  0.00     0.138 A 
ATOM      2  C   UNL     1     -14.139  60.652  39.706  1.00  0.00     0.100 A 
ATOM      3  C   UNL     1     -12.779  60.510  39.982  1.00  0.00     0.197 A 
ATOM      4  O   UNL     1     -12.379  59.467  40.567  1.00  0.00    -0.289 OA
ATOM      5  C   UNL     1     -11.883  61.533  39.611  1.00  0.00     0.107 A 
ATOM      6  C   UNL     1     -10.490  61.468  39.853  1.00  0.00     0.134 A 
ATOM      7  C   UNL     1      -9.665  62.531  39.456  1.00  0.00     0.093 A 
ATOM      8  C   UNL     1     -10.206  63.654  38.824  1.00  0.00     0.123 A 
ATOM      9  C   UNL     1     -11.581  63.724  38.582  1.00  0.00     0.094 A 
ATOM     10  C   UNL     1     -12.420  62.675  38.969  1.00  0.00     0.146 A 
ATOM     11  O   UNL     1     -13.723  62.763  38.727  1.00  0.00    -0.456 OA
ENDROOT
BRANCH   1  12
ATOM     12  C   UNL     1     -16.031  62.018  38.737  1.00  0.00     0.021 A 
ATOM     13  C   UNL     1     -16.906  60.921  38.756  1.00  0.00     0.016 A 
ATOM     14  C   UNL     1     -18.261  61.089  38.467  1.00  0.00     0.051 A 
ATOM     15  C   UNL     1     -18.774  62.354  38.161  1.00  0.00     0.157 A 
ATOM     16  C   UNL     1     -16.548  63.293  38.444  1.00  0.00     0.062 A 
ATOM     17  C   UNL     1     -17.908  63.472  38.155  1.00  0.00     0.158 A 
BRANCH  15  18
ATOM     18  O   UNL     1     -20.137  62.453  37.875  1.00  0.00    -0.504 OA
ATOM     19  H   UNL     1     -20.749  61.660  37.755  1.00  0.00     0.293 HD
ENDBRANCH  15  18
BRANCH  17  20
ATOM     20  O   UNL     1     -18.350  64.766  37.875  1.00  0.00    -0.504 OA
ATOM     21  H   UNL     1     -18.724  65.054  36.983  1.00  0.00     0.293 HD
ENDBRANCH  17  20
ENDBRANCH   1  12
BRANCH   6  22
ATOM     22  O   UNL     1      -9.922  60.359  40.482  1.00  0.00    -0.507 OA
ATOM     23  H   UNL     1     -10.281  59.422  40.338  1.00  0.00     0.293 HD
ENDBRANCH   6  22
BRANCH   8  24
ATOM     24  O   UNL     1      -9.364  64.697  38.441  1.00  0.00    -0.508 OA
ATOM     25  H   UNL     1      -8.990  64.757  37.501  1.00  0.00     0.293 HD
ENDBRANCH   8  24
TORSDOF 5
ENDMDL
