MODEL 1
REMARK VINA RESULT:    -1.314      0.000      0.000
REMARK INTER + INTRA:          -1.395
REMARK INTER:                  -1.621
REMARK INTRA:                   0.227
REMARK UNBOUND:                 0.227
REMARK SMILES Oc1cc(O)c2cc(O)c(-c3cc(O)c(O)c(O)c3)[o+]c2c1
REMARK SMILES IDX 10 1 20 2 21 3 22 4 2 5 3 6 4 7 6 8 7 9 8 10 11 11 12 12
REMARK SMILES IDX 13 13 19 14 15 15 17 16 14 17 16 19 18 21 9 23 1 25 5 27
REMARK H PARENT 14 18 16 20 18 22 9 24 1 26 5 28
REMARK Flexibility Score: inf
ROOT
ATOM      1  C   UNL     1     -11.628 -16.153  30.481  1.00  0.00     0.402 A 
ATOM      2  O   UNL     1     -12.420 -15.642  29.542  1.00  0.00    -0.202 OA
ATOM      3  C   UNL     1     -12.348 -15.986  28.261  1.00  0.00     0.368 A 
ATOM      4  C   UNL     1     -13.222 -15.391  27.347  1.00  0.00     0.162 A 
ATOM      5  C   UNL     1     -13.167 -15.733  25.992  1.00  0.00     0.128 A 
ATOM      6  C   UNL     1     -12.232 -16.672  25.550  1.00  0.00     0.093 A 
ATOM      7  C   UNL     1     -11.346 -17.283  26.445  1.00  0.00     0.136 A 
ATOM      8  C   UNL     1     -11.400 -16.941  27.822  1.00  0.00     0.125 A 
ATOM      9  C   UNL     1     -10.560 -17.512  28.792  1.00  0.00     0.078 A 
ATOM     10  C   UNL     1     -10.675 -17.128  30.132  1.00  0.00     0.223 A 
ENDROOT
BRANCH   1  11
ATOM     11  C   UNL     1     -11.798 -15.681  31.874  1.00  0.00     0.091 A 
ATOM     12  C   UNL     1     -13.018 -15.106  32.264  1.00  0.00     0.068 A 
ATOM     13  C   UNL     1     -13.200 -14.633  33.571  1.00  0.00     0.162 A 
ATOM     14  C   UNL     1     -10.745 -15.745  32.803  1.00  0.00     0.068 A 
ATOM     15  C   UNL     1     -12.148 -14.719  34.498  1.00  0.00     0.200 A 
ATOM     16  C   UNL     1     -10.920 -15.271  34.110  1.00  0.00     0.162 A 
BRANCH  13  17
ATOM     17  O   UNL     1     -14.420 -14.076  33.950  1.00  0.00    -0.504 OA
ATOM     18  H   UNL     1     -14.482 -13.382  34.685  1.00  0.00     0.293 HD
ENDBRANCH  13  17
BRANCH  15  19
ATOM     19  O   UNL     1     -12.304 -14.257  35.805  1.00  0.00    -0.502 OA
ATOM     20  H   UNL     1     -11.553 -14.295  36.483  1.00  0.00     0.293 HD
ENDBRANCH  15  19
BRANCH  16  21
ATOM     21  O   UNL     1      -9.875 -15.342  35.030  1.00  0.00    -0.504 OA
ATOM     22  H   UNL     1      -9.856 -14.756  35.857  1.00  0.00     0.293 HD
ENDBRANCH  16  21
ENDBRANCH   1  11
BRANCH  10  23
ATOM     23  O   UNL     1      -9.875 -17.730  31.103  1.00  0.00    -0.500 OA
ATOM     24  H   UNL     1      -9.979 -17.514  32.088  1.00  0.00     0.294 HD
ENDBRANCH  10  23
BRANCH   5  25
ATOM     25  O   UNL     1     -14.035 -15.144  25.076  1.00  0.00    -0.507 OA
ATOM     26  H   UNL     1     -14.392 -15.657  24.278  1.00  0.00     0.293 HD
ENDBRANCH   5  25
BRANCH   7  27
ATOM     27  O   UNL     1     -10.440 -18.210  25.922  1.00  0.00    -0.507 OA
ATOM     28  H   UNL     1      -9.522 -18.387  26.304  1.00  0.00     0.293 HD
ENDBRANCH   7  27
TORSDOF 7
ENDMDL
MODEL 2
REMARK VINA RESULT:    -0.702      3.136      5.407
REMARK INTER + INTRA:          -0.639
REMARK INTER:                  -0.261
REMARK INTRA:                  -0.378
REMARK UNBOUND:                 0.227
REMARK SMILES Oc1cc(O)c2cc(O)c(-c3cc(O)c(O)c(O)c3)[o+]c2c1
REMARK SMILES IDX 10 1 20 2 21 3 22 4 2 5 3 6 4 7 6 8 7 9 8 10 11 11 12 12
REMARK SMILES IDX 13 13 19 14 15 15 17 16 14 17 16 19 18 21 9 23 1 25 5 27
REMARK H PARENT 14 18 16 20 18 22 9 24 1 26 5 28
REMARK Flexibility Score: inf
ROOT
ATOM      1  C   UNL     1     -12.786 -15.918  29.822  1.00  0.00     0.402 A 
ATOM      2  O   UNL     1     -13.952 -15.620  30.388  1.00  0.00    -0.202 OA
ATOM      3  C   UNL     1     -14.615 -14.494  30.146  1.00  0.00     0.368 A 
ATOM      4  C   UNL     1     -15.833 -14.269  30.792  1.00  0.00     0.162 A 
ATOM      5  C   UNL     1     -16.550 -13.092  30.557  1.00  0.00     0.128 A 
ATOM      6  C   UNL     1     -16.046 -12.136  29.673  1.00  0.00     0.093 A 
ATOM      7  C   UNL     1     -14.827 -12.337  29.012  1.00  0.00     0.136 A 
ATOM      8  C   UNL     1     -14.097 -13.531  29.246  1.00  0.00     0.125 A 
ATOM      9  C   UNL     1     -12.875 -13.824  28.618  1.00  0.00     0.078 A 
ATOM     10  C   UNL     1     -12.215 -15.025  28.895  1.00  0.00     0.223 A 
ENDROOT
BRANCH   1  11
ATOM     11  C   UNL     1     -12.139 -17.200  30.182  1.00  0.00     0.091 A 
ATOM     12  C   UNL     1     -12.415 -18.348  29.423  1.00  0.00     0.068 A 
ATOM     13  C   UNL     1     -11.831 -19.580  29.753  1.00  0.00     0.162 A 
ATOM     14  C   UNL     1     -11.298 -17.307  31.303  1.00  0.00     0.068 A 
ATOM     15  C   UNL     1     -10.975 -19.673  30.863  1.00  0.00     0.200 A 
ATOM     16  C   UNL     1     -10.714 -18.536  31.639  1.00  0.00     0.162 A 
BRANCH  13  17
ATOM     17  O   UNL     1     -12.101 -20.710  28.984  1.00  0.00    -0.504 OA
ATOM     18  H   UNL     1     -12.737 -20.677  28.196  1.00  0.00     0.293 HD
ENDBRANCH  13  17
BRANCH  15  19
ATOM     19  O   UNL     1     -10.381 -20.886  31.212  1.00  0.00    -0.502 OA
ATOM     20  H   UNL     1      -9.568 -21.246  30.728  1.00  0.00     0.293 HD
ENDBRANCH  15  19
BRANCH  16  21
ATOM     21  O   UNL     1      -9.875 -18.636  32.748  1.00  0.00    -0.504 OA
ATOM     22  H   UNL     1      -8.922 -18.971  32.664  1.00  0.00     0.293 HD
ENDBRANCH  16  21
ENDBRANCH   1  11
BRANCH  10  23
ATOM     23  O   UNL     1     -11.026 -15.339  28.235  1.00  0.00    -0.500 OA
ATOM     24  H   UNL     1     -10.926 -16.189  27.693  1.00  0.00     0.294 HD
ENDBRANCH  10  23
BRANCH   5  25
ATOM     25  O   UNL     1     -17.765 -12.861  31.198  1.00  0.00    -0.507 OA
ATOM     26  H   UNL     1     -18.408 -12.148  30.874  1.00  0.00     0.293 HD
ENDBRANCH   5  25
BRANCH   7  27
ATOM     27  O   UNL     1     -14.391 -11.330  28.146  1.00  0.00    -0.507 OA
ATOM     28  H   UNL     1     -13.449 -11.254  27.790  1.00  0.00     0.293 HD
ENDBRANCH   7  27
TORSDOF 7
ENDMDL
MODEL 3
REMARK VINA RESULT:    -0.543      0.196      1.798
REMARK INTER + INTRA:          -0.444
REMARK INTER:                  -0.795
REMARK INTRA:                   0.352
REMARK UNBOUND:                 0.227
REMARK SMILES Oc1cc(O)c2cc(O)c(-c3cc(O)c(O)c(O)c3)[o+]c2c1
REMARK SMILES IDX 10 1 20 2 21 3 22 4 2 5 3 6 4 7 6 8 7 9 8 10 11 11 12 12
REMARK SMILES IDX 13 13 19 14 15 15 17 16 14 17 16 19 18 21 9 23 1 25 5 27
REMARK H PARENT 14 18 16 20 18 22 9 24 1 26 5 28
REMARK Flexibility Score: inf
ROOT
ATOM      1  C   UNL     1     -11.634 -16.035  30.637  1.00  0.00     0.402 A 
ATOM      2  O   UNL     1     -12.426 -15.556  29.681  1.00  0.00    -0.202 OA
ATOM      3  C   UNL     1     -12.349 -15.938  28.410  1.00  0.00     0.368 A 
ATOM      4  C   UNL     1     -13.223 -15.375  27.477  1.00  0.00     0.162 A 
ATOM      5  C   UNL     1     -13.163 -15.758  26.134  1.00  0.00     0.128 A 
ATOM      6  C   UNL     1     -12.224 -16.706  25.722  1.00  0.00     0.093 A 
ATOM      7  C   UNL     1     -11.337 -17.285  26.637  1.00  0.00     0.136 A 
ATOM      8  C   UNL     1     -11.395 -16.902  28.003  1.00  0.00     0.125 A 
ATOM      9  C   UNL     1     -10.555 -17.439  28.992  1.00  0.00     0.078 A 
ATOM     10  C   UNL     1     -10.676 -17.016  30.319  1.00  0.00     0.223 A 
ENDROOT
BRANCH   1  11
ATOM     11  C   UNL     1     -11.809 -15.522  32.014  1.00  0.00     0.091 A 
ATOM     12  C   UNL     1     -10.771 -15.678  32.946  1.00  0.00     0.068 A 
ATOM     13  C   UNL     1     -10.918 -15.219  34.262  1.00  0.00     0.162 A 
ATOM     14  C   UNL     1     -13.016 -14.932  32.428  1.00  0.00     0.068 A 
ATOM     15  C   UNL     1     -12.120 -14.611  34.662  1.00  0.00     0.200 A 
ATOM     16  C   UNL     1     -13.170 -14.474  33.743  1.00  0.00     0.162 A 
BRANCH  13  17
ATOM     17  O   UNL     1      -9.875 -15.366  35.175  1.00  0.00    -0.504 OA
ATOM     18  H   UNL     1      -9.844 -16.142  35.826  1.00  0.00     0.293 HD
ENDBRANCH  13  17
BRANCH  15  19
ATOM     19  O   UNL     1     -12.291 -14.145  35.965  1.00  0.00    -0.502 OA
ATOM     20  H   UNL     1     -12.071 -13.192  36.229  1.00  0.00     0.293 HD
ENDBRANCH  15  19
BRANCH  16  21
ATOM     21  O   UNL     1     -14.366 -13.883  34.148  1.00  0.00    -0.504 OA
ATOM     22  H   UNL     1     -14.593 -12.925  33.906  1.00  0.00     0.293 HD
ENDBRANCH  16  21
ENDBRANCH   1  11
BRANCH  10  23
ATOM     23  O   UNL     1      -9.875 -17.585  31.310  1.00  0.00    -0.500 OA
ATOM     24  H   UNL     1      -9.844 -18.587  31.460  1.00  0.00     0.294 HD
ENDBRANCH  10  23
BRANCH   5  25
ATOM     25  O   UNL     1     -14.032 -15.200  25.198  1.00  0.00    -0.507 OA
ATOM     26  H   UNL     1     -14.704 -15.768  24.694  1.00  0.00     0.293 HD
ENDBRANCH   5  25
BRANCH   7  27
ATOM     27  O   UNL     1     -10.425 -18.223  26.144  1.00  0.00    -0.507 OA
ATOM     28  H   UNL     1      -9.814 -18.064  25.357  1.00  0.00     0.293 HD
ENDBRANCH   7  27
TORSDOF 7
ENDMDL
MODEL 4
REMARK VINA RESULT:    -0.528      2.058      7.614
REMARK INTER + INTRA:          -0.425
REMARK INTER:                  -0.215
REMARK INTRA:                  -0.210
REMARK UNBOUND:                 0.227
REMARK SMILES Oc1cc(O)c2cc(O)c(-c3cc(O)c(O)c(O)c3)[o+]c2c1
REMARK SMILES IDX 10 1 20 2 21 3 22 4 2 5 3 6 4 7 6 8 7 9 8 10 11 11 12 12
REMARK SMILES IDX 13 13 19 14 15 15 17 16 14 17 16 19 18 21 9 23 1 25 5 27
REMARK H PARENT 14 18 16 20 18 22 9 24 1 26 5 28
REMARK Flexibility Score: inf
ROOT
ATOM      1  C   UNL     1     -12.661 -15.626  32.054  1.00  0.00     0.402 A 
ATOM      2  O   UNL     1     -11.771 -15.746  33.036  1.00  0.00    -0.202 OA
ATOM      3  C   UNL     1     -11.814 -15.025  34.152  1.00  0.00     0.368 A 
ATOM      4  C   UNL     1     -10.831 -15.221  35.126  1.00  0.00     0.162 A 
ATOM      5  C   UNL     1     -10.852 -14.475  36.308  1.00  0.00     0.128 A 
ATOM      6  C   UNL     1     -11.857 -13.528  36.516  1.00  0.00     0.093 A 
ATOM      7  C   UNL     1     -12.853 -13.313  35.555  1.00  0.00     0.136 A 
ATOM      8  C   UNL     1     -12.839 -14.069  34.355  1.00  0.00     0.125 A 
ATOM      9  C   UNL     1     -13.803 -13.931  33.343  1.00  0.00     0.078 A 
ATOM     10  C   UNL     1     -13.726 -14.716  32.189  1.00  0.00     0.223 A 
ENDROOT
BRANCH   1  11
ATOM     11  C   UNL     1     -12.499 -16.478  30.855  1.00  0.00     0.091 A 
ATOM     12  C   UNL     1     -12.462 -17.874  31.000  1.00  0.00     0.068 A 
ATOM     13  C   UNL     1     -12.291 -18.704  29.884  1.00  0.00     0.162 A 
ATOM     14  C   UNL     1     -12.326 -15.919  29.577  1.00  0.00     0.068 A 
ATOM     15  C   UNL     1     -12.139 -18.138  28.607  1.00  0.00     0.200 A 
ATOM     16  C   UNL     1     -12.152 -16.744  28.457  1.00  0.00     0.162 A 
BRANCH  13  17
ATOM     17  O   UNL     1     -12.269 -20.089  30.039  1.00  0.00    -0.504 OA
ATOM     18  H   UNL     1     -11.446 -20.636  29.814  1.00  0.00     0.293 HD
ENDBRANCH  13  17
BRANCH  15  19
ATOM     19  O   UNL     1     -11.969 -18.942  27.481  1.00  0.00    -0.502 OA
ATOM     20  H   UNL     1     -11.704 -18.560  26.581  1.00  0.00     0.293 HD
ENDBRANCH  15  19
BRANCH  16  21
ATOM     21  O   UNL     1     -11.987 -16.186  27.190  1.00  0.00    -0.504 OA
ATOM     22  H   UNL     1     -11.109 -15.769  26.904  1.00  0.00     0.293 HD
ENDBRANCH  16  21
ENDBRANCH   1  11
BRANCH  10  23
ATOM     23  O   UNL     1     -14.712 -14.614  31.206  1.00  0.00    -0.500 OA
ATOM     24  H   UNL     1     -15.517 -14.010  31.321  1.00  0.00     0.294 HD
ENDBRANCH  10  23
BRANCH   5  25
ATOM     25  O   UNL     1      -9.875 -14.665  37.283  1.00  0.00    -0.507 OA
ATOM     26  H   UNL     1      -9.318 -13.893  37.633  1.00  0.00     0.293 HD
ENDBRANCH   5  25
BRANCH   7  27
ATOM     27  O   UNL     1     -13.822 -12.345  35.839  1.00  0.00    -0.507 OA
ATOM     28  H   UNL     1     -14.810 -12.535  35.916  1.00  0.00     0.293 HD
ENDBRANCH   7  27
TORSDOF 7
ENDMDL
MODEL 5
REMARK VINA RESULT:    -0.184      1.674      2.745
REMARK INTER + INTRA:          -0.001
REMARK INTER:                   0.379
REMARK INTRA:                  -0.380
REMARK UNBOUND:                 0.227
REMARK SMILES Oc1cc(O)c2cc(O)c(-c3cc(O)c(O)c(O)c3)[o+]c2c1
REMARK SMILES IDX 10 1 20 2 21 3 22 4 2 5 3 6 4 7 6 8 7 9 8 10 11 11 12 12
REMARK SMILES IDX 13 13 19 14 15 15 17 16 14 17 16 19 18 21 9 23 1 25 5 27
REMARK H PARENT 14 18 16 20 18 22 9 24 1 26 5 28
REMARK Flexibility Score: inf
ROOT
ATOM      1  C   UNL     1     -12.105 -16.414  31.615  1.00  0.00     0.402 A 
ATOM      2  O   UNL     1     -11.579 -15.930  30.493  1.00  0.00    -0.202 OA
ATOM      3  C   UNL     1     -11.541 -16.610  29.352  1.00  0.00     0.368 A 
ATOM      4  C   UNL     1     -10.964 -16.017  28.226  1.00  0.00     0.162 A 
ATOM      5  C   UNL     1     -10.910 -16.711  27.013  1.00  0.00     0.128 A 
ATOM      6  C   UNL     1     -11.434 -18.003  26.927  1.00  0.00     0.093 A 
ATOM      7  C   UNL     1     -12.017 -18.618  28.041  1.00  0.00     0.136 A 
ATOM      8  C   UNL     1     -12.077 -17.918  29.273  1.00  0.00     0.125 A 
ATOM      9  C   UNL     1     -12.655 -18.451  30.437  1.00  0.00     0.078 A 
ATOM     10  C   UNL     1     -12.682 -17.698  31.615  1.00  0.00     0.223 A 
ENDROOT
BRANCH   1  11
ATOM     11  C   UNL     1     -12.077 -15.563  32.826  1.00  0.00     0.091 A 
ATOM     12  C   UNL     1     -11.001 -15.671  33.720  1.00  0.00     0.068 A 
ATOM     13  C   UNL     1     -10.958 -14.891  34.885  1.00  0.00     0.162 A 
ATOM     14  C   UNL     1     -13.134 -14.687  33.130  1.00  0.00     0.068 A 
ATOM     15  C   UNL     1     -12.009 -14.003  35.171  1.00  0.00     0.200 A 
ATOM     16  C   UNL     1     -13.098 -13.907  34.294  1.00  0.00     0.162 A 
BRANCH  13  17
ATOM     17  O   UNL     1      -9.878 -14.997  35.758  1.00  0.00    -0.504 OA
ATOM     18  H   UNL     1      -9.548 -15.896  36.089  1.00  0.00     0.293 HD
ENDBRANCH  13  17
BRANCH  15  19
ATOM     19  O   UNL     1     -11.990 -13.216  36.322  1.00  0.00    -0.502 OA
ATOM     20  H   UNL     1     -11.148 -13.083  36.869  1.00  0.00     0.293 HD
ENDBRANCH  15  19
BRANCH  16  21
ATOM     21  O   UNL     1     -14.145 -13.035  34.590  1.00  0.00    -0.504 OA
ATOM     22  H   UNL     1     -14.596 -13.036  35.497  1.00  0.00     0.293 HD
ENDBRANCH  16  21
ENDBRANCH   1  11
BRANCH  10  23
ATOM     23  O   UNL     1     -13.300 -18.207  32.757  1.00  0.00    -0.500 OA
ATOM     24  H   UNL     1     -13.429 -17.643  33.589  1.00  0.00     0.294 HD
ENDBRANCH  10  23
BRANCH   5  25
ATOM     25  O   UNL     1     -10.336 -16.126  25.886  1.00  0.00    -0.507 OA
ATOM     26  H   UNL     1      -9.981 -15.176  25.904  1.00  0.00     0.293 HD
ENDBRANCH   5  25
BRANCH   7  27
ATOM     27  O   UNL     1     -12.515 -19.914  27.872  1.00  0.00    -0.507 OA
ATOM     28  H   UNL     1     -11.942 -20.726  27.698  1.00  0.00     0.293 HD
ENDBRANCH   7  27
TORSDOF 7
ENDMDL
MODEL 6
REMARK VINA RESULT:    -0.117      1.697      7.151
REMARK INTER + INTRA:           0.082
REMARK INTER:                  -0.088
REMARK INTRA:                   0.170
REMARK UNBOUND:                 0.227
REMARK SMILES Oc1cc(O)c2cc(O)c(-c3cc(O)c(O)c(O)c3)[o+]c2c1
REMARK SMILES IDX 10 1 20 2 21 3 22 4 2 5 3 6 4 7 6 8 7 9 8 10 11 11 12 12
REMARK SMILES IDX 13 13 19 14 15 15 17 16 14 17 16 19 18 21 9 23 1 25 5 27
REMARK H PARENT 14 18 16 20 18 22 9 24 1 26 5 28
REMARK Flexibility Score: inf
ROOT
ATOM      1  C   UNL     1     -11.818 -15.862  31.648  1.00  0.00     0.402 A 
ATOM      2  O   UNL     1     -12.544 -14.966  32.311  1.00  0.00    -0.202 OA
ATOM      3  C   UNL     1     -12.280 -14.593  33.559  1.00  0.00     0.368 A 
ATOM      4  C   UNL     1     -13.103 -13.646  34.174  1.00  0.00     0.162 A 
ATOM      5  C   UNL     1     -12.849 -13.237  35.487  1.00  0.00     0.128 A 
ATOM      6  C   UNL     1     -11.771 -13.780  36.188  1.00  0.00     0.093 A 
ATOM      7  C   UNL     1     -10.931 -14.731  35.595  1.00  0.00     0.136 A 
ATOM      8  C   UNL     1     -11.182 -15.147  34.262  1.00  0.00     0.125 A 
ATOM      9  C   UNL     1     -10.387 -16.084  33.583  1.00  0.00     0.078 A 
ATOM     10  C   UNL     1     -10.694 -16.441  32.266  1.00  0.00     0.223 A 
ENDROOT
BRANCH   1  11
ATOM     11  C   UNL     1     -12.219 -16.203  30.264  1.00  0.00     0.091 A 
ATOM     12  C   UNL     1     -12.019 -17.508  29.789  1.00  0.00     0.068 A 
ATOM     13  C   UNL     1     -12.372 -17.853  28.477  1.00  0.00     0.162 A 
ATOM     14  C   UNL     1     -12.745 -15.231  29.394  1.00  0.00     0.068 A 
ATOM     15  C   UNL     1     -12.916 -16.881  27.620  1.00  0.00     0.200 A 
ATOM     16  C   UNL     1     -13.097 -15.570  28.080  1.00  0.00     0.162 A 
BRANCH  13  17
ATOM     17  O   UNL     1     -12.182 -19.156  28.021  1.00  0.00    -0.504 OA
ATOM     18  H   UNL     1     -11.369 -19.414  27.473  1.00  0.00     0.293 HD
ENDBRANCH  13  17
BRANCH  15  19
ATOM     19  O   UNL     1     -13.277 -17.199  26.311  1.00  0.00    -0.502 OA
ATOM     20  H   UNL     1     -12.593 -17.283  25.569  1.00  0.00     0.293 HD
ENDBRANCH  15  19
BRANCH  16  21
ATOM     21  O   UNL     1     -13.624 -14.605  27.222  1.00  0.00    -0.504 OA
ATOM     22  H   UNL     1     -14.570 -14.259  27.331  1.00  0.00     0.293 HD
ENDBRANCH  16  21
ENDBRANCH   1  11
BRANCH  10  23
ATOM     23  O   UNL     1      -9.875 -17.335  31.574  1.00  0.00    -0.500 OA
ATOM     24  H   UNL     1      -9.563 -17.149  30.628  1.00  0.00     0.294 HD
ENDBRANCH  10  23
BRANCH   5  25
ATOM     25  O   UNL     1     -13.666 -12.293  36.106  1.00  0.00    -0.507 OA
ATOM     26  H   UNL     1     -14.490 -11.922  35.646  1.00  0.00     0.293 HD
ENDBRANCH   5  25
BRANCH   7  27
ATOM     27  O   UNL     1      -9.875 -15.227  36.365  1.00  0.00    -0.507 OA
ATOM     28  H   UNL     1      -9.675 -14.938  37.311  1.00  0.00     0.293 HD
ENDBRANCH   7  27
TORSDOF 7
ENDMDL
