MODEL 1
REMARK VINA RESULT:    -7.220      0.000      0.000
REMARK INTER + INTRA:          -9.027
REMARK INTER:                  -8.697
REMARK INTRA:                  -0.330
REMARK UNBOUND:                -0.330
REMARK SMILES O=c1c(O)c(-c2ccc(O)c(O)c2)oc2cc(O)cc(O)c12
REMARK SMILES IDX 5 1 3 2 2 3 1 4 22 5 20 6 19 7 17 8 16 9 15 10 14 11 6 12
REMARK SMILES IDX 7 13 8 14 9 15 13 16 11 17 10 18 12 20 4 22 21 24 18 26
REMARK H PARENT 10 19 12 21 4 23 21 25 18 27
REMARK Flexibility Score: inf
ROOT
ATOM      1  C   UNL     1     -11.170 -28.333 -22.031  1.00  0.00     0.180 A 
ATOM      2  C   UNL     1     -11.426 -27.145 -21.319  1.00  0.00     0.208 A 
ATOM      3  C   UNL     1     -12.581 -27.067 -20.523  1.00  0.00     0.238 A 
ATOM      4  O   UNL     1     -12.828 -26.004 -19.891  1.00  0.00    -0.285 OA
ATOM      5  C   UNL     1     -13.444 -28.179 -20.436  1.00  0.00     0.111 A 
ATOM      6  C   UNL     1     -14.624 -28.183 -19.654  1.00  0.00     0.134 A 
ATOM      7  C   UNL     1     -15.425 -29.334 -19.613  1.00  0.00     0.093 A 
ATOM      8  C   UNL     1     -15.069 -30.477 -20.336  1.00  0.00     0.123 A 
ATOM      9  C   UNL     1     -13.908 -30.477 -21.109  1.00  0.00     0.094 A 
ATOM     10  C   UNL     1     -13.096 -29.340 -21.164  1.00  0.00     0.146 A 
ATOM     11  O   UNL     1     -11.998 -29.366 -21.912  1.00  0.00    -0.452 OA
ENDROOT
BRANCH   1  12
ATOM     12  C   UNL     1      -9.985 -28.485 -22.905  1.00  0.00     0.025 A 
ATOM     13  C   UNL     1     -10.042 -28.180 -24.276  1.00  0.00     0.016 A 
ATOM     14  C   UNL     1      -8.917 -28.355 -25.087  1.00  0.00     0.051 A 
ATOM     15  C   UNL     1      -7.725 -28.850 -24.543  1.00  0.00     0.157 A 
ATOM     16  C   UNL     1      -8.793 -29.001 -22.370  1.00  0.00     0.062 A 
ATOM     17  C   UNL     1      -7.663 -29.176 -23.182  1.00  0.00     0.158 A 
BRANCH  15  18
ATOM     18  O   UNL     1      -6.600 -29.024 -25.346  1.00  0.00    -0.504 OA
ATOM     19  H   UNL     1      -6.065 -28.233 -25.689  1.00  0.00     0.293 HD
ENDBRANCH  15  18
BRANCH  17  20
ATOM     20  O   UNL     1      -6.478 -29.676 -22.645  1.00  0.00    -0.504 OA
ATOM     21  H   UNL     1      -6.227 -30.654 -22.732  1.00  0.00     0.293 HD
ENDBRANCH  17  20
ENDBRANCH   1  12
BRANCH   2  22
ATOM     22  O   UNL     1     -10.531 -26.076 -21.384  1.00  0.00    -0.502 OA
ATOM     23  H   UNL     1      -9.637 -26.143 -21.856  1.00  0.00     0.293 HD
ENDBRANCH   2  22
BRANCH   6  24
ATOM     24  O   UNL     1     -15.004 -27.058 -18.921  1.00  0.00    -0.507 OA
ATOM     25  H   UNL     1     -14.753 -26.949 -17.946  1.00  0.00     0.293 HD
ENDBRANCH   6  24
BRANCH   8  26
ATOM     26  O   UNL     1     -15.866 -31.620 -20.292  1.00  0.00    -0.508 OA
ATOM     27  H   UNL     1     -15.502 -32.530 -20.550  1.00  0.00     0.293 HD
ENDBRANCH   8  26
TORSDOF 6
ENDMDL
MODEL 2
REMARK VINA RESULT:    -7.112      6.497     11.539
REMARK INTER + INTRA:          -8.897
REMARK INTER:                  -8.589
REMARK INTRA:                  -0.309
REMARK UNBOUND:                -0.330
REMARK SMILES O=c1c(O)c(-c2ccc(O)c(O)c2)oc2cc(O)cc(O)c12
REMARK SMILES IDX 5 1 3 2 2 3 1 4 22 5 20 6 19 7 17 8 16 9 15 10 14 11 6 12
REMARK SMILES IDX 7 13 8 14 9 15 13 16 11 17 10 18 12 20 4 22 21 24 18 26
REMARK H PARENT 10 19 12 21 4 23 21 25 18 27
REMARK Flexibility Score: inf
ROOT
ATOM      1  C   UNL     1      -4.589 -25.409 -26.880  1.00  0.00     0.180 A 
ATOM      2  C   UNL     1      -4.484 -24.118 -26.327  1.00  0.00     0.208 A 
ATOM      3  C   UNL     1      -3.624 -23.188 -26.934  1.00  0.00     0.238 A 
ATOM      4  O   UNL     1      -3.512 -22.033 -26.441  1.00  0.00    -0.285 OA
ATOM      5  C   UNL     1      -2.902 -23.557 -28.088  1.00  0.00     0.111 A 
ATOM      6  C   UNL     1      -2.018 -22.679 -28.761  1.00  0.00     0.134 A 
ATOM      7  C   UNL     1      -1.344 -23.118 -29.910  1.00  0.00     0.093 A 
ATOM      8  C   UNL     1      -1.537 -24.415 -30.398  1.00  0.00     0.123 A 
ATOM      9  C   UNL     1      -2.406 -25.284 -29.737  1.00  0.00     0.094 A 
ATOM     10  C   UNL     1      -3.087 -24.866 -28.590  1.00  0.00     0.146 A 
ATOM     11  O   UNL     1      -3.905 -25.715 -27.978  1.00  0.00    -0.452 OA
ENDROOT
BRANCH   1  12
ATOM     12  C   UNL     1      -5.460 -26.449 -26.286  1.00  0.00     0.025 A 
ATOM     13  C   UNL     1      -6.837 -26.496 -26.564  1.00  0.00     0.016 A 
ATOM     14  C   UNL     1      -7.644 -27.473 -25.972  1.00  0.00     0.051 A 
ATOM     15  C   UNL     1      -7.089 -28.406 -25.086  1.00  0.00     0.157 A 
ATOM     16  C   UNL     1      -4.913 -27.374 -25.381  1.00  0.00     0.062 A 
ATOM     17  C   UNL     1      -5.722 -28.355 -24.789  1.00  0.00     0.158 A 
BRANCH  15  18
ATOM     18  O   UNL     1      -7.888 -29.382 -24.496  1.00  0.00    -0.504 OA
ATOM     19  H   UNL     1      -7.555 -30.331 -24.363  1.00  0.00     0.293 HD
ENDBRANCH  15  18
BRANCH  17  20
ATOM     20  O   UNL     1      -5.173 -29.279 -23.901  1.00  0.00    -0.504 OA
ATOM     21  H   UNL     1      -5.758 -29.895 -23.349  1.00  0.00     0.293 HD
ENDBRANCH  17  20
ENDBRANCH   1  12
BRANCH   2  22
ATOM     22  O   UNL     1      -5.246 -23.763 -25.212  1.00  0.00    -0.502 OA
ATOM     23  H   UNL     1      -6.251 -23.883 -25.180  1.00  0.00     0.293 HD
ENDBRANCH   2  22
BRANCH   6  24
ATOM     24  O   UNL     1      -1.807 -21.379 -28.299  1.00  0.00    -0.507 OA
ATOM     25  H   UNL     1      -2.456 -20.629 -28.504  1.00  0.00     0.293 HD
ENDBRANCH   6  24
BRANCH   8  26
ATOM     26  O   UNL     1      -0.868 -24.850 -31.540  1.00  0.00    -0.508 OA
ATOM     27  H   UNL     1      -1.313 -25.458 -32.216  1.00  0.00     0.293 HD
ENDBRANCH   8  26
TORSDOF 6
ENDMDL
MODEL 3
REMARK VINA RESULT:    -7.053      5.512     10.886
REMARK INTER + INTRA:          -8.826
REMARK INTER:                  -8.720
REMARK INTRA:                  -0.106
REMARK UNBOUND:                -0.330
REMARK SMILES O=c1c(O)c(-c2ccc(O)c(O)c2)oc2cc(O)cc(O)c12
REMARK SMILES IDX 5 1 3 2 2 3 1 4 22 5 20 6 19 7 17 8 16 9 15 10 14 11 6 12
REMARK SMILES IDX 7 13 8 14 9 15 13 16 11 17 10 18 12 20 4 22 21 24 18 26
REMARK H PARENT 10 19 12 21 4 23 21 25 18 27
REMARK Flexibility Score: inf
ROOT
ATOM      1  C   UNL     1      -5.035 -26.456 -26.182  1.00  0.00     0.180 A 
ATOM      2  C   UNL     1      -5.424 -26.262 -27.522  1.00  0.00     0.208 A 
ATOM      3  C   UNL     1      -4.629 -25.449 -28.346  1.00  0.00     0.238 A 
ATOM      4  O   UNL     1      -4.973 -25.257 -29.545  1.00  0.00    -0.285 OA
ATOM      5  C   UNL     1      -3.455 -24.865 -27.827  1.00  0.00     0.111 A 
ATOM      6  C   UNL     1      -2.599 -24.037 -28.593  1.00  0.00     0.134 A 
ATOM      7  C   UNL     1      -1.444 -23.501 -28.005  1.00  0.00     0.093 A 
ATOM      8  C   UNL     1      -1.129 -23.777 -26.670  1.00  0.00     0.123 A 
ATOM      9  C   UNL     1      -1.971 -24.591 -25.912  1.00  0.00     0.094 A 
ATOM     10  C   UNL     1      -3.128 -25.134 -26.478  1.00  0.00     0.146 A 
ATOM     11  O   UNL     1      -3.914 -25.902 -25.732  1.00  0.00    -0.452 OA
ENDROOT
BRANCH   1  12
ATOM     12  C   UNL     1      -5.830 -27.284 -25.245  1.00  0.00     0.025 A 
ATOM     13  C   UNL     1      -7.183 -27.003 -24.988  1.00  0.00     0.016 A 
ATOM     14  C   UNL     1      -7.907 -27.782 -24.081  1.00  0.00     0.051 A 
ATOM     15  C   UNL     1      -7.285 -28.843 -23.410  1.00  0.00     0.157 A 
ATOM     16  C   UNL     1      -5.207 -28.335 -24.553  1.00  0.00     0.062 A 
ATOM     17  C   UNL     1      -5.933 -29.119 -23.644  1.00  0.00     0.158 A 
BRANCH  15  18
ATOM     18  O   UNL     1      -8.003 -29.625 -22.506  1.00  0.00    -0.504 OA
ATOM     19  H   UNL     1      -8.196 -29.303 -21.564  1.00  0.00     0.293 HD
ENDBRANCH  15  18
BRANCH  17  20
ATOM     20  O   UNL     1      -5.314 -30.170 -22.969  1.00  0.00    -0.504 OA
ATOM     21  H   UNL     1      -5.235 -30.178 -21.959  1.00  0.00     0.293 HD
ENDBRANCH  17  20
ENDBRANCH   1  12
BRANCH   2  22
ATOM     22  O   UNL     1      -6.565 -26.891 -28.025  1.00  0.00    -0.502 OA
ATOM     23  H   UNL     1      -6.923 -27.756 -27.639  1.00  0.00     0.293 HD
ENDBRANCH   2  22
BRANCH   6  24
ATOM     24  O   UNL     1      -2.886 -23.746 -29.927  1.00  0.00    -0.507 OA
ATOM     25  H   UNL     1      -3.839 -23.655 -30.260  1.00  0.00     0.293 HD
ENDBRANCH   6  24
BRANCH   8  26
ATOM     26  O   UNL     1       0.020 -23.245 -26.088  1.00  0.00    -0.508 OA
ATOM     27  H   UNL     1       0.936 -23.634 -26.272  1.00  0.00     0.293 HD
ENDBRANCH   8  26
TORSDOF 6
ENDMDL
MODEL 4
REMARK VINA RESULT:    -6.977      2.143      3.867
REMARK INTER + INTRA:          -8.734
REMARK INTER:                  -8.410
REMARK INTRA:                  -0.324
REMARK UNBOUND:                -0.330
REMARK SMILES O=c1c(O)c(-c2ccc(O)c(O)c2)oc2cc(O)cc(O)c12
REMARK SMILES IDX 5 1 3 2 2 3 1 4 22 5 20 6 19 7 17 8 16 9 15 10 14 11 6 12
REMARK SMILES IDX 7 13 8 14 9 15 13 16 11 17 10 18 12 20 4 22 21 24 18 26
REMARK H PARENT 10 19 12 21 4 23 21 25 18 27
REMARK Flexibility Score: inf
ROOT
ATOM      1  C   UNL     1     -12.102 -27.923 -21.872  1.00  0.00     0.180 A 
ATOM      2  C   UNL     1     -12.946 -28.515 -20.913  1.00  0.00     0.208 A 
ATOM      3  C   UNL     1     -13.646 -27.685 -20.022  1.00  0.00     0.238 A 
ATOM      4  O   UNL     1     -14.396 -28.204 -19.151  1.00  0.00    -0.285 OA
ATOM      5  C   UNL     1     -13.506 -26.285 -20.117  1.00  0.00     0.111 A 
ATOM      6  C   UNL     1     -14.179 -25.380 -19.260  1.00  0.00     0.134 A 
ATOM      7  C   UNL     1     -13.994 -24.000 -19.426  1.00  0.00     0.093 A 
ATOM      8  C   UNL     1     -13.152 -23.508 -20.430  1.00  0.00     0.123 A 
ATOM      9  C   UNL     1     -12.487 -24.396 -21.275  1.00  0.00     0.094 A 
ATOM     10  C   UNL     1     -12.657 -25.776 -21.126  1.00  0.00     0.146 A 
ATOM     11  O   UNL     1     -12.007 -26.599 -21.942  1.00  0.00    -0.452 OA
ENDROOT
BRANCH   1  12
ATOM     12  C   UNL     1     -11.317 -28.731 -22.834  1.00  0.00     0.025 A 
ATOM     13  C   UNL     1     -11.857 -29.128 -24.069  1.00  0.00     0.016 A 
ATOM     14  C   UNL     1     -11.107 -29.911 -24.950  1.00  0.00     0.051 A 
ATOM     15  C   UNL     1      -9.812 -30.320 -24.603  1.00  0.00     0.157 A 
ATOM     16  C   UNL     1     -10.027 -29.162 -22.483  1.00  0.00     0.062 A 
ATOM     17  C   UNL     1      -9.272 -29.947 -23.366  1.00  0.00     0.158 A 
BRANCH  15  18
ATOM     18  O   UNL     1      -9.059 -31.099 -25.479  1.00  0.00    -0.504 OA
ATOM     19  H   UNL     1      -8.822 -32.062 -25.263  1.00  0.00     0.293 HD
ENDBRANCH  15  18
BRANCH  17  20
ATOM     20  O   UNL     1      -7.987 -30.361 -23.020  1.00  0.00    -0.504 OA
ATOM     21  H   UNL     1      -7.564 -30.095 -22.139  1.00  0.00     0.293 HD
ENDBRANCH  17  20
ENDBRANCH   1  12
BRANCH   2  22
ATOM     22  O   UNL     1     -13.105 -29.902 -20.871  1.00  0.00    -0.502 OA
ATOM     23  H   UNL     1     -12.408 -30.517 -20.467  1.00  0.00     0.293 HD
ENDBRANCH   2  22
BRANCH   6  24
ATOM     24  O   UNL     1     -15.026 -25.841 -18.252  1.00  0.00    -0.507 OA
ATOM     25  H   UNL     1     -15.961 -25.470 -18.130  1.00  0.00     0.293 HD
ENDBRANCH   6  24
BRANCH   8  26
ATOM     26  O   UNL     1     -12.971 -22.136 -20.594  1.00  0.00    -0.508 OA
ATOM     27  H   UNL     1     -13.666 -21.561 -21.053  1.00  0.00     0.293 HD
ENDBRANCH   8  26
TORSDOF 6
ENDMDL
MODEL 5
REMARK VINA RESULT:    -6.941     11.193     13.772
REMARK INTER + INTRA:          -8.691
REMARK INTER:                  -8.384
REMARK INTRA:                  -0.307
REMARK UNBOUND:                -0.330
REMARK SMILES O=c1c(O)c(-c2ccc(O)c(O)c2)oc2cc(O)cc(O)c12
REMARK SMILES IDX 5 1 3 2 2 3 1 4 22 5 20 6 19 7 17 8 16 9 15 10 14 11 6 12
REMARK SMILES IDX 7 13 8 14 9 15 13 16 11 17 10 18 12 20 4 22 21 24 18 26
REMARK H PARENT 10 19 12 21 4 23 21 25 18 27
REMARK Flexibility Score: inf
ROOT
ATOM      1  C   UNL     1      -5.252 -20.922 -29.029  1.00  0.00     0.180 A 
ATOM      2  C   UNL     1      -6.382 -21.764 -29.030  1.00  0.00     0.208 A 
ATOM      3  C   UNL     1      -6.245 -23.081 -29.499  1.00  0.00     0.238 A 
ATOM      4  O   UNL     1      -7.252 -23.840 -29.516  1.00  0.00    -0.285 OA
ATOM      5  C   UNL     1      -4.985 -23.538 -29.936  1.00  0.00     0.111 A 
ATOM      6  C   UNL     1      -4.763 -24.850 -30.419  1.00  0.00     0.134 A 
ATOM      7  C   UNL     1      -3.476 -25.231 -30.827  1.00  0.00     0.093 A 
ATOM      8  C   UNL     1      -2.410 -24.327 -30.762  1.00  0.00     0.123 A 
ATOM      9  C   UNL     1      -2.625 -23.033 -30.288  1.00  0.00     0.094 A 
ATOM     10  C   UNL     1      -3.900 -22.633 -29.877  1.00  0.00     0.146 A 
ATOM     11  O   UNL     1      -4.077 -21.393 -29.434  1.00  0.00    -0.452 OA
ENDROOT
BRANCH   1  12
ATOM     12  C   UNL     1      -5.321 -19.517 -28.568  1.00  0.00     0.025 A 
ATOM     13  C   UNL     1      -5.258 -19.190 -27.202  1.00  0.00     0.016 A 
ATOM     14  C   UNL     1      -5.350 -17.858 -26.789  1.00  0.00     0.051 A 
ATOM     15  C   UNL     1      -5.518 -16.836 -27.733  1.00  0.00     0.157 A 
ATOM     16  C   UNL     1      -5.511 -18.490 -29.508  1.00  0.00     0.062 A 
ATOM     17  C   UNL     1      -5.602 -17.153 -29.095  1.00  0.00     0.158 A 
BRANCH  15  18
ATOM     18  O   UNL     1      -5.607 -15.506 -27.327  1.00  0.00    -0.504 OA
ATOM     19  H   UNL     1      -6.498 -15.083 -27.089  1.00  0.00     0.293 HD
ENDBRANCH  15  18
BRANCH  17  20
ATOM     20  O   UNL     1      -5.777 -16.135 -30.031  1.00  0.00    -0.504 OA
ATOM     21  H   UNL     1      -6.092 -15.212 -29.758  1.00  0.00     0.293 HD
ENDBRANCH  17  20
ENDBRANCH   1  12
BRANCH   2  22
ATOM     22  O   UNL     1      -7.608 -21.302 -28.546  1.00  0.00    -0.502 OA
ATOM     23  H   UNL     1      -7.872 -21.382 -27.571  1.00  0.00     0.293 HD
ENDBRANCH   2  22
BRANCH   6  24
ATOM     24  O   UNL     1      -5.806 -25.774 -30.494  1.00  0.00    -0.507 OA
ATOM     25  H   UNL     1      -6.373 -26.004 -29.687  1.00  0.00     0.293 HD
ENDBRANCH   6  24
BRANCH   8  26
ATOM     26  O   UNL     1      -1.132 -24.708 -31.166  1.00  0.00    -0.508 OA
ATOM     27  H   UNL     1      -0.975 -25.186 -32.045  1.00  0.00     0.293 HD
ENDBRANCH   8  26
TORSDOF 6
ENDMDL
MODEL 6
REMARK VINA RESULT:    -6.939     12.594     14.296
REMARK INTER + INTRA:          -8.689
REMARK INTER:                  -8.401
REMARK INTRA:                  -0.288
REMARK UNBOUND:                -0.330
REMARK SMILES O=c1c(O)c(-c2ccc(O)c(O)c2)oc2cc(O)cc(O)c12
REMARK SMILES IDX 5 1 3 2 2 3 1 4 22 5 20 6 19 7 17 8 16 9 15 10 14 11 6 12
REMARK SMILES IDX 7 13 8 14 9 15 13 16 11 17 10 18 12 20 4 22 21 24 18 26
REMARK H PARENT 10 19 12 21 4 23 21 25 18 27
REMARK Flexibility Score: inf
ROOT
ATOM      1  C   UNL     1      -4.919 -20.672 -29.487  1.00  0.00     0.180 A 
ATOM      2  C   UNL     1      -4.934 -21.537 -30.599  1.00  0.00     0.208 A 
ATOM      3  C   UNL     1      -4.097 -22.664 -30.591  1.00  0.00     0.238 A 
ATOM      4  O   UNL     1      -4.093 -23.440 -31.586  1.00  0.00    -0.285 OA
ATOM      5  C   UNL     1      -3.279 -22.918 -29.471  1.00  0.00     0.111 A 
ATOM      6  C   UNL     1      -2.410 -24.032 -29.384  1.00  0.00     0.134 A 
ATOM      7  C   UNL     1      -1.635 -24.220 -28.230  1.00  0.00     0.093 A 
ATOM      8  C   UNL     1      -1.711 -23.316 -27.165  1.00  0.00     0.123 A 
ATOM      9  C   UNL     1      -2.565 -22.216 -27.247  1.00  0.00     0.094 A 
ATOM     10  C   UNL     1      -3.346 -22.010 -28.389  1.00  0.00     0.146 A 
ATOM     11  O   UNL     1      -4.146 -20.951 -28.442  1.00  0.00    -0.452 OA
ENDROOT
BRANCH   1  12
ATOM     12  C   UNL     1      -5.759 -19.453 -29.428  1.00  0.00     0.025 A 
ATOM     13  C   UNL     1      -6.977 -19.437 -28.727  1.00  0.00     0.016 A 
ATOM     14  C   UNL     1      -7.765 -18.283 -28.706  1.00  0.00     0.051 A 
ATOM     15  C   UNL     1      -7.354 -17.134 -29.396  1.00  0.00     0.157 A 
ATOM     16  C   UNL     1      -5.362 -18.307 -30.135  1.00  0.00     0.062 A 
ATOM     17  C   UNL     1      -6.151 -17.147 -30.114  1.00  0.00     0.158 A 
BRANCH  15  18
ATOM     18  O   UNL     1      -8.134 -15.981 -29.376  1.00  0.00    -0.504 OA
ATOM     19  H   UNL     1      -8.553 -15.638 -28.518  1.00  0.00     0.293 HD
ENDBRANCH  15  18
BRANCH  17  20
ATOM     20  O   UNL     1      -5.748 -16.006 -30.805  1.00  0.00    -0.504 OA
ATOM     21  H   UNL     1      -6.229 -15.121 -30.694  1.00  0.00     0.293 HD
ENDBRANCH  17  20
ENDBRANCH   1  12
BRANCH   2  22
ATOM     22  O   UNL     1      -5.789 -21.290 -31.674  1.00  0.00    -0.502 OA
ATOM     23  H   UNL     1      -5.452 -20.969 -32.575  1.00  0.00     0.293 HD
ENDBRANCH   2  22
BRANCH   6  24
ATOM     24  O   UNL     1      -2.314 -24.952 -30.429  1.00  0.00    -0.507 OA
ATOM     25  H   UNL     1      -1.950 -24.689 -31.337  1.00  0.00     0.293 HD
ENDBRANCH   6  24
BRANCH   8  26
ATOM     26  O   UNL     1      -0.941 -23.504 -26.018  1.00  0.00    -0.508 OA
ATOM     27  H   UNL     1      -0.458 -22.734 -25.573  1.00  0.00     0.293 HD
ENDBRANCH   8  26
TORSDOF 6
ENDMDL
MODEL 7
REMARK VINA RESULT:    -6.939      5.741     10.728
REMARK INTER + INTRA:          -8.688
REMARK INTER:                  -8.605
REMARK INTRA:                  -0.083
REMARK UNBOUND:                -0.330
REMARK SMILES O=c1c(O)c(-c2ccc(O)c(O)c2)oc2cc(O)cc(O)c12
REMARK SMILES IDX 5 1 3 2 2 3 1 4 22 5 20 6 19 7 17 8 16 9 15 10 14 11 6 12
REMARK SMILES IDX 7 13 8 14 9 15 13 16 11 17 10 18 12 20 4 22 21 24 18 26
REMARK H PARENT 10 19 12 21 4 23 21 25 18 27
REMARK Flexibility Score: inf
ROOT
ATOM      1  C   UNL     1      -5.100 -26.188 -26.612  1.00  0.00     0.180 A 
ATOM      2  C   UNL     1      -3.957 -25.439 -26.272  1.00  0.00     0.208 A 
ATOM      3  C   UNL     1      -3.341 -24.656 -27.261  1.00  0.00     0.238 A 
ATOM      4  O   UNL     1      -2.310 -23.989 -26.972  1.00  0.00    -0.285 OA
ATOM      5  C   UNL     1      -3.887 -24.619 -28.561  1.00  0.00     0.111 A 
ATOM      6  C   UNL     1      -3.329 -23.853 -29.613  1.00  0.00     0.134 A 
ATOM      7  C   UNL     1      -3.937 -23.862 -30.877  1.00  0.00     0.093 A 
ATOM      8  C   UNL     1      -5.090 -24.621 -31.108  1.00  0.00     0.123 A 
ATOM      9  C   UNL     1      -5.642 -25.378 -30.075  1.00  0.00     0.094 A 
ATOM     10  C   UNL     1      -5.051 -25.383 -28.808  1.00  0.00     0.146 A 
ATOM     11  O   UNL     1      -5.595 -26.117 -27.844  1.00  0.00    -0.452 OA
ENDROOT
BRANCH   1  12
ATOM     12  C   UNL     1      -5.794 -27.052 -25.630  1.00  0.00     0.025 A 
ATOM     13  C   UNL     1      -7.139 -26.834 -25.284  1.00  0.00     0.016 A 
ATOM     14  C   UNL     1      -7.766 -27.647 -24.335  1.00  0.00     0.051 A 
ATOM     15  C   UNL     1      -7.055 -28.680 -23.710  1.00  0.00     0.157 A 
ATOM     16  C   UNL     1      -5.081 -28.075 -24.984  1.00  0.00     0.062 A 
ATOM     17  C   UNL     1      -5.709 -28.893 -24.033  1.00  0.00     0.158 A 
BRANCH  15  18
ATOM     18  O   UNL     1      -7.676 -29.494 -22.766  1.00  0.00    -0.504 OA
ATOM     19  H   UNL     1      -8.595 -29.891 -22.931  1.00  0.00     0.293 HD
ENDBRANCH  15  18
BRANCH  17  20
ATOM     20  O   UNL     1      -5.002 -29.916 -23.404  1.00  0.00    -0.504 OA
ATOM     21  H   UNL     1      -5.010 -30.864 -23.763  1.00  0.00     0.293 HD
ENDBRANCH  17  20
ENDBRANCH   1  12
BRANCH   2  22
ATOM     22  O   UNL     1      -3.465 -25.455 -24.965  1.00  0.00    -0.502 OA
ATOM     23  H   UNL     1      -4.066 -25.588 -24.160  1.00  0.00     0.293 HD
ENDBRANCH   2  22
BRANCH   6  24
ATOM     24  O   UNL     1      -2.181 -23.086 -29.412  1.00  0.00    -0.507 OA
ATOM     25  H   UNL     1      -1.543 -22.873 -30.170  1.00  0.00     0.293 HD
ENDBRANCH   6  24
BRANCH   8  26
ATOM     26  O   UNL     1      -5.694 -24.628 -32.364  1.00  0.00    -0.508 OA
ATOM     27  H   UNL     1      -5.936 -23.768 -32.841  1.00  0.00     0.293 HD
ENDBRANCH   8  26
TORSDOF 6
ENDMDL
MODEL 8
REMARK VINA RESULT:    -6.923      5.720      9.031
REMARK INTER + INTRA:          -8.669
REMARK INTER:                  -8.410
REMARK INTRA:                  -0.259
REMARK UNBOUND:                -0.330
REMARK SMILES O=c1c(O)c(-c2ccc(O)c(O)c2)oc2cc(O)cc(O)c12
REMARK SMILES IDX 5 1 3 2 2 3 1 4 22 5 20 6 19 7 17 8 16 9 15 10 14 11 6 12
REMARK SMILES IDX 7 13 8 14 9 15 13 16 11 17 10 18 12 20 4 22 21 24 18 26
REMARK H PARENT 10 19 12 21 4 23 21 25 18 27
REMARK Flexibility Score: inf
ROOT
ATOM      1  C   UNL     1      -5.005 -25.918 -27.545  1.00  0.00     0.180 A 
ATOM      2  C   UNL     1      -6.333 -25.507 -27.770  1.00  0.00     0.208 A 
ATOM      3  C   UNL     1      -7.357 -26.069 -26.991  1.00  0.00     0.238 A 
ATOM      4  O   UNL     1      -8.552 -25.718 -27.192  1.00  0.00    -0.285 OA
ATOM      5  C   UNL     1      -7.037 -27.011 -25.992  1.00  0.00     0.111 A 
ATOM      6  C   UNL     1      -8.009 -27.621 -25.163  1.00  0.00     0.134 A 
ATOM      7  C   UNL     1      -7.608 -28.542 -24.184  1.00  0.00     0.093 A 
ATOM      8  C   UNL     1      -6.256 -28.865 -24.020  1.00  0.00     0.123 A 
ATOM      9  C   UNL     1      -5.295 -28.267 -24.836  1.00  0.00     0.094 A 
ATOM     10  C   UNL     1      -5.674 -27.347 -25.817  1.00  0.00     0.146 A 
ATOM     11  O   UNL     1      -4.739 -26.797 -26.583  1.00  0.00    -0.452 OA
ENDROOT
BRANCH   1  12
ATOM     12  C   UNL     1      -3.872 -25.386 -28.337  1.00  0.00     0.025 A 
ATOM     13  C   UNL     1      -3.677 -25.761 -29.678  1.00  0.00     0.016 A 
ATOM     14  C   UNL     1      -2.587 -25.265 -30.399  1.00  0.00     0.051 A 
ATOM     15  C   UNL     1      -1.670 -24.400 -29.787  1.00  0.00     0.157 A 
ATOM     16  C   UNL     1      -2.939 -24.535 -27.723  1.00  0.00     0.062 A 
ATOM     17  C   UNL     1      -1.845 -24.036 -28.446  1.00  0.00     0.158 A 
BRANCH  15  18
ATOM     18  O   UNL     1      -0.584 -23.901 -30.501  1.00  0.00    -0.504 OA
ATOM     19  H   UNL     1      -0.700 -23.193 -31.218  1.00  0.00     0.293 HD
ENDBRANCH  15  18
BRANCH  17  20
ATOM     20  O   UNL     1      -0.928 -23.181 -27.836  1.00  0.00    -0.504 OA
ATOM     21  H   UNL     1      -1.200 -22.564 -27.080  1.00  0.00     0.293 HD
ENDBRANCH  17  20
ENDBRANCH   1  12
BRANCH   2  22
ATOM     22  O   UNL     1      -6.618 -24.537 -28.733  1.00  0.00    -0.502 OA
ATOM     23  H   UNL     1      -7.204 -23.733 -28.537  1.00  0.00     0.293 HD
ENDBRANCH   2  22
BRANCH   6  24
ATOM     24  O   UNL     1      -9.364 -27.318 -25.302  1.00  0.00    -0.507 OA
ATOM     25  H   UNL     1      -9.675 -26.442 -25.706  1.00  0.00     0.293 HD
ENDBRANCH   6  24
BRANCH   8  26
ATOM     26  O   UNL     1      -5.859 -29.779 -23.046  1.00  0.00    -0.508 OA
ATOM     27  H   UNL     1      -5.100 -30.430 -23.209  1.00  0.00     0.293 HD
ENDBRANCH   8  26
TORSDOF 6
ENDMDL
MODEL 9
REMARK VINA RESULT:    -6.885      7.595     11.434
REMARK INTER + INTRA:          -8.624
REMARK INTER:                  -8.343
REMARK INTRA:                  -0.280
REMARK UNBOUND:                -0.330
REMARK SMILES O=c1c(O)c(-c2ccc(O)c(O)c2)oc2cc(O)cc(O)c12
REMARK SMILES IDX 5 1 3 2 2 3 1 4 22 5 20 6 19 7 17 8 16 9 15 10 14 11 6 12
REMARK SMILES IDX 7 13 8 14 9 15 13 16 11 17 10 18 12 20 4 22 21 24 18 26
REMARK H PARENT 10 19 12 21 4 23 21 25 18 27
REMARK Flexibility Score: inf
ROOT
ATOM      1  C   UNL     1      -5.522 -24.354 -27.932  1.00  0.00     0.180 A 
ATOM      2  C   UNL     1      -5.535 -24.538 -29.328  1.00  0.00     0.208 A 
ATOM      3  C   UNL     1      -5.638 -23.411 -30.159  1.00  0.00     0.238 A 
ATOM      4  O   UNL     1      -5.663 -23.564 -31.411  1.00  0.00    -0.285 OA
ATOM      5  C   UNL     1      -5.705 -22.125 -29.585  1.00  0.00     0.111 A 
ATOM      6  C   UNL     1      -5.807 -20.939 -30.352  1.00  0.00     0.134 A 
ATOM      7  C   UNL     1      -5.859 -19.696 -29.706  1.00  0.00     0.093 A 
ATOM      8  C   UNL     1      -5.811 -19.616 -28.309  1.00  0.00     0.123 A 
ATOM      9  C   UNL     1      -5.712 -20.782 -27.549  1.00  0.00     0.094 A 
ATOM     10  C   UNL     1      -5.660 -22.031 -28.175  1.00  0.00     0.146 A 
ATOM     11  O   UNL     1      -5.571 -23.125 -27.427  1.00  0.00    -0.452 OA
ENDROOT
BRANCH   1  12
ATOM     12  C   UNL     1      -5.435 -25.493 -26.989  1.00  0.00     0.025 A 
ATOM     13  C   UNL     1      -6.543 -26.319 -26.736  1.00  0.00     0.016 A 
ATOM     14  C   UNL     1      -6.444 -27.374 -25.823  1.00  0.00     0.051 A 
ATOM     15  C   UNL     1      -5.242 -27.608 -25.143  1.00  0.00     0.157 A 
ATOM     16  C   UNL     1      -4.239 -25.720 -26.289  1.00  0.00     0.062 A 
ATOM     17  C   UNL     1      -4.138 -26.778 -25.374  1.00  0.00     0.158 A 
BRANCH  15  18
ATOM     18  O   UNL     1      -5.138 -28.659 -24.234  1.00  0.00    -0.504 OA
ATOM     19  H   UNL     1      -4.606 -28.567 -23.376  1.00  0.00     0.293 HD
ENDBRANCH  15  18
BRANCH  17  20
ATOM     20  O   UNL     1      -2.945 -27.009 -24.690  1.00  0.00    -0.504 OA
ATOM     21  H   UNL     1      -2.735 -26.537 -23.819  1.00  0.00     0.293 HD
ENDBRANCH  17  20
ENDBRANCH   1  12
BRANCH   2  22
ATOM     22  O   UNL     1      -5.419 -25.819 -29.873  1.00  0.00    -0.502 OA
ATOM     23  H   UNL     1      -4.547 -26.173 -30.248  1.00  0.00     0.293 HD
ENDBRANCH   2  22
BRANCH   6  24
ATOM     24  O   UNL     1      -5.854 -20.987 -31.746  1.00  0.00    -0.507 OA
ATOM     25  H   UNL     1      -5.914 -20.145 -32.307  1.00  0.00     0.293 HD
ENDBRANCH   6  24
BRANCH   8  26
ATOM     26  O   UNL     1      -5.862 -18.380 -27.668  1.00  0.00    -0.508 OA
ATOM     27  H   UNL     1      -6.323 -17.583 -28.089  1.00  0.00     0.293 HD
ENDBRANCH   8  26
TORSDOF 6
ENDMDL
