MODEL 1
REMARK VINA RESULT:     0.000      0.000      0.000
REMARK INTER + INTRA:           0.000
REMARK INTER:                   0.000
REMARK INTRA:                   0.000
REMARK UNBOUND:                 0.000
REMARK SMILES O=c1ccc2cc(O)c(O)cc2o1
REMARK SMILES IDX 4 1 3 2 2 3 1 4 13 5 12 6 11 7 9 8 7 9 6 10 5 11 8 12 10 14
REMARK H PARENT 8 13 10 15
REMARK Flexibility Score: inf
ROOT
ATOM      1  C   UNL     1      10.852  20.790  46.357  1.00  0.00     0.019 A 
ATOM      2  C   UNL     1      10.524  20.618  47.702  1.00  0.00     0.094 A 
ATOM      3  C   UNL     1      10.357  21.749  48.508  1.00  0.00     0.336 A 
ATOM      4  O   UNL     1      10.061  21.615  49.725  1.00  0.00    -0.246 OA
ATOM      5  O   UNL     1      10.507  22.969  47.998  1.00  0.00    -0.423 OA
ATOM      6  C   UNL     1      10.819  23.177  46.720  1.00  0.00     0.142 A 
ATOM      7  C   UNL     1      10.964  24.482  46.240  1.00  0.00     0.098 A 
ATOM      8  C   UNL     1      11.291  24.709  44.898  1.00  0.00     0.161 A 
ATOM      9  C   UNL     1      11.476  23.621  44.026  1.00  0.00     0.158 A 
ATOM     10  C   UNL     1      11.331  22.310  44.504  1.00  0.00     0.062 A 
ATOM     11  C   UNL     1      11.003  22.083  45.848  1.00  0.00     0.022 A 
ENDROOT
BRANCH   9  12
ATOM     12  O   UNL     1      11.802  23.845  42.689  1.00  0.00    -0.504 OA
ATOM     13  H   UNL     1      11.361  24.582  42.151  1.00  0.00     0.293 HD
ENDBRANCH   9  12
BRANCH   8  14
ATOM     14  O   UNL     1      11.428  26.022  44.449  1.00  0.00    -0.504 OA
ATOM     15  H   UNL     1      11.157  26.816  45.016  1.00  0.00     0.293 HD
ENDBRANCH   8  14
TORSDOF 2
ENDMDL
MODEL 2
REMARK VINA RESULT:     0.000      2.052      2.696
REMARK INTER + INTRA:           0.000
REMARK INTER:                   0.000
REMARK INTRA:                   0.000
REMARK UNBOUND:                 0.000
REMARK SMILES O=c1ccc2cc(O)c(O)cc2o1
REMARK SMILES IDX 4 1 3 2 2 3 1 4 13 5 12 6 11 7 9 8 7 9 6 10 5 11 8 12 10 14
REMARK H PARENT 8 13 10 15
REMARK Flexibility Score: inf
ROOT
ATOM      1  C   UNL     1       9.963  18.245  46.323  1.00  0.00     0.019 A 
ATOM      2  C   UNL     1       9.635  18.074  47.668  1.00  0.00     0.094 A 
ATOM      3  C   UNL     1       9.468  19.205  48.475  1.00  0.00     0.336 A 
ATOM      4  O   UNL     1       9.172  19.070  49.691  1.00  0.00    -0.246 OA
ATOM      5  O   UNL     1       9.618  20.424  47.964  1.00  0.00    -0.423 OA
ATOM      6  C   UNL     1       9.930  20.632  46.687  1.00  0.00     0.142 A 
ATOM      7  C   UNL     1      10.075  21.938  46.206  1.00  0.00     0.098 A 
ATOM      8  C   UNL     1      10.402  22.164  44.865  1.00  0.00     0.161 A 
ATOM      9  C   UNL     1      10.587  21.076  43.992  1.00  0.00     0.158 A 
ATOM     10  C   UNL     1      10.442  19.765  44.470  1.00  0.00     0.062 A 
ATOM     11  C   UNL     1      10.114  19.539  45.814  1.00  0.00     0.022 A 
ENDROOT
BRANCH   9  12
ATOM     12  O   UNL     1      10.913  21.301  42.655  1.00  0.00    -0.504 OA
ATOM     13  H   UNL     1      10.472  22.037  42.117  1.00  0.00     0.293 HD
ENDBRANCH   9  12
BRANCH   8  14
ATOM     14  O   UNL     1      10.539  23.477  44.415  1.00  0.00    -0.504 OA
ATOM     15  H   UNL     1      10.268  24.272  44.982  1.00  0.00     0.293 HD
ENDBRANCH   8  14
TORSDOF 2
ENDMDL
MODEL 3
REMARK VINA RESULT:     0.000      3.080      3.734
REMARK INTER + INTRA:           0.000
REMARK INTER:                   0.000
REMARK INTRA:                   0.000
REMARK UNBOUND:                 0.000
REMARK SMILES O=c1ccc2cc(O)c(O)cc2o1
REMARK SMILES IDX 4 1 3 2 2 3 1 4 13 5 12 6 11 7 9 8 7 9 6 10 5 11 8 12 10 14
REMARK H PARENT 8 13 10 15
REMARK Flexibility Score: inf
ROOT
ATOM      1  C   UNL     1       9.963  18.245  46.323  1.00  0.00     0.019 A 
ATOM      2  C   UNL     1       8.932  17.862  47.181  1.00  0.00     0.094 A 
ATOM      3  C   UNL     1       8.748  18.565  48.376  1.00  0.00     0.336 A 
ATOM      4  O   UNL     1       7.823  18.234  49.164  1.00  0.00    -0.246 OA
ATOM      5  O   UNL     1       9.545  19.584  48.688  1.00  0.00    -0.423 OA
ATOM      6  C   UNL     1      10.540  19.982  47.898  1.00  0.00     0.142 A 
ATOM      7  C   UNL     1      11.346  21.060  48.279  1.00  0.00     0.098 A 
ATOM      8  C   UNL     1      12.394  21.485  47.454  1.00  0.00     0.161 A 
ATOM      9  C   UNL     1      12.640  20.826  46.235  1.00  0.00     0.158 A 
ATOM     10  C   UNL     1      11.834  19.745  45.849  1.00  0.00     0.062 A 
ATOM     11  C   UNL     1      10.785  19.320  46.676  1.00  0.00     0.022 A 
ENDROOT
BRANCH   9  12
ATOM     12  O   UNL     1      13.684  21.248  45.412  1.00  0.00    -0.504 OA
ATOM     13  H   UNL     1      13.552  21.973  44.716  1.00  0.00     0.293 HD
ENDBRANCH   9  12
BRANCH   8  14
ATOM     14  O   UNL     1      13.179  22.563  47.860  1.00  0.00    -0.504 OA
ATOM     15  H   UNL     1      13.852  23.002  47.243  1.00  0.00     0.293 HD
ENDBRANCH   8  14
TORSDOF 2
ENDMDL
MODEL 4
REMARK VINA RESULT:     0.000     12.161     14.236
REMARK INTER + INTRA:           0.000
REMARK INTER:                   0.000
REMARK INTRA:                   0.000
REMARK UNBOUND:                 0.000
REMARK SMILES O=c1ccc2cc(O)c(O)cc2o1
REMARK SMILES IDX 4 1 3 2 2 3 1 4 13 5 12 6 11 7 9 8 7 9 6 10 5 11 8 12 10 14
REMARK H PARENT 8 13 10 15
REMARK Flexibility Score: inf
ROOT
ATOM      1  C   UNL     1      16.486  14.515  54.776  1.00  0.00     0.019 A 
ATOM      2  C   UNL     1      17.205  13.352  55.052  1.00  0.00     0.094 A 
ATOM      3  C   UNL     1      16.882  12.610  56.193  1.00  0.00     0.336 A 
ATOM      4  O   UNL     1      17.520  11.558  56.460  1.00  0.00    -0.246 OA
ATOM      5  O   UNL     1      15.903  13.009  57.001  1.00  0.00    -0.423 OA
ATOM      6  C   UNL     1      15.192  14.111  56.774  1.00  0.00     0.142 A 
ATOM      7  C   UNL     1      14.174  14.481  57.659  1.00  0.00     0.098 A 
ATOM      8  C   UNL     1      13.422  15.638  57.427  1.00  0.00     0.161 A 
ATOM      9  C   UNL     1      13.689  16.436  56.300  1.00  0.00     0.158 A 
ATOM     10  C   UNL     1      14.709  16.069  55.409  1.00  0.00     0.062 A 
ATOM     11  C   UNL     1      15.462  14.910  55.642  1.00  0.00     0.022 A 
ENDROOT
BRANCH   9  12
ATOM     12  O   UNL     1      12.940  17.590  56.068  1.00  0.00    -0.504 OA
ATOM     13  H   UNL     1      12.519  18.111  56.827  1.00  0.00     0.293 HD
ENDBRANCH   9  12
BRANCH   8  14
ATOM     14  O   UNL     1      12.413  15.980  58.328  1.00  0.00    -0.504 OA
ATOM     15  H   UNL     1      11.431  15.889  58.096  1.00  0.00     0.293 HD
ENDBRANCH   8  14
TORSDOF 2
ENDMDL
MODEL 5
REMARK VINA RESULT:     0.000     10.282     12.506
REMARK INTER + INTRA:           0.000
REMARK INTER:                   0.000
REMARK INTRA:                   0.000
REMARK UNBOUND:                 0.000
REMARK SMILES O=c1ccc2cc(O)c(O)cc2o1
REMARK SMILES IDX 4 1 3 2 2 3 1 4 13 5 12 6 11 7 9 8 7 9 6 10 5 11 8 12 10 14
REMARK H PARENT 8 13 10 15
REMARK Flexibility Score: inf
ROOT
ATOM      1  C   UNL     1      16.450  13.695  54.566  1.00  0.00     0.019 A 
ATOM      2  C   UNL     1      16.164  12.532  55.281  1.00  0.00     0.094 A 
ATOM      3  C   UNL     1      14.891  12.377  55.842  1.00  0.00     0.336 A 
ATOM      4  O   UNL     1      14.614  11.335  56.491  1.00  0.00    -0.246 OA
ATOM      5  O   UNL     1      13.969  13.325  55.693  1.00  0.00    -0.423 OA
ATOM      6  C   UNL     1      14.201  14.449  55.018  1.00  0.00     0.142 A 
ATOM      7  C   UNL     1      13.192  15.410  54.895  1.00  0.00     0.098 A 
ATOM      8  C   UNL     1      13.428  16.594  54.186  1.00  0.00     0.161 A 
ATOM      9  C   UNL     1      14.684  16.822  53.595  1.00  0.00     0.158 A 
ATOM     10  C   UNL     1      15.698  15.860  53.716  1.00  0.00     0.062 A 
ATOM     11  C   UNL     1      15.461  14.674  54.425  1.00  0.00     0.022 A 
ENDROOT
BRANCH   9  12
ATOM     12  O   UNL     1      14.920  18.001  52.889  1.00  0.00    -0.504 OA
ATOM     13  H   UNL     1      14.429  18.859  53.109  1.00  0.00     0.293 HD
ENDBRANCH   9  12
BRANCH   8  14
ATOM     14  O   UNL     1      12.402  17.533  54.081  1.00  0.00    -0.504 OA
ATOM     15  H   UNL     1      12.058  17.855  53.184  1.00  0.00     0.293 HD
ENDBRANCH   8  14
TORSDOF 2
ENDMDL
MODEL 6
REMARK VINA RESULT:     0.000     10.504     12.985
REMARK INTER + INTRA:           0.000
REMARK INTER:                   0.000
REMARK INTRA:                   0.000
REMARK UNBOUND:                 0.000
REMARK SMILES O=c1ccc2cc(O)c(O)cc2o1
REMARK SMILES IDX 4 1 3 2 2 3 1 4 13 5 12 6 11 7 9 8 7 9 6 10 5 11 8 12 10 14
REMARK H PARENT 8 13 10 15
REMARK Flexibility Score: inf
ROOT
ATOM      1  C   UNL     1      15.116  12.194  54.157  1.00  0.00     0.019 A 
ATOM      2  C   UNL     1      15.130  11.378  55.288  1.00  0.00     0.094 A 
ATOM      3  C   UNL     1      14.103  11.506  56.230  1.00  0.00     0.336 A 
ATOM      4  O   UNL     1      14.099  10.779  57.257  1.00  0.00    -0.246 OA
ATOM      5  O   UNL     1      13.128  12.393  56.046  1.00  0.00    -0.423 OA
ATOM      6  C   UNL     1      13.077  13.190  54.981  1.00  0.00     0.142 A 
ATOM      7  C   UNL     1      12.027  14.104  54.843  1.00  0.00     0.098 A 
ATOM      8  C   UNL     1      11.965  14.945  53.726  1.00  0.00     0.161 A 
ATOM      9  C   UNL     1      12.963  14.875  52.736  1.00  0.00     0.158 A 
ATOM     10  C   UNL     1      14.018  13.959  52.871  1.00  0.00     0.062 A 
ATOM     11  C   UNL     1      14.079  13.117  53.990  1.00  0.00     0.022 A 
ENDROOT
BRANCH   9  12
ATOM     12  O   UNL     1      12.903  15.712  51.623  1.00  0.00    -0.504 OA
ATOM     13  H   UNL     1      13.741  16.056  51.171  1.00  0.00     0.293 HD
ENDBRANCH   9  12
BRANCH   8  14
ATOM     14  O   UNL     1      10.906  15.846  53.616  1.00  0.00    -0.504 OA
ATOM     15  H   UNL     1      10.242  15.805  52.852  1.00  0.00     0.293 HD
ENDBRANCH   8  14
TORSDOF 2
ENDMDL
MODEL 7
REMARK VINA RESULT:     0.000     12.308     14.586
REMARK INTER + INTRA:           0.000
REMARK INTER:                   0.000
REMARK INTRA:                   0.000
REMARK UNBOUND:                 0.000
REMARK SMILES O=c1ccc2cc(O)c(O)cc2o1
REMARK SMILES IDX 4 1 3 2 2 3 1 4 13 5 12 6 11 7 9 8 7 9 6 10 5 11 8 12 10 14
REMARK H PARENT 8 13 10 15
REMARK Flexibility Score: inf
ROOT
ATOM      1  C   UNL     1      13.704  10.443  54.680  1.00  0.00     0.019 A 
ATOM      2  C   UNL     1      14.215   9.841  55.830  1.00  0.00     0.094 A 
ATOM      3  C   UNL     1      13.811  10.320  57.082  1.00  0.00     0.336 A 
ATOM      4  O   UNL     1      14.261   9.791  58.131  1.00  0.00    -0.246 OA
ATOM      5  O   UNL     1      12.953  11.333  57.171  1.00  0.00    -0.423 OA
ATOM      6  C   UNL     1      12.442  11.934  56.098  1.00  0.00     0.142 A 
ATOM      7  C   UNL     1      11.544  12.995  56.254  1.00  0.00     0.098 A 
ATOM      8  C   UNL     1      11.002  13.632  55.132  1.00  0.00     0.161 A 
ATOM      9  C   UNL     1      11.361  13.207  53.840  1.00  0.00     0.158 A 
ATOM     10  C   UNL     1      12.262  12.143  53.679  1.00  0.00     0.062 A 
ATOM     11  C   UNL     1      12.804  11.505  54.804  1.00  0.00     0.022 A 
ENDROOT
BRANCH   9  12
ATOM     12  O   UNL     1      10.822  13.841  52.721  1.00  0.00    -0.504 OA
ATOM     13  H   UNL     1       9.983  14.404  52.782  1.00  0.00     0.293 HD
ENDBRANCH   9  12
BRANCH   8  14
ATOM     14  O   UNL     1      10.109  14.687  55.319  1.00  0.00    -0.504 OA
ATOM     15  H   UNL     1       9.763  15.243  54.547  1.00  0.00     0.293 HD
ENDBRANCH   8  14
TORSDOF 2
ENDMDL
MODEL 8
REMARK VINA RESULT:     0.000      9.564     10.954
REMARK INTER + INTRA:           0.000
REMARK INTER:                   0.000
REMARK INTRA:                   0.000
REMARK UNBOUND:                 0.000
REMARK SMILES O=c1ccc2cc(O)c(O)cc2o1
REMARK SMILES IDX 4 1 3 2 2 3 1 4 13 5 12 6 11 7 9 8 7 9 6 10 5 11 8 12 10 14
REMARK H PARENT 8 13 10 15
REMARK Flexibility Score: inf
ROOT
ATOM      1  C   UNL     1      14.767  15.628  52.520  1.00  0.00     0.019 A 
ATOM      2  C   UNL     1      14.438  14.286  52.714  1.00  0.00     0.094 A 
ATOM      3  C   UNL     1      13.626  13.938  53.799  1.00  0.00     0.336 A 
ATOM      4  O   UNL     1      13.319  12.732  53.991  1.00  0.00    -0.246 OA
ATOM      5  O   UNL     1      13.173  14.873  54.630  1.00  0.00    -0.423 OA
ATOM      6  C   UNL     1      13.463  16.164  54.480  1.00  0.00     0.142 A 
ATOM      7  C   UNL     1      12.959  17.103  55.386  1.00  0.00     0.098 A 
ATOM      8  C   UNL     1      13.258  18.462  55.235  1.00  0.00     0.161 A 
ATOM      9  C   UNL     1      14.070  18.889  54.168  1.00  0.00     0.158 A 
ATOM     10  C   UNL     1      14.577  17.950  53.257  1.00  0.00     0.062 A 
ATOM     11  C   UNL     1      14.277  16.590  53.409  1.00  0.00     0.022 A 
ENDROOT
BRANCH   9  12
ATOM     12  O   UNL     1      14.368  20.242  54.017  1.00  0.00    -0.504 OA
ATOM     13  H   UNL     1      13.886  20.820  53.339  1.00  0.00     0.293 HD
ENDBRANCH   9  12
BRANCH   8  14
ATOM     14  O   UNL     1      12.740  19.374  56.154  1.00  0.00    -0.504 OA
ATOM     15  H   UNL     1      11.821  19.785  56.045  1.00  0.00     0.293 HD
ENDBRANCH   8  14
TORSDOF 2
ENDMDL
MODEL 9
REMARK VINA RESULT:     0.000      8.942     10.700
REMARK INTER + INTRA:           0.000
REMARK INTER:                   0.000
REMARK INTRA:                   0.000
REMARK UNBOUND:                 0.000
REMARK SMILES O=c1ccc2cc(O)c(O)cc2o1
REMARK SMILES IDX 4 1 3 2 2 3 1 4 13 5 12 6 11 7 9 8 7 9 6 10 5 11 8 12 10 14
REMARK H PARENT 8 13 10 15
REMARK Flexibility Score: inf
ROOT
ATOM      1  C   UNL     1      13.723  17.347  53.066  1.00  0.00     0.019 A 
ATOM      2  C   UNL     1      14.098  16.037  53.363  1.00  0.00     0.094 A 
ATOM      3  C   UNL     1      13.923  15.560  54.667  1.00  0.00     0.336 A 
ATOM      4  O   UNL     1      14.256  14.381  54.954  1.00  0.00    -0.246 OA
ATOM      5  O   UNL     1      13.406  16.347  55.607  1.00  0.00    -0.423 OA
ATOM      6  C   UNL     1      13.035  17.602  55.366  1.00  0.00     0.142 A 
ATOM      7  C   UNL     1      12.497  18.382  56.395  1.00  0.00     0.098 A 
ATOM      8  C   UNL     1      12.104  19.703  56.149  1.00  0.00     0.161 A 
ATOM      9  C   UNL     1      12.250  20.252  54.862  1.00  0.00     0.158 A 
ATOM     10  C   UNL     1      12.789  19.473  53.827  1.00  0.00     0.062 A 
ATOM     11  C   UNL     1      13.182  18.150  54.074  1.00  0.00     0.022 A 
ENDROOT
BRANCH   9  12
ATOM     12  O   UNL     1      11.859  21.568  54.616  1.00  0.00    -0.504 OA
ATOM     13  H   UNL     1      10.981  21.784  54.159  1.00  0.00     0.293 HD
ENDBRANCH   9  12
BRANCH   8  14
ATOM     14  O   UNL     1      11.571  20.455  57.196  1.00  0.00    -0.504 OA
ATOM     15  H   UNL     1      11.271  20.031  58.065  1.00  0.00     0.293 HD
ENDBRANCH   8  14
TORSDOF 2
ENDMDL
