MODEL 1
REMARK VINA RESULT:    -4.552      0.000      0.000
REMARK INTER + INTRA:         -10.797
REMARK INTER:                  -8.277
REMARK INTRA:                  -2.521
REMARK UNBOUND:                -2.521
REMARK SMILES CCCCCCCCCCCCCCCC(=O)[O-]
REMARK SMILES IDX 9 1 10 2 11 3 12 4 13 5 14 6 15 7 16 8 17 9 18 10 8 11 7 12
REMARK SMILES IDX 6 13 5 14 4 15 3 16 2 17 1 18
REMARK H PARENT
REMARK Flexibility Score: inf
ROOT
ATOM      1  C   UNL     1     121.530 175.194 125.994  1.00  0.00     0.000 C 
ENDROOT
BRANCH   1   2
ATOM      2  C   UNL     1     120.189 174.469 125.752  1.00  0.00     0.000 C 
BRANCH   2   3
ATOM      3  C   UNL     1     119.211 174.658 126.925  1.00  0.00     0.000 C 
BRANCH   3   4
ATOM      4  C   UNL     1     119.346 176.038 127.590  1.00  0.00     0.000 C 
BRANCH   4   5
ATOM      5  C   UNL     1     118.043 176.855 127.519  1.00  0.00     0.000 C 
BRANCH   5   6
ATOM      6  C   UNL     1     117.615 177.158 126.075  1.00  0.00     0.006 C 
BRANCH   6   7
ATOM      7  C   UNL     1     116.422 178.121 126.003  1.00  0.00     0.053 C 
BRANCH   7   8
ATOM      8  C   UNL     1     116.254 178.641 124.611  1.00  0.00     0.041 C 
ATOM      9  O   UNL     1     117.167 178.476 123.759  1.00  0.00    -0.550 OA
ATOM     10  O   UNL     1     115.070 179.263 124.239  1.00  0.00    -0.550 OA
ENDBRANCH   7   8
ENDBRANCH   6   7
ENDBRANCH   5   6
ENDBRANCH   4   5
ENDBRANCH   3   4
ENDBRANCH   2   3
ENDBRANCH   1   2
BRANCH   1  11
ATOM     11  C   UNL     1     121.965 176.093 124.824  1.00  0.00     0.000 C 
BRANCH  11  12
ATOM     12  C   UNL     1     120.832 177.001 124.317  1.00  0.00    -0.000 C 
BRANCH  12  13
ATOM     13  C   UNL     1     121.186 178.498 124.392  1.00  0.00    -0.000 C 
BRANCH  13  14
ATOM     14  C   UNL     1     120.486 179.287 125.518  1.00  0.00    -0.000 C 
BRANCH  14  15
ATOM     15  C   UNL     1     121.123 179.139 126.911  1.00  0.00    -0.000 C 
BRANCH  15  16
ATOM     16  C   UNL     1     122.655 179.279 126.882  1.00  0.00    -0.000 C 
BRANCH  16  17
ATOM     17  C   UNL     1     123.357 178.236 127.764  1.00  0.00    -0.003 C 
ATOM     18  C   UNL     1     122.423 177.619 128.805  1.00  0.00     0.004 C 
ENDBRANCH  16  17
ENDBRANCH  15  16
ENDBRANCH  14  15
ENDBRANCH  13  14
ENDBRANCH  12  13
ENDBRANCH  11  12
ENDBRANCH   1  11
TORSDOF 14
ENDMDL
MODEL 2
REMARK VINA RESULT:    -4.537      3.084      5.507
REMARK INTER + INTRA:         -10.772
REMARK INTER:                  -8.373
REMARK INTRA:                  -2.399
REMARK UNBOUND:                -2.521
REMARK SMILES CCCCCCCCCCCCCCCC(=O)[O-]
REMARK SMILES IDX 9 1 10 2 11 3 12 4 13 5 14 6 15 7 16 8 17 9 18 10 8 11 7 12
REMARK SMILES IDX 6 13 5 14 4 15 3 16 2 17 1 18
REMARK H PARENT
REMARK Flexibility Score: inf
ROOT
ATOM      1  C   UNL     1     119.676 176.296 127.393  1.00  0.00     0.000 C 
ENDROOT
BRANCH   1   2
ATOM      2  C   UNL     1     119.952 175.637 126.024  1.00  0.00     0.000 C 
BRANCH   2   3
ATOM      3  C   UNL     1     121.319 174.932 125.988  1.00  0.00     0.000 C 
BRANCH   3   4
ATOM      4  C   UNL     1     122.245 175.494 124.896  1.00  0.00     0.000 C 
BRANCH   4   5
ATOM      5  C   UNL     1     121.517 176.470 123.954  1.00  0.00     0.000 C 
BRANCH   5   6
ATOM      6  C   UNL     1     122.447 177.564 123.407  1.00  0.00     0.006 C 
BRANCH   6   7
ATOM      7  C   UNL     1     123.896 177.083 123.255  1.00  0.00     0.053 C 
BRANCH   7   8
ATOM      8  C   UNL     1     124.430 177.453 121.907  1.00  0.00     0.041 C 
ATOM      9  O   UNL     1     125.638 177.786 121.774  1.00  0.00    -0.550 OA
ATOM     10  O   UNL     1     123.609 177.380 120.789  1.00  0.00    -0.550 OA
ENDBRANCH   7   8
ENDBRANCH   6   7
ENDBRANCH   5   6
ENDBRANCH   4   5
ENDBRANCH   3   4
ENDBRANCH   2   3
ENDBRANCH   1   2
BRANCH   1  11
ATOM     11  C   UNL     1     120.837 177.165 127.904  1.00  0.00     0.000 C 
BRANCH  11  12
ATOM     12  C   UNL     1     120.580 178.671 127.722  1.00  0.00    -0.000 C 
BRANCH  12  13
ATOM     13  C   UNL     1     121.273 179.250 126.475  1.00  0.00    -0.000 C 
BRANCH  13  14
ATOM     14  C   UNL     1     120.335 179.912 125.444  1.00  0.00    -0.000 C 
BRANCH  14  15
ATOM     15  C   UNL     1     118.846 179.555 125.593  1.00  0.00    -0.000 C 
BRANCH  15  16
ATOM     16  C   UNL     1     118.368 178.544 124.538  1.00  0.00    -0.000 C 
BRANCH  16  17
ATOM     17  C   UNL     1     116.892 178.159 124.717  1.00  0.00    -0.003 C 
ATOM     18  C   UNL     1     116.509 177.957 126.183  1.00  0.00     0.004 C 
ENDBRANCH  16  17
ENDBRANCH  15  16
ENDBRANCH  14  15
ENDBRANCH  13  14
ENDBRANCH  12  13
ENDBRANCH  11  12
ENDBRANCH   1  11
TORSDOF 14
ENDMDL
MODEL 3
REMARK VINA RESULT:    -4.519      1.543      3.888
REMARK INTER + INTRA:         -10.738
REMARK INTER:                  -8.597
REMARK INTRA:                  -2.141
REMARK UNBOUND:                -2.521
REMARK SMILES CCCCCCCCCCCCCCCC(=O)[O-]
REMARK SMILES IDX 9 1 10 2 11 3 12 4 13 5 14 6 15 7 16 8 17 9 18 10 8 11 7 12
REMARK SMILES IDX 6 13 5 14 4 15 3 16 2 17 1 18
REMARK H PARENT
REMARK Flexibility Score: inf
ROOT
ATOM      1  C   UNL     1     120.739 177.308 128.090  1.00  0.00     0.000 C 
ENDROOT
BRANCH   1   2
ATOM      2  C   UNL     1     120.774 178.842 127.921  1.00  0.00     0.000 C 
BRANCH   2   3
ATOM      3  C   UNL     1     121.040 179.256 126.463  1.00  0.00     0.000 C 
BRANCH   3   4
ATOM      4  C   UNL     1     119.766 179.722 125.739  1.00  0.00     0.000 C 
BRANCH   4   5
ATOM      5  C   UNL     1     119.437 178.854 124.510  1.00  0.00     0.000 C 
BRANCH   5   6
ATOM      6  C   UNL     1     118.021 178.260 124.569  1.00  0.00     0.006 C 
BRANCH   6   7
ATOM      7  C   UNL     1     116.971 179.285 125.019  1.00  0.00     0.053 C 
BRANCH   7   8
ATOM      8  C   UNL     1     115.952 178.636 125.901  1.00  0.00     0.041 C 
ATOM      9  O   UNL     1     116.313 177.829 126.798  1.00  0.00    -0.550 OA
ATOM     10  O   UNL     1     114.608 178.959 125.766  1.00  0.00    -0.550 OA
ENDBRANCH   7   8
ENDBRANCH   6   7
ENDBRANCH   5   6
ENDBRANCH   4   5
ENDBRANCH   3   4
ENDBRANCH   2   3
ENDBRANCH   1   2
BRANCH   1  11
ATOM     11  C   UNL     1     119.317 176.729 128.177  1.00  0.00     0.000 C 
BRANCH  11  12
ATOM     12  C   UNL     1     119.188 175.360 127.486  1.00  0.00    -0.000 C 
BRANCH  12  13
ATOM     13  C   UNL     1     119.526 175.412 125.985  1.00  0.00    -0.000 C 
BRANCH  13  14
ATOM     14  C   UNL     1     120.718 174.536 125.545  1.00  0.00    -0.000 C 
BRANCH  14  15
ATOM     15  C   UNL     1     122.002 175.309 125.197  1.00  0.00    -0.000 C 
BRANCH  15  16
ATOM     16  C   UNL     1     121.843 176.196 123.950  1.00  0.00    -0.000 C 
BRANCH  16  17
ATOM     17  C   UNL     1     122.871 177.336 123.903  1.00  0.00    -0.003 C 
ATOM     18  C   UNL     1     124.118 176.972 123.097  1.00  0.00     0.004 C 
ENDBRANCH  16  17
ENDBRANCH  15  16
ENDBRANCH  14  15
ENDBRANCH  13  14
ENDBRANCH  12  13
ENDBRANCH  11  12
ENDBRANCH   1  11
TORSDOF 14
ENDMDL
MODEL 4
REMARK VINA RESULT:    -4.517      7.493      9.918
REMARK INTER + INTRA:         -10.735
REMARK INTER:                  -8.566
REMARK INTRA:                  -2.170
REMARK UNBOUND:                -2.521
REMARK SMILES CCCCCCCCCCCCCCCC(=O)[O-]
REMARK SMILES IDX 9 1 10 2 11 3 12 4 13 5 14 6 15 7 16 8 17 9 18 10 8 11 7 12
REMARK SMILES IDX 6 13 5 14 4 15 3 16 2 17 1 18
REMARK H PARENT
REMARK Flexibility Score: inf
ROOT
ATOM      1  C   UNL     1     126.923 178.070 123.701  1.00  0.00     0.000 C 
ENDROOT
BRANCH   1   2
ATOM      2  C   UNL     1     128.210 177.247 123.927  1.00  0.00     0.000 C 
BRANCH   2   3
ATOM      3  C   UNL     1     127.923 175.909 124.633  1.00  0.00     0.000 C 
BRANCH   3   4
ATOM      4  C   UNL     1     128.166 174.696 123.720  1.00  0.00     0.000 C 
BRANCH   4   5
ATOM      5  C   UNL     1     126.875 174.203 123.041  1.00  0.00     0.000 C 
BRANCH   5   6
ATOM      6  C   UNL     1     127.057 173.960 121.535  1.00  0.00     0.006 C 
BRANCH   6   7
ATOM      7  C   UNL     1     127.716 175.149 120.822  1.00  0.00     0.053 C 
BRANCH   7   8
ATOM      8  C   UNL     1     128.923 174.698 120.061  1.00  0.00     0.041 C 
ATOM      9  O   UNL     1     129.395 173.545 120.250  1.00  0.00    -0.550 OA
ATOM     10  O   UNL     1     129.496 175.530 119.109  1.00  0.00    -0.550 OA
ENDBRANCH   7   8
ENDBRANCH   6   7
ENDBRANCH   5   6
ENDBRANCH   4   5
ENDBRANCH   3   4
ENDBRANCH   2   3
ENDBRANCH   1   2
BRANCH   1  11
ATOM     11  C   UNL     1     125.666 177.430 124.315  1.00  0.00     0.000 C 
BRANCH  11  12
ATOM     12  C   UNL     1     124.598 177.087 123.263  1.00  0.00    -0.000 C 
BRANCH  12  13
ATOM     13  C   UNL     1     125.037 177.433 121.828  1.00  0.00    -0.000 C 
BRANCH  13  14
ATOM     14  C   UNL     1     123.890 177.741 120.842  1.00  0.00    -0.000 C 
BRANCH  14  15
ATOM     15  C   UNL     1     124.063 177.145 119.434  1.00  0.00    -0.000 C 
BRANCH  15  16
ATOM     16  C   UNL     1     124.862 178.063 118.493  1.00  0.00    -0.000 C 
BRANCH  16  17
ATOM     17  C   UNL     1     126.287 177.549 118.240  1.00  0.00    -0.003 C 
ATOM     18  C   UNL     1     127.348 178.358 118.988  1.00  0.00     0.004 C 
ENDBRANCH  16  17
ENDBRANCH  15  16
ENDBRANCH  14  15
ENDBRANCH  13  14
ENDBRANCH  12  13
ENDBRANCH  11  12
ENDBRANCH   1  11
TORSDOF 14
ENDMDL
MODEL 5
REMARK VINA RESULT:    -4.504      3.687      6.525
REMARK INTER + INTRA:         -10.711
REMARK INTER:                  -8.522
REMARK INTRA:                  -2.189
REMARK UNBOUND:                -2.521
REMARK SMILES CCCCCCCCCCCCCCCC(=O)[O-]
REMARK SMILES IDX 9 1 10 2 11 3 12 4 13 5 14 6 15 7 16 8 17 9 18 10 8 11 7 12
REMARK SMILES IDX 6 13 5 14 4 15 3 16 2 17 1 18
REMARK H PARENT
REMARK Flexibility Score: inf
ROOT
ATOM      1  C   UNL     1     121.349 179.260 126.480  1.00  0.00     0.000 C 
ENDROOT
BRANCH   1   2
ATOM      2  C   UNL     1     120.303 179.641 125.411  1.00  0.00     0.000 C 
BRANCH   2   3
ATOM      3  C   UNL     1     120.565 178.935 124.069  1.00  0.00     0.000 C 
BRANCH   3   4
ATOM      4  C   UNL     1     120.909 177.446 124.243  1.00  0.00     0.000 C 
BRANCH   4   5
ATOM      5  C   UNL     1     122.279 177.085 123.640  1.00  0.00     0.000 C 
BRANCH   5   6
ATOM      6  C   UNL     1     123.255 176.529 124.688  1.00  0.00     0.006 C 
BRANCH   6   7
ATOM      7  C   UNL     1     124.375 177.519 125.034  1.00  0.00     0.053 C 
BRANCH   7   8
ATOM      8  C   UNL     1     125.625 177.175 124.287  1.00  0.00     0.041 C 
ATOM      9  O   UNL     1     126.464 178.072 124.009  1.00  0.00    -0.550 OA
ATOM     10  O   UNL     1     125.888 175.856 123.943  1.00  0.00    -0.550 OA
ENDBRANCH   7   8
ENDBRANCH   6   7
ENDBRANCH   5   6
ENDBRANCH   4   5
ENDBRANCH   3   4
ENDBRANCH   2   3
ENDBRANCH   1   2
BRANCH   1  11
ATOM     11  C   UNL     1     120.733 178.711 127.777  1.00  0.00     0.000 C 
BRANCH  11  12
ATOM     12  C   UNL     1     121.054 177.224 128.008  1.00  0.00    -0.000 C 
BRANCH  12  13
ATOM     13  C   UNL     1     119.867 176.298 127.685  1.00  0.00    -0.000 C 
BRANCH  13  14
ATOM     14  C   UNL     1     118.516 177.009 127.456  1.00  0.00    -0.000 C 
BRANCH  14  15
ATOM     15  C   UNL     1     117.893 176.793 126.066  1.00  0.00    -0.000 C 
BRANCH  15  16
ATOM     16  C   UNL     1     116.734 177.762 125.776  1.00  0.00    -0.000 C 
BRANCH  16  17
ATOM     17  C   UNL     1     116.890 178.481 124.428  1.00  0.00    -0.003 C 
ATOM     18  C   UNL     1     115.604 179.174 123.976  1.00  0.00     0.004 C 
ENDBRANCH  16  17
ENDBRANCH  15  16
ENDBRANCH  14  15
ENDBRANCH  13  14
ENDBRANCH  12  13
ENDBRANCH  11  12
ENDBRANCH   1  11
TORSDOF 14
ENDMDL
MODEL 6
REMARK VINA RESULT:    -4.499      1.011      3.274
REMARK INTER + INTRA:         -10.701
REMARK INTER:                  -8.251
REMARK INTRA:                  -2.451
REMARK UNBOUND:                -2.521
REMARK SMILES CCCCCCCCCCCCCCCC(=O)[O-]
REMARK SMILES IDX 9 1 10 2 11 3 12 4 13 5 14 6 15 7 16 8 17 9 18 10 8 11 7 12
REMARK SMILES IDX 6 13 5 14 4 15 3 16 2 17 1 18
REMARK H PARENT
REMARK Flexibility Score: inf
ROOT
ATOM      1  C   UNL     1     121.997 179.221 126.510  1.00  0.00     0.000 C 
ENDROOT
BRANCH   1   2
ATOM      2  C   UNL     1     121.794 178.186 127.637  1.00  0.00     0.000 C 
BRANCH   2   3
ATOM      3  C   UNL     1     120.346 178.177 128.159  1.00  0.00     0.000 C 
BRANCH   3   4
ATOM      4  C   UNL     1     119.728 176.769 128.160  1.00  0.00     0.000 C 
BRANCH   4   5
ATOM      5  C   UNL     1     118.224 176.787 127.831  1.00  0.00     0.000 C 
BRANCH   5   6
ATOM      6  C   UNL     1     117.951 177.037 126.339  1.00  0.00     0.006 C 
BRANCH   6   7
ATOM      7  C   UNL     1     116.667 177.844 126.103  1.00  0.00     0.053 C 
BRANCH   7   8
ATOM      8  C   UNL     1     116.883 178.867 125.033  1.00  0.00     0.041 C 
ATOM      9  O   UNL     1     116.956 180.089 125.332  1.00  0.00    -0.550 OA
ATOM     10  O   UNL     1     117.054 178.469 123.714  1.00  0.00    -0.550 OA
ENDBRANCH   7   8
ENDBRANCH   6   7
ENDBRANCH   5   6
ENDBRANCH   4   5
ENDBRANCH   3   4
ENDBRANCH   2   3
ENDBRANCH   1   2
BRANCH   1  11
ATOM     11  C   UNL     1     120.696 179.612 125.789  1.00  0.00     0.000 C 
BRANCH  11  12
ATOM     12  C   UNL     1     120.499 178.855 124.465  1.00  0.00    -0.000 C 
BRANCH  12  13
ATOM     13  C   UNL     1     121.748 178.064 124.035  1.00  0.00    -0.000 C 
BRANCH  13  14
ATOM     14  C   UNL     1     121.610 176.527 124.092  1.00  0.00    -0.000 C 
BRANCH  14  15
ATOM     15  C   UNL     1     122.618 175.816 125.011  1.00  0.00    -0.000 C 
BRANCH  15  16
ATOM     16  C   UNL     1     122.028 174.567 125.688  1.00  0.00    -0.000 C 
BRANCH  16  17
ATOM     17  C   UNL     1     120.525 174.404 125.415  1.00  0.00    -0.003 C 
ATOM     18  C   UNL     1     119.849 173.441 126.390  1.00  0.00     0.004 C 
ENDBRANCH  16  17
ENDBRANCH  15  16
ENDBRANCH  14  15
ENDBRANCH  13  14
ENDBRANCH  12  13
ENDBRANCH  11  12
ENDBRANCH   1  11
TORSDOF 14
ENDMDL
MODEL 7
REMARK VINA RESULT:    -4.493      3.236      4.220
REMARK INTER + INTRA:         -10.690
REMARK INTER:                  -8.088
REMARK INTRA:                  -2.602
REMARK UNBOUND:                -2.521
REMARK SMILES CCCCCCCCCCCCCCCC(=O)[O-]
REMARK SMILES IDX 9 1 10 2 11 3 12 4 13 5 14 6 15 7 16 8 17 9 18 10 8 11 7 12
REMARK SMILES IDX 6 13 5 14 4 15 3 16 2 17 1 18
REMARK H PARENT
REMARK Flexibility Score: inf
ROOT
ATOM      1  C   UNL     1     121.858 176.426 123.837  1.00  0.00     0.000 C 
ENDROOT
BRANCH   1   2
ATOM      2  C   UNL     1     122.829 175.872 124.901  1.00  0.00     0.000 C 
BRANCH   2   3
ATOM      3  C   UNL     1     122.189 174.751 125.740  1.00  0.00     0.000 C 
BRANCH   3   4
ATOM      4  C   UNL     1     121.496 175.283 127.005  1.00  0.00     0.000 C 
BRANCH   4   5
ATOM      5  C   UNL     1     120.171 174.556 127.300  1.00  0.00     0.000 C 
BRANCH   5   6
ATOM      6  C   UNL     1     119.286 174.414 126.052  1.00  0.00     0.006 C 
BRANCH   6   7
ATOM      7  C   UNL     1     118.567 173.060 125.991  1.00  0.00     0.053 C 
BRANCH   7   8
ATOM      8  C   UNL     1     119.558 171.940 126.017  1.00  0.00     0.041 C 
ATOM      9  O   UNL     1     119.559 171.116 126.970  1.00  0.00    -0.550 OA
ATOM     10  O   UNL     1     120.449 171.776 124.964  1.00  0.00    -0.550 OA
ENDBRANCH   7   8
ENDBRANCH   6   7
ENDBRANCH   5   6
ENDBRANCH   4   5
ENDBRANCH   3   4
ENDBRANCH   2   3
ENDBRANCH   1   2
BRANCH   1  11
ATOM     11  C   UNL     1     122.013 177.936 123.587  1.00  0.00     0.000 C 
BRANCH  11  12
ATOM     12  C   UNL     1     120.735 178.728 123.911  1.00  0.00    -0.000 C 
BRANCH  12  13
ATOM     13  C   UNL     1     119.692 177.895 124.680  1.00  0.00    -0.000 C 
BRANCH  13  14
ATOM     14  C   UNL     1     119.509 178.273 126.165  1.00  0.00    -0.000 C 
BRANCH  14  15
ATOM     15  C   UNL     1     120.593 179.202 126.740  1.00  0.00    -0.000 C 
BRANCH  15  16
ATOM     16  C   UNL     1     121.020 178.808 128.164  1.00  0.00    -0.000 C 
BRANCH  16  17
ATOM     17  C   UNL     1     122.543 178.671 128.306  1.00  0.00    -0.003 C 
ATOM     18  C   UNL     1     123.284 178.941 126.996  1.00  0.00     0.004 C 
ENDBRANCH  16  17
ENDBRANCH  15  16
ENDBRANCH  14  15
ENDBRANCH  13  14
ENDBRANCH  12  13
ENDBRANCH  11  12
ENDBRANCH   1  11
TORSDOF 14
ENDMDL
MODEL 8
REMARK VINA RESULT:    -4.444      2.204      3.604
REMARK INTER + INTRA:         -10.602
REMARK INTER:                  -8.613
REMARK INTRA:                  -1.989
REMARK UNBOUND:                -2.521
REMARK SMILES CCCCCCCCCCCCCCCC(=O)[O-]
REMARK SMILES IDX 9 1 10 2 11 3 12 4 13 5 14 6 15 7 16 8 17 9 18 10 8 11 7 12
REMARK SMILES IDX 6 13 5 14 4 15 3 16 2 17 1 18
REMARK H PARENT
REMARK Flexibility Score: inf
ROOT
ATOM      1  C   UNL     1     121.723 176.557 127.497  1.00  0.00     0.000 C 
ENDROOT
BRANCH   1   2
ATOM      2  C   UNL     1     120.698 177.392 128.294  1.00  0.00     0.000 C 
BRANCH   2   3
ATOM      3  C   UNL     1     120.788 178.891 127.958  1.00  0.00     0.000 C 
BRANCH   3   4
ATOM      4  C   UNL     1     121.198 179.145 126.497  1.00  0.00     0.000 C 
BRANCH   4   5
ATOM      5  C   UNL     1     120.036 179.692 125.648  1.00  0.00     0.000 C 
BRANCH   5   6
ATOM      6  C   UNL     1     119.402 178.615 124.753  1.00  0.00     0.006 C 
BRANCH   6   7
ATOM      7  C   UNL     1     118.271 177.856 125.457  1.00  0.00     0.053 C 
BRANCH   7   8
ATOM      8  C   UNL     1     116.943 178.266 124.903  1.00  0.00     0.041 C 
ATOM      9  O   UNL     1     116.835 178.590 123.690  1.00  0.00    -0.550 OA
ATOM     10  O   UNL     1     115.814 178.244 125.712  1.00  0.00    -0.550 OA
ENDBRANCH   7   8
ENDBRANCH   6   7
ENDBRANCH   5   6
ENDBRANCH   4   5
ENDBRANCH   3   4
ENDBRANCH   2   3
ENDBRANCH   1   2
BRANCH   1  11
ATOM     11  C   UNL     1     121.079 175.516 126.565  1.00  0.00     0.000 C 
BRANCH  11  12
ATOM     12  C   UNL     1     121.979 175.144 125.375  1.00  0.00    -0.000 C 
BRANCH  12  13
ATOM     13  C   UNL     1     121.620 175.913 124.089  1.00  0.00    -0.000 C 
BRANCH  13  14
ATOM     14  C   UNL     1     122.616 177.020 123.681  1.00  0.00    -0.000 C 
BRANCH  14  15
ATOM     15  C   UNL     1     123.861 177.139 124.576  1.00  0.00    -0.000 C 
BRANCH  15  16
ATOM     16  C   UNL     1     125.110 176.496 123.947  1.00  0.00    -0.000 C 
BRANCH  16  17
ATOM     17  C   UNL     1     125.817 177.432 122.956  1.00  0.00    -0.003 C 
ATOM     18  C   UNL     1     126.998 178.173 123.585  1.00  0.00     0.004 C 
ENDBRANCH  16  17
ENDBRANCH  15  16
ENDBRANCH  14  15
ENDBRANCH  13  14
ENDBRANCH  12  13
ENDBRANCH  11  12
ENDBRANCH   1  11
TORSDOF 14
ENDMDL
MODEL 9
REMARK VINA RESULT:    -4.429      1.393      3.859
REMARK INTER + INTRA:         -10.575
REMARK INTER:                  -7.998
REMARK INTRA:                  -2.577
REMARK UNBOUND:                -2.521
REMARK SMILES CCCCCCCCCCCCCCCC(=O)[O-]
REMARK SMILES IDX 9 1 10 2 11 3 12 4 13 5 14 6 15 7 16 8 17 9 18 10 8 11 7 12
REMARK SMILES IDX 6 13 5 14 4 15 3 16 2 17 1 18
REMARK H PARENT
REMARK Flexibility Score: inf
ROOT
ATOM      1  C   UNL     1     122.532 178.557 126.165  1.00  0.00     0.000 C 
ENDROOT
BRANCH   1   2
ATOM      2  C   UNL     1     122.765 177.517 125.047  1.00  0.00     0.000 C 
BRANCH   2   3
ATOM      3  C   UNL     1     121.598 177.473 124.046  1.00  0.00     0.000 C 
BRANCH   3   4
ATOM      4  C   UNL     1     120.607 178.633 124.243  1.00  0.00     0.000 C 
BRANCH   4   5
ATOM      5  C   UNL     1     119.140 178.170 124.183  1.00  0.00     0.000 C 
BRANCH   5   6
ATOM      6  C   UNL     1     118.273 178.818 125.273  1.00  0.00     0.006 C 
BRANCH   6   7
ATOM      7  C   UNL     1     117.042 177.973 125.626  1.00  0.00     0.053 C 
BRANCH   7   8
ATOM      8  C   UNL     1     115.790 178.772 125.441  1.00  0.00     0.041 C 
ATOM      9  O   UNL     1     115.160 179.201 126.444  1.00  0.00    -0.550 OA
ATOM     10  O   UNL     1     115.347 179.086 124.163  1.00  0.00    -0.550 OA
ENDBRANCH   7   8
ENDBRANCH   6   7
ENDBRANCH   5   6
ENDBRANCH   4   5
ENDBRANCH   3   4
ENDBRANCH   2   3
ENDBRANCH   1   2
BRANCH   1  11
ATOM     11  C   UNL     1     122.203 177.930 127.530  1.00  0.00     0.000 C 
BRANCH  11  12
ATOM     12  C   UNL     1     120.797 178.299 128.032  1.00  0.00    -0.000 C 
BRANCH  12  13
ATOM     13  C   UNL     1     119.821 177.108 128.011  1.00  0.00    -0.000 C 
BRANCH  13  14
ATOM     14  C   UNL     1     120.395 175.794 127.440  1.00  0.00    -0.000 C 
BRANCH  14  15
ATOM     15  C   UNL     1     119.579 175.170 126.294  1.00  0.00    -0.000 C 
BRANCH  15  16
ATOM     16  C   UNL     1     120.306 173.995 125.617  1.00  0.00    -0.000 C 
BRANCH  16  17
ATOM     17  C   UNL     1     121.834 174.112 125.717  1.00  0.00    -0.003 C 
ATOM     18  C   UNL     1     122.501 172.796 126.119  1.00  0.00     0.004 C 
ENDBRANCH  16  17
ENDBRANCH  15  16
ENDBRANCH  14  15
ENDBRANCH  13  14
ENDBRANCH  12  13
ENDBRANCH  11  12
ENDBRANCH   1  11
TORSDOF 14
ENDMDL
