MODEL 1
REMARK VINA RESULT:     2.013      0.000      0.000
REMARK INTER + INTRA:           2.862
REMARK INTER:                   2.425
REMARK INTRA:                   0.437
REMARK UNBOUND:                 0.437
REMARK SMILES O=c1c(O)c(-c2ccc(O)c(O)c2)oc2cc(O)cc(O)c12
REMARK SMILES IDX 5 1 3 2 2 3 1 4 22 5 20 6 19 7 17 8 16 9 15 10 14 11 6 12
REMARK SMILES IDX 7 13 8 14 9 15 13 16 11 17 10 18 12 20 4 22 21 24 18 26
REMARK H PARENT 10 19 12 21 4 23 21 25 18 27
REMARK Flexibility Score: inf
ROOT
ATOM      1  C   UNL     1      90.045  50.836  92.142  1.00  0.00     0.180 A 
ATOM      2  C   UNL     1      90.075  49.444  92.351  1.00  0.00     0.208 A 
ATOM      3  C   UNL     1      90.087  48.590  91.237  1.00  0.00     0.238 A 
ATOM      4  O   UNL     1      90.101  47.341  91.412  1.00  0.00    -0.285 OA
ATOM      5  C   UNL     1      90.089  49.139  89.938  1.00  0.00     0.111 A 
ATOM      6  C   UNL     1      90.105  48.349  88.763  1.00  0.00     0.134 A 
ATOM      7  C   UNL     1      90.116  48.971  87.506  1.00  0.00     0.093 A 
ATOM      8  C   UNL     1      90.112  50.364  87.401  1.00  0.00     0.123 A 
ATOM      9  C   UNL     1      90.096  51.150  88.558  1.00  0.00     0.094 A 
ATOM     10  C   UNL     1      90.084  50.549  89.819  1.00  0.00     0.146 A 
ATOM     11  O   UNL     1      90.064  51.318  90.902  1.00  0.00    -0.452 OA
ENDROOT
BRANCH   1  12
ATOM     12  C   UNL     1      90.013  51.799  93.265  1.00  0.00     0.025 A 
ATOM     13  C   UNL     1      90.119  53.173  92.999  1.00  0.00     0.016 A 
ATOM     14  C   UNL     1      90.069  54.102  94.042  1.00  0.00     0.051 A 
ATOM     15  C   UNL     1      89.897  53.675  95.362  1.00  0.00     0.157 A 
ATOM     16  C   UNL     1      89.818  51.373  94.591  1.00  0.00     0.062 A 
ATOM     17  C   UNL     1      89.766  52.304  95.639  1.00  0.00     0.158 A 
BRANCH  15  18
ATOM     18  O   UNL     1      89.854  54.625  96.382  1.00  0.00    -0.504 OA
ATOM     19  H   UNL     1      90.372  55.494  96.329  1.00  0.00     0.293 HD
ENDBRANCH  15  18
BRANCH  17  20
ATOM     20  O   UNL     1      89.580  51.872  96.951  1.00  0.00    -0.504 OA
ATOM     21  H   UNL     1      89.080  52.434  97.630  1.00  0.00     0.293 HD
ENDBRANCH  17  20
ENDBRANCH   1  12
BRANCH   2  22
ATOM     22  O   UNL     1      90.122  48.925  93.648  1.00  0.00    -0.502 OA
ATOM     23  H   UNL     1      90.603  49.397  94.404  1.00  0.00     0.293 HD
ENDBRANCH   2  22
BRANCH   6  24
ATOM     24  O   UNL     1      90.109  46.955  88.835  1.00  0.00    -0.507 OA
ATOM     25  H   UNL     1      90.917  46.440  89.166  1.00  0.00     0.293 HD
ENDBRANCH   6  24
BRANCH   8  26
ATOM     26  O   UNL     1      90.125  50.957  86.141  1.00  0.00    -0.508 OA
ATOM     27  H   UNL     1      90.964  50.976  85.572  1.00  0.00     0.293 HD
ENDBRANCH   8  26
TORSDOF 6
ENDMDL
