MODEL 1
REMARK VINA RESULT:     7.961      0.000      0.000
REMARK INTER + INTRA:          14.578
REMARK INTER:                  14.477
REMARK INTRA:                   0.102
REMARK UNBOUND:                 0.102
REMARK SMILES CCCCCCCCCCCCCCCC(=O)[O-]
REMARK SMILES IDX 9 1 10 2 11 3 12 4 13 5 14 6 15 7 16 8 17 9 18 10 8 11 7 12
REMARK SMILES IDX 6 13 5 14 4 15 3 16 2 17 1 18
REMARK H PARENT
REMARK Flexibility Score: inf
ROOT
ATOM      1  C   UNL     1      14.888 -15.086   6.645  1.00  0.00     0.000 C 
ENDROOT
BRANCH   1   2
ATOM      2  C   UNL     1      14.413 -13.874   7.461  1.00  0.00     0.000 C 
BRANCH   2   3
ATOM      3  C   UNL     1      12.911 -13.590   7.282  1.00  0.00     0.000 C 
BRANCH   3   4
ATOM      4  C   UNL     1      12.503 -13.483   5.803  1.00  0.00     0.000 C 
BRANCH   4   5
ATOM      5  C   UNL     1      12.546 -12.038   5.273  1.00  0.00     0.000 C 
BRANCH   5   6
ATOM      6  C   UNL     1      11.227 -11.255   5.402  1.00  0.00     0.006 C 
BRANCH   6   7
ATOM      7  C   UNL     1      10.145 -12.024   6.170  1.00  0.00     0.053 C 
BRANCH   7   8
ATOM      8  C   UNL     1       9.307 -12.827   5.227  1.00  0.00     0.041 C 
ATOM      9  O   UNL     1       8.324 -12.296   4.644  1.00  0.00    -0.550 OA
ATOM     10  O   UNL     1       9.580 -14.174   5.027  1.00  0.00    -0.550 OA
ENDBRANCH   7   8
ENDBRANCH   6   7
ENDBRANCH   5   6
ENDBRANCH   4   5
ENDBRANCH   3   4
ENDBRANCH   2   3
ENDBRANCH   1   2
BRANCH   1  11
ATOM     11  C   UNL     1      16.245 -15.592   7.157  1.00  0.00     0.000 C 
BRANCH  11  12
ATOM     12  C   UNL     1      17.325 -15.593   6.063  1.00  0.00    -0.000 C 
BRANCH  12  13
ATOM     13  C   UNL     1      18.620 -16.296   6.510  1.00  0.00    -0.000 C 
BRANCH  13  14
ATOM     14  C   UNL     1      18.635 -17.793   6.136  1.00  0.00    -0.000 C 
BRANCH  14  15
ATOM     15  C   UNL     1      19.053 -18.063   4.678  1.00  0.00    -0.000 C 
BRANCH  15  16
ATOM     16  C   UNL     1      19.125 -16.815   3.777  1.00  0.00    -0.000 C 
BRANCH  16  17
ATOM     17  C   UNL     1      18.903 -17.089   2.278  1.00  0.00    -0.003 C 
ATOM     18  C   UNL     1      17.427 -17.067   1.881  1.00  0.00     0.004 C 
ENDBRANCH  16  17
ENDBRANCH  15  16
ENDBRANCH  14  15
ENDBRANCH  13  14
ENDBRANCH  12  13
ENDBRANCH  11  12
ENDBRANCH   1  11
TORSDOF 14
ENDMDL
MODEL 2
REMARK VINA RESULT:     8.047      1.654      2.193
REMARK INTER + INTRA:          14.734
REMARK INTER:                  14.644
REMARK INTRA:                   0.090
REMARK UNBOUND:                 0.102
REMARK SMILES CCCCCCCCCCCCCCCC(=O)[O-]
REMARK SMILES IDX 9 1 10 2 11 3 12 4 13 5 14 6 15 7 16 8 17 9 18 10 8 11 7 12
REMARK SMILES IDX 6 13 5 14 4 15 3 16 2 17 1 18
REMARK H PARENT
REMARK Flexibility Score: inf
ROOT
ATOM      1  C   UNL     1      14.267 -14.261   7.248  1.00  0.00     0.000 C 
ENDROOT
BRANCH   1   2
ATOM      2  C   UNL     1      13.191 -13.506   6.452  1.00  0.00     0.000 C 
BRANCH   2   3
ATOM      3  C   UNL     1      12.468 -14.403   5.433  1.00  0.00     0.000 C 
BRANCH   3   4
ATOM      4  C   UNL     1      10.975 -14.579   5.757  1.00  0.00     0.000 C 
BRANCH   4   5
ATOM      5  C   UNL     1      10.066 -13.675   4.904  1.00  0.00     0.000 C 
BRANCH   5   6
ATOM      6  C   UNL     1       9.727 -12.310   5.532  1.00  0.00     0.006 C 
BRANCH   6   7
ATOM      7  C   UNL     1      10.926 -11.657   6.231  1.00  0.00     0.053 C 
BRANCH   7   8
ATOM      8  C   UNL     1      11.537 -10.613   5.352  1.00  0.00     0.041 C 
ATOM      9  O   UNL     1      11.004  -9.475   5.255  1.00  0.00    -0.550 OA
ATOM     10  O   UNL     1      12.669 -10.909   4.604  1.00  0.00    -0.550 OA
ENDBRANCH   7   8
ENDBRANCH   6   7
ENDBRANCH   5   6
ENDBRANCH   4   5
ENDBRANCH   3   4
ENDBRANCH   2   3
ENDBRANCH   1   2
BRANCH   1  11
ATOM     11  C   UNL     1      14.772 -15.482   6.465  1.00  0.00     0.000 C 
BRANCH  11  12
ATOM     12  C   UNL     1      15.930 -16.201   7.174  1.00  0.00    -0.000 C 
BRANCH  12  13
ATOM     13  C   UNL     1      17.296 -15.555   6.880  1.00  0.00    -0.000 C 
BRANCH  13  14
ATOM     14  C   UNL     1      18.469 -16.532   7.106  1.00  0.00    -0.000 C 
BRANCH  14  15
ATOM     15  C   UNL     1      19.119 -17.035   5.803  1.00  0.00    -0.000 C 
BRANCH  15  16
ATOM     16  C   UNL     1      18.500 -16.475   4.508  1.00  0.00    -0.000 C 
BRANCH  16  17
ATOM     17  C   UNL     1      18.949 -17.188   3.219  1.00  0.00    -0.003 C 
ATOM     18  C   UNL     1      17.944 -17.044   2.077  1.00  0.00     0.004 C 
ENDBRANCH  16  17
ENDBRANCH  15  16
ENDBRANCH  14  15
ENDBRANCH  13  14
ENDBRANCH  12  13
ENDBRANCH  11  12
ENDBRANCH   1  11
TORSDOF 14
ENDMDL
MODEL 3
REMARK VINA RESULT:     9.155      3.425      8.153
REMARK INTER + INTRA:          16.749
REMARK INTER:                  16.946
REMARK INTRA:                  -0.197
REMARK UNBOUND:                 0.102
REMARK SMILES CCCCCCCCCCCCCCCC(=O)[O-]
REMARK SMILES IDX 9 1 10 2 11 3 12 4 13 5 14 6 15 7 16 8 17 9 18 10 8 11 7 12
REMARK SMILES IDX 6 13 5 14 4 15 3 16 2 17 1 18
REMARK H PARENT
REMARK Flexibility Score: inf
ROOT
ATOM      1  C   UNL     1      15.097 -15.417   6.577  1.00  0.00     0.000 C 
ENDROOT
BRANCH   1   2
ATOM      2  C   UNL     1      16.443 -15.919   7.123  1.00  0.00     0.000 C 
BRANCH   2   3
ATOM      3  C   UNL     1      16.727 -17.383   6.746  1.00  0.00     0.000 C 
BRANCH   3   4
ATOM      4  C   UNL     1      18.231 -17.677   6.617  1.00  0.00     0.000 C 
BRANCH   4   5
ATOM      5  C   UNL     1      19.034 -16.476   6.083  1.00  0.00     0.000 C 
BRANCH   5   6
ATOM      6  C   UNL     1      18.921 -16.237   4.566  1.00  0.00     0.006 C 
BRANCH   6   7
ATOM      7  C   UNL     1      18.782 -17.536   3.763  1.00  0.00     0.053 C 
BRANCH   7   8
ATOM      8  C   UNL     1      17.978 -17.301   2.525  1.00  0.00     0.041 C 
ATOM      9  O   UNL     1      18.004 -16.178   1.955  1.00  0.00    -0.550 OA
ATOM     10  O   UNL     1      17.162 -18.308   2.024  1.00  0.00    -0.550 OA
ENDBRANCH   7   8
ENDBRANCH   6   7
ENDBRANCH   5   6
ENDBRANCH   4   5
ENDBRANCH   3   4
ENDBRANCH   2   3
ENDBRANCH   1   2
BRANCH   1  11
ATOM     11  C   UNL     1      14.703 -14.084   7.232  1.00  0.00     0.000 C 
BRANCH  11  12
ATOM     12  C   UNL     1      13.184 -13.854   7.234  1.00  0.00    -0.000 C 
BRANCH  12  13
ATOM     13  C   UNL     1      12.675 -13.248   5.913  1.00  0.00    -0.000 C 
BRANCH  13  14
ATOM     14  C   UNL     1      11.224 -13.666   5.595  1.00  0.00    -0.000 C 
BRANCH  14  15
ATOM     15  C   UNL     1      10.236 -12.485   5.537  1.00  0.00    -0.000 C 
BRANCH  15  16
ATOM     16  C   UNL     1      10.743 -11.179   6.178  1.00  0.00    -0.000 C 
BRANCH  16  17
ATOM     17  C   UNL     1      11.290 -10.141   5.181  1.00  0.00    -0.003 C 
ATOM     18  C   UNL     1      12.552 -10.614   4.461  1.00  0.00     0.004 C 
ENDBRANCH  16  17
ENDBRANCH  15  16
ENDBRANCH  14  15
ENDBRANCH  13  14
ENDBRANCH  12  13
ENDBRANCH  11  12
ENDBRANCH   1  11
TORSDOF 14
ENDMDL
MODEL 4
REMARK VINA RESULT:    10.437      3.236      8.130
REMARK INTER + INTRA:          19.080
REMARK INTER:                  18.539
REMARK INTRA:                   0.541
REMARK UNBOUND:                 0.102
REMARK SMILES CCCCCCCCCCCCCCCC(=O)[O-]
REMARK SMILES IDX 9 1 10 2 11 3 12 4 13 5 14 6 15 7 16 8 17 9 18 10 8 11 7 12
REMARK SMILES IDX 6 13 5 14 4 15 3 16 2 17 1 18
REMARK H PARENT
REMARK Flexibility Score: inf
ROOT
ATOM      1  C   UNL     1      14.313 -15.215   6.353  1.00  0.00     0.000 C 
ENDROOT
BRANCH   1   2
ATOM      2  C   UNL     1      15.555 -15.532   7.201  1.00  0.00     0.000 C 
BRANCH   2   3
ATOM      3  C   UNL     1      16.841 -15.617   6.361  1.00  0.00     0.000 C 
BRANCH   3   4
ATOM      4  C   UNL     1      17.753 -16.776   6.796  1.00  0.00     0.000 C 
BRANCH   4   5
ATOM      5  C   UNL     1      19.121 -16.760   6.089  1.00  0.00     0.000 C 
BRANCH   5   6
ATOM      6  C   UNL     1      19.102 -16.238   4.640  1.00  0.00     0.006 C 
BRANCH   6   7
ATOM      7  C   UNL     1      19.059 -17.363   3.599  1.00  0.00     0.053 C 
BRANCH   7   8
ATOM      8  C   UNL     1      17.985 -17.102   2.591  1.00  0.00     0.041 C 
ATOM      9  O   UNL     1      17.551 -15.932   2.416  1.00  0.00    -0.550 OA
ATOM     10  O   UNL     1      17.429 -18.156   1.878  1.00  0.00    -0.550 OA
ENDBRANCH   7   8
ENDBRANCH   6   7
ENDBRANCH   5   6
ENDBRANCH   4   5
ENDBRANCH   3   4
ENDBRANCH   2   3
ENDBRANCH   1   2
BRANCH   1  11
ATOM     11  C   UNL     1      13.606 -13.952   6.867  1.00  0.00     0.000 C 
BRANCH  11  12
ATOM     12  C   UNL     1      12.500 -13.466   5.917  1.00  0.00    -0.000 C 
BRANCH  12  13
ATOM     13  C   UNL     1      12.385 -11.932   5.879  1.00  0.00    -0.000 C 
BRANCH  13  14
ATOM     14  C   UNL     1      10.929 -11.456   5.690  1.00  0.00    -0.000 C 
BRANCH  14  15
ATOM     15  C   UNL     1       9.893 -12.596   5.734  1.00  0.00    -0.000 C 
BRANCH  15  16
ATOM     16  C   UNL     1      10.248 -13.833   4.887  1.00  0.00    -0.000 C 
BRANCH  16  17
ATOM     17  C   UNL     1       9.365 -15.067   5.149  1.00  0.00    -0.003 C 
ATOM     18  C   UNL     1      10.073 -16.384   4.832  1.00  0.00     0.004 C 
ENDBRANCH  16  17
ENDBRANCH  15  16
ENDBRANCH  14  15
ENDBRANCH  13  14
ENDBRANCH  12  13
ENDBRANCH  11  12
ENDBRANCH   1  11
TORSDOF 14
ENDMDL
MODEL 5
REMARK VINA RESULT:    10.486      2.461      3.617
REMARK INTER + INTRA:          19.171
REMARK INTER:                  18.641
REMARK INTRA:                   0.530
REMARK UNBOUND:                 0.102
REMARK SMILES CCCCCCCCCCCCCCCC(=O)[O-]
REMARK SMILES IDX 9 1 10 2 11 3 12 4 13 5 14 6 15 7 16 8 17 9 18 10 8 11 7 12
REMARK SMILES IDX 6 13 5 14 4 15 3 16 2 17 1 18
REMARK H PARENT
REMARK Flexibility Score: inf
ROOT
ATOM      1  C   UNL     1      16.252 -14.661   7.163  1.00  0.00     0.000 C 
ENDROOT
BRANCH   1   2
ATOM      2  C   UNL     1      14.788 -14.842   6.731  1.00  0.00     0.000 C 
BRANCH   2   3
ATOM      3  C   UNL     1      13.876 -13.712   7.240  1.00  0.00     0.000 C 
BRANCH   3   4
ATOM      4  C   UNL     1      12.596 -13.565   6.401  1.00  0.00     0.000 C 
BRANCH   4   5
ATOM      5  C   UNL     1      12.687 -12.432   5.361  1.00  0.00     0.000 C 
BRANCH   5   6
ATOM      6  C   UNL     1      11.520 -11.427   5.386  1.00  0.00     0.006 C 
BRANCH   6   7
ATOM      7  C   UNL     1      10.318 -11.925   6.197  1.00  0.00     0.053 C 
BRANCH   7   8
ATOM      8  C   UNL     1       9.416 -12.754   5.339  1.00  0.00     0.041 C 
ATOM      9  O   UNL     1       9.738 -13.934   5.036  1.00  0.00    -0.550 OA
ATOM     10  O   UNL     1       8.242 -12.210   4.835  1.00  0.00    -0.550 OA
ENDBRANCH   7   8
ENDBRANCH   6   7
ENDBRANCH   5   6
ENDBRANCH   4   5
ENDBRANCH   3   4
ENDBRANCH   2   3
ENDBRANCH   1   2
BRANCH   1  11
ATOM     11  C   UNL     1      17.197 -15.434   6.230  1.00  0.00     0.000 C 
BRANCH  11  12
ATOM     12  C   UNL     1      17.993 -16.522   6.966  1.00  0.00    -0.000 C 
BRANCH  12  13
ATOM     13  C   UNL     1      17.219 -17.848   7.079  1.00  0.00    -0.000 C 
BRANCH  13  14
ATOM     14  C   UNL     1      15.692 -17.632   7.147  1.00  0.00    -0.000 C 
BRANCH  14  15
ATOM     15  C   UNL     1      14.918 -18.845   7.699  1.00  0.00    -0.000 C 
BRANCH  15  16
ATOM     16  C   UNL     1      13.435 -18.915   7.287  1.00  0.00    -0.000 C 
BRANCH  16  17
ATOM     17  C   UNL     1      12.916 -20.334   6.990  1.00  0.00    -0.003 C 
ATOM     18  C   UNL     1      11.942 -20.378   5.813  1.00  0.00     0.004 C 
ENDBRANCH  16  17
ENDBRANCH  15  16
ENDBRANCH  14  15
ENDBRANCH  13  14
ENDBRANCH  12  13
ENDBRANCH  11  12
ENDBRANCH   1  11
TORSDOF 14
ENDMDL
MODEL 6
REMARK VINA RESULT:    10.586      1.947      2.809
REMARK INTER + INTRA:          19.352
REMARK INTER:                  18.634
REMARK INTRA:                   0.719
REMARK UNBOUND:                 0.102
REMARK SMILES CCCCCCCCCCCCCCCC(=O)[O-]
REMARK SMILES IDX 9 1 10 2 11 3 12 4 13 5 14 6 15 7 16 8 17 9 18 10 8 11 7 12
REMARK SMILES IDX 6 13 5 14 4 15 3 16 2 17 1 18
REMARK H PARENT
REMARK Flexibility Score: inf
ROOT
ATOM      1  C   UNL     1      13.241 -15.057   5.527  1.00  0.00     0.000 C 
ENDROOT
BRANCH   1   2
ATOM      2  C   UNL     1      12.167 -13.959   5.573  1.00  0.00     0.000 C 
BRANCH   2   3
ATOM      3  C   UNL     1      10.738 -14.526   5.596  1.00  0.00     0.000 C 
BRANCH   3   4
ATOM      4  C   UNL     1       9.737 -13.637   4.839  1.00  0.00     0.000 C 
BRANCH   4   5
ATOM      5  C   UNL     1       9.582 -12.240   5.468  1.00  0.00     0.000 C 
BRANCH   5   6
ATOM      6  C   UNL     1      10.834 -11.705   6.189  1.00  0.00     0.006 C 
BRANCH   6   7
ATOM      7  C   UNL     1      11.279 -10.330   5.676  1.00  0.00     0.053 C 
BRANCH   7   8
ATOM      8  C   UNL     1      12.386 -10.476   4.682  1.00  0.00     0.041 C 
ATOM      9  O   UNL     1      12.636 -11.601   4.172  1.00  0.00    -0.550 OA
ATOM     10  O   UNL     1      13.174  -9.381   4.352  1.00  0.00    -0.550 OA
ENDBRANCH   7   8
ENDBRANCH   6   7
ENDBRANCH   5   6
ENDBRANCH   4   5
ENDBRANCH   3   4
ENDBRANCH   2   3
ENDBRANCH   1   2
BRANCH   1  11
ATOM     11  C   UNL     1      14.378 -14.754   6.514  1.00  0.00     0.000 C 
BRANCH  11  12
ATOM     12  C   UNL     1      15.381 -15.912   6.633  1.00  0.00    -0.000 C 
BRANCH  12  13
ATOM     13  C   UNL     1      16.817 -15.426   6.896  1.00  0.00    -0.000 C 
BRANCH  13  14
ATOM     14  C   UNL     1      17.834 -16.587   6.932  1.00  0.00    -0.000 C 
BRANCH  14  15
ATOM     15  C   UNL     1      18.871 -16.539   5.794  1.00  0.00    -0.000 C 
BRANCH  15  16
ATOM     16  C   UNL     1      19.123 -17.883   5.084  1.00  0.00    -0.000 C 
BRANCH  16  17
ATOM     17  C   UNL     1      18.511 -17.991   3.675  1.00  0.00    -0.003 C 
ATOM     18  C   UNL     1      18.120 -16.635   3.089  1.00  0.00     0.004 C 
ENDBRANCH  16  17
ENDBRANCH  15  16
ENDBRANCH  14  15
ENDBRANCH  13  14
ENDBRANCH  12  13
ENDBRANCH  11  12
ENDBRANCH   1  11
TORSDOF 14
ENDMDL
MODEL 7
REMARK VINA RESULT:    10.635      3.757      8.239
REMARK INTER + INTRA:          19.440
REMARK INTER:                  19.409
REMARK INTRA:                   0.031
REMARK UNBOUND:                 0.102
REMARK SMILES CCCCCCCCCCCCCCCC(=O)[O-]
REMARK SMILES IDX 9 1 10 2 11 3 12 4 13 5 14 6 15 7 16 8 17 9 18 10 8 11 7 12
REMARK SMILES IDX 6 13 5 14 4 15 3 16 2 17 1 18
REMARK H PARENT
REMARK Flexibility Score: inf
ROOT
ATOM      1  C   UNL     1      14.091 -13.994   7.391  1.00  0.00     0.000 C 
ENDROOT
BRANCH   1   2
ATOM      2  C   UNL     1      15.092 -14.898   6.654  1.00  0.00     0.000 C 
BRANCH   2   3
ATOM      3  C   UNL     1      15.889 -15.802   7.610  1.00  0.00     0.000 C 
BRANCH   3   4
ATOM      4  C   UNL     1      16.194 -17.181   7.000  1.00  0.00     0.000 C 
BRANCH   4   5
ATOM      5  C   UNL     1      17.683 -17.562   7.094  1.00  0.00     0.000 C 
BRANCH   5   6
ATOM      6  C   UNL     1      18.668 -16.466   6.646  1.00  0.00     0.006 C 
BRANCH   6   7
ATOM      7  C   UNL     1      18.469 -16.043   5.185  1.00  0.00     0.053 C 
BRANCH   7   8
ATOM      8  C   UNL     1      18.785 -17.179   4.265  1.00  0.00     0.041 C 
ATOM      9  O   UNL     1      19.125 -18.298   4.733  1.00  0.00    -0.550 OA
ATOM     10  O   UNL     1      18.749 -16.989   2.890  1.00  0.00    -0.550 OA
ENDBRANCH   7   8
ENDBRANCH   6   7
ENDBRANCH   5   6
ENDBRANCH   4   5
ENDBRANCH   3   4
ENDBRANCH   2   3
ENDBRANCH   1   2
BRANCH   1  11
ATOM     11  C   UNL     1      12.958 -13.554   6.451  1.00  0.00     0.000 C 
BRANCH  11  12
ATOM     12  C   UNL     1      12.522 -14.670   5.489  1.00  0.00    -0.000 C 
BRANCH  12  13
ATOM     13  C   UNL     1      11.078 -14.488   4.988  1.00  0.00    -0.000 C 
BRANCH  13  14
ATOM     14  C   UNL     1      10.221 -13.644   5.955  1.00  0.00    -0.000 C 
BRANCH  14  15
ATOM     15  C   UNL     1      10.027 -12.185   5.500  1.00  0.00    -0.000 C 
BRANCH  15  16
ATOM     16  C   UNL     1      11.184 -11.231   5.856  1.00  0.00    -0.000 C 
BRANCH  16  17
ATOM     17  C   UNL     1      11.530 -10.203   4.764  1.00  0.00    -0.003 C 
ATOM     18  C   UNL     1      12.990 -10.276   4.318  1.00  0.00     0.004 C 
ENDBRANCH  16  17
ENDBRANCH  15  16
ENDBRANCH  14  15
ENDBRANCH  13  14
ENDBRANCH  12  13
ENDBRANCH  11  12
ENDBRANCH   1  11
TORSDOF 14
ENDMDL
