MODEL 1
REMARK VINA RESULT:    -3.042      0.000      0.000
REMARK INTER + INTRA:          -6.117
REMARK INTER:                  -4.821
REMARK INTRA:                  -1.296
REMARK UNBOUND:                -1.296
REMARK SMILES CCCCCCCCCCCC(=O)[O-]
REMARK SMILES IDX 7 1 8 2 9 3 10 4 11 5 12 6 13 7 14 8 6 9 5 10 4 11 3 12 2 13
REMARK SMILES IDX 1 14
REMARK H PARENT
REMARK Flexibility Score: inf
ROOT
ATOM      1  C   UNL     1      21.251  30.238  56.064  1.00  0.00     0.000 C 
ENDROOT
BRANCH   1   2
ATOM      2  C   UNL     1      21.237  28.954  55.223  1.00  0.00     0.000 C 
BRANCH   2   3
ATOM      3  C   UNL     1      19.881  28.764  54.532  1.00  0.00     0.000 C 
BRANCH   3   4
ATOM      4  C   UNL     1      18.925  29.913  54.872  1.00  0.00     0.006 C 
BRANCH   4   5
ATOM      5  C   UNL     1      17.854  30.075  53.787  1.00  0.00     0.053 C 
BRANCH   5   6
ATOM      6  C   UNL     1      16.600  29.361  54.179  1.00  0.00     0.041 C 
ATOM      7  O   UNL     1      16.047  29.609  55.283  1.00  0.00    -0.550 OA
ATOM      8  O   UNL     1      16.068  28.384  53.347  1.00  0.00    -0.550 OA
ENDBRANCH   5   6
ENDBRANCH   4   5
ENDBRANCH   3   4
ENDBRANCH   2   3
ENDBRANCH   1   2
BRANCH   1   9
ATOM      9  C   UNL     1      22.170  30.138  57.295  1.00  0.00     0.000 C 
BRANCH   9  10
ATOM     10  C   UNL     1      21.529  30.582  58.624  1.00  0.00    -0.000 C 
BRANCH  10  11
ATOM     11  C   UNL     1      20.755  29.482  59.376  1.00  0.00    -0.000 C 
BRANCH  11  12
ATOM     12  C   UNL     1      21.240  28.043  59.106  1.00  0.00    -0.000 C 
BRANCH  12  13
ATOM     13  C   UNL     1      20.235  27.151  58.356  1.00  0.00    -0.003 C 
ATOM     14  C   UNL     1      18.932  27.876  58.022  1.00  0.00     0.004 C 
ENDBRANCH  12  13
ENDBRANCH  11  12
ENDBRANCH  10  11
ENDBRANCH   9  10
ENDBRANCH   1   9
TORSDOF 10
ENDMDL
MODEL 2
REMARK VINA RESULT:    -2.987      1.144      2.577
REMARK INTER + INTRA:          -6.030
REMARK INTER:                  -4.848
REMARK INTRA:                  -1.182
REMARK UNBOUND:                -1.296
REMARK SMILES CCCCCCCCCCCC(=O)[O-]
REMARK SMILES IDX 7 1 8 2 9 3 10 4 11 5 12 6 13 7 14 8 6 9 5 10 4 11 3 12 2 13
REMARK SMILES IDX 1 14
REMARK H PARENT
REMARK Flexibility Score: inf
ROOT
ATOM      1  C   UNL     1      19.235  27.338  56.696  1.00  0.00     0.000 C 
ENDROOT
BRANCH   1   2
ATOM      2  C   UNL     1      19.579  28.016  55.362  1.00  0.00     0.000 C 
BRANCH   2   3
ATOM      3  C   UNL     1      19.210  29.504  55.391  1.00  0.00     0.000 C 
BRANCH   3   4
ATOM      4  C   UNL     1      18.085  29.812  54.395  1.00  0.00     0.006 C 
BRANCH   4   5
ATOM      5  C   UNL     1      16.712  29.520  55.010  1.00  0.00     0.053 C 
BRANCH   5   6
ATOM      6  C   UNL     1      15.877  28.715  54.066  1.00  0.00     0.041 C 
ATOM      7  O   UNL     1      14.690  28.418  54.365  1.00  0.00    -0.550 OA
ATOM      8  O   UNL     1      16.424  28.248  52.878  1.00  0.00    -0.550 OA
ENDBRANCH   5   6
ENDBRANCH   4   5
ENDBRANCH   3   4
ENDBRANCH   2   3
ENDBRANCH   1   2
BRANCH   1   9
ATOM      9  C   UNL     1      19.070  28.341  57.852  1.00  0.00     0.000 C 
BRANCH   9  10
ATOM     10  C   UNL     1      20.112  28.209  58.981  1.00  0.00    -0.000 C 
BRANCH  10  11
ATOM     11  C   UNL     1      20.800  29.526  59.392  1.00  0.00    -0.000 C 
BRANCH  11  12
ATOM     12  C   UNL     1      21.419  30.328  58.231  1.00  0.00    -0.000 C 
BRANCH  12  13
ATOM     13  C   UNL     1      22.480  29.570  57.413  1.00  0.00    -0.003 C 
ATOM     14  C   UNL     1      23.059  30.406  56.272  1.00  0.00     0.004 C 
ENDBRANCH  12  13
ENDBRANCH  11  12
ENDBRANCH  10  11
ENDBRANCH   9  10
ENDBRANCH   1   9
TORSDOF 10
ENDMDL
MODEL 3
REMARK VINA RESULT:    -2.971     11.539     12.924
REMARK INTER + INTRA:          -6.004
REMARK INTER:                  -4.875
REMARK INTRA:                  -1.129
REMARK UNBOUND:                -1.296
REMARK SMILES CCCCCCCCCCCC(=O)[O-]
REMARK SMILES IDX 7 1 8 2 9 3 10 4 11 5 12 6 13 7 14 8 6 9 5 10 4 11 3 12 2 13
REMARK SMILES IDX 1 14
REMARK H PARENT
REMARK Flexibility Score: inf
ROOT
ATOM      1  C   UNL     1      17.568  19.715  50.458  1.00  0.00     0.000 C 
ENDROOT
BRANCH   1   2
ATOM      2  C   UNL     1      16.518  20.057  49.391  1.00  0.00     0.000 C 
BRANCH   2   3
ATOM      3  C   UNL     1      15.141  19.507  49.779  1.00  0.00     0.000 C 
BRANCH   3   4
ATOM      4  C   UNL     1      14.512  18.728  48.617  1.00  0.00     0.006 C 
BRANCH   4   5
ATOM      5  C   UNL     1      15.028  19.242  47.269  1.00  0.00     0.053 C 
BRANCH   5   6
ATOM      6  C   UNL     1      15.437  18.100  46.395  1.00  0.00     0.041 C 
ATOM      7  O   UNL     1      14.733  17.057  46.343  1.00  0.00    -0.550 OA
ATOM      8  O   UNL     1      16.623  18.166  45.675  1.00  0.00    -0.550 OA
ENDBRANCH   5   6
ENDBRANCH   4   5
ENDBRANCH   3   4
ENDBRANCH   2   3
ENDBRANCH   1   2
BRANCH   1   9
ATOM      9  C   UNL     1      17.895  18.212  50.514  1.00  0.00     0.000 C 
BRANCH   9  10
ATOM     10  C   UNL     1      17.986  17.618  51.934  1.00  0.00    -0.000 C 
BRANCH  10  11
ATOM     11  C   UNL     1      16.636  17.445  52.658  1.00  0.00    -0.000 C 
BRANCH  11  12
ATOM     12  C   UNL     1      16.561  18.085  54.058  1.00  0.00    -0.000 C 
BRANCH  12  13
ATOM     13  C   UNL     1      16.365  19.612  54.063  1.00  0.00    -0.003 C 
ATOM     14  C   UNL     1      15.048  20.043  53.418  1.00  0.00     0.004 C 
ENDBRANCH  12  13
ENDBRANCH  11  12
ENDBRANCH  10  11
ENDBRANCH   9  10
ENDBRANCH   1   9
TORSDOF 10
ENDMDL
MODEL 4
REMARK VINA RESULT:    -2.946     11.289     13.326
REMARK INTER + INTRA:          -5.964
REMARK INTER:                  -4.747
REMARK INTRA:                  -1.216
REMARK UNBOUND:                -1.296
REMARK SMILES CCCCCCCCCCCC(=O)[O-]
REMARK SMILES IDX 7 1 8 2 9 3 10 4 11 5 12 6 13 7 14 8 6 9 5 10 4 11 3 12 2 13
REMARK SMILES IDX 1 14
REMARK H PARENT
REMARK Flexibility Score: inf
ROOT
ATOM      1  C   UNL     1      17.634  19.811  50.056  1.00  0.00     0.000 C 
ENDROOT
BRANCH   1   2
ATOM      2  C   UNL     1      17.731  18.285  50.187  1.00  0.00     0.000 C 
BRANCH   2   3
ATOM      3  C   UNL     1      18.127  17.880  51.612  1.00  0.00     0.000 C 
BRANCH   3   4
ATOM      4  C   UNL     1      16.890  17.548  52.454  1.00  0.00     0.006 C 
BRANCH   4   5
ATOM      5  C   UNL     1      16.972  18.207  53.835  1.00  0.00     0.053 C 
BRANCH   5   6
ATOM      6  C   UNL     1      15.789  19.092  54.064  1.00  0.00     0.041 C 
ATOM      7  O   UNL     1      15.340  19.806  53.129  1.00  0.00    -0.550 OA
ATOM      8  O   UNL     1      15.210  19.166  55.324  1.00  0.00    -0.550 OA
ENDBRANCH   5   6
ENDBRANCH   4   5
ENDBRANCH   3   4
ENDBRANCH   2   3
ENDBRANCH   1   2
BRANCH   1   9
ATOM      9  C   UNL     1      16.290  20.277  49.468  1.00  0.00     0.000 C 
BRANCH   9  10
ATOM     10  C   UNL     1      15.118  19.294  49.662  1.00  0.00    -0.000 C 
BRANCH  10  11
ATOM     11  C   UNL     1      14.580  18.655  48.367  1.00  0.00    -0.000 C 
BRANCH  11  12
ATOM     12  C   UNL     1      15.202  19.199  47.064  1.00  0.00    -0.000 C 
BRANCH  12  13
ATOM     13  C   UNL     1      16.101  18.202  46.311  1.00  0.00    -0.003 C 
ATOM     14  C   UNL     1      17.572  18.615  46.309  1.00  0.00     0.004 C 
ENDBRANCH  12  13
ENDBRANCH  11  12
ENDBRANCH  10  11
ENDBRANCH   9  10
ENDBRANCH   1   9
TORSDOF 10
ENDMDL
MODEL 5
REMARK VINA RESULT:    -2.941     11.547     12.872
REMARK INTER + INTRA:          -5.957
REMARK INTER:                  -4.824
REMARK INTRA:                  -1.132
REMARK UNBOUND:                -1.296
REMARK SMILES CCCCCCCCCCCC(=O)[O-]
REMARK SMILES IDX 7 1 8 2 9 3 10 4 11 5 12 6 13 7 14 8 6 9 5 10 4 11 3 12 2 13
REMARK SMILES IDX 1 14
REMARK H PARENT
REMARK Flexibility Score: inf
ROOT
ATOM      1  C   UNL     1      16.414  19.318  50.152  1.00  0.00     0.000 C 
ENDROOT
BRANCH   1   2
ATOM      2  C   UNL     1      17.614  18.503  49.650  1.00  0.00     0.000 C 
BRANCH   2   3
ATOM      3  C   UNL     1      17.671  18.496  48.118  1.00  0.00     0.000 C 
BRANCH   3   4
ATOM      4  C   UNL     1      16.555  19.362  47.521  1.00  0.00     0.006 C 
BRANCH   4   5
ATOM      5  C   UNL     1      15.861  18.641  46.361  1.00  0.00     0.053 C 
BRANCH   5   6
ATOM      6  C   UNL     1      14.606  17.979  46.831  1.00  0.00     0.041 C 
ATOM      7  O   UNL     1      13.921  18.500  47.751  1.00  0.00    -0.550 OA
ATOM      8  O   UNL     1      14.217  16.761  46.289  1.00  0.00    -0.550 OA
ENDBRANCH   5   6
ENDBRANCH   4   5
ENDBRANCH   3   4
ENDBRANCH   2   3
ENDBRANCH   1   2
BRANCH   1   9
ATOM      9  C   UNL     1      15.658  18.626  51.301  1.00  0.00     0.000 C 
BRANCH   9  10
ATOM     10  C   UNL     1      16.520  17.698  52.180  1.00  0.00    -0.000 C 
BRANCH  10  11
ATOM     11  C   UNL     1      16.542  18.053  53.680  1.00  0.00    -0.000 C 
BRANCH  11  12
ATOM     12  C   UNL     1      17.556  19.145  54.076  1.00  0.00    -0.000 C 
BRANCH  12  13
ATOM     13  C   UNL     1      18.788  19.248  53.159  1.00  0.00    -0.003 C 
ATOM     14  C   UNL     1      18.987  20.650  52.586  1.00  0.00     0.004 C 
ENDBRANCH  12  13
ENDBRANCH  11  12
ENDBRANCH  10  11
ENDBRANCH   9  10
ENDBRANCH   1   9
TORSDOF 10
ENDMDL
MODEL 6
REMARK VINA RESULT:    -2.917     11.489     12.756
REMARK INTER + INTRA:          -5.918
REMARK INTER:                  -5.185
REMARK INTRA:                  -0.733
REMARK UNBOUND:                -1.296
REMARK SMILES CCCCCCCCCCCC(=O)[O-]
REMARK SMILES IDX 7 1 8 2 9 3 10 4 11 5 12 6 13 7 14 8 6 9 5 10 4 11 3 12 2 13
REMARK SMILES IDX 1 14
REMARK H PARENT
REMARK Flexibility Score: inf
ROOT
ATOM      1  C   UNL     1      18.030  19.414  50.841  1.00  0.00     0.000 C 
ENDROOT
BRANCH   1   2
ATOM      2  C   UNL     1      17.944  19.605  49.320  1.00  0.00     0.000 C 
BRANCH   2   3
ATOM      3  C   UNL     1      17.517  18.307  48.626  1.00  0.00     0.000 C 
BRANCH   3   4
ATOM      4  C   UNL     1      17.352  18.518  47.116  1.00  0.00     0.006 C 
BRANCH   4   5
ATOM      5  C   UNL     1      16.035  19.236  46.803  1.00  0.00     0.053 C 
BRANCH   5   6
ATOM      6  C   UNL     1      14.869  18.382  47.187  1.00  0.00     0.041 C 
ATOM      7  O   UNL     1      14.555  17.385  46.485  1.00  0.00    -0.550 OA
ATOM      8  O   UNL     1      14.097  18.715  48.293  1.00  0.00    -0.550 OA
ENDBRANCH   5   6
ENDBRANCH   4   5
ENDBRANCH   3   4
ENDBRANCH   2   3
ENDBRANCH   1   2
BRANCH   1   9
ATOM      9  C   UNL     1      18.170  17.937  51.251  1.00  0.00     0.000 C 
BRANCH   9  10
ATOM     10  C   UNL     1      17.334  17.520  52.478  1.00  0.00    -0.000 C 
BRANCH  10  11
ATOM     11  C   UNL     1      16.052  18.344  52.706  1.00  0.00    -0.000 C 
BRANCH  11  12
ATOM     12  C   UNL     1      15.906  18.944  54.119  1.00  0.00    -0.000 C 
BRANCH  12  13
ATOM     13  C   UNL     1      17.047  18.597  55.091  1.00  0.00    -0.003 C 
ATOM     14  C   UNL     1      16.546  18.011  56.411  1.00  0.00     0.004 C 
ENDBRANCH  12  13
ENDBRANCH  11  12
ENDBRANCH  10  11
ENDBRANCH   9  10
ENDBRANCH   1   9
TORSDOF 10
ENDMDL
MODEL 7
REMARK VINA RESULT:    -2.892     11.708     13.744
REMARK INTER + INTRA:          -5.879
REMARK INTER:                  -4.952
REMARK INTRA:                  -0.928
REMARK UNBOUND:                -1.296
REMARK SMILES CCCCCCCCCCCC(=O)[O-]
REMARK SMILES IDX 7 1 8 2 9 3 10 4 11 5 12 6 13 7 14 8 6 9 5 10 4 11 3 12 2 13
REMARK SMILES IDX 1 14
REMARK H PARENT
REMARK Flexibility Score: inf
ROOT
ATOM      1  C   UNL     1      17.330  19.943  49.253  1.00  0.00     0.000 C 
ENDROOT
BRANCH   1   2
ATOM      2  C   UNL     1      16.928  18.798  50.193  1.00  0.00     0.000 C 
BRANCH   2   3
ATOM      3  C   UNL     1      18.161  18.166  50.849  1.00  0.00     0.000 C 
BRANCH   3   4
ATOM      4  C   UNL     1      17.822  17.606  52.236  1.00  0.00     0.006 C 
BRANCH   4   5
ATOM      5  C   UNL     1      16.325  17.742  52.531  1.00  0.00     0.053 C 
BRANCH   5   6
ATOM      6  C   UNL     1      16.109  18.490  53.808  1.00  0.00     0.041 C 
ATOM      7  O   UNL     1      15.288  19.444  53.853  1.00  0.00    -0.550 OA
ATOM      8  O   UNL     1      16.849  18.166  54.937  1.00  0.00    -0.550 OA
ENDBRANCH   5   6
ENDBRANCH   4   5
ENDBRANCH   3   4
ENDBRANCH   2   3
ENDBRANCH   1   2
BRANCH   1   9
ATOM      9  C   UNL     1      17.950  19.445  47.935  1.00  0.00     0.000 C 
BRANCH   9  10
ATOM     10  C   UNL     1      17.280  18.196  47.331  1.00  0.00    -0.000 C 
BRANCH  10  11
ATOM     11  C   UNL     1      16.167  18.483  46.304  1.00  0.00    -0.000 C 
BRANCH  11  12
ATOM     12  C   UNL     1      14.764  17.986  46.707  1.00  0.00    -0.000 C 
BRANCH  12  13
ATOM     13  C   UNL     1      13.759  19.099  47.057  1.00  0.00    -0.003 C 
ATOM     14  C   UNL     1      13.646  19.344  48.561  1.00  0.00     0.004 C 
ENDBRANCH  12  13
ENDBRANCH  11  12
ENDBRANCH  10  11
ENDBRANCH   9  10
ENDBRANCH   1   9
TORSDOF 10
ENDMDL
MODEL 8
REMARK VINA RESULT:    -2.868      2.923      5.565
REMARK INTER + INTRA:          -5.840
REMARK INTER:                  -4.562
REMARK INTRA:                  -1.278
REMARK UNBOUND:                -1.296
REMARK SMILES CCCCCCCCCCCC(=O)[O-]
REMARK SMILES IDX 7 1 8 2 9 3 10 4 11 5 12 6 13 7 14 8 6 9 5 10 4 11 3 12 2 13
REMARK SMILES IDX 1 14
REMARK H PARENT
REMARK Flexibility Score: inf
ROOT
ATOM      1  C   UNL     1      18.903  26.993  55.201  1.00  0.00     0.000 C 
ENDROOT
BRANCH   1   2
ATOM      2  C   UNL     1      18.686  26.820  56.710  1.00  0.00     0.000 C 
BRANCH   2   3
ATOM      3  C   UNL     1      18.596  28.180  57.412  1.00  0.00     0.000 C 
BRANCH   3   4
ATOM      4  C   UNL     1      19.606  28.275  58.562  1.00  0.00     0.006 C 
BRANCH   4   5
ATOM      5  C   UNL     1      21.036  28.412  58.028  1.00  0.00     0.053 C 
BRANCH   5   6
ATOM      6  C   UNL     1      21.493  29.833  58.115  1.00  0.00     0.041 C 
ATOM      7  O   UNL     1      21.142  30.553  59.087  1.00  0.00    -0.550 OA
ATOM      8  O   UNL     1      22.267  30.378  57.099  1.00  0.00    -0.550 OA
ENDBRANCH   5   6
ENDBRANCH   4   5
ENDBRANCH   3   4
ENDBRANCH   2   3
ENDBRANCH   1   2
BRANCH   1   9
ATOM      9  C   UNL     1      19.119  28.461  54.791  1.00  0.00     0.000 C 
BRANCH   9  10
ATOM     10  C   UNL     1      18.100  29.010  53.772  1.00  0.00    -0.000 C 
BRANCH  10  11
ATOM     11  C   UNL     1      17.086  30.021  54.342  1.00  0.00    -0.000 C 
BRANCH  11  12
ATOM     12  C   UNL     1      15.930  29.399  55.152  1.00  0.00    -0.000 C 
BRANCH  12  13
ATOM     13  C   UNL     1      15.102  28.346  54.395  1.00  0.00    -0.003 C 
ATOM     14  C   UNL     1      15.223  26.948  55.000  1.00  0.00     0.004 C 
ENDBRANCH  12  13
ENDBRANCH  11  12
ENDBRANCH  10  11
ENDBRANCH   9  10
ENDBRANCH   1   9
TORSDOF 10
ENDMDL
MODEL 9
REMARK VINA RESULT:    -2.858     15.616     17.270
REMARK INTER + INTRA:          -5.825
REMARK INTER:                  -4.479
REMARK INTRA:                  -1.347
REMARK UNBOUND:                -1.296
REMARK SMILES CCCCCCCCCCCC(=O)[O-]
REMARK SMILES IDX 7 1 8 2 9 3 10 4 11 5 12 6 13 7 14 8 6 9 5 10 4 11 3 12 2 13
REMARK SMILES IDX 1 14
REMARK H PARENT
REMARK Flexibility Score: inf
ROOT
ATOM      1  C   UNL     1      25.708  20.407  41.428  1.00  0.00     0.000 C 
ENDROOT
BRANCH   1   2
ATOM      2  C   UNL     1      24.482  19.627  40.934  1.00  0.00     0.000 C 
BRANCH   2   3
ATOM      3  C   UNL     1      23.208  20.097  41.647  1.00  0.00     0.000 C 
BRANCH   3   4
ATOM      4  C   UNL     1      22.262  18.921  41.916  1.00  0.00     0.006 C 
BRANCH   4   5
ATOM      5  C   UNL     1      23.000  17.584  41.792  1.00  0.00     0.053 C 
BRANCH   5   6
ATOM      6  C   UNL     1      22.630  16.675  42.921  1.00  0.00     0.041 C 
ATOM      7  O   UNL     1      22.257  17.155  44.025  1.00  0.00    -0.550 OA
ATOM      8  O   UNL     1      22.743  15.299  42.772  1.00  0.00    -0.550 OA
ENDBRANCH   5   6
ENDBRANCH   4   5
ENDBRANCH   3   4
ENDBRANCH   2   3
ENDBRANCH   1   2
BRANCH   1   9
ATOM      9  C   UNL     1      25.541  20.942  42.862  1.00  0.00     0.000 C 
BRANCH   9  10
ATOM     10  C   UNL     1      26.126  20.039  43.966  1.00  0.00    -0.000 C 
BRANCH  10  11
ATOM     11  C   UNL     1      25.113  19.097  44.646  1.00  0.00    -0.000 C 
BRANCH  11  12
ATOM     12  C   UNL     1      24.278  19.741  45.770  1.00  0.00    -0.000 C 
BRANCH  12  13
ATOM     13  C   UNL     1      23.123  20.638  45.288  1.00  0.00    -0.003 C 
ATOM     14  C   UNL     1      21.750  20.110  45.700  1.00  0.00     0.004 C 
ENDBRANCH  12  13
ENDBRANCH  11  12
ENDBRANCH  10  11
ENDBRANCH   9  10
ENDBRANCH   1   9
TORSDOF 10
ENDMDL
