MODEL 1
REMARK VINA RESULT:     8.793      0.000      0.000
REMARK INTER + INTRA:          18.182
REMARK INTER:                  19.073
REMARK INTRA:                  -0.892
REMARK UNBOUND:                -0.892
REMARK SMILES CCCCCCCCCCCCCCCCCCCCCC(=O)[O-]
REMARK SMILES IDX 12 1 11 2 10 3 9 4 8 5 7 6 6 7 5 8 4 9 3 10 2 11 1 12 13 13
REMARK SMILES IDX 14 14 15 15 16 16 17 17 18 18 19 19 20 20 21 21 22 22 23 23
REMARK SMILES IDX 24 24
REMARK H PARENT
REMARK Flexibility Score: inf
ROOT
ATOM      1  C   UNL     1      33.410  17.584  39.498  1.00  0.00     0.000 C 
ENDROOT
BRANCH   1   2
ATOM      2  C   UNL     1      33.440  17.665  41.034  1.00  0.00     0.000 C 
BRANCH   2   3
ATOM      3  C   UNL     1      34.025  16.403  41.693  1.00  0.00     0.000 C 
BRANCH   3   4
ATOM      4  C   UNL     1      34.986  16.664  42.868  1.00  0.00    -0.000 C 
BRANCH   4   5
ATOM      5  C   UNL     1      35.252  15.412  43.717  1.00  0.00    -0.000 C 
BRANCH   5   6
ATOM      6  C   UNL     1      35.823  14.273  42.859  1.00  0.00    -0.000 C 
BRANCH   6   7
ATOM      7  C   UNL     1      34.740  13.253  42.450  1.00  0.00    -0.000 C 
BRANCH   7   8
ATOM      8  C   UNL     1      34.995  12.606  41.076  1.00  0.00    -0.000 C 
BRANCH   8   9
ATOM      9  C   UNL     1      33.830  12.809  40.094  1.00  0.00    -0.000 C 
BRANCH   9  10
ATOM     10  C   UNL     1      32.998  11.523  39.908  1.00  0.00    -0.000 C 
BRANCH  10  11
ATOM     11  C   UNL     1      33.628  10.284  40.564  1.00  0.00    -0.003 C 
ATOM     12  C   UNL     1      33.663   9.071  39.637  1.00  0.00     0.004 C 
ENDBRANCH  10  11
ENDBRANCH   9  10
ENDBRANCH   8   9
ENDBRANCH   7   8
ENDBRANCH   6   7
ENDBRANCH   5   6
ENDBRANCH   4   5
ENDBRANCH   3   4
ENDBRANCH   2   3
ENDBRANCH   1   2
BRANCH   1  13
ATOM     13  C   UNL     1      32.817  18.846  38.853  1.00  0.00     0.000 C 
BRANCH  13  14
ATOM     14  C   UNL     1      31.629  18.539  37.928  1.00  0.00     0.000 C 
BRANCH  14  15
ATOM     15  C   UNL     1      31.068  19.829  37.317  1.00  0.00     0.000 C 
BRANCH  15  16
ATOM     16  C   UNL     1      31.687  21.070  37.979  1.00  0.00     0.000 C 
BRANCH  16  17
ATOM     17  C   UNL     1      31.167  22.384  37.374  1.00  0.00     0.000 C 
BRANCH  17  18
ATOM     18  C   UNL     1      32.300  23.277  36.839  1.00  0.00     0.000 C 
BRANCH  18  19
ATOM     19  C   UNL     1      31.801  24.315  35.821  1.00  0.00     0.000 C 
BRANCH  19  20
ATOM     20  C   UNL     1      32.452  24.153  34.436  1.00  0.00     0.006 C 
BRANCH  20  21
ATOM     21  C   UNL     1      31.863  25.125  33.405  1.00  0.00     0.053 C 
BRANCH  21  22
ATOM     22  C   UNL     1      30.746  24.498  32.626  1.00  0.00     0.041 C 
ATOM     23  O   UNL     1      30.971  23.976  31.503  1.00  0.00    -0.550 OA
ATOM     24  O   UNL     1      29.467  24.450  33.164  1.00  0.00    -0.550 OA
ENDBRANCH  21  22
ENDBRANCH  20  21
ENDBRANCH  19  20
ENDBRANCH  18  19
ENDBRANCH  17  18
ENDBRANCH  16  17
ENDBRANCH  15  16
ENDBRANCH  14  15
ENDBRANCH  13  14
ENDBRANCH   1  13
TORSDOF 20
ENDMDL
MODEL 2
REMARK VINA RESULT:     9.420      4.756     11.972
REMARK INTER + INTRA:          19.543
REMARK INTER:                  20.386
REMARK INTRA:                  -0.843
REMARK UNBOUND:                -0.892
REMARK SMILES CCCCCCCCCCCCCCCCCCCCCC(=O)[O-]
REMARK SMILES IDX 12 1 11 2 10 3 9 4 8 5 7 6 6 7 5 8 4 9 3 10 2 11 1 12 13 13
REMARK SMILES IDX 14 14 15 15 16 16 17 17 18 18 19 19 20 20 21 21 22 22 23 23
REMARK SMILES IDX 24 24
REMARK H PARENT
REMARK Flexibility Score: inf
ROOT
ATOM      1  C   UNL     1      32.072  17.670  38.275  1.00  0.00     0.000 C 
ENDROOT
BRANCH   1   2
ATOM      2  C   UNL     1      31.472  18.590  37.198  1.00  0.00     0.000 C 
BRANCH   2   3
ATOM      3  C   UNL     1      31.012  19.950  37.755  1.00  0.00     0.000 C 
BRANCH   3   4
ATOM      4  C   UNL     1      31.996  21.113  37.537  1.00  0.00    -0.000 C 
BRANCH   4   5
ATOM      5  C   UNL     1      31.377  22.488  37.827  1.00  0.00    -0.000 C 
BRANCH   5   6
ATOM      6  C   UNL     1      32.320  23.622  37.398  1.00  0.00    -0.000 C 
BRANCH   6   7
ATOM      7  C   UNL     1      32.395  23.769  35.864  1.00  0.00    -0.000 C 
BRANCH   7   8
ATOM      8  C   UNL     1      31.701  25.037  35.335  1.00  0.00    -0.000 C 
BRANCH   8   9
ATOM      9  C   UNL     1      31.638  25.088  33.800  1.00  0.00    -0.000 C 
BRANCH   9  10
ATOM     10  C   UNL     1      30.186  25.124  33.280  1.00  0.00    -0.000 C 
BRANCH  10  11
ATOM     11  C   UNL     1      30.082  25.083  31.747  1.00  0.00    -0.003 C 
ATOM     12  C   UNL     1      31.443  25.090  31.055  1.00  0.00     0.004 C 
ENDBRANCH  10  11
ENDBRANCH   9  10
ENDBRANCH   8   9
ENDBRANCH   7   8
ENDBRANCH   6   7
ENDBRANCH   5   6
ENDBRANCH   4   5
ENDBRANCH   3   4
ENDBRANCH   2   3
ENDBRANCH   1   2
BRANCH   1  13
ATOM     13  C   UNL     1      33.319  18.276  38.939  1.00  0.00     0.000 C 
BRANCH  13  14
ATOM     14  C   UNL     1      33.259  18.229  40.473  1.00  0.00     0.000 C 
BRANCH  14  15
ATOM     15  C   UNL     1      34.256  17.204  41.026  1.00  0.00     0.000 C 
BRANCH  15  16
ATOM     16  C   UNL     1      34.210  17.159  42.562  1.00  0.00     0.000 C 
BRANCH  16  17
ATOM     17  C   UNL     1      35.394  16.385  43.165  1.00  0.00     0.000 C 
BRANCH  17  18
ATOM     18  C   UNL     1      35.046  14.916  43.466  1.00  0.00     0.000 C 
BRANCH  18  19
ATOM     19  C   UNL     1      35.427  13.973  42.314  1.00  0.00     0.000 C 
BRANCH  19  20
ATOM     20  C   UNL     1      34.530  12.723  42.246  1.00  0.00     0.006 C 
BRANCH  20  21
ATOM     21  C   UNL     1      34.029  12.450  40.822  1.00  0.00     0.053 C 
BRANCH  21  22
ATOM     22  C   UNL     1      33.330  11.128  40.723  1.00  0.00     0.041 C 
ATOM     23  O   UNL     1      32.447  10.813  41.563  1.00  0.00    -0.550 OA
ATOM     24  O   UNL     1      33.623  10.264  39.676  1.00  0.00    -0.550 OA
ENDBRANCH  21  22
ENDBRANCH  20  21
ENDBRANCH  19  20
ENDBRANCH  18  19
ENDBRANCH  17  18
ENDBRANCH  16  17
ENDBRANCH  15  16
ENDBRANCH  14  15
ENDBRANCH  13  14
ENDBRANCH   1  13
TORSDOF 20
ENDMDL
MODEL 3
REMARK VINA RESULT:     9.513      5.025     12.603
REMARK INTER + INTRA:          19.744
REMARK INTER:                  20.383
REMARK INTRA:                  -0.639
REMARK UNBOUND:                -0.892
REMARK SMILES CCCCCCCCCCCCCCCCCCCCCC(=O)[O-]
REMARK SMILES IDX 12 1 11 2 10 3 9 4 8 5 7 6 6 7 5 8 4 9 3 10 2 11 1 12 13 13
REMARK SMILES IDX 14 14 15 15 16 16 17 17 18 18 19 19 20 20 21 21 22 22 23 23
REMARK SMILES IDX 24 24
REMARK H PARENT
REMARK Flexibility Score: inf
ROOT
ATOM      1  C   UNL     1      30.951  19.905  37.466  1.00  0.00     0.000 C 
ENDROOT
BRANCH   1   2
ATOM      2  C   UNL     1      32.021  21.010  37.483  1.00  0.00     0.000 C 
BRANCH   2   3
ATOM      3  C   UNL     1      31.423  22.427  37.557  1.00  0.00     0.000 C 
BRANCH   3   4
ATOM      4  C   UNL     1      32.350  23.554  37.067  1.00  0.00    -0.000 C 
BRANCH   4   5
ATOM      5  C   UNL     1      31.594  24.691  36.364  1.00  0.00    -0.000 C 
BRANCH   5   6
ATOM      6  C   UNL     1      32.242  25.036  35.015  1.00  0.00    -0.000 C 
BRANCH   6   7
ATOM      7  C   UNL     1      31.225  25.002  33.854  1.00  0.00    -0.000 C 
BRANCH   7   8
ATOM      8  C   UNL     1      31.831  24.525  32.522  1.00  0.00    -0.000 C 
BRANCH   8   9
ATOM      9  C   UNL     1      30.840  24.610  31.350  1.00  0.00    -0.000 C 
BRANCH   9  10
ATOM     10  C   UNL     1      31.510  25.125  30.060  1.00  0.00    -0.000 C 
BRANCH  10  11
ATOM     11  C   UNL     1      31.459  24.119  28.898  1.00  0.00    -0.003 C 
ATOM     12  C   UNL     1      30.035  23.737  28.501  1.00  0.00     0.004 C 
ENDBRANCH  10  11
ENDBRANCH   9  10
ENDBRANCH   8   9
ENDBRANCH   7   8
ENDBRANCH   6   7
ENDBRANCH   5   6
ENDBRANCH   4   5
ENDBRANCH   3   4
ENDBRANCH   2   3
ENDBRANCH   1   2
BRANCH   1  13
ATOM     13  C   UNL     1      31.513  18.534  37.871  1.00  0.00     0.000 C 
BRANCH  13  14
ATOM     14  C   UNL     1      32.332  18.586  39.171  1.00  0.00     0.000 C 
BRANCH  14  15
ATOM     15  C   UNL     1      33.683  17.885  38.992  1.00  0.00     0.000 C 
BRANCH  15  16
ATOM     16  C   UNL     1      33.860  16.754  40.018  1.00  0.00     0.000 C 
BRANCH  16  17
ATOM     17  C   UNL     1      34.026  15.377  39.355  1.00  0.00     0.000 C 
BRANCH  17  18
ATOM     18  C   UNL     1      34.507  14.300  40.344  1.00  0.00     0.000 C 
BRANCH  18  19
ATOM     19  C   UNL     1      33.727  12.983  40.205  1.00  0.00     0.000 C 
BRANCH  19  20
ATOM     20  C   UNL     1      33.764  12.130  41.486  1.00  0.00     0.006 C 
BRANCH  20  21
ATOM     21  C   UNL     1      32.896  10.871  41.366  1.00  0.00     0.053 C 
BRANCH  21  22
ATOM     22  C   UNL     1      33.214  10.094  40.125  1.00  0.00     0.041 C 
ATOM     23  O   UNL     1      34.401   9.761  39.871  1.00  0.00    -0.550 OA
ATOM     24  O   UNL     1      32.191   9.698  39.272  1.00  0.00    -0.550 OA
ENDBRANCH  21  22
ENDBRANCH  20  21
ENDBRANCH  19  20
ENDBRANCH  18  19
ENDBRANCH  17  18
ENDBRANCH  16  17
ENDBRANCH  15  16
ENDBRANCH  14  15
ENDBRANCH  13  14
ENDBRANCH   1  13
TORSDOF 20
ENDMDL
MODEL 4
REMARK VINA RESULT:     9.640      4.869     12.023
REMARK INTER + INTRA:          20.020
REMARK INTER:                  20.923
REMARK INTRA:                  -0.903
REMARK UNBOUND:                -0.892
REMARK SMILES CCCCCCCCCCCCCCCCCCCCCC(=O)[O-]
REMARK SMILES IDX 12 1 11 2 10 3 9 4 8 5 7 6 6 7 5 8 4 9 3 10 2 11 1 12 13 13
REMARK SMILES IDX 14 14 15 15 16 16 17 17 18 18 19 19 20 20 21 21 22 22 23 23
REMARK SMILES IDX 24 24
REMARK H PARENT
REMARK Flexibility Score: inf
ROOT
ATOM      1  C   UNL     1      33.210  17.484  39.484  1.00  0.00     0.000 C 
ENDROOT
BRANCH   1   2
ATOM      2  C   UNL     1      33.256  18.636  38.465  1.00  0.00     0.000 C 
BRANCH   2   3
ATOM      3  C   UNL     1      31.873  18.986  37.887  1.00  0.00     0.000 C 
BRANCH   3   4
ATOM      4  C   UNL     1      31.324  20.366  38.292  1.00  0.00    -0.000 C 
BRANCH   4   5
ATOM      5  C   UNL     1      31.412  21.403  37.163  1.00  0.00    -0.000 C 
BRANCH   5   6
ATOM      6  C   UNL     1      32.044  22.712  37.662  1.00  0.00    -0.000 C 
BRANCH   6   7
ATOM      7  C   UNL     1      32.444  23.645  36.500  1.00  0.00    -0.000 C 
BRANCH   7   8
ATOM      8  C   UNL     1      31.421  24.763  36.232  1.00  0.00    -0.000 C 
BRANCH   8   9
ATOM      9  C   UNL     1      31.306  25.124  34.742  1.00  0.00    -0.000 C 
BRANCH   9  10
ATOM     10  C   UNL     1      32.620  24.859  33.978  1.00  0.00    -0.000 C 
BRANCH  10  11
ATOM     11  C   UNL     1      32.466  24.928  32.450  1.00  0.00    -0.003 C 
ATOM     12  C   UNL     1      31.163  24.307  31.952  1.00  0.00     0.004 C 
ENDBRANCH  10  11
ENDBRANCH   9  10
ENDBRANCH   8   9
ENDBRANCH   7   8
ENDBRANCH   6   7
ENDBRANCH   5   6
ENDBRANCH   4   5
ENDBRANCH   3   4
ENDBRANCH   2   3
ENDBRANCH   1   2
BRANCH   1  13
ATOM     13  C   UNL     1      34.001  17.797  40.763  1.00  0.00     0.000 C 
BRANCH  13  14
ATOM     14  C   UNL     1      33.976  16.642  41.776  1.00  0.00     0.000 C 
BRANCH  14  15
ATOM     15  C   UNL     1      34.936  16.917  42.940  1.00  0.00     0.000 C 
BRANCH  15  16
ATOM     16  C   UNL     1      35.191  15.643  43.760  1.00  0.00     0.000 C 
BRANCH  16  17
ATOM     17  C   UNL     1      36.360  14.810  43.209  1.00  0.00     0.000 C 
BRANCH  17  18
ATOM     18  C   UNL     1      35.943  13.373  42.850  1.00  0.00     0.000 C 
BRANCH  18  19
ATOM     19  C   UNL     1      34.535  13.304  42.237  1.00  0.00     0.000 C 
BRANCH  19  20
ATOM     20  C   UNL     1      34.445  12.319  41.058  1.00  0.00     0.006 C 
BRANCH  20  21
ATOM     21  C   UNL     1      33.314  11.298  41.243  1.00  0.00     0.053 C 
BRANCH  21  22
ATOM     22  C   UNL     1      33.397  10.190  40.238  1.00  0.00     0.041 C 
ATOM     23  O   UNL     1      32.375   9.846  39.588  1.00  0.00    -0.550 OA
ATOM     24  O   UNL     1      34.614   9.569  39.987  1.00  0.00    -0.550 OA
ENDBRANCH  21  22
ENDBRANCH  20  21
ENDBRANCH  19  20
ENDBRANCH  18  19
ENDBRANCH  17  18
ENDBRANCH  16  17
ENDBRANCH  15  16
ENDBRANCH  14  15
ENDBRANCH  13  14
ENDBRANCH   1  13
TORSDOF 20
ENDMDL
MODEL 5
REMARK VINA RESULT:     9.722      4.795     11.893
REMARK INTER + INTRA:          20.197
REMARK INTER:                  21.245
REMARK INTRA:                  -1.048
REMARK UNBOUND:                -0.892
REMARK SMILES CCCCCCCCCCCCCCCCCCCCCC(=O)[O-]
REMARK SMILES IDX 12 1 11 2 10 3 9 4 8 5 7 6 6 7 5 8 4 9 3 10 2 11 1 12 13 13
REMARK SMILES IDX 14 14 15 15 16 16 17 17 18 18 19 19 20 20 21 21 22 22 23 23
REMARK SMILES IDX 24 24
REMARK H PARENT
REMARK Flexibility Score: inf
ROOT
ATOM      1  C   UNL     1      32.245  17.657  38.742  1.00  0.00     0.000 C 
ENDROOT
BRANCH   1   2
ATOM      2  C   UNL     1      31.916  18.146  37.321  1.00  0.00     0.000 C 
BRANCH   2   3
ATOM      3  C   UNL     1      30.751  19.153  37.284  1.00  0.00     0.000 C 
BRANCH   3   4
ATOM      4  C   UNL     1      31.107  20.545  36.731  1.00  0.00    -0.000 C 
BRANCH   4   5
ATOM      5  C   UNL     1      31.814  21.439  37.760  1.00  0.00    -0.000 C 
BRANCH   5   6
ATOM      6  C   UNL     1      31.459  22.918  37.545  1.00  0.00    -0.000 C 
BRANCH   6   7
ATOM      7  C   UNL     1      32.582  23.687  36.817  1.00  0.00    -0.000 C 
BRANCH   7   8
ATOM      8  C   UNL     1      32.062  24.808  35.900  1.00  0.00    -0.000 C 
BRANCH   8   9
ATOM      9  C   UNL     1      32.597  24.702  34.463  1.00  0.00    -0.000 C 
BRANCH   9  10
ATOM     10  C   UNL     1      31.542  25.124  33.419  1.00  0.00    -0.000 C 
BRANCH  10  11
ATOM     11  C   UNL     1      31.927  24.761  31.975  1.00  0.00    -0.003 C 
ATOM     12  C   UNL     1      30.835  25.096  30.963  1.00  0.00     0.004 C 
ENDBRANCH  10  11
ENDBRANCH   9  10
ENDBRANCH   8   9
ENDBRANCH   7   8
ENDBRANCH   6   7
ENDBRANCH   5   6
ENDBRANCH   4   5
ENDBRANCH   3   4
ENDBRANCH   2   3
ENDBRANCH   1   2
BRANCH   1  13
ATOM     13  C   UNL     1      33.696  17.960  39.148  1.00  0.00     0.000 C 
BRANCH  13  14
ATOM     14  C   UNL     1      33.869  18.116  40.667  1.00  0.00     0.000 C 
BRANCH  14  15
ATOM     15  C   UNL     1      33.823  16.750  41.362  1.00  0.00     0.000 C 
BRANCH  15  16
ATOM     16  C   UNL     1      34.845  16.677  42.508  1.00  0.00     0.000 C 
BRANCH  16  17
ATOM     17  C   UNL     1      34.708  15.392  43.340  1.00  0.00     0.000 C 
BRANCH  17  18
ATOM     18  C   UNL     1      35.953  14.491  43.243  1.00  0.00     0.000 C 
BRANCH  18  19
ATOM     19  C   UNL     1      35.883  13.516  42.057  1.00  0.00     0.000 C 
BRANCH  19  20
ATOM     20  C   UNL     1      34.600  12.667  42.058  1.00  0.00     0.006 C 
BRANCH  20  21
ATOM     21  C   UNL     1      34.184  12.248  40.641  1.00  0.00     0.053 C 
BRANCH  21  22
ATOM     22  C   UNL     1      33.376  10.986  40.651  1.00  0.00     0.041 C 
ATOM     23  O   UNL     1      33.701  10.019  39.912  1.00  0.00    -0.550 OA
ATOM     24  O   UNL     1      32.292  10.862  41.510  1.00  0.00    -0.550 OA
ENDBRANCH  21  22
ENDBRANCH  20  21
ENDBRANCH  19  20
ENDBRANCH  18  19
ENDBRANCH  17  18
ENDBRANCH  16  17
ENDBRANCH  15  16
ENDBRANCH  14  15
ENDBRANCH  13  14
ENDBRANCH   1  13
TORSDOF 20
ENDMDL
MODEL 6
REMARK VINA RESULT:     9.968      5.146     12.329
REMARK INTER + INTRA:          20.730
REMARK INTER:                  21.703
REMARK INTRA:                  -0.972
REMARK UNBOUND:                -0.892
REMARK SMILES CCCCCCCCCCCCCCCCCCCCCC(=O)[O-]
REMARK SMILES IDX 12 1 11 2 10 3 9 4 8 5 7 6 6 7 5 8 4 9 3 10 2 11 1 12 13 13
REMARK SMILES IDX 14 14 15 15 16 16 17 17 18 18 19 19 20 20 21 21 22 22 23 23
REMARK SMILES IDX 24 24
REMARK H PARENT
REMARK Flexibility Score: inf
ROOT
ATOM      1  C   UNL     1      31.752  22.183  36.877  1.00  0.00     0.000 C 
ENDROOT
BRANCH   1   2
ATOM      2  C   UNL     1      32.446  23.461  37.378  1.00  0.00     0.000 C 
BRANCH   2   3
ATOM      3  C   UNL     1      32.021  24.722  36.603  1.00  0.00     0.000 C 
BRANCH   3   4
ATOM      4  C   UNL     1      31.829  24.524  35.088  1.00  0.00    -0.000 C 
BRANCH   4   5
ATOM      5  C   UNL     1      32.976  25.113  34.254  1.00  0.00    -0.000 C 
BRANCH   5   6
ATOM      6  C   UNL     1      32.692  24.980  32.750  1.00  0.00    -0.000 C 
BRANCH   6   7
ATOM      7  C   UNL     1      31.181  24.997  32.439  1.00  0.00    -0.000 C 
BRANCH   7   8
ATOM      8  C   UNL     1      30.810  24.219  31.164  1.00  0.00    -0.000 C 
BRANCH   8   9
ATOM      9  C   UNL     1      30.259  25.125  30.050  1.00  0.00    -0.000 C 
BRANCH   9  10
ATOM     10  C   UNL     1      29.937  24.334  28.765  1.00  0.00    -0.000 C 
BRANCH  10  11
ATOM     11  C   UNL     1      31.187  23.833  28.023  1.00  0.00    -0.003 C 
ATOM     12  C   UNL     1      31.271  22.310  27.956  1.00  0.00     0.004 C 
ENDBRANCH  10  11
ENDBRANCH   9  10
ENDBRANCH   8   9
ENDBRANCH   7   8
ENDBRANCH   6   7
ENDBRANCH   5   6
ENDBRANCH   4   5
ENDBRANCH   3   4
ENDBRANCH   2   3
ENDBRANCH   1   2
BRANCH   1  13
ATOM     13  C   UNL     1      31.525  21.157  37.998  1.00  0.00     0.000 C 
BRANCH  13  14
ATOM     14  C   UNL     1      30.757  19.915  37.522  1.00  0.00     0.000 C 
BRANCH  14  15
ATOM     15  C   UNL     1      31.307  18.647  38.186  1.00  0.00     0.000 C 
BRANCH  15  16
ATOM     16  C   UNL     1      32.795  18.450  37.853  1.00  0.00     0.000 C 
BRANCH  16  17
ATOM     17  C   UNL     1      33.698  18.578  39.091  1.00  0.00     0.000 C 
BRANCH  17  18
ATOM     18  C   UNL     1      33.409  17.497  40.147  1.00  0.00     0.000 C 
BRANCH  18  19
ATOM     19  C   UNL     1      33.717  17.973  41.576  1.00  0.00     0.000 C 
BRANCH  19  20
ATOM     20  C   UNL     1      33.806  16.813  42.584  1.00  0.00     0.006 C 
BRANCH  20  21
ATOM     21  C   UNL     1      34.642  15.644  42.046  1.00  0.00     0.053 C 
BRANCH  21  22
ATOM     22  C   UNL     1      35.363  14.925  43.146  1.00  0.00     0.041 C 
ATOM     23  O   UNL     1      35.694  15.539  44.195  1.00  0.00    -0.550 OA
ATOM     24  O   UNL     1      35.627  13.567  43.031  1.00  0.00    -0.550 OA
ENDBRANCH  21  22
ENDBRANCH  20  21
ENDBRANCH  19  20
ENDBRANCH  18  19
ENDBRANCH  17  18
ENDBRANCH  16  17
ENDBRANCH  15  16
ENDBRANCH  14  15
ENDBRANCH  13  14
ENDBRANCH   1  13
TORSDOF 20
ENDMDL
MODEL 7
REMARK VINA RESULT:    10.083      2.673      5.854
REMARK INTER + INTRA:          20.981
REMARK INTER:                  21.798
REMARK INTRA:                  -0.817
REMARK UNBOUND:                -0.892
REMARK SMILES CCCCCCCCCCCCCCCCCCCCCC(=O)[O-]
REMARK SMILES IDX 12 1 11 2 10 3 9 4 8 5 7 6 6 7 5 8 4 9 3 10 2 11 1 12 13 13
REMARK SMILES IDX 14 14 15 15 16 16 17 17 18 18 19 19 20 20 21 21 22 22 23 23
REMARK SMILES IDX 24 24
REMARK H PARENT
REMARK Flexibility Score: inf
ROOT
ATOM      1  C   UNL     1      32.089  23.113  36.970  1.00  0.00     0.000 C 
ENDROOT
BRANCH   1   2
ATOM      2  C   UNL     1      31.071  22.047  37.410  1.00  0.00     0.000 C 
BRANCH   2   3
ATOM      3  C   UNL     1      31.647  21.047  38.429  1.00  0.00     0.000 C 
BRANCH   3   4
ATOM      4  C   UNL     1      31.280  19.572  38.179  1.00  0.00    -0.000 C 
BRANCH   4   5
ATOM      5  C   UNL     1      31.847  18.623  39.243  1.00  0.00    -0.000 C 
BRANCH   5   6
ATOM      6  C   UNL     1      33.267  18.164  38.877  1.00  0.00    -0.000 C 
BRANCH   6   7
ATOM      7  C   UNL     1      33.908  17.310  39.991  1.00  0.00    -0.000 C 
BRANCH   7   8
ATOM      8  C   UNL     1      33.680  17.875  41.404  1.00  0.00    -0.000 C 
BRANCH   8   9
ATOM      9  C   UNL     1      34.376  17.049  42.498  1.00  0.00    -0.000 C 
BRANCH   9  10
ATOM     10  C   UNL     1      34.679  15.609  42.033  1.00  0.00    -0.000 C 
BRANCH  10  11
ATOM     11  C   UNL     1      35.286  14.724  43.134  1.00  0.00    -0.003 C 
ATOM     12  C   UNL     1      36.813  14.759  43.154  1.00  0.00     0.004 C 
ENDBRANCH  10  11
ENDBRANCH   9  10
ENDBRANCH   8   9
ENDBRANCH   7   8
ENDBRANCH   6   7
ENDBRANCH   5   6
ENDBRANCH   4   5
ENDBRANCH   3   4
ENDBRANCH   2   3
ENDBRANCH   1   2
BRANCH   1  13
ATOM     13  C   UNL     1      31.431  24.281  36.219  1.00  0.00     0.000 C 
BRANCH  13  14
ATOM     14  C   UNL     1      32.440  25.118  35.419  1.00  0.00     0.000 C 
BRANCH  14  15
ATOM     15  C   UNL     1      32.662  24.518  34.025  1.00  0.00     0.000 C 
BRANCH  15  16
ATOM     16  C   UNL     1      34.160  24.405  33.703  1.00  0.00     0.000 C 
BRANCH  16  17
ATOM     17  C   UNL     1      34.535  25.107  32.388  1.00  0.00     0.000 C 
BRANCH  17  18
ATOM     18  C   UNL     1      33.807  24.509  31.171  1.00  0.00     0.000 C 
BRANCH  18  19
ATOM     19  C   UNL     1      34.340  25.058  29.838  1.00  0.00     0.000 C 
BRANCH  19  20
ATOM     20  C   UNL     1      33.258  25.125  28.745  1.00  0.00     0.006 C 
BRANCH  20  21
ATOM     21  C   UNL     1      33.026  23.762  28.079  1.00  0.00     0.053 C 
BRANCH  21  22
ATOM     22  C   UNL     1      31.831  23.061  28.652  1.00  0.00     0.041 C 
ATOM     23  O   UNL     1      31.973  21.983  29.287  1.00  0.00    -0.550 OA
ATOM     24  O   UNL     1      30.568  23.624  28.525  1.00  0.00    -0.550 OA
ENDBRANCH  21  22
ENDBRANCH  20  21
ENDBRANCH  19  20
ENDBRANCH  18  19
ENDBRANCH  17  18
ENDBRANCH  16  17
ENDBRANCH  15  16
ENDBRANCH  14  15
ENDBRANCH  13  14
ENDBRANCH   1  13
TORSDOF 20
ENDMDL
