MODEL 1
REMARK VINA RESULT:    -2.987      0.000      0.000
REMARK INTER + INTRA:          -3.782
REMARK INTER:                  -3.510
REMARK INTRA:                  -0.271
REMARK UNBOUND:                -0.271
REMARK SMILES O=c1cc(-c2ccc(O)c(O)c2)oc2cc(O)cc(O)c12
REMARK SMILES IDX 4 1 3 2 2 3 1 4 21 5 19 6 18 7 16 8 15 9 14 10 13 11 5 12
REMARK SMILES IDX 6 13 7 14 8 15 12 16 10 17 9 18 11 20 20 22 17 24
REMARK H PARENT 9 19 11 21 20 23 17 25
REMARK Flexibility Score: inf
ROOT
ATOM      1  C   UNL     1     -19.028   9.393  26.400  1.00  0.00     0.138 A 
ATOM      2  C   UNL     1     -17.645   9.363  26.628  1.00  0.00     0.100 A 
ATOM      3  C   UNL     1     -16.766   9.526  25.558  1.00  0.00     0.197 A 
ATOM      4  O   UNL     1     -15.531   9.432  25.784  1.00  0.00    -0.289 OA
ATOM      5  C   UNL     1     -17.275   9.750  24.256  1.00  0.00     0.107 A 
ATOM      6  C   UNL     1     -16.472   9.970  23.096  1.00  0.00     0.134 A 
ATOM      7  C   UNL     1     -17.086  10.065  21.841  1.00  0.00     0.093 A 
ATOM      8  C   UNL     1     -18.473  10.009  21.710  1.00  0.00     0.123 A 
ATOM      9  C   UNL     1     -19.270   9.849  22.845  1.00  0.00     0.094 A 
ATOM     10  C   UNL     1     -18.687   9.716  24.107  1.00  0.00     0.146 A 
ATOM     11  O   UNL     1     -19.480   9.551  25.160  1.00  0.00    -0.456 OA
ENDROOT
BRANCH   1  12
ATOM     12  C   UNL     1     -20.008   9.227  27.503  1.00  0.00     0.021 A 
ATOM     13  C   UNL     1     -21.079  10.121  27.681  1.00  0.00     0.016 A 
ATOM     14  C   UNL     1     -21.991   9.934  28.721  1.00  0.00     0.051 A 
ATOM     15  C   UNL     1     -21.864   8.853  29.599  1.00  0.00     0.157 A 
ATOM     16  C   UNL     1     -19.888   8.133  28.376  1.00  0.00     0.062 A 
ATOM     17  C   UNL     1     -20.799   7.938  29.423  1.00  0.00     0.158 A 
BRANCH  15  18
ATOM     18  O   UNL     1     -22.808   8.725  30.619  1.00  0.00    -0.504 OA
ATOM     19  H   UNL     1     -22.930   9.396  31.364  1.00  0.00     0.293 HD
ENDBRANCH  15  18
BRANCH  17  20
ATOM     20  O   UNL     1     -20.610   6.833  30.254  1.00  0.00    -0.504 OA
ATOM     21  H   UNL     1     -20.409   6.897  31.242  1.00  0.00     0.293 HD
ENDBRANCH  17  20
ENDBRANCH   1  12
BRANCH   6  22
ATOM     22  O   UNL     1     -15.083  10.125  23.125  1.00  0.00    -0.507 OA
ATOM     23  H   UNL     1     -14.460   9.631  23.746  1.00  0.00     0.293 HD
ENDBRANCH   6  22
BRANCH   8  24
ATOM     24  O   UNL     1     -19.049  10.123  20.448  1.00  0.00    -0.508 OA
ATOM     25  H   UNL     1     -19.089   9.337  19.810  1.00  0.00     0.293 HD
ENDBRANCH   8  24
TORSDOF 5
ENDMDL
MODEL 2
REMARK VINA RESULT:    -0.198      1.868      7.029
REMARK INTER + INTRA:          -0.504
REMARK INTER:                  -0.195
REMARK INTRA:                  -0.309
REMARK UNBOUND:                -0.271
REMARK SMILES O=c1cc(-c2ccc(O)c(O)c2)oc2cc(O)cc(O)c12
REMARK SMILES IDX 4 1 3 2 2 3 1 4 21 5 19 6 18 7 16 8 15 9 14 10 13 11 5 12
REMARK SMILES IDX 6 13 7 14 8 15 12 16 10 17 9 18 11 20 20 22 17 24
REMARK H PARENT 9 19 11 21 20 23 17 25
REMARK Flexibility Score: inf
ROOT
ATOM      1  C   UNL     1     -19.058   9.621  27.588  1.00  0.00     0.138 A 
ATOM      2  C   UNL     1     -18.713   9.768  28.938  1.00  0.00     0.100 A 
ATOM      3  C   UNL     1     -19.717   9.933  29.893  1.00  0.00     0.197 A 
ATOM      4  O   UNL     1     -19.375  10.125  31.088  1.00  0.00    -0.289 OA
ATOM      5  C   UNL     1     -21.075   9.918  29.495  1.00  0.00     0.107 A 
ATOM      6  C   UNL     1     -22.184  10.036  30.386  1.00  0.00     0.134 A 
ATOM      7  C   UNL     1     -23.481  10.125  29.864  1.00  0.00     0.093 A 
ATOM      8  C   UNL     1     -23.714  10.041  28.492  1.00  0.00     0.123 A 
ATOM      9  C   UNL     1     -22.641   9.871  27.616  1.00  0.00     0.094 A 
ATOM     10  C   UNL     1     -21.333   9.813  28.102  1.00  0.00     0.146 A 
ATOM     11  O   UNL     1     -20.338   9.666  27.234  1.00  0.00    -0.456 OA
ENDROOT
BRANCH   1  12
ATOM     12  C   UNL     1     -18.030   9.442  26.531  1.00  0.00     0.021 A 
ATOM     13  C   UNL     1     -16.787   8.844  26.804  1.00  0.00     0.016 A 
ATOM     14  C   UNL     1     -15.843   8.679  25.788  1.00  0.00     0.051 A 
ATOM     15  C   UNL     1     -16.117   9.097  24.482  1.00  0.00     0.157 A 
ATOM     16  C   UNL     1     -18.311   9.849  25.216  1.00  0.00     0.062 A 
ATOM     17  C   UNL     1     -17.369   9.688  24.191  1.00  0.00     0.158 A 
BRANCH  15  18
ATOM     18  O   UNL     1     -15.130   8.906  23.514  1.00  0.00    -0.504 OA
ATOM     19  H   UNL     1     -15.193   9.249  22.566  1.00  0.00     0.293 HD
ENDBRANCH  15  18
BRANCH  17  20
ATOM     20  O   UNL     1     -17.717  10.125  22.912  1.00  0.00    -0.504 OA
ATOM     21  H   UNL     1     -17.095  10.100  22.117  1.00  0.00     0.293 HD
ENDBRANCH  17  20
ENDBRANCH   1  12
BRANCH   6  22
ATOM     22  O   UNL     1     -22.070  10.045  31.779  1.00  0.00    -0.507 OA
ATOM     23  H   UNL     1     -22.583  10.655  32.396  1.00  0.00     0.293 HD
ENDBRANCH   6  22
BRANCH   8  24
ATOM     24  O   UNL     1     -25.019  10.118  28.011  1.00  0.00    -0.508 OA
ATOM     25  H   UNL     1     -25.817  10.038  28.629  1.00  0.00     0.293 HD
ENDBRANCH   8  24
TORSDOF 5
ENDMDL
MODEL 3
REMARK VINA RESULT:    -0.078      1.187      2.715
REMARK INTER + INTRA:          -0.363
REMARK INTER:                  -0.077
REMARK INTRA:                  -0.285
REMARK UNBOUND:                -0.271
REMARK SMILES O=c1cc(-c2ccc(O)c(O)c2)oc2cc(O)cc(O)c12
REMARK SMILES IDX 4 1 3 2 2 3 1 4 21 5 19 6 18 7 16 8 15 9 14 10 13 11 5 12
REMARK SMILES IDX 6 13 7 14 8 15 12 16 10 17 9 18 11 20 20 22 17 24
REMARK H PARENT 9 19 11 21 20 23 17 25
REMARK Flexibility Score: inf
ROOT
ATOM      1  C   UNL     1     -19.418   9.494  26.145  1.00  0.00     0.138 A 
ATOM      2  C   UNL     1     -19.926   9.684  24.852  1.00  0.00     0.100 A 
ATOM      3  C   UNL     1     -19.047   9.892  23.789  1.00  0.00     0.197 A 
ATOM      4  O   UNL     1     -19.533  10.121  22.652  1.00  0.00    -0.289 OA
ATOM      5  C   UNL     1     -17.650   9.879  24.018  1.00  0.00     0.107 A 
ATOM      6  C   UNL     1     -16.658  10.039  23.004  1.00  0.00     0.134 A 
ATOM      7  C   UNL     1     -15.309  10.125  23.367  1.00  0.00     0.093 A 
ATOM      8  C   UNL     1     -14.909   9.997  24.697  1.00  0.00     0.123 A 
ATOM      9  C   UNL     1     -15.867   9.785  25.690  1.00  0.00     0.094 A 
ATOM     10  C   UNL     1     -17.224   9.730  25.365  1.00  0.00     0.146 A 
ATOM     11  O   UNL     1     -18.104   9.541  26.342  1.00  0.00    -0.456 OA
ENDROOT
BRANCH   1  12
ATOM     12  C   UNL     1     -20.309   9.268  27.311  1.00  0.00     0.021 A 
ATOM     13  C   UNL     1     -21.386  10.125  27.596  1.00  0.00     0.016 A 
ATOM     14  C   UNL     1     -22.213   9.881  28.694  1.00  0.00     0.051 A 
ATOM     15  C   UNL     1     -21.992   8.779  29.526  1.00  0.00     0.157 A 
ATOM     16  C   UNL     1     -20.095   8.152  28.139  1.00  0.00     0.062 A 
ATOM     17  C   UNL     1     -20.919   7.901  29.243  1.00  0.00     0.158 A 
BRANCH  15  18
ATOM     18  O   UNL     1     -22.854   8.594  30.609  1.00  0.00    -0.504 OA
ATOM     19  H   UNL     1     -23.477   9.305  30.963  1.00  0.00     0.293 HD
ENDBRANCH  15  18
BRANCH  17  20
ATOM     20  O   UNL     1     -20.639   6.778  30.024  1.00  0.00    -0.504 OA
ATOM     21  H   UNL     1     -19.962   6.071  29.775  1.00  0.00     0.293 HD
ENDBRANCH  17  20
ENDBRANCH   1  12
BRANCH   6  22
ATOM     22  O   UNL     1     -16.942  10.094  21.636  1.00  0.00    -0.507 OA
ATOM     23  H   UNL     1     -17.781   9.736  21.206  1.00  0.00     0.293 HD
ENDBRANCH   6  22
BRANCH   8  24
ATOM     24  O   UNL     1     -13.557  10.072  25.019  1.00  0.00    -0.508 OA
ATOM     25  H   UNL     1     -13.094   9.336  25.539  1.00  0.00     0.293 HD
ENDBRANCH   8  24
TORSDOF 5
ENDMDL
