MODEL 1
REMARK VINA RESULT:    -3.720      0.000      0.000
REMARK INTER + INTRA:          -4.497
REMARK INTER:                  -4.372
REMARK INTRA:                  -0.125
REMARK UNBOUND:                -0.125
REMARK SMILES O=C([O-])C=Cc1ccc(O)c(O)c1
REMARK SMILES IDX 6 1 13 2 7 3 11 4 8 5 9 6 5 7 4 8 2 9 1 10 3 11 12 12 10 14
REMARK H PARENT 12 13 10 15
REMARK Flexibility Score: inf
ROOT
ATOM      1  C   UNL     1     -10.619 -19.435  20.095  1.00  0.00    -0.022 A 
ATOM      2  C   UNL     1     -10.414 -20.261  21.211  1.00  0.00     0.058 A 
ATOM      3  C   UNL     1     -10.399 -18.049  20.226  1.00  0.00     0.012 A 
ATOM      4  C   UNL     1      -9.973 -19.726  22.430  1.00  0.00     0.157 A 
ATOM      5  C   UNL     1      -9.960 -17.515  21.441  1.00  0.00     0.051 A 
ATOM      6  C   UNL     1      -9.743 -18.346  22.543  1.00  0.00     0.157 A 
ENDROOT
BRANCH   1   7
ATOM      7  C   UNL     1     -11.096 -20.050  18.831  1.00  0.00     0.010 C 
ATOM      8  C   UNL     1     -10.370 -20.902  18.096  1.00  0.00     0.025 C 
BRANCH   8   9
ATOM      9  C   UNL     1     -10.890 -21.497  16.855  1.00  0.00     0.064 C 
ATOM     10  O   UNL     1     -11.124 -22.734  16.810  1.00  0.00    -0.545 OA
ATOM     11  O   UNL     1     -11.125 -20.717  15.728  1.00  0.00    -0.545 OA
ENDBRANCH   8   9
ENDBRANCH   1   7
BRANCH   4  12
ATOM     12  O   UNL     1      -9.764 -20.560  23.527  1.00  0.00    -0.504 OA
ATOM     13  H   UNL     1      -9.869 -20.224  24.478  1.00  0.00     0.293 HD
ENDBRANCH   4  12
BRANCH   6  14
ATOM     14  O   UNL     1      -9.303 -17.783  23.740  1.00  0.00    -0.504 OA
ATOM     15  H   UNL     1      -8.459 -17.226  23.795  1.00  0.00     0.293 HD
ENDBRANCH   6  14
TORSDOF 4
ENDMDL
MODEL 2
REMARK VINA RESULT:    -3.461     18.949     20.140
REMARK INTER + INTRA:          -4.192
REMARK INTER:                  -4.060
REMARK INTRA:                  -0.132
REMARK UNBOUND:                -0.125
REMARK SMILES O=C([O-])C=Cc1ccc(O)c(O)c1
REMARK SMILES IDX 6 1 13 2 7 3 11 4 8 5 9 6 5 7 4 8 2 9 1 10 3 11 12 12 10 14
REMARK H PARENT 12 13 10 15
REMARK Flexibility Score: inf
ROOT
ATOM      1  C   UNL     1       8.063 -21.290  13.195  1.00  0.00    -0.022 A 
ATOM      2  C   UNL     1       7.129 -22.029  12.453  1.00  0.00     0.058 A 
ATOM      3  C   UNL     1       9.073 -20.587  12.508  1.00  0.00     0.012 A 
ATOM      4  C   UNL     1       7.179 -22.050  11.051  1.00  0.00     0.157 A 
ATOM      5  C   UNL     1       9.125 -20.608  11.112  1.00  0.00     0.051 A 
ATOM      6  C   UNL     1       8.181 -21.333  10.379  1.00  0.00     0.157 A 
ENDROOT
BRANCH   1   7
ATOM      7  C   UNL     1       7.971 -21.309  14.676  1.00  0.00     0.010 C 
ATOM      8  C   UNL     1       7.083 -22.044  15.359  1.00  0.00     0.025 C 
BRANCH   8   9
ATOM      9  C   UNL     1       7.037 -22.040  16.829  1.00  0.00     0.064 C 
ATOM     10  O   UNL     1       7.669 -22.920  17.472  1.00  0.00    -0.545 OA
ATOM     11  O   UNL     1       6.305 -21.083  17.523  1.00  0.00    -0.545 OA
ENDBRANCH   8   9
ENDBRANCH   1   7
BRANCH   4  12
ATOM     12  O   UNL     1       6.239 -22.781  10.327  1.00  0.00    -0.504 OA
ATOM     13  H   UNL     1       6.171 -22.708   9.318  1.00  0.00     0.293 HD
ENDBRANCH   4  12
BRANCH   6  14
ATOM     14  O   UNL     1       8.259 -21.333   8.987  1.00  0.00    -0.504 OA
ATOM     15  H   UNL     1       7.685 -20.724   8.416  1.00  0.00     0.293 HD
ENDBRANCH   6  14
TORSDOF 4
ENDMDL
MODEL 3
REMARK VINA RESULT:    -3.440     19.195     19.808
REMARK INTER + INTRA:          -4.168
REMARK INTER:                  -4.036
REMARK INTRA:                  -0.132
REMARK UNBOUND:                -0.125
REMARK SMILES O=C([O-])C=Cc1ccc(O)c(O)c1
REMARK SMILES IDX 6 1 13 2 7 3 11 4 8 5 9 6 5 7 4 8 2 9 1 10 3 11 12 12 10 14
REMARK H PARENT 12 13 10 15
REMARK Flexibility Score: inf
ROOT
ATOM      1  C   UNL     1       7.324 -22.054  12.736  1.00  0.00    -0.022 A 
ATOM      2  C   UNL     1       8.067 -20.926  13.119  1.00  0.00     0.058 A 
ATOM      3  C   UNL     1       6.807 -22.899  13.739  1.00  0.00     0.012 A 
ATOM      4  C   UNL     1       8.273 -20.627  14.473  1.00  0.00     0.157 A 
ATOM      5  C   UNL     1       7.013 -22.602  15.089  1.00  0.00     0.051 A 
ATOM      6  C   UNL     1       7.740 -21.469  15.462  1.00  0.00     0.157 A 
ENDROOT
BRANCH   1   7
ATOM      7  C   UNL     1       7.144 -22.331  11.289  1.00  0.00     0.010 C 
ATOM      8  C   UNL     1       8.000 -21.930  10.341  1.00  0.00     0.025 C 
BRANCH   8   9
ATOM      9  C   UNL     1       7.786 -22.239   8.919  1.00  0.00     0.064 C 
ATOM     10  O   UNL     1       8.693 -21.980   8.084  1.00  0.00    -0.545 OA
ATOM     11  O   UNL     1       6.598 -22.811   8.478  1.00  0.00    -0.545 OA
ENDBRANCH   8   9
ENDBRANCH   1   7
BRANCH   4  12
ATOM     12  O   UNL     1       9.005 -19.498  14.838  1.00  0.00    -0.504 OA
ATOM     13  H   UNL     1       8.881 -18.609  14.367  1.00  0.00     0.293 HD
ENDBRANCH   4  12
BRANCH   6  14
ATOM     14  O   UNL     1       7.926 -21.199  16.817  1.00  0.00    -0.504 OA
ATOM     15  H   UNL     1       7.518 -21.776  17.542  1.00  0.00     0.293 HD
ENDBRANCH   6  14
TORSDOF 4
ENDMDL
MODEL 4
REMARK VINA RESULT:    -3.363     18.913     20.123
REMARK INTER + INTRA:          -4.077
REMARK INTER:                  -3.945
REMARK INTRA:                  -0.132
REMARK UNBOUND:                -0.125
REMARK SMILES O=C([O-])C=Cc1ccc(O)c(O)c1
REMARK SMILES IDX 6 1 13 2 7 3 11 4 8 5 9 6 5 7 4 8 2 9 1 10 3 11 12 12 10 14
REMARK H PARENT 12 13 10 15
REMARK Flexibility Score: inf
ROOT
ATOM      1  C   UNL     1       7.290 -22.172  12.997  1.00  0.00    -0.022 A 
ATOM      2  C   UNL     1       8.031 -21.023  12.679  1.00  0.00     0.058 A 
ATOM      3  C   UNL     1       6.879 -23.026  11.953  1.00  0.00     0.012 A 
ATOM      4  C   UNL     1       8.381 -20.738  11.351  1.00  0.00     0.157 A 
ATOM      5  C   UNL     1       7.227 -22.742  10.629  1.00  0.00     0.051 A 
ATOM      6  C   UNL     1       7.978 -21.604  10.322  1.00  0.00     0.157 A 
ENDROOT
BRANCH   1   7
ATOM      7  C   UNL     1       6.937 -22.422  14.416  1.00  0.00     0.010 C 
ATOM      8  C   UNL     1       7.471 -21.753  15.446  1.00  0.00     0.025 C 
BRANCH   8   9
ATOM      9  C   UNL     1       7.081 -22.027  16.838  1.00  0.00     0.064 C 
ATOM     10  O   UNL     1       7.622 -22.981  17.457  1.00  0.00    -0.545 OA
ATOM     11  O   UNL     1       6.123 -21.252  17.482  1.00  0.00    -0.545 OA
ENDBRANCH   8   9
ENDBRANCH   1   7
BRANCH   4  12
ATOM     12  O   UNL     1       9.125 -19.598  11.052  1.00  0.00    -0.504 OA
ATOM     13  H   UNL     1       9.649 -19.103  11.764  1.00  0.00     0.293 HD
ENDBRANCH   4  12
BRANCH   6  14
ATOM     14  O   UNL     1       8.311 -21.350   8.992  1.00  0.00    -0.504 OA
ATOM     15  H   UNL     1       7.802 -20.681   8.429  1.00  0.00     0.293 HD
ENDBRANCH   6  14
TORSDOF 4
ENDMDL
MODEL 5
REMARK VINA RESULT:    -3.182      0.979      1.911
REMARK INTER + INTRA:          -3.865
REMARK INTER:                  -3.730
REMARK INTRA:                  -0.135
REMARK UNBOUND:                -0.125
REMARK SMILES O=C([O-])C=Cc1ccc(O)c(O)c1
REMARK SMILES IDX 6 1 13 2 7 3 11 4 8 5 9 6 5 7 4 8 2 9 1 10 3 11 12 12 10 14
REMARK H PARENT 12 13 10 15
REMARK Flexibility Score: inf
ROOT
ATOM      1  C   UNL     1     -10.551 -20.226  20.398  1.00  0.00    -0.022 A 
ATOM      2  C   UNL     1     -10.178 -18.878  20.278  1.00  0.00     0.058 A 
ATOM      3  C   UNL     1     -10.706 -20.776  21.686  1.00  0.00     0.012 A 
ATOM      4  C   UNL     1      -9.987 -18.081  21.416  1.00  0.00     0.157 A 
ATOM      5  C   UNL     1     -10.515 -19.983  22.821  1.00  0.00     0.051 A 
ATOM      6  C   UNL     1     -10.159 -18.637  22.693  1.00  0.00     0.157 A 
ENDROOT
BRANCH   1   7
ATOM      7  C   UNL     1     -10.730 -21.028  19.162  1.00  0.00     0.010 C 
ATOM      8  C   UNL     1     -10.889 -20.495  17.943  1.00  0.00     0.025 C 
BRANCH   8   9
ATOM      9  C   UNL     1     -11.052 -21.331  16.744  1.00  0.00     0.064 C 
ATOM     10  O   UNL     1     -11.125 -22.582  16.865  1.00  0.00    -0.545 OA
ATOM     11  O   UNL     1     -11.125 -20.762  15.477  1.00  0.00    -0.545 OA
ENDBRANCH   8   9
ENDBRANCH   1   7
BRANCH   4  12
ATOM     12  O   UNL     1      -9.626 -16.742  21.281  1.00  0.00    -0.504 OA
ATOM     13  H   UNL     1      -8.655 -16.454  21.240  1.00  0.00     0.293 HD
ENDBRANCH   4  12
BRANCH   6  14
ATOM     14  O   UNL     1      -9.978 -17.872  23.845  1.00  0.00    -0.504 OA
ATOM     15  H   UNL     1     -10.650 -17.871  24.602  1.00  0.00     0.293 HD
ENDBRANCH   6  14
TORSDOF 4
ENDMDL
MODEL 6
REMARK VINA RESULT:    -2.925      2.127      5.210
REMARK INTER + INTRA:          -3.563
REMARK INTER:                  -3.430
REMARK INTRA:                  -0.133
REMARK UNBOUND:                -0.125
REMARK SMILES O=C([O-])C=Cc1ccc(O)c(O)c1
REMARK SMILES IDX 6 1 13 2 7 3 11 4 8 5 9 6 5 7 4 8 2 9 1 10 3 11 12 12 10 14
REMARK H PARENT 12 13 10 15
REMARK Flexibility Score: inf
ROOT
ATOM      1  C   UNL     1     -10.682 -19.860  21.370  1.00  0.00    -0.022 A 
ATOM      2  C   UNL     1     -10.814 -20.603  20.187  1.00  0.00     0.058 A 
ATOM      3  C   UNL     1     -10.672 -18.453  21.291  1.00  0.00     0.012 A 
ATOM      4  C   UNL     1     -10.961 -19.962  18.948  1.00  0.00     0.157 A 
ATOM      5  C   UNL     1     -10.817 -17.813  20.058  1.00  0.00     0.051 A 
ATOM      6  C   UNL     1     -10.965 -18.560  18.885  1.00  0.00     0.157 A 
ENDROOT
BRANCH   1   7
ATOM      7  C   UNL     1     -10.519 -20.588  22.654  1.00  0.00     0.010 C 
ATOM      8  C   UNL     1     -10.091 -21.854  22.744  1.00  0.00     0.025 C 
BRANCH   8   9
ATOM      9  C   UNL     1      -9.934 -22.531  24.040  1.00  0.00     0.064 C 
ATOM     10  O   UNL     1     -10.910 -22.585  24.835  1.00  0.00    -0.545 OA
ATOM     11  O   UNL     1      -8.725 -23.112  24.406  1.00  0.00    -0.545 OA
ENDBRANCH   8   9
ENDBRANCH   1   7
BRANCH   4  12
ATOM     12  O   UNL     1     -11.101 -20.713  17.782  1.00  0.00    -0.504 OA
ATOM     13  H   UNL     1     -11.124 -20.276  16.868  1.00  0.00     0.293 HD
ENDBRANCH   4  12
BRANCH   6  14
ATOM     14  O   UNL     1     -11.109 -17.891  17.670  1.00  0.00    -0.504 OA
ATOM     15  H   UNL     1     -11.440 -16.936  17.617  1.00  0.00     0.293 HD
ENDBRANCH   6  14
TORSDOF 4
ENDMDL
MODEL 7
REMARK VINA RESULT:    -2.834      1.293      5.751
REMARK INTER + INTRA:          -3.456
REMARK INTER:                  -3.322
REMARK INTRA:                  -0.134
REMARK UNBOUND:                -0.125
REMARK SMILES O=C([O-])C=Cc1ccc(O)c(O)c1
REMARK SMILES IDX 6 1 13 2 7 3 11 4 8 5 9 6 5 7 4 8 2 9 1 10 3 11 12 12 10 14
REMARK H PARENT 12 13 10 15
REMARK Flexibility Score: inf
ROOT
ATOM      1  C   UNL     1     -10.756 -19.638  19.870  1.00  0.00    -0.022 A 
ATOM      2  C   UNL     1     -10.409 -20.965  19.570  1.00  0.00     0.058 A 
ATOM      3  C   UNL     1     -11.103 -18.772  18.814  1.00  0.00     0.012 A 
ATOM      4  C   UNL     1     -10.431 -21.432  18.248  1.00  0.00     0.157 A 
ATOM      5  C   UNL     1     -11.125 -19.236  17.496  1.00  0.00     0.051 A 
ATOM      6  C   UNL     1     -10.794 -20.562  17.207  1.00  0.00     0.157 A 
ENDROOT
BRANCH   1   7
ATOM      7  C   UNL     1     -10.706 -19.192  21.285  1.00  0.00     0.010 C 
ATOM      8  C   UNL     1      -9.943 -18.181  21.721  1.00  0.00     0.025 C 
BRANCH   8   9
ATOM      9  C   UNL     1      -9.935 -17.765  23.132  1.00  0.00     0.064 C 
ATOM     10  O   UNL     1      -8.890 -17.266  23.626  1.00  0.00    -0.545 OA
ATOM     11  O   UNL     1     -11.063 -17.918  23.932  1.00  0.00    -0.545 OA
ENDBRANCH   8   9
ENDBRANCH   1   7
BRANCH   4  12
ATOM     12  O   UNL     1     -10.094 -22.755  17.966  1.00  0.00    -0.504 OA
ATOM     13  H   UNL     1      -9.314 -22.987  17.361  1.00  0.00     0.293 HD
ENDBRANCH   4  12
BRANCH   6  14
ATOM     14  O   UNL     1     -10.827 -20.996  15.882  1.00  0.00    -0.504 OA
ATOM     15  H   UNL     1     -10.610 -20.379  15.109  1.00  0.00     0.293 HD
ENDBRANCH   6  14
TORSDOF 4
ENDMDL
MODEL 8
REMARK VINA RESULT:    -2.671      4.174      6.905
REMARK INTER + INTRA:          -3.264
REMARK INTER:                  -3.122
REMARK INTRA:                  -0.142
REMARK UNBOUND:                -0.125
REMARK SMILES O=C([O-])C=Cc1ccc(O)c(O)c1
REMARK SMILES IDX 6 1 13 2 7 3 11 4 8 5 9 6 5 7 4 8 2 9 1 10 3 11 12 12 10 14
REMARK H PARENT 12 13 10 15
REMARK Flexibility Score: inf
ROOT
ATOM      1  C   UNL     1      -7.457 -22.769  19.214  1.00  0.00    -0.022 A 
ATOM      2  C   UNL     1      -7.870 -22.353  17.938  1.00  0.00     0.058 A 
ATOM      3  C   UNL     1      -6.103 -23.109  19.411  1.00  0.00     0.012 A 
ATOM      4  C   UNL     1      -6.952 -22.251  16.883  1.00  0.00     0.157 A 
ATOM      5  C   UNL     1      -5.188 -23.009  18.360  1.00  0.00     0.051 A 
ATOM      6  C   UNL     1      -5.604 -22.578  17.097  1.00  0.00     0.157 A 
ENDROOT
BRANCH   1   7
ATOM      7  C   UNL     1      -8.470 -22.870  20.293  1.00  0.00     0.010 C 
ATOM      8  C   UNL     1      -8.169 -22.897  21.598  1.00  0.00     0.025 C 
BRANCH   8   9
ATOM      9  C   UNL     1      -9.210 -22.986  22.634  1.00  0.00     0.064 C 
ATOM     10  O   UNL     1     -10.423 -22.935  22.301  1.00  0.00    -0.545 OA
ATOM     11  O   UNL     1      -8.877 -23.124  23.977  1.00  0.00    -0.545 OA
ENDBRANCH   8   9
ENDBRANCH   1   7
BRANCH   4  12
ATOM     12  O   UNL     1      -7.376 -21.827  15.624  1.00  0.00    -0.504 OA
ATOM     13  H   UNL     1      -8.348 -21.614  15.435  1.00  0.00     0.293 HD
ENDBRANCH   4  12
BRANCH   6  14
ATOM     14  O   UNL     1      -4.666 -22.486  16.070  1.00  0.00    -0.504 OA
ATOM     15  H   UNL     1      -4.896 -22.093  15.165  1.00  0.00     0.293 HD
ENDBRANCH   6  14
TORSDOF 4
ENDMDL
