MODEL 1
REMARK VINA RESULT:    -4.456      0.000      0.000
REMARK INTER + INTRA:         -12.704
REMARK INTER:                 -10.186
REMARK INTRA:                  -2.518
REMARK UNBOUND:                -2.518
REMARK SMILES CCCCCCCCCCCCCCCCCCCCCCCC(=O)[O-]
REMARK SMILES IDX 13 1 14 2 15 3 16 4 17 5 18 6 19 7 20 8 21 9 22 10 23 11
REMARK SMILES IDX 24 12 25 13 26 14 12 15 11 16 10 17 9 18 8 19 7 20 6 21 5 22
REMARK SMILES IDX 4 23 3 24 2 25 1 26
REMARK H PARENT
REMARK Flexibility Score: inf
ROOT
ATOM      1  C   UNL     1       0.082  46.404   9.112  1.00  0.00     0.000 C 
ENDROOT
BRANCH   1   2
ATOM      2  C   UNL     1       1.253  45.427   9.327  1.00  0.00     0.000 C 
BRANCH   2   3
ATOM      3  C   UNL     1       1.205  44.148   8.470  1.00  0.00     0.000 C 
BRANCH   3   4
ATOM      4  C   UNL     1       2.387  43.202   8.739  1.00  0.00     0.000 C 
BRANCH   4   5
ATOM      5  C   UNL     1       3.484  43.858   9.594  1.00  0.00     0.000 C 
BRANCH   5   6
ATOM      6  C   UNL     1       4.060  42.906  10.653  1.00  0.00     0.000 C 
BRANCH   6   7
ATOM      7  C   UNL     1       3.878  43.485  12.063  1.00  0.00     0.000 C 
BRANCH   7   8
ATOM      8  C   UNL     1       2.611  44.349  12.199  1.00  0.00     0.000 C 
BRANCH   8   9
ATOM      9  C   UNL     1       1.283  43.568  12.207  1.00  0.00     0.000 C 
BRANCH   9  10
ATOM     10  C   UNL     1       1.305  42.235  12.980  1.00  0.00     0.006 C 
BRANCH  10  11
ATOM     11  C   UNL     1      -0.038  41.875  13.643  1.00  0.00     0.053 C 
BRANCH  11  12
ATOM     12  C   UNL     1       0.069  40.690  14.556  1.00  0.00     0.041 C 
ATOM     13  O   UNL     1       0.225  39.535  14.080  1.00  0.00    -0.550 OA
ATOM     14  O   UNL     1       0.034  40.865  15.934  1.00  0.00    -0.550 OA
ENDBRANCH  11  12
ENDBRANCH  10  11
ENDBRANCH   9  10
ENDBRANCH   8   9
ENDBRANCH   7   8
ENDBRANCH   6   7
ENDBRANCH   5   6
ENDBRANCH   4   5
ENDBRANCH   3   4
ENDBRANCH   2   3
ENDBRANCH   1   2
BRANCH   1  15
ATOM     15  C   UNL     1      -0.560  46.275   7.723  1.00  0.00     0.000 C 
BRANCH  15  16
ATOM     16  C   UNL     1      -1.014  47.643   7.199  1.00  0.00     0.000 C 
BRANCH  16  17
ATOM     17  C   UNL     1      -0.373  48.781   8.008  1.00  0.00     0.000 C 
BRANCH  17  18
ATOM     18  C   UNL     1      -0.544  50.155   7.340  1.00  0.00    -0.000 C 
BRANCH  18  19
ATOM     19  C   UNL     1       0.734  51.009   7.408  1.00  0.00    -0.000 C 
BRANCH  19  20
ATOM     20  C   UNL     1       1.812  50.383   8.310  1.00  0.00    -0.000 C 
BRANCH  20  21
ATOM     21  C   UNL     1       3.080  49.994   7.531  1.00  0.00    -0.000 C 
BRANCH  21  22
ATOM     22  C   UNL     1       3.294  48.472   7.462  1.00  0.00    -0.000 C 
BRANCH  22  23
ATOM     23  C   UNL     1       3.592  47.827   8.833  1.00  0.00    -0.000 C 
BRANCH  23  24
ATOM     24  C   UNL     1       4.915  47.041   8.827  1.00  0.00    -0.000 C 
BRANCH  24  25
ATOM     25  C   UNL     1       5.841  47.436   9.988  1.00  0.00    -0.003 C 
ATOM     26  C   UNL     1       7.211  47.920   9.513  1.00  0.00     0.004 C 
ENDBRANCH  24  25
ENDBRANCH  23  24
ENDBRANCH  22  23
ENDBRANCH  21  22
ENDBRANCH  20  21
ENDBRANCH  19  20
ENDBRANCH  18  19
ENDBRANCH  17  18
ENDBRANCH  16  17
ENDBRANCH  15  16
ENDBRANCH   1  15
TORSDOF 22
ENDMDL
MODEL 2
REMARK VINA RESULT:    -4.232      1.016      3.538
REMARK INTER + INTRA:         -12.193
REMARK INTER:                  -9.628
REMARK INTRA:                  -2.565
REMARK UNBOUND:                -2.518
REMARK SMILES CCCCCCCCCCCCCCCCCCCCCCCC(=O)[O-]
REMARK SMILES IDX 13 1 14 2 15 3 16 4 17 5 18 6 19 7 20 8 21 9 22 10 23 11
REMARK SMILES IDX 24 12 25 13 26 14 12 15 11 16 10 17 9 18 8 19 7 20 6 21 5 22
REMARK SMILES IDX 4 23 3 24 2 25 1 26
REMARK H PARENT
REMARK Flexibility Score: inf
ROOT
ATOM      1  C   UNL     1       3.618  48.522   7.228  1.00  0.00     0.000 C 
ENDROOT
BRANCH   1   2
ATOM      2  C   UNL     1       3.470  47.761   8.559  1.00  0.00     0.000 C 
BRANCH   2   3
ATOM      3  C   UNL     1       4.751  47.071   9.065  1.00  0.00     0.000 C 
BRANCH   3   4
ATOM      4  C   UNL     1       4.788  46.924  10.596  1.00  0.00     0.000 C 
BRANCH   4   5
ATOM      5  C   UNL     1       4.607  45.466  11.051  1.00  0.00     0.000 C 
BRANCH   5   6
ATOM      6  C   UNL     1       3.403  45.283  11.987  1.00  0.00     0.000 C 
BRANCH   6   7
ATOM      7  C   UNL     1       3.514  43.965  12.768  1.00  0.00     0.000 C 
BRANCH   7   8
ATOM      8  C   UNL     1       2.558  42.877  12.248  1.00  0.00     0.000 C 
BRANCH   8   9
ATOM      9  C   UNL     1       1.133  42.924  12.832  1.00  0.00     0.000 C 
BRANCH   9  10
ATOM     10  C   UNL     1       0.628  41.607  13.452  1.00  0.00     0.006 C 
BRANCH  10  11
ATOM     11  C   UNL     1      -0.752  41.722  14.128  1.00  0.00     0.053 C 
BRANCH  11  12
ATOM     12  C   UNL     1      -0.697  41.454  15.601  1.00  0.00     0.041 C 
ATOM     13  O   UNL     1      -0.334  40.327  16.029  1.00  0.00    -0.550 OA
ATOM     14  O   UNL     1      -1.010  42.463  16.505  1.00  0.00    -0.550 OA
ENDBRANCH  11  12
ENDBRANCH  10  11
ENDBRANCH   9  10
ENDBRANCH   8   9
ENDBRANCH   7   8
ENDBRANCH   6   7
ENDBRANCH   5   6
ENDBRANCH   4   5
ENDBRANCH   3   4
ENDBRANCH   2   3
ENDBRANCH   1   2
BRANCH   1  15
ATOM     15  C   UNL     1       3.119  49.973   7.307  1.00  0.00     0.000 C 
BRANCH  15  16
ATOM     16  C   UNL     1       1.913  50.088   8.248  1.00  0.00     0.000 C 
BRANCH  16  17
ATOM     17  C   UNL     1       0.736  50.784   7.549  1.00  0.00     0.000 C 
BRANCH  17  18
ATOM     18  C   UNL     1      -0.539  49.926   7.534  1.00  0.00    -0.000 C 
BRANCH  18  19
ATOM     19  C   UNL     1      -0.310  48.517   8.109  1.00  0.00    -0.000 C 
BRANCH  19  20
ATOM     20  C   UNL     1      -0.599  47.409   7.081  1.00  0.00    -0.000 C 
BRANCH  20  21
ATOM     21  C   UNL     1       0.050  46.067   7.462  1.00  0.00    -0.000 C 
BRANCH  21  22
ATOM     22  C   UNL     1       0.180  45.879   8.984  1.00  0.00    -0.000 C 
BRANCH  22  23
ATOM     23  C   UNL     1       1.362  44.976   9.396  1.00  0.00    -0.000 C 
BRANCH  23  24
ATOM     24  C   UNL     1       1.442  43.701   8.538  1.00  0.00    -0.000 C 
BRANCH  24  25
ATOM     25  C   UNL     1       2.538  42.736   9.016  1.00  0.00    -0.003 C 
ATOM     26  C   UNL     1       3.945  43.313   8.860  1.00  0.00     0.004 C 
ENDBRANCH  24  25
ENDBRANCH  23  24
ENDBRANCH  22  23
ENDBRANCH  21  22
ENDBRANCH  20  21
ENDBRANCH  19  20
ENDBRANCH  18  19
ENDBRANCH  17  18
ENDBRANCH  16  17
ENDBRANCH  15  16
ENDBRANCH   1  15
TORSDOF 22
ENDMDL
MODEL 3
REMARK VINA RESULT:    -4.152      3.821      8.196
REMARK INTER + INTRA:         -12.010
REMARK INTER:                  -9.735
REMARK INTRA:                  -2.275
REMARK UNBOUND:                -2.518
REMARK SMILES CCCCCCCCCCCCCCCCCCCCCCCC(=O)[O-]
REMARK SMILES IDX 13 1 14 2 15 3 16 4 17 5 18 6 19 7 20 8 21 9 22 10 23 11
REMARK SMILES IDX 24 12 25 13 26 14 12 15 11 16 10 17 9 18 8 19 7 20 6 21 5 22
REMARK SMILES IDX 4 23 3 24 2 25 1 26
REMARK H PARENT
REMARK Flexibility Score: inf
ROOT
ATOM      1  C   UNL     1      -0.095  45.758   7.227  1.00  0.00     0.000 C 
ENDROOT
BRANCH   1   2
ATOM      2  C   UNL     1      -1.108  46.436   8.167  1.00  0.00     0.000 C 
BRANCH   2   3
ATOM      3  C   UNL     1      -0.770  47.886   8.560  1.00  0.00     0.000 C 
BRANCH   3   4
ATOM      4  C   UNL     1       0.040  48.626   7.482  1.00  0.00     0.000 C 
BRANCH   4   5
ATOM      5  C   UNL     1       0.904  49.756   8.067  1.00  0.00     0.000 C 
BRANCH   5   6
ATOM      6  C   UNL     1       2.397  49.585   7.748  1.00  0.00     0.000 C 
BRANCH   6   7
ATOM      7  C   UNL     1       2.801  48.105   7.806  1.00  0.00     0.000 C 
BRANCH   7   8
ATOM      8  C   UNL     1       2.980  47.588   9.246  1.00  0.00     0.000 C 
BRANCH   8   9
ATOM      9  C   UNL     1       4.347  46.944   9.546  1.00  0.00     0.000 C 
BRANCH   9  10
ATOM     10  C   UNL     1       5.561  47.640   8.903  1.00  0.00     0.006 C 
BRANCH  10  11
ATOM     11  C   UNL     1       6.820  47.649   9.790  1.00  0.00     0.053 C 
BRANCH  11  12
ATOM     12  C   UNL     1       7.727  48.805   9.493  1.00  0.00     0.041 C 
ATOM     13  O   UNL     1       7.408  49.655   8.621  1.00  0.00    -0.550 OA
ATOM     14  O   UNL     1       8.910  48.964  10.206  1.00  0.00    -0.550 OA
ENDBRANCH  11  12
ENDBRANCH  10  11
ENDBRANCH   9  10
ENDBRANCH   8   9
ENDBRANCH   7   8
ENDBRANCH   6   7
ENDBRANCH   5   6
ENDBRANCH   4   5
ENDBRANCH   3   4
ENDBRANCH   2   3
ENDBRANCH   1   2
BRANCH   1  15
ATOM     15  C   UNL     1       0.332  44.363   7.708  1.00  0.00     0.000 C 
BRANCH  15  16
ATOM     16  C   UNL     1       1.194  44.460   8.973  1.00  0.00     0.000 C 
BRANCH  16  17
ATOM     17  C   UNL     1       2.220  43.318   9.026  1.00  0.00     0.000 C 
BRANCH  17  18
ATOM     18  C   UNL     1       3.557  43.748   9.652  1.00  0.00    -0.000 C 
BRANCH  18  19
ATOM     19  C   UNL     1       3.787  43.128  11.041  1.00  0.00    -0.000 C 
BRANCH  19  20
ATOM     20  C   UNL     1       3.221  44.000  12.175  1.00  0.00    -0.000 C 
BRANCH  20  21
ATOM     21  C   UNL     1       1.750  43.678  12.488  1.00  0.00    -0.000 C 
BRANCH  21  22
ATOM     22  C   UNL     1       1.533  42.207  12.886  1.00  0.00    -0.000 C 
BRANCH  22  23
ATOM     23  C   UNL     1       0.201  41.955  13.623  1.00  0.00    -0.000 C 
BRANCH  23  24
ATOM     24  C   UNL     1       0.141  40.550  14.246  1.00  0.00    -0.000 C 
BRANCH  24  25
ATOM     25  C   UNL     1      -0.243  40.579  15.734  1.00  0.00    -0.003 C 
ATOM     26  C   UNL     1      -0.364  42.000  16.286  1.00  0.00     0.004 C 
ENDBRANCH  24  25
ENDBRANCH  23  24
ENDBRANCH  22  23
ENDBRANCH  21  22
ENDBRANCH  20  21
ENDBRANCH  19  20
ENDBRANCH  18  19
ENDBRANCH  17  18
ENDBRANCH  16  17
ENDBRANCH  15  16
ENDBRANCH   1  15
TORSDOF 22
ENDMDL
MODEL 4
REMARK VINA RESULT:    -4.076      0.935      1.714
REMARK INTER + INTRA:         -11.837
REMARK INTER:                  -9.161
REMARK INTRA:                  -2.677
REMARK UNBOUND:                -2.518
REMARK SMILES CCCCCCCCCCCCCCCCCCCCCCCC(=O)[O-]
REMARK SMILES IDX 13 1 14 2 15 3 16 4 17 5 18 6 19 7 20 8 21 9 22 10 23 11
REMARK SMILES IDX 24 12 25 13 26 14 12 15 11 16 10 17 9 18 8 19 7 20 6 21 5 22
REMARK SMILES IDX 4 23 3 24 2 25 1 26
REMARK H PARENT
REMARK Flexibility Score: inf
ROOT
ATOM      1  C   UNL     1       0.511  46.583   7.604  1.00  0.00     0.000 C 
ENDROOT
BRANCH   1   2
ATOM      2  C   UNL     1      -0.251  45.302   7.218  1.00  0.00     0.000 C 
BRANCH   2   3
ATOM      3  C   UNL     1       0.368  43.990   7.737  1.00  0.00     0.000 C 
BRANCH   3   4
ATOM      4  C   UNL     1       1.445  44.218   8.811  1.00  0.00     0.000 C 
BRANCH   4   5
ATOM      5  C   UNL     1       2.562  43.163   8.757  1.00  0.00     0.000 C 
BRANCH   5   6
ATOM      6  C   UNL     1       3.776  43.541   9.619  1.00  0.00     0.000 C 
BRANCH   6   7
ATOM      7  C   UNL     1       3.764  42.769  10.946  1.00  0.00     0.000 C 
BRANCH   7   8
ATOM      8  C   UNL     1       3.128  43.567  12.100  1.00  0.00     0.000 C 
BRANCH   8   9
ATOM      9  C   UNL     1       1.629  43.298  12.333  1.00  0.00     0.000 C 
BRANCH   9  10
ATOM     10  C   UNL     1       1.285  41.898  12.876  1.00  0.00     0.006 C 
BRANCH  10  11
ATOM     11  C   UNL     1       0.130  41.888  13.895  1.00  0.00     0.053 C 
BRANCH  11  12
ATOM     12  C   UNL     1       0.036  40.595  14.648  1.00  0.00     0.041 C 
ATOM     13  O   UNL     1      -0.191  40.597  15.886  1.00  0.00    -0.550 OA
ATOM     14  O   UNL     1       0.159  39.386  13.975  1.00  0.00    -0.550 OA
ENDBRANCH  11  12
ENDBRANCH  10  11
ENDBRANCH   9  10
ENDBRANCH   8   9
ENDBRANCH   7   8
ENDBRANCH   6   7
ENDBRANCH   5   6
ENDBRANCH   4   5
ENDBRANCH   3   4
ENDBRANCH   2   3
ENDBRANCH   1   2
BRANCH   1  15
ATOM     15  C   UNL     1      -0.325  47.542   8.466  1.00  0.00     0.000 C 
BRANCH  15  16
ATOM     16  C   UNL     1      -0.967  48.636   7.605  1.00  0.00     0.000 C 
BRANCH  16  17
ATOM     17  C   UNL     1      -0.231  49.974   7.779  1.00  0.00     0.000 C 
BRANCH  17  18
ATOM     18  C   UNL     1       1.065  49.838   8.596  1.00  0.00    -0.000 C 
BRANCH  18  19
ATOM     19  C   UNL     1       2.010  51.037   8.408  1.00  0.00    -0.000 C 
BRANCH  19  20
ATOM     20  C   UNL     1       3.200  50.708   7.490  1.00  0.00    -0.000 C 
BRANCH  20  21
ATOM     21  C   UNL     1       3.425  49.194   7.335  1.00  0.00    -0.000 C 
BRANCH  21  22
ATOM     22  C   UNL     1       4.685  48.701   8.068  1.00  0.00    -0.000 C 
BRANCH  22  23
ATOM     23  C   UNL     1       4.589  47.237   8.547  1.00  0.00    -0.000 C 
BRANCH  23  24
ATOM     24  C   UNL     1       5.234  47.036   9.929  1.00  0.00    -0.000 C 
BRANCH  24  25
ATOM     25  C   UNL     1       4.212  46.641  11.006  1.00  0.00    -0.003 C 
ATOM     26  C   UNL     1       2.766  46.842  10.552  1.00  0.00     0.004 C 
ENDBRANCH  24  25
ENDBRANCH  23  24
ENDBRANCH  22  23
ENDBRANCH  21  22
ENDBRANCH  20  21
ENDBRANCH  19  20
ENDBRANCH  18  19
ENDBRANCH  17  18
ENDBRANCH  16  17
ENDBRANCH  15  16
ENDBRANCH   1  15
TORSDOF 22
ENDMDL
MODEL 5
REMARK VINA RESULT:    -4.065      0.692      1.342
REMARK INTER + INTRA:         -11.811
REMARK INTER:                  -9.295
REMARK INTRA:                  -2.516
REMARK UNBOUND:                -2.518
REMARK SMILES CCCCCCCCCCCCCCCCCCCCCCCC(=O)[O-]
REMARK SMILES IDX 13 1 14 2 15 3 16 4 17 5 18 6 19 7 20 8 21 9 22 10 23 11
REMARK SMILES IDX 24 12 25 13 26 14 12 15 11 16 10 17 9 18 8 19 7 20 6 21 5 22
REMARK SMILES IDX 4 23 3 24 2 25 1 26
REMARK H PARENT
REMARK Flexibility Score: inf
ROOT
ATOM      1  C   UNL     1      -0.795  46.329   7.964  1.00  0.00     0.000 C 
ENDROOT
BRANCH   1   2
ATOM      2  C   UNL     1      -0.499  45.239   6.917  1.00  0.00     0.000 C 
BRANCH   2   3
ATOM      3  C   UNL     1       0.393  44.084   7.409  1.00  0.00     0.000 C 
BRANCH   3   4
ATOM      4  C   UNL     1       1.137  44.414   8.714  1.00  0.00     0.000 C 
BRANCH   4   5
ATOM      5  C   UNL     1       1.962  43.226   9.238  1.00  0.00     0.000 C 
BRANCH   5   6
ATOM      6  C   UNL     1       3.429  43.595   9.502  1.00  0.00     0.000 C 
BRANCH   6   7
ATOM      7  C   UNL     1       3.859  43.147  10.907  1.00  0.00     0.000 C 
BRANCH   7   8
ATOM      8  C   UNL     1       3.253  44.015  12.025  1.00  0.00     0.000 C 
BRANCH   8   9
ATOM      9  C   UNL     1       1.785  43.703  12.373  1.00  0.00     0.000 C 
BRANCH   9  10
ATOM     10  C   UNL     1       1.511  42.266  12.859  1.00  0.00     0.006 C 
BRANCH  10  11
ATOM     11  C   UNL     1       0.093  42.055  13.419  1.00  0.00     0.053 C 
BRANCH  11  12
ATOM     12  C   UNL     1       0.060  41.076  14.554  1.00  0.00     0.041 C 
ATOM     13  O   UNL     1      -0.025  39.841  14.325  1.00  0.00    -0.550 OA
ATOM     14  O   UNL     1       0.162  41.526  15.865  1.00  0.00    -0.550 OA
ENDBRANCH  11  12
ENDBRANCH  10  11
ENDBRANCH   9  10
ENDBRANCH   8   9
ENDBRANCH   7   8
ENDBRANCH   6   7
ENDBRANCH   5   6
ENDBRANCH   4   5
ENDBRANCH   3   4
ENDBRANCH   2   3
ENDBRANCH   1   2
BRANCH   1  15
ATOM     15  C   UNL     1      -1.096  47.699   7.335  1.00  0.00     0.000 C 
BRANCH  15  16
ATOM     16  C   UNL     1      -0.365  48.819   8.086  1.00  0.00     0.000 C 
BRANCH  16  17
ATOM     17  C   UNL     1      -0.595  50.177   7.405  1.00  0.00     0.000 C 
BRANCH  17  18
ATOM     18  C   UNL     1       0.607  51.125   7.548  1.00  0.00    -0.000 C 
BRANCH  18  19
ATOM     19  C   UNL     1       1.747  50.513   8.380  1.00  0.00    -0.000 C 
BRANCH  19  20
ATOM     20  C   UNL     1       3.106  50.592   7.662  1.00  0.00    -0.000 C 
BRANCH  20  21
ATOM     21  C   UNL     1       3.547  49.236   7.083  1.00  0.00    -0.000 C 
BRANCH  21  22
ATOM     22  C   UNL     1       2.776  48.050   7.689  1.00  0.00    -0.000 C 
BRANCH  22  23
ATOM     23  C   UNL     1       3.685  46.997   8.356  1.00  0.00    -0.000 C 
BRANCH  23  24
ATOM     24  C   UNL     1       3.550  47.003   9.889  1.00  0.00    -0.000 C 
BRANCH  24  25
ATOM     25  C   UNL     1       4.904  46.862  10.601  1.00  0.00    -0.003 C 
ATOM     26  C   UNL     1       6.064  47.435   9.786  1.00  0.00     0.004 C 
ENDBRANCH  24  25
ENDBRANCH  23  24
ENDBRANCH  22  23
ENDBRANCH  21  22
ENDBRANCH  20  21
ENDBRANCH  19  20
ENDBRANCH  18  19
ENDBRANCH  17  18
ENDBRANCH  16  17
ENDBRANCH  15  16
ENDBRANCH   1  15
TORSDOF 22
ENDMDL
MODEL 6
REMARK VINA RESULT:    -4.012      3.097      8.012
REMARK INTER + INTRA:         -11.689
REMARK INTER:                  -9.283
REMARK INTRA:                  -2.406
REMARK UNBOUND:                -2.518
REMARK SMILES CCCCCCCCCCCCCCCCCCCCCCCC(=O)[O-]
REMARK SMILES IDX 13 1 14 2 15 3 16 4 17 5 18 6 19 7 20 8 21 9 22 10 23 11
REMARK SMILES IDX 24 12 25 13 26 14 12 15 11 16 10 17 9 18 8 19 7 20 6 21 5 22
REMARK SMILES IDX 4 23 3 24 2 25 1 26
REMARK H PARENT
REMARK Flexibility Score: inf
ROOT
ATOM      1  C   UNL     1       0.264  45.395   8.813  1.00  0.00     0.000 C 
ENDROOT
BRANCH   1   2
ATOM      2  C   UNL     1      -0.040  45.740   7.344  1.00  0.00     0.000 C 
BRANCH   2   3
ATOM      3  C   UNL     1      -0.620  47.147   7.108  1.00  0.00     0.000 C 
BRANCH   3   4
ATOM      4  C   UNL     1      -1.125  47.812   8.400  1.00  0.00     0.000 C 
BRANCH   4   5
ATOM      5  C   UNL     1      -0.393  49.129   8.708  1.00  0.00     0.000 C 
BRANCH   5   6
ATOM      6  C   UNL     1       0.328  49.708   7.481  1.00  0.00     0.000 C 
BRANCH   6   7
ATOM      7  C   UNL     1       1.481  50.626   7.910  1.00  0.00     0.000 C 
BRANCH   7   8
ATOM      8  C   UNL     1       2.868  50.005   7.658  1.00  0.00     0.000 C 
BRANCH   8   9
ATOM      9  C   UNL     1       2.876  48.477   7.464  1.00  0.00     0.000 C 
BRANCH   9  10
ATOM     10  C   UNL     1       3.723  47.686   8.480  1.00  0.00     0.006 C 
BRANCH  10  11
ATOM     11  C   UNL     1       5.232  47.981   8.400  1.00  0.00     0.053 C 
BRANCH  11  12
ATOM     12  C   UNL     1       5.969  47.562   9.636  1.00  0.00     0.041 C 
ATOM     13  O   UNL     1       5.383  46.895  10.528  1.00  0.00    -0.550 OA
ATOM     14  O   UNL     1       7.315  47.875   9.786  1.00  0.00    -0.550 OA
ENDBRANCH  11  12
ENDBRANCH  10  11
ENDBRANCH   9  10
ENDBRANCH   8   9
ENDBRANCH   7   8
ENDBRANCH   6   7
ENDBRANCH   5   6
ENDBRANCH   4   5
ENDBRANCH   3   4
ENDBRANCH   2   3
ENDBRANCH   1   2
BRANCH   1  15
ATOM     15  C   UNL     1       1.704  44.904   9.029  1.00  0.00     0.000 C 
BRANCH  15  16
ATOM     16  C   UNL     1       1.822  43.403   8.739  1.00  0.00     0.000 C 
BRANCH  16  17
ATOM     17  C   UNL     1       3.180  42.858   9.205  1.00  0.00     0.000 C 
BRANCH  17  18
ATOM     18  C   UNL     1       3.990  43.889  10.009  1.00  0.00    -0.000 C 
BRANCH  18  19
ATOM     19  C   UNL     1       4.176  43.478  11.480  1.00  0.00    -0.000 C 
BRANCH  19  20
ATOM     20  C   UNL     1       3.246  44.253  12.429  1.00  0.00    -0.000 C 
BRANCH  20  21
ATOM     21  C   UNL     1       1.766  43.877  12.242  1.00  0.00    -0.000 C 
BRANCH  21  22
ATOM     22  C   UNL     1       1.475  42.407  12.591  1.00  0.00    -0.000 C 
BRANCH  22  23
ATOM     23  C   UNL     1       0.448  42.233  13.729  1.00  0.00    -0.000 C 
BRANCH  23  24
ATOM     24  C   UNL     1       0.342  40.770  14.194  1.00  0.00    -0.000 C 
BRANCH  24  25
ATOM     25  C   UNL     1      -0.514  40.614  15.460  1.00  0.00    -0.003 C 
ATOM     26  C   UNL     1      -0.475  41.851  16.358  1.00  0.00     0.004 C 
ENDBRANCH  24  25
ENDBRANCH  23  24
ENDBRANCH  22  23
ENDBRANCH  21  22
ENDBRANCH  20  21
ENDBRANCH  19  20
ENDBRANCH  18  19
ENDBRANCH  17  18
ENDBRANCH  16  17
ENDBRANCH  15  16
ENDBRANCH   1  15
TORSDOF 22
ENDMDL
MODEL 7
REMARK VINA RESULT:    -3.622      3.444      8.923
REMARK INTER + INTRA:         -10.798
REMARK INTER:                  -8.969
REMARK INTRA:                  -1.828
REMARK UNBOUND:                -2.518
REMARK SMILES CCCCCCCCCCCCCCCCCCCCCCCC(=O)[O-]
REMARK SMILES IDX 13 1 14 2 15 3 16 4 17 5 18 6 19 7 20 8 21 9 22 10 23 11
REMARK SMILES IDX 24 12 25 13 26 14 12 15 11 16 10 17 9 18 8 19 7 20 6 21 5 22
REMARK SMILES IDX 4 23 3 24 2 25 1 26
REMARK H PARENT
REMARK Flexibility Score: inf
ROOT
ATOM      1  C   UNL     1       3.302  43.509   9.085  1.00  0.00     0.000 C 
ENDROOT
BRANCH   1   2
ATOM      2  C   UNL     1       1.845  43.087   8.822  1.00  0.00     0.000 C 
BRANCH   2   3
ATOM      3  C   UNL     1       0.851  44.248   8.629  1.00  0.00     0.000 C 
BRANCH   3   4
ATOM      4  C   UNL     1       1.171  45.465   9.514  1.00  0.00     0.000 C 
BRANCH   4   5
ATOM      5  C   UNL     1       0.270  46.672   9.204  1.00  0.00     0.000 C 
BRANCH   5   6
ATOM      6  C   UNL     1       0.067  46.887   7.697  1.00  0.00     0.000 C 
BRANCH   6   7
ATOM      7  C   UNL     1       0.461  48.315   7.293  1.00  0.00     0.000 C 
BRANCH   7   8
ATOM      8  C   UNL     1       1.421  48.980   8.297  1.00  0.00     0.000 C 
BRANCH   8   9
ATOM      9  C   UNL     1       2.661  49.649   7.673  1.00  0.00     0.000 C 
BRANCH   9  10
ATOM     10  C   UNL     1       3.984  48.880   7.844  1.00  0.00     0.006 C 
BRANCH  10  11
ATOM     11  C   UNL     1       3.890  47.677   8.801  1.00  0.00     0.053 C 
BRANCH  11  12
ATOM     12  C   UNL     1       5.206  47.337   9.433  1.00  0.00     0.041 C 
ATOM     13  O   UNL     1       6.280  47.755   8.926  1.00  0.00    -0.550 OA
ATOM     14  O   UNL     1       5.246  46.590  10.604  1.00  0.00    -0.550 OA
ENDBRANCH  11  12
ENDBRANCH  10  11
ENDBRANCH   9  10
ENDBRANCH   8   9
ENDBRANCH   7   8
ENDBRANCH   6   7
ENDBRANCH   5   6
ENDBRANCH   4   5
ENDBRANCH   3   4
ENDBRANCH   2   3
ENDBRANCH   1   2
BRANCH   1  15
ATOM     15  C   UNL     1       3.910  42.827  10.321  1.00  0.00     0.000 C 
BRANCH  15  16
ATOM     16  C   UNL     1       3.741  43.702  11.569  1.00  0.00     0.000 C 
BRANCH  16  17
ATOM     17  C   UNL     1       2.264  43.786  11.983  1.00  0.00     0.000 C 
BRANCH  17  18
ATOM     18  C   UNL     1       1.708  42.441  12.480  1.00  0.00    -0.000 C 
BRANCH  18  19
ATOM     19  C   UNL     1       0.299  42.571  13.084  1.00  0.00    -0.000 C 
BRANCH  19  20
ATOM     20  C   UNL     1       0.140  41.761  14.382  1.00  0.00    -0.000 C 
BRANCH  20  21
ATOM     21  C   UNL     1       0.295  40.247  14.155  1.00  0.00    -0.000 C 
BRANCH  21  22
ATOM     22  C   UNL     1      -1.050  39.539  13.917  1.00  0.00    -0.000 C 
BRANCH  22  23
ATOM     23  C   UNL     1      -0.929  38.244  13.086  1.00  0.00    -0.000 C 
BRANCH  23  24
ATOM     24  C   UNL     1       0.506  37.686  13.090  1.00  0.00    -0.000 C 
BRANCH  24  25
ATOM     25  C   UNL     1       0.734  36.636  11.991  1.00  0.00    -0.003 C 
ATOM     26  C   UNL     1      -0.337  35.545  11.983  1.00  0.00     0.004 C 
ENDBRANCH  24  25
ENDBRANCH  23  24
ENDBRANCH  22  23
ENDBRANCH  21  22
ENDBRANCH  20  21
ENDBRANCH  19  20
ENDBRANCH  18  19
ENDBRANCH  17  18
ENDBRANCH  16  17
ENDBRANCH  15  16
ENDBRANCH   1  15
TORSDOF 22
ENDMDL
MODEL 8
REMARK VINA RESULT:    -3.473      3.081      8.957
REMARK INTER + INTRA:         -10.457
REMARK INTER:                  -8.759
REMARK INTRA:                  -1.698
REMARK UNBOUND:                -2.518
REMARK SMILES CCCCCCCCCCCCCCCCCCCCCCCC(=O)[O-]
REMARK SMILES IDX 13 1 14 2 15 3 16 4 17 5 18 6 19 7 20 8 21 9 22 10 23 11
REMARK SMILES IDX 24 12 25 13 26 14 12 15 11 16 10 17 9 18 8 19 7 20 6 21 5 22
REMARK SMILES IDX 4 23 3 24 2 25 1 26
REMARK H PARENT
REMARK Flexibility Score: inf
ROOT
ATOM      1  C   UNL     1       3.196  44.841  10.302  1.00  0.00     0.000 C 
ENDROOT
BRANCH   1   2
ATOM      2  C   UNL     1       3.976  45.564   9.189  1.00  0.00     0.000 C 
BRANCH   2   3
ATOM      3  C   UNL     1       4.986  46.619   9.677  1.00  0.00     0.000 C 
BRANCH   3   4
ATOM      4  C   UNL     1       5.060  47.850   8.757  1.00  0.00     0.000 C 
BRANCH   4   5
ATOM      5  C   UNL     1       3.676  48.283   8.243  1.00  0.00     0.000 C 
BRANCH   5   6
ATOM      6  C   UNL     1       3.745  49.506   7.316  1.00  0.00     0.000 C 
BRANCH   6   7
ATOM      7  C   UNL     1       2.554  50.443   7.561  1.00  0.00     0.000 C 
BRANCH   7   8
ATOM      8  C   UNL     1       1.421  49.777   8.363  1.00  0.00     0.000 C 
BRANCH   8   9
ATOM      9  C   UNL     1       0.032  49.824   7.698  1.00  0.00     0.000 C 
BRANCH   9  10
ATOM     10  C   UNL     1      -0.687  48.467   7.572  1.00  0.00     0.006 C 
BRANCH  10  11
ATOM     11  C   UNL     1       0.265  47.261   7.472  1.00  0.00     0.053 C 
BRANCH  11  12
ATOM     12  C   UNL     1      -0.078  46.173   8.445  1.00  0.00     0.041 C 
ATOM     13  O   UNL     1      -0.936  46.373   9.344  1.00  0.00    -0.550 OA
ATOM     14  O   UNL     1       0.522  44.924   8.334  1.00  0.00    -0.550 OA
ENDBRANCH  11  12
ENDBRANCH  10  11
ENDBRANCH   9  10
ENDBRANCH   8   9
ENDBRANCH   7   8
ENDBRANCH   6   7
ENDBRANCH   5   6
ENDBRANCH   4   5
ENDBRANCH   3   4
ENDBRANCH   2   3
ENDBRANCH   1   2
BRANCH   1  15
ATOM     15  C   UNL     1       3.961  44.785  11.634  1.00  0.00     0.000 C 
BRANCH  15  16
ATOM     16  C   UNL     1       3.189  43.966  12.676  1.00  0.00     0.000 C 
BRANCH  16  17
ATOM     17  C   UNL     1       2.178  43.029  11.999  1.00  0.00     0.000 C 
BRANCH  17  18
ATOM     18  C   UNL     1       0.829  42.979  12.735  1.00  0.00    -0.000 C 
BRANCH  18  19
ATOM     19  C   UNL     1       0.763  41.847  13.775  1.00  0.00    -0.000 C 
BRANCH  19  20
ATOM     20  C   UNL     1      -0.669  41.590  14.274  1.00  0.00    -0.000 C 
BRANCH  20  21
ATOM     21  C   UNL     1      -1.124  40.140  14.036  1.00  0.00    -0.000 C 
BRANCH  21  22
ATOM     22  C   UNL     1       0.055  39.161  13.893  1.00  0.00    -0.000 C 
BRANCH  22  23
ATOM     23  C   UNL     1      -0.201  38.030  12.874  1.00  0.00    -0.000 C 
BRANCH  23  24
ATOM     24  C   UNL     1       1.100  37.323  12.456  1.00  0.00    -0.000 C 
BRANCH  24  25
ATOM     25  C   UNL     1       0.851  35.921  11.878  1.00  0.00    -0.003 C 
ATOM     26  C   UNL     1      -0.583  35.438  12.094  1.00  0.00     0.004 C 
ENDBRANCH  24  25
ENDBRANCH  23  24
ENDBRANCH  22  23
ENDBRANCH  21  22
ENDBRANCH  20  21
ENDBRANCH  19  20
ENDBRANCH  18  19
ENDBRANCH  17  18
ENDBRANCH  16  17
ENDBRANCH  15  16
ENDBRANCH   1  15
TORSDOF 22
ENDMDL
MODEL 9
REMARK VINA RESULT:    -3.418      2.632      8.126
REMARK INTER + INTRA:         -10.333
REMARK INTER:                  -7.962
REMARK INTRA:                  -2.370
REMARK UNBOUND:                -2.518
REMARK SMILES CCCCCCCCCCCCCCCCCCCCCCCC(=O)[O-]
REMARK SMILES IDX 13 1 14 2 15 3 16 4 17 5 18 6 19 7 20 8 21 9 22 10 23 11
REMARK SMILES IDX 24 12 25 13 26 14 12 15 11 16 10 17 9 18 8 19 7 20 6 21 5 22
REMARK SMILES IDX 4 23 3 24 2 25 1 26
REMARK H PARENT
REMARK Flexibility Score: inf
ROOT
ATOM      1  C   UNL     1       1.187  43.657   8.848  1.00  0.00     0.000 C 
ENDROOT
BRANCH   1   2
ATOM      2  C   UNL     1       0.971  45.176   8.722  1.00  0.00     0.000 C 
BRANCH   2   3
ATOM      3  C   UNL     1      -0.026  45.608   7.631  1.00  0.00     0.000 C 
BRANCH   3   4
ATOM      4  C   UNL     1       0.154  47.074   7.200  1.00  0.00     0.000 C 
BRANCH   4   5
ATOM      5  C   UNL     1       0.035  48.053   8.380  1.00  0.00     0.000 C 
BRANCH   5   6
ATOM      6  C   UNL     1       0.242  49.516   7.959  1.00  0.00     0.000 C 
BRANCH   6   7
ATOM      7  C   UNL     1       1.565  50.062   8.516  1.00  0.00     0.000 C 
BRANCH   7   8
ATOM      8  C   UNL     1       2.611  50.334   7.420  1.00  0.00     0.000 C 
BRANCH   8   9
ATOM      9  C   UNL     1       3.898  49.492   7.519  1.00  0.00     0.000 C 
BRANCH   9  10
ATOM     10  C   UNL     1       3.703  48.039   7.993  1.00  0.00     0.006 C 
BRANCH  10  11
ATOM     11  C   UNL     1       4.848  47.509   8.876  1.00  0.00     0.053 C 
BRANCH  11  12
ATOM     12  C   UNL     1       4.355  46.849  10.128  1.00  0.00     0.041 C 
ATOM     13  O   UNL     1       3.121  46.796  10.373  1.00  0.00    -0.550 OA
ATOM     14  O   UNL     1       5.256  46.257  11.005  1.00  0.00    -0.550 OA
ENDBRANCH  11  12
ENDBRANCH  10  11
ENDBRANCH   9  10
ENDBRANCH   8   9
ENDBRANCH   7   8
ENDBRANCH   6   7
ENDBRANCH   5   6
ENDBRANCH   4   5
ENDBRANCH   3   4
ENDBRANCH   2   3
ENDBRANCH   1   2
BRANCH   1  15
ATOM     15  C   UNL     1       2.664  43.248   8.732  1.00  0.00     0.000 C 
BRANCH  15  16
ATOM     16  C   UNL     1       3.110  42.446   9.960  1.00  0.00     0.000 C 
BRANCH  16  17
ATOM     17  C   UNL     1       4.068  43.268  10.835  1.00  0.00     0.000 C 
BRANCH  17  18
ATOM     18  C   UNL     1       3.544  43.465  12.267  1.00  0.00    -0.000 C 
BRANCH  18  19
ATOM     19  C   UNL     1       2.068  43.898  12.303  1.00  0.00    -0.000 C 
BRANCH  19  20
ATOM     20  C   UNL     1       1.142  42.783  12.818  1.00  0.00    -0.000 C 
BRANCH  20  21
ATOM     21  C   UNL     1      -0.326  43.234  12.916  1.00  0.00    -0.000 C 
BRANCH  21  22
ATOM     22  C   UNL     1      -1.107  42.485  14.010  1.00  0.00    -0.000 C 
BRANCH  22  23
ATOM     23  C   UNL     1      -0.237  42.061  15.212  1.00  0.00    -0.000 C 
BRANCH  23  24
ATOM     24  C   UNL     1      -0.408  40.570  15.553  1.00  0.00    -0.000 C 
BRANCH  24  25
ATOM     25  C   UNL     1      -0.893  39.742  14.353  1.00  0.00    -0.003 C 
ATOM     26  C   UNL     1       0.252  39.062  13.601  1.00  0.00     0.004 C 
ENDBRANCH  24  25
ENDBRANCH  23  24
ENDBRANCH  22  23
ENDBRANCH  21  22
ENDBRANCH  20  21
ENDBRANCH  19  20
ENDBRANCH  18  19
ENDBRANCH  17  18
ENDBRANCH  16  17
ENDBRANCH  15  16
ENDBRANCH   1  15
TORSDOF 22
ENDMDL
