MODEL 1
REMARK VINA RESULT:    30.475      0.000      0.000
REMARK INTER + INTRA:          78.809
REMARK INTER:                  80.358
REMARK INTRA:                  -1.549
REMARK UNBOUND:                -1.549
REMARK SMILES CCCCCCCCCCCCCCCCCCCCCCCCCCCCCC(=O)[O-]
REMARK SMILES IDX 16 1 17 2 18 3 19 4 20 5 21 6 22 7 23 8 24 9 25 10 26 11
REMARK SMILES IDX 27 12 28 13 29 14 30 15 31 16 32 17 15 18 14 19 13 20 12 21
REMARK SMILES IDX 11 22 10 23 9 24 8 25 7 26 6 27 5 28 4 29 3 30 2 31 1 32
REMARK H PARENT
REMARK Flexibility Score: inf
ROOT
ATOM      1  C   UNL     1     -14.132  -7.233 -21.747  1.00  0.00     0.000 C 
ENDROOT
BRANCH   1   2
ATOM      2  C   UNL     1     -13.175  -8.427 -21.901  1.00  0.00     0.000 C 
BRANCH   2   3
ATOM      3  C   UNL     1     -11.916  -8.293 -21.030  1.00  0.00     0.000 C 
BRANCH   3   4
ATOM      4  C   UNL     1     -10.728  -7.686 -21.791  1.00  0.00     0.000 C 
BRANCH   4   5
ATOM      5  C   UNL     1     -10.173  -6.458 -21.053  1.00  0.00     0.000 C 
BRANCH   5   6
ATOM      6  C   UNL     1      -9.674  -5.358 -22.008  1.00  0.00     0.000 C 
BRANCH   6   7
ATOM      7  C   UNL     1      -9.810  -3.920 -21.476  1.00  0.00     0.000 C 
BRANCH   7   8
ATOM      8  C   UNL     1      -8.680  -3.533 -20.506  1.00  0.00     0.000 C 
BRANCH   8   9
ATOM      9  C   UNL     1      -8.437  -2.014 -20.446  1.00  0.00     0.000 C 
BRANCH   9  10
ATOM     10  C   UNL     1      -9.662  -1.134 -20.763  1.00  0.00     0.000 C 
BRANCH  10  11
ATOM     11  C   UNL     1      -9.345   0.333 -21.099  1.00  0.00     0.000 C 
BRANCH  11  12
ATOM     12  C   UNL     1      -8.696   0.500 -22.480  1.00  0.00     0.000 C 
BRANCH  12  13
ATOM     13  C   UNL     1      -9.575   1.365 -23.396  1.00  0.00     0.006 C 
BRANCH  13  14
ATOM     14  C   UNL     1      -8.745   2.287 -24.299  1.00  0.00     0.053 C 
BRANCH  14  15
ATOM     15  C   UNL     1      -9.561   2.845 -25.425  1.00  0.00     0.041 C 
ATOM     16  O   UNL     1     -10.273   2.082 -26.129  1.00  0.00    -0.550 OA
ATOM     17  O   UNL     1      -9.514   4.203 -25.711  1.00  0.00    -0.550 OA
ENDBRANCH  14  15
ENDBRANCH  13  14
ENDBRANCH  12  13
ENDBRANCH  11  12
ENDBRANCH  10  11
ENDBRANCH   9  10
ENDBRANCH   8   9
ENDBRANCH   7   8
ENDBRANCH   6   7
ENDBRANCH   5   6
ENDBRANCH   4   5
ENDBRANCH   3   4
ENDBRANCH   2   3
ENDBRANCH   1   2
BRANCH   1  18
ATOM     18  C   UNL     1     -15.395  -7.426 -22.600  1.00  0.00     0.000 C 
BRANCH  18  19
ATOM     19  C   UNL     1     -16.404  -6.276 -22.440  1.00  0.00     0.000 C 
BRANCH  19  20
ATOM     20  C   UNL     1     -17.414  -6.206 -23.598  1.00  0.00     0.000 C 
BRANCH  20  21
ATOM     21  C   UNL     1     -16.745  -5.922 -24.954  1.00  0.00     0.000 C 
BRANCH  21  22
ATOM     22  C   UNL     1     -17.725  -5.938 -26.145  1.00  0.00     0.000 C 
BRANCH  22  23
ATOM     23  C   UNL     1     -18.380  -7.315 -26.340  1.00  0.00     0.000 C 
BRANCH  23  24
ATOM     24  C   UNL     1     -18.917  -7.527 -27.766  1.00  0.00    -0.000 C 
BRANCH  24  25
ATOM     25  C   UNL     1     -17.862  -7.270 -28.864  1.00  0.00    -0.000 C 
BRANCH  25  26
ATOM     26  C   UNL     1     -17.237  -8.577 -29.387  1.00  0.00    -0.000 C 
BRANCH  26  27
ATOM     27  C   UNL     1     -18.253  -9.475 -30.109  1.00  0.00    -0.000 C 
BRANCH  27  28
ATOM     28  C   UNL     1     -17.697 -10.878 -30.410  1.00  0.00    -0.000 C 
BRANCH  28  29
ATOM     29  C   UNL     1     -16.411 -11.191 -29.624  1.00  0.00    -0.000 C 
BRANCH  29  30
ATOM     30  C   UNL     1     -15.155 -11.431 -30.486  1.00  0.00    -0.000 C 
BRANCH  30  31
ATOM     31  C   UNL     1     -13.952 -10.534 -30.144  1.00  0.00    -0.003 C 
ATOM     32  C   UNL     1     -14.008  -9.980 -28.720  1.00  0.00     0.004 C 
ENDBRANCH  30  31
ENDBRANCH  29  30
ENDBRANCH  28  29
ENDBRANCH  27  28
ENDBRANCH  26  27
ENDBRANCH  25  26
ENDBRANCH  24  25
ENDBRANCH  23  24
ENDBRANCH  22  23
ENDBRANCH  21  22
ENDBRANCH  20  21
ENDBRANCH  19  20
ENDBRANCH  18  19
ENDBRANCH   1  18
TORSDOF 28
ENDMDL
MODEL 2
REMARK VINA RESULT:    30.677      4.912     10.274
REMARK INTER + INTRA:          79.343
REMARK INTER:                  80.225
REMARK INTRA:                  -0.882
REMARK UNBOUND:                -1.549
REMARK SMILES CCCCCCCCCCCCCCCCCCCCCCCCCCCCCC(=O)[O-]
REMARK SMILES IDX 16 1 17 2 18 3 19 4 20 5 21 6 22 7 23 8 24 9 25 10 26 11
REMARK SMILES IDX 27 12 28 13 29 14 30 15 31 16 32 17 15 18 14 19 13 20 12 21
REMARK SMILES IDX 11 22 10 23 9 24 8 25 7 26 6 27 5 28 4 29 3 30 2 31 1 32
REMARK H PARENT
REMARK Flexibility Score: inf
ROOT
ATOM      1  C   UNL     1      -8.061  -1.898 -20.072  1.00  0.00     0.000 C 
ENDROOT
BRANCH   1   2
ATOM      2  C   UNL     1      -8.876  -3.201 -20.118  1.00  0.00     0.000 C 
BRANCH   2   3
ATOM      3  C   UNL     1      -8.972  -3.790 -21.535  1.00  0.00     0.000 C 
BRANCH   3   4
ATOM      4  C   UNL     1     -10.124  -4.795 -21.684  1.00  0.00     0.000 C 
BRANCH   4   5
ATOM      5  C   UNL     1      -9.645  -6.226 -21.396  1.00  0.00     0.000 C 
BRANCH   5   6
ATOM      6  C   UNL     1     -10.802  -7.205 -21.131  1.00  0.00     0.000 C 
BRANCH   6   7
ATOM      7  C   UNL     1     -10.986  -8.303 -22.195  1.00  0.00     0.000 C 
BRANCH   7   8
ATOM      8  C   UNL     1     -12.441  -8.427 -22.679  1.00  0.00     0.000 C 
BRANCH   8   9
ATOM      9  C   UNL     1     -13.461  -8.375 -21.526  1.00  0.00     0.000 C 
BRANCH   9  10
ATOM     10  C   UNL     1     -14.657  -7.426 -21.743  1.00  0.00     0.000 C 
BRANCH  10  11
ATOM     11  C   UNL     1     -15.617  -7.833 -22.874  1.00  0.00     0.000 C 
BRANCH  11  12
ATOM     12  C   UNL     1     -16.129  -6.633 -23.682  1.00  0.00     0.000 C 
BRANCH  12  13
ATOM     13  C   UNL     1     -16.677  -5.540 -22.751  1.00  0.00     0.006 C 
BRANCH  13  14
ATOM     14  C   UNL     1     -17.491  -6.121 -21.587  1.00  0.00     0.053 C 
BRANCH  14  15
ATOM     15  C   UNL     1     -17.650  -5.134 -20.472  1.00  0.00     0.041 C 
ATOM     16  O   UNL     1     -18.045  -3.963 -20.715  1.00  0.00    -0.550 OA
ATOM     17  O   UNL     1     -17.337  -5.499 -19.169  1.00  0.00    -0.550 OA
ENDBRANCH  14  15
ENDBRANCH  13  14
ENDBRANCH  12  13
ENDBRANCH  11  12
ENDBRANCH  10  11
ENDBRANCH   9  10
ENDBRANCH   8   9
ENDBRANCH   7   8
ENDBRANCH   6   7
ENDBRANCH   5   6
ENDBRANCH   4   5
ENDBRANCH   3   4
ENDBRANCH   2   3
ENDBRANCH   1   2
BRANCH   1  18
ATOM     18  C   UNL     1      -8.980  -0.670 -20.167  1.00  0.00     0.000 C 
BRANCH  18  19
ATOM     19  C   UNL     1      -8.959  -0.016 -21.559  1.00  0.00     0.000 C 
BRANCH  19  20
ATOM     20  C   UNL     1      -9.670   1.348 -21.585  1.00  0.00     0.000 C 
BRANCH  20  21
ATOM     21  C   UNL     1      -9.722   1.965 -22.993  1.00  0.00     0.000 C 
BRANCH  21  22
ATOM     22  C   UNL     1     -10.140   3.450 -23.006  1.00  0.00     0.000 C 
BRANCH  22  23
ATOM     23  C   UNL     1     -10.312   3.992 -24.434  1.00  0.00     0.000 C 
BRANCH  23  24
ATOM     24  C   UNL     1      -9.168   3.576 -25.374  1.00  0.00    -0.000 C 
BRANCH  24  25
ATOM     25  C   UNL     1      -9.415   2.227 -26.085  1.00  0.00    -0.000 C 
BRANCH  25  26
ATOM     26  C   UNL     1     -10.408   2.359 -27.254  1.00  0.00    -0.000 C 
BRANCH  26  27
ATOM     27  C   UNL     1     -11.194   1.064 -27.516  1.00  0.00    -0.000 C 
BRANCH  27  28
ATOM     28  C   UNL     1     -10.345  -0.200 -27.298  1.00  0.00    -0.000 C 
BRANCH  28  29
ATOM     29  C   UNL     1     -10.989  -1.463 -27.896  1.00  0.00    -0.000 C 
BRANCH  29  30
ATOM     30  C   UNL     1     -10.057  -2.326 -28.770  1.00  0.00    -0.000 C 
BRANCH  30  31
ATOM     31  C   UNL     1      -9.513  -3.592 -28.084  1.00  0.00    -0.003 C 
ATOM     32  C   UNL     1      -7.997  -3.738 -28.219  1.00  0.00     0.004 C 
ENDBRANCH  30  31
ENDBRANCH  29  30
ENDBRANCH  28  29
ENDBRANCH  27  28
ENDBRANCH  26  27
ENDBRANCH  25  26
ENDBRANCH  24  25
ENDBRANCH  23  24
ENDBRANCH  22  23
ENDBRANCH  21  22
ENDBRANCH  20  21
ENDBRANCH  19  20
ENDBRANCH  18  19
ENDBRANCH   1  18
TORSDOF 28
ENDMDL
MODEL 3
REMARK VINA RESULT:    30.758      3.598     12.171
REMARK INTER + INTRA:          79.557
REMARK INTER:                  80.865
REMARK INTRA:                  -1.308
REMARK UNBOUND:                -1.549
REMARK SMILES CCCCCCCCCCCCCCCCCCCCCCCCCCCCCC(=O)[O-]
REMARK SMILES IDX 16 1 17 2 18 3 19 4 20 5 21 6 22 7 23 8 24 9 25 10 26 11
REMARK SMILES IDX 27 12 28 13 29 14 30 15 31 16 32 17 15 18 14 19 13 20 12 21
REMARK SMILES IDX 11 22 10 23 9 24 8 25 7 26 6 27 5 28 4 29 3 30 2 31 1 32
REMARK H PARENT
REMARK Flexibility Score: inf
ROOT
ATOM      1  C   UNL     1     -15.133  -7.135 -22.059  1.00  0.00     0.000 C 
ENDROOT
BRANCH   1   2
ATOM      2  C   UNL     1     -16.133  -6.788 -20.944  1.00  0.00     0.000 C 
BRANCH   2   3
ATOM      3  C   UNL     1     -17.236  -5.827 -21.415  1.00  0.00     0.000 C 
BRANCH   3   4
ATOM      4  C   UNL     1     -16.764  -4.880 -22.529  1.00  0.00     0.000 C 
BRANCH   4   5
ATOM      5  C   UNL     1     -17.556  -5.117 -23.824  1.00  0.00     0.000 C 
BRANCH   5   6
ATOM      6  C   UNL     1     -16.744  -5.867 -24.896  1.00  0.00     0.000 C 
BRANCH   6   7
ATOM      7  C   UNL     1     -17.521  -6.952 -25.664  1.00  0.00     0.000 C 
BRANCH   7   8
ATOM      8  C   UNL     1     -17.710  -6.609 -27.151  1.00  0.00     0.000 C 
BRANCH   8   9
ATOM      9  C   UNL     1     -18.876  -7.379 -27.799  1.00  0.00     0.000 C 
BRANCH   9  10
ATOM     10  C   UNL     1     -18.599  -7.937 -29.209  1.00  0.00     0.000 C 
BRANCH  10  11
ATOM     11  C   UNL     1     -18.738  -9.462 -29.347  1.00  0.00     0.000 C 
BRANCH  11  12
ATOM     12  C   UNL     1     -18.122 -10.002 -30.645  1.00  0.00     0.000 C 
BRANCH  12  13
ATOM     13  C   UNL     1     -16.843 -10.800 -30.353  1.00  0.00     0.006 C 
BRANCH  13  14
ATOM     14  C   UNL     1     -15.577  -9.943 -30.487  1.00  0.00     0.053 C 
BRANCH  14  15
ATOM     15  C   UNL     1     -14.438 -10.505 -29.694  1.00  0.00     0.041 C 
ATOM     16  O   UNL     1     -13.897 -11.587 -30.043  1.00  0.00    -0.550 OA
ATOM     17  O   UNL     1     -13.992  -9.848 -28.555  1.00  0.00    -0.550 OA
ENDBRANCH  14  15
ENDBRANCH  13  14
ENDBRANCH  12  13
ENDBRANCH  11  12
ENDBRANCH  10  11
ENDBRANCH   9  10
ENDBRANCH   8   9
ENDBRANCH   7   8
ENDBRANCH   6   7
ENDBRANCH   5   6
ENDBRANCH   4   5
ENDBRANCH   3   4
ENDBRANCH   2   3
ENDBRANCH   1   2
BRANCH   1  18
ATOM     18  C   UNL     1     -14.171  -8.246 -21.611  1.00  0.00     0.000 C 
BRANCH  18  19
ATOM     19  C   UNL     1     -12.732  -8.025 -22.105  1.00  0.00     0.000 C 
BRANCH  19  20
ATOM     20  C   UNL     1     -11.745  -7.750 -20.959  1.00  0.00     0.000 C 
BRANCH  20  21
ATOM     21  C   UNL     1     -10.342  -7.369 -21.460  1.00  0.00     0.000 C 
BRANCH  21  22
ATOM     22  C   UNL     1      -9.816  -6.037 -20.885  1.00  0.00     0.000 C 
BRANCH  22  23
ATOM     23  C   UNL     1      -9.607  -4.976 -21.977  1.00  0.00     0.000 C 
BRANCH  23  24
ATOM     24  C   UNL     1      -9.040  -3.656 -21.429  1.00  0.00    -0.000 C 
BRANCH  24  25
ATOM     25  C   UNL     1      -9.817  -3.112 -20.210  1.00  0.00    -0.000 C 
BRANCH  25  26
ATOM     26  C   UNL     1     -10.270  -1.654 -20.411  1.00  0.00    -0.000 C 
BRANCH  26  27
ATOM     27  C   UNL     1      -9.119  -0.647 -20.250  1.00  0.00    -0.000 C 
BRANCH  27  28
ATOM     28  C   UNL     1      -8.596  -0.125 -21.599  1.00  0.00    -0.000 C 
BRANCH  28  29
ATOM     29  C   UNL     1      -9.427   1.050 -22.147  1.00  0.00    -0.000 C 
BRANCH  29  30
ATOM     30  C   UNL     1      -9.271   1.318 -23.658  1.00  0.00    -0.000 C 
BRANCH  30  31
ATOM     31  C   UNL     1      -9.805   2.680 -24.134  1.00  0.00    -0.003 C 
ATOM     32  C   UNL     1      -9.575   2.921 -25.626  1.00  0.00     0.004 C 
ENDBRANCH  30  31
ENDBRANCH  29  30
ENDBRANCH  28  29
ENDBRANCH  27  28
ENDBRANCH  26  27
ENDBRANCH  25  26
ENDBRANCH  24  25
ENDBRANCH  23  24
ENDBRANCH  22  23
ENDBRANCH  21  22
ENDBRANCH  20  21
ENDBRANCH  19  20
ENDBRANCH  18  19
ENDBRANCH   1  18
TORSDOF 28
ENDMDL
MODEL 4
REMARK VINA RESULT:    30.922      6.783     10.380
REMARK INTER + INTRA:          79.987
REMARK INTER:                  80.311
REMARK INTRA:                  -0.324
REMARK UNBOUND:                -1.549
REMARK SMILES CCCCCCCCCCCCCCCCCCCCCCCCCCCCCC(=O)[O-]
REMARK SMILES IDX 16 1 17 2 18 3 19 4 20 5 21 6 22 7 23 8 24 9 25 10 26 11
REMARK SMILES IDX 27 12 28 13 29 14 30 15 31 16 32 17 15 18 14 19 13 20 12 21
REMARK SMILES IDX 11 22 10 23 9 24 8 25 7 26 6 27 5 28 4 29 3 30 2 31 1 32
REMARK H PARENT
REMARK Flexibility Score: inf
ROOT
ATOM      1  C   UNL     1      -9.650  -4.600 -20.871  1.00  0.00     0.000 C 
ENDROOT
BRANCH   1   2
ATOM      2  C   UNL     1      -8.351  -3.802 -21.061  1.00  0.00     0.000 C 
BRANCH   2   3
ATOM      3  C   UNL     1      -8.273  -2.569 -20.145  1.00  0.00     0.000 C 
BRANCH   3   4
ATOM      4  C   UNL     1      -9.276  -1.474 -20.537  1.00  0.00     0.000 C 
BRANCH   4   5
ATOM      5  C   UNL     1      -8.688  -0.076 -20.289  1.00  0.00     0.000 C 
BRANCH   5   6
ATOM      6  C   UNL     1      -9.409   1.028 -21.083  1.00  0.00     0.000 C 
BRANCH   6   7
ATOM      7  C   UNL     1      -9.120   1.041 -22.595  1.00  0.00     0.000 C 
BRANCH   7   8
ATOM      8  C   UNL     1      -9.527   2.363 -23.269  1.00  0.00     0.000 C 
BRANCH   8   9
ATOM      9  C   UNL     1      -8.717   2.658 -24.545  1.00  0.00     0.000 C 
BRANCH   9  10
ATOM     10  C   UNL     1      -9.458   3.471 -25.625  1.00  0.00     0.000 C 
BRANCH  10  11
ATOM     11  C   UNL     1      -9.805   2.692 -26.906  1.00  0.00     0.000 C 
BRANCH  11  12
ATOM     12  C   UNL     1     -10.832   1.577 -26.665  1.00  0.00     0.000 C 
BRANCH  12  13
ATOM     13  C   UNL     1     -10.857   0.593 -27.844  1.00  0.00     0.006 C 
BRANCH  13  14
ATOM     14  C   UNL     1      -9.823  -0.530 -27.688  1.00  0.00     0.053 C 
BRANCH  14  15
ATOM     15  C   UNL     1     -10.334  -1.835 -28.217  1.00  0.00     0.041 C 
ATOM     16  O   UNL     1      -9.577  -2.585 -28.887  1.00  0.00    -0.550 OA
ATOM     17  O   UNL     1     -11.652  -2.209 -27.991  1.00  0.00    -0.550 OA
ENDBRANCH  14  15
ENDBRANCH  13  14
ENDBRANCH  12  13
ENDBRANCH  11  12
ENDBRANCH  10  11
ENDBRANCH   9  10
ENDBRANCH   8   9
ENDBRANCH   7   8
ENDBRANCH   6   7
ENDBRANCH   5   6
ENDBRANCH   4   5
ENDBRANCH   3   4
ENDBRANCH   2   3
ENDBRANCH   1   2
BRANCH   1  18
ATOM     18  C   UNL     1      -9.710  -5.794 -21.835  1.00  0.00     0.000 C 
BRANCH  18  19
ATOM     19  C   UNL     1      -9.651  -7.150 -21.112  1.00  0.00     0.000 C 
BRANCH  19  20
ATOM     20  C   UNL     1      -8.219  -7.701 -20.996  1.00  0.00     0.000 C 
BRANCH  20  21
ATOM     21  C   UNL     1      -8.183  -9.226 -20.800  1.00  0.00     0.000 C 
BRANCH  21  22
ATOM     22  C   UNL     1      -7.363  -9.675 -19.572  1.00  0.00     0.000 C 
BRANCH  22  23
ATOM     23  C   UNL     1      -5.902  -9.987 -19.933  1.00  0.00     0.000 C 
BRANCH  23  24
ATOM     24  C   UNL     1      -5.717 -11.397 -20.517  1.00  0.00    -0.000 C 
BRANCH  24  25
ATOM     25  C   UNL     1      -4.336 -11.614 -21.174  1.00  0.00    -0.000 C 
BRANCH  25  26
ATOM     26  C   UNL     1      -4.170 -13.043 -21.722  1.00  0.00    -0.000 C 
BRANCH  26  27
ATOM     27  C   UNL     1      -3.664 -13.069 -23.173  1.00  0.00    -0.000 C 
BRANCH  27  28
ATOM     28  C   UNL     1      -2.814 -11.836 -23.527  1.00  0.00    -0.000 C 
BRANCH  28  29
ATOM     29  C   UNL     1      -2.106 -11.228 -22.302  1.00  0.00    -0.000 C 
BRANCH  29  30
ATOM     30  C   UNL     1      -1.367  -9.900 -22.562  1.00  0.00    -0.000 C 
BRANCH  30  31
ATOM     31  C   UNL     1      -2.108  -8.639 -22.082  1.00  0.00    -0.003 C 
ATOM     32  C   UNL     1      -2.576  -7.749 -23.233  1.00  0.00     0.004 C 
ENDBRANCH  30  31
ENDBRANCH  29  30
ENDBRANCH  28  29
ENDBRANCH  27  28
ENDBRANCH  26  27
ENDBRANCH  25  26
ENDBRANCH  24  25
ENDBRANCH  23  24
ENDBRANCH  22  23
ENDBRANCH  21  22
ENDBRANCH  20  21
ENDBRANCH  19  20
ENDBRANCH  18  19
ENDBRANCH   1  18
TORSDOF 28
ENDMDL
MODEL 5
REMARK VINA RESULT:    31.037      1.223      2.150
REMARK INTER + INTRA:          80.291
REMARK INTER:                  80.378
REMARK INTRA:                  -0.087
REMARK UNBOUND:                -1.549
REMARK SMILES CCCCCCCCCCCCCCCCCCCCCCCCCCCCCC(=O)[O-]
REMARK SMILES IDX 16 1 17 2 18 3 19 4 20 5 21 6 22 7 23 8 24 9 25 10 26 11
REMARK SMILES IDX 27 12 28 13 29 14 30 15 31 16 32 17 15 18 14 19 13 20 12 21
REMARK SMILES IDX 11 22 10 23 9 24 8 25 7 26 6 27 5 28 4 29 3 30 2 31 1 32
REMARK H PARENT
REMARK Flexibility Score: inf
ROOT
ATOM      1  C   UNL     1     -14.797  -6.971 -22.479  1.00  0.00     0.000 C 
ENDROOT
BRANCH   1   2
ATOM      2  C   UNL     1     -14.278  -8.319 -21.954  1.00  0.00     0.000 C 
BRANCH   2   3
ATOM      3  C   UNL     1     -13.125  -8.159 -20.949  1.00  0.00     0.000 C 
BRANCH   3   4
ATOM      4  C   UNL     1     -11.745  -8.166 -21.623  1.00  0.00     0.000 C 
BRANCH   4   5
ATOM      5  C   UNL     1     -11.290  -6.737 -21.958  1.00  0.00     0.000 C 
BRANCH   5   6
ATOM      6  C   UNL     1     -10.006  -6.325 -21.215  1.00  0.00     0.000 C 
BRANCH   6   7
ATOM      7  C   UNL     1      -9.431  -4.955 -21.615  1.00  0.00     0.000 C 
BRANCH   7   8
ATOM      8  C   UNL     1      -9.564  -3.903 -20.500  1.00  0.00     0.000 C 
BRANCH   8   9
ATOM      9  C   UNL     1      -8.896  -2.563 -20.858  1.00  0.00     0.000 C 
BRANCH   9  10
ATOM     10  C   UNL     1      -9.754  -1.307 -20.602  1.00  0.00     0.000 C 
BRANCH  10  11
ATOM     11  C   UNL     1      -9.087   0.027 -20.978  1.00  0.00     0.000 C 
BRANCH  11  12
ATOM     12  C   UNL     1      -8.795   0.144 -22.481  1.00  0.00     0.000 C 
BRANCH  12  13
ATOM     13  C   UNL     1      -9.486   1.379 -23.078  1.00  0.00     0.006 C 
BRANCH  13  14
ATOM     14  C   UNL     1      -8.601   2.103 -24.102  1.00  0.00     0.053 C 
BRANCH  14  15
ATOM     15  C   UNL     1      -9.394   2.591 -25.275  1.00  0.00     0.041 C 
ATOM     16  O   UNL     1      -9.794   1.780 -26.150  1.00  0.00    -0.550 OA
ATOM     17  O   UNL     1      -9.667   3.946 -25.415  1.00  0.00    -0.550 OA
ENDBRANCH  14  15
ENDBRANCH  13  14
ENDBRANCH  12  13
ENDBRANCH  11  12
ENDBRANCH  10  11
ENDBRANCH   9  10
ENDBRANCH   8   9
ENDBRANCH   7   8
ENDBRANCH   6   7
ENDBRANCH   5   6
ENDBRANCH   4   5
ENDBRANCH   3   4
ENDBRANCH   2   3
ENDBRANCH   1   2
BRANCH   1  18
ATOM     18  C   UNL     1     -15.998  -6.484 -21.655  1.00  0.00     0.000 C 
BRANCH  18  19
ATOM     19  C   UNL     1     -17.300  -6.426 -22.472  1.00  0.00     0.000 C 
BRANCH  19  20
ATOM     20  C   UNL     1     -17.115  -6.912 -23.919  1.00  0.00     0.000 C 
BRANCH  20  21
ATOM     21  C   UNL     1     -16.832  -5.763 -24.902  1.00  0.00     0.000 C 
BRANCH  21  22
ATOM     22  C   UNL     1     -15.528  -5.942 -25.708  1.00  0.00     0.000 C 
BRANCH  22  23
ATOM     23  C   UNL     1     -15.738  -6.797 -26.968  1.00  0.00     0.000 C 
BRANCH  23  24
ATOM     24  C   UNL     1     -14.630  -7.845 -27.171  1.00  0.00    -0.000 C 
BRANCH  24  25
ATOM     25  C   UNL     1     -14.947  -8.866 -28.285  1.00  0.00    -0.000 C 
BRANCH  25  26
ATOM     26  C   UNL     1     -13.672  -9.412 -28.954  1.00  0.00    -0.000 C 
BRANCH  26  27
ATOM     27  C   UNL     1     -13.950 -10.617 -29.868  1.00  0.00    -0.000 C 
BRANCH  27  28
ATOM     28  C   UNL     1     -15.453 -10.897 -30.041  1.00  0.00    -0.000 C 
BRANCH  28  29
ATOM     29  C   UNL     1     -16.011 -10.358 -31.370  1.00  0.00    -0.000 C 
BRANCH  29  30
ATOM     30  C   UNL     1     -17.472  -9.865 -31.318  1.00  0.00    -0.000 C 
BRANCH  30  31
ATOM     31  C   UNL     1     -18.303 -10.420 -30.147  1.00  0.00    -0.003 C 
ATOM     32  C   UNL     1     -17.796 -11.772 -29.645  1.00  0.00     0.004 C 
ENDBRANCH  30  31
ENDBRANCH  29  30
ENDBRANCH  28  29
ENDBRANCH  27  28
ENDBRANCH  26  27
ENDBRANCH  25  26
ENDBRANCH  24  25
ENDBRANCH  23  24
ENDBRANCH  22  23
ENDBRANCH  21  22
ENDBRANCH  20  21
ENDBRANCH  19  20
ENDBRANCH  18  19
ENDBRANCH   1  18
TORSDOF 28
ENDMDL
MODEL 6
REMARK VINA RESULT:    31.079      8.233     10.754
REMARK INTER + INTRA:          80.401
REMARK INTER:                  79.810
REMARK INTRA:                   0.592
REMARK UNBOUND:                -1.549
REMARK SMILES CCCCCCCCCCCCCCCCCCCCCCCCCCCCCC(=O)[O-]
REMARK SMILES IDX 16 1 17 2 18 3 19 4 20 5 21 6 22 7 23 8 24 9 25 10 26 11
REMARK SMILES IDX 27 12 28 13 29 14 30 15 31 16 32 17 15 18 14 19 13 20 12 21
REMARK SMILES IDX 11 22 10 23 9 24 8 25 7 26 6 27 5 28 4 29 3 30 2 31 1 32
REMARK H PARENT
REMARK Flexibility Score: inf
ROOT
ATOM      1  C   UNL     1      -6.192  -3.861 -18.013  1.00  0.00     0.000 C 
ENDROOT
BRANCH   1   2
ATOM      2  C   UNL     1      -6.206  -2.527 -18.776  1.00  0.00     0.000 C 
BRANCH   2   3
ATOM      3  C   UNL     1      -7.405  -2.403 -19.730  1.00  0.00     0.000 C 
BRANCH   3   4
ATOM      4  C   UNL     1      -8.217  -3.702 -19.836  1.00  0.00     0.000 C 
BRANCH   4   5
ATOM      5  C   UNL     1      -9.109  -3.691 -21.087  1.00  0.00     0.000 C 
BRANCH   5   6
ATOM      6  C   UNL     1      -9.690  -2.300 -21.399  1.00  0.00     0.000 C 
BRANCH   6   7
ATOM      7  C   UNL     1      -9.504  -1.249 -20.289  1.00  0.00     0.000 C 
BRANCH   7   8
ATOM      8  C   UNL     1      -8.946   0.083 -20.817  1.00  0.00     0.000 C 
BRANCH   8   9
ATOM      9  C   UNL     1      -8.985   0.182 -22.354  1.00  0.00     0.000 C 
BRANCH   9  10
ATOM     10  C   UNL     1      -9.333   1.574 -22.919  1.00  0.00     0.000 C 
BRANCH  10  11
ATOM     11  C   UNL     1      -8.416   2.066 -24.052  1.00  0.00     0.000 C 
BRANCH  11  12
ATOM     12  C   UNL     1      -8.971   1.746 -25.447  1.00  0.00     0.000 C 
BRANCH  12  13
ATOM     13  C   UNL     1      -9.787   2.927 -25.995  1.00  0.00     0.006 C 
BRANCH  13  14
ATOM     14  C   UNL     1      -9.668   4.177 -25.113  1.00  0.00     0.053 C 
BRANCH  14  15
ATOM     15  C   UNL     1     -10.881   4.371 -24.256  1.00  0.00     0.041 C 
ATOM     16  O   UNL     1     -11.635   3.397 -23.997  1.00  0.00    -0.550 OA
ATOM     17  O   UNL     1     -11.192   5.632 -23.766  1.00  0.00    -0.550 OA
ENDBRANCH  14  15
ENDBRANCH  13  14
ENDBRANCH  12  13
ENDBRANCH  11  12
ENDBRANCH  10  11
ENDBRANCH   9  10
ENDBRANCH   8   9
ENDBRANCH   7   8
ENDBRANCH   6   7
ENDBRANCH   5   6
ENDBRANCH   4   5
ENDBRANCH   3   4
ENDBRANCH   2   3
ENDBRANCH   1   2
BRANCH   1  18
ATOM     18  C   UNL     1      -6.839  -3.710 -16.628  1.00  0.00     0.000 C 
BRANCH  18  19
ATOM     19  C   UNL     1      -6.855  -5.024 -15.829  1.00  0.00     0.000 C 
BRANCH  19  20
ATOM     20  C   UNL     1      -5.622  -5.902 -16.105  1.00  0.00     0.000 C 
BRANCH  20  21
ATOM     21  C   UNL     1      -5.871  -7.389 -15.801  1.00  0.00     0.000 C 
BRANCH  21  22
ATOM     22  C   UNL     1      -6.623  -8.135 -16.924  1.00  0.00     0.000 C 
BRANCH  22  23
ATOM     23  C   UNL     1      -6.017  -9.519 -17.207  1.00  0.00     0.000 C 
BRANCH  23  24
ATOM     24  C   UNL     1      -6.214  -9.972 -18.663  1.00  0.00    -0.000 C 
BRANCH  24  25
ATOM     25  C   UNL     1      -5.298 -11.147 -19.071  1.00  0.00    -0.000 C 
BRANCH  25  26
ATOM     26  C   UNL     1      -4.916 -11.097 -20.561  1.00  0.00    -0.000 C 
BRANCH  26  27
ATOM     27  C   UNL     1      -4.382 -12.441 -21.084  1.00  0.00    -0.000 C 
BRANCH  27  28
ATOM     28  C   UNL     1      -3.318 -12.270 -22.182  1.00  0.00    -0.000 C 
BRANCH  28  29
ATOM     29  C   UNL     1      -2.295 -11.167 -21.855  1.00  0.00    -0.000 C 
BRANCH  29  30
ATOM     30  C   UNL     1      -2.201 -10.029 -22.892  1.00  0.00    -0.000 C 
BRANCH  30  31
ATOM     31  C   UNL     1      -2.243  -8.608 -22.303  1.00  0.00    -0.003 C 
ATOM     32  C   UNL     1      -1.292  -7.643 -23.009  1.00  0.00     0.004 C 
ENDBRANCH  30  31
ENDBRANCH  29  30
ENDBRANCH  28  29
ENDBRANCH  27  28
ENDBRANCH  26  27
ENDBRANCH  25  26
ENDBRANCH  24  25
ENDBRANCH  23  24
ENDBRANCH  22  23
ENDBRANCH  21  22
ENDBRANCH  20  21
ENDBRANCH  19  20
ENDBRANCH  18  19
ENDBRANCH   1  18
TORSDOF 28
ENDMDL
MODEL 7
REMARK VINA RESULT:    31.232      3.940      7.237
REMARK INTER + INTRA:          80.807
REMARK INTER:                  81.765
REMARK INTRA:                  -0.959
REMARK UNBOUND:                -1.549
REMARK SMILES CCCCCCCCCCCCCCCCCCCCCCCCCCCCCC(=O)[O-]
REMARK SMILES IDX 16 1 17 2 18 3 19 4 20 5 21 6 22 7 23 8 24 9 25 10 26 11
REMARK SMILES IDX 27 12 28 13 29 14 30 15 31 16 32 17 15 18 14 19 13 20 12 21
REMARK SMILES IDX 11 22 10 23 9 24 8 25 7 26 6 27 5 28 4 29 3 30 2 31 1 32
REMARK H PARENT
REMARK Flexibility Score: inf
ROOT
ATOM      1  C   UNL     1     -10.039  -4.021 -20.794  1.00  0.00     0.000 C 
ENDROOT
BRANCH   1   2
ATOM      2  C   UNL     1      -8.895  -3.058 -20.441  1.00  0.00     0.000 C 
BRANCH   2   3
ATOM      3  C   UNL     1      -8.922  -1.771 -21.282  1.00  0.00     0.000 C 
BRANCH   3   4
ATOM      4  C   UNL     1      -9.374  -0.544 -20.476  1.00  0.00     0.000 C 
BRANCH   4   5
ATOM      5  C   UNL     1      -9.033   0.757 -21.220  1.00  0.00     0.000 C 
BRANCH   5   6
ATOM      6  C   UNL     1      -9.362   0.694 -22.722  1.00  0.00     0.000 C 
BRANCH   6   7
ATOM      7  C   UNL     1      -8.974   1.946 -23.530  1.00  0.00     0.000 C 
BRANCH   7   8
ATOM      8  C   UNL     1     -10.186   2.818 -23.897  1.00  0.00     0.000 C 
BRANCH   8   9
ATOM      9  C   UNL     1      -9.883   3.819 -25.028  1.00  0.00     0.000 C 
BRANCH   9  10
ATOM     10  C   UNL     1      -9.747   3.206 -26.436  1.00  0.00     0.000 C 
BRANCH  10  11
ATOM     11  C   UNL     1      -9.767   1.668 -26.483  1.00  0.00     0.000 C 
BRANCH  11  12
ATOM     12  C   UNL     1     -10.802   1.116 -27.472  1.00  0.00     0.000 C 
BRANCH  12  13
ATOM     13  C   UNL     1     -10.926  -0.409 -27.339  1.00  0.00     0.006 C 
BRANCH  13  14
ATOM     14  C   UNL     1      -9.681  -1.142 -27.856  1.00  0.00     0.053 C 
BRANCH  14  15
ATOM     15  C   UNL     1     -10.013  -2.510 -28.368  1.00  0.00     0.041 C 
ATOM     16  O   UNL     1      -9.241  -3.477 -28.134  1.00  0.00    -0.550 OA
ATOM     17  O   UNL     1     -11.159  -2.711 -29.126  1.00  0.00    -0.550 OA
ENDBRANCH  14  15
ENDBRANCH  13  14
ENDBRANCH  12  13
ENDBRANCH  11  12
ENDBRANCH  10  11
ENDBRANCH   9  10
ENDBRANCH   8   9
ENDBRANCH   7   8
ENDBRANCH   6   7
ENDBRANCH   5   6
ENDBRANCH   4   5
ENDBRANCH   3   4
ENDBRANCH   2   3
ENDBRANCH   1   2
BRANCH   1  18
ATOM     18  C   UNL     1      -9.620  -4.989 -21.911  1.00  0.00     0.000 C 
BRANCH  18  19
ATOM     19  C   UNL     1      -9.285  -6.395 -21.387  1.00  0.00     0.000 C 
BRANCH  19  20
ATOM     20  C   UNL     1     -10.510  -7.324 -21.353  1.00  0.00     0.000 C 
BRANCH  20  21
ATOM     21  C   UNL     1     -10.718  -8.084 -22.674  1.00  0.00     0.000 C 
BRANCH  21  22
ATOM     22  C   UNL     1     -12.000  -8.942 -22.702  1.00  0.00     0.000 C 
BRANCH  22  23
ATOM     23  C   UNL     1     -12.894  -8.691 -21.477  1.00  0.00     0.000 C 
BRANCH  23  24
ATOM     24  C   UNL     1     -14.387  -8.599 -21.833  1.00  0.00    -0.000 C 
BRANCH  24  25
ATOM     25  C   UNL     1     -14.791  -7.238 -22.440  1.00  0.00    -0.000 C 
BRANCH  25  26
ATOM     26  C   UNL     1     -15.921  -7.375 -23.478  1.00  0.00    -0.000 C 
BRANCH  26  27
ATOM     27  C   UNL     1     -16.041  -6.146 -24.392  1.00  0.00    -0.000 C 
BRANCH  27  28
ATOM     28  C   UNL     1     -17.502  -5.774 -24.697  1.00  0.00    -0.000 C 
BRANCH  28  29
ATOM     29  C   UNL     1     -18.250  -5.233 -23.465  1.00  0.00    -0.000 C 
BRANCH  29  30
ATOM     30  C   UNL     1     -18.256  -6.167 -22.237  1.00  0.00    -0.000 C 
BRANCH  30  31
ATOM     31  C   UNL     1     -17.626  -5.572 -20.966  1.00  0.00    -0.003 C 
ATOM     32  C   UNL     1     -17.026  -4.184 -21.192  1.00  0.00     0.004 C 
ENDBRANCH  30  31
ENDBRANCH  29  30
ENDBRANCH  28  29
ENDBRANCH  27  28
ENDBRANCH  26  27
ENDBRANCH  25  26
ENDBRANCH  24  25
ENDBRANCH  23  24
ENDBRANCH  22  23
ENDBRANCH  21  22
ENDBRANCH  20  21
ENDBRANCH  19  20
ENDBRANCH  18  19
ENDBRANCH   1  18
TORSDOF 28
ENDMDL
MODEL 8
REMARK VINA RESULT:    31.295      5.163     10.497
REMARK INTER + INTRA:          80.971
REMARK INTER:                  81.916
REMARK INTRA:                  -0.944
REMARK UNBOUND:                -1.549
REMARK SMILES CCCCCCCCCCCCCCCCCCCCCCCCCCCCCC(=O)[O-]
REMARK SMILES IDX 16 1 17 2 18 3 19 4 20 5 21 6 22 7 23 8 24 9 25 10 26 11
REMARK SMILES IDX 27 12 28 13 29 14 30 15 31 16 32 17 15 18 14 19 13 20 12 21
REMARK SMILES IDX 11 22 10 23 9 24 8 25 7 26 6 27 5 28 4 29 3 30 2 31 1 32
REMARK H PARENT
REMARK Flexibility Score: inf
ROOT
ATOM      1  C   UNL     1      -6.374  -1.379 -19.165  1.00  0.00     0.000 C 
ENDROOT
BRANCH   1   2
ATOM      2  C   UNL     1      -5.998  -2.838 -19.469  1.00  0.00     0.000 C 
BRANCH   2   3
ATOM      3  C   UNL     1      -7.221  -3.768 -19.510  1.00  0.00     0.000 C 
BRANCH   3   4
ATOM      4  C   UNL     1      -7.809  -3.916 -20.922  1.00  0.00     0.000 C 
BRANCH   4   5
ATOM      5  C   UNL     1      -9.326  -3.673 -20.913  1.00  0.00     0.000 C 
BRANCH   5   6
ATOM      6  C   UNL     1     -10.115  -4.776 -21.641  1.00  0.00     0.000 C 
BRANCH   6   7
ATOM      7  C   UNL     1      -9.762  -6.216 -21.225  1.00  0.00     0.000 C 
BRANCH   7   8
ATOM      8  C   UNL     1      -9.933  -7.227 -22.372  1.00  0.00     0.000 C 
BRANCH   8   9
ATOM      9  C   UNL     1     -11.054  -8.248 -22.108  1.00  0.00     0.000 C 
BRANCH   9  10
ATOM     10  C   UNL     1     -12.324  -7.680 -21.443  1.00  0.00     0.000 C 
BRANCH  10  11
ATOM     11  C   UNL     1     -13.635  -8.387 -21.826  1.00  0.00     0.000 C 
BRANCH  11  12
ATOM     12  C   UNL     1     -14.870  -7.494 -21.642  1.00  0.00     0.000 C 
BRANCH  12  13
ATOM     13  C   UNL     1     -15.590  -7.275 -22.981  1.00  0.00     0.006 C 
BRANCH  13  14
ATOM     14  C   UNL     1     -16.446  -6.001 -22.981  1.00  0.00     0.053 C 
BRANCH  14  15
ATOM     15  C   UNL     1     -17.394  -5.968 -21.822  1.00  0.00     0.041 C 
ATOM     16  O   UNL     1     -18.623  -6.168 -22.006  1.00  0.00    -0.550 OA
ATOM     17  O   UNL     1     -16.924  -5.691 -20.546  1.00  0.00    -0.550 OA
ENDBRANCH  14  15
ENDBRANCH  13  14
ENDBRANCH  12  13
ENDBRANCH  11  12
ENDBRANCH  10  11
ENDBRANCH   9  10
ENDBRANCH   8   9
ENDBRANCH   7   8
ENDBRANCH   6   7
ENDBRANCH   5   6
ENDBRANCH   4   5
ENDBRANCH   3   4
ENDBRANCH   2   3
ENDBRANCH   1   2
BRANCH   1  18
ATOM     18  C   UNL     1      -7.882  -1.148 -19.349  1.00  0.00     0.000 C 
BRANCH  18  19
ATOM     19  C   UNL     1      -8.207   0.238 -19.931  1.00  0.00     0.000 C 
BRANCH  19  20
ATOM     20  C   UNL     1      -9.259   0.180 -21.051  1.00  0.00     0.000 C 
BRANCH  20  21
ATOM     21  C   UNL     1      -9.185   1.389 -21.999  1.00  0.00     0.000 C 
BRANCH  21  22
ATOM     22  C   UNL     1      -9.095   1.004 -23.491  1.00  0.00     0.000 C 
BRANCH  22  23
ATOM     23  C   UNL     1      -8.571   2.160 -24.358  1.00  0.00     0.000 C 
BRANCH  23  24
ATOM     24  C   UNL     1      -9.488   3.395 -24.325  1.00  0.00    -0.000 C 
BRANCH  24  25
ATOM     25  C   UNL     1      -9.760   3.995 -25.722  1.00  0.00    -0.000 C 
BRANCH  25  26
ATOM     26  C   UNL     1      -9.555   2.965 -26.848  1.00  0.00    -0.000 C 
BRANCH  26  27
ATOM     27  C   UNL     1     -10.806   2.111 -27.108  1.00  0.00    -0.000 C 
BRANCH  27  28
ATOM     28  C   UNL     1     -10.587   0.623 -26.781  1.00  0.00    -0.000 C 
BRANCH  28  29
ATOM     29  C   UNL     1     -10.432  -0.249 -28.040  1.00  0.00    -0.000 C 
BRANCH  29  30
ATOM     30  C   UNL     1     -10.769  -1.742 -27.851  1.00  0.00    -0.000 C 
BRANCH  30  31
ATOM     31  C   UNL     1     -10.241  -2.671 -28.958  1.00  0.00    -0.003 C 
ATOM     32  C   UNL     1      -9.113  -3.585 -28.481  1.00  0.00     0.004 C 
ENDBRANCH  30  31
ENDBRANCH  29  30
ENDBRANCH  28  29
ENDBRANCH  27  28
ENDBRANCH  26  27
ENDBRANCH  25  26
ENDBRANCH  24  25
ENDBRANCH  23  24
ENDBRANCH  22  23
ENDBRANCH  21  22
ENDBRANCH  20  21
ENDBRANCH  19  20
ENDBRANCH  18  19
ENDBRANCH   1  18
TORSDOF 28
ENDMDL
MODEL 9
REMARK VINA RESULT:    31.603      4.081     12.186
REMARK INTER + INTRA:          81.785
REMARK INTER:                  83.291
REMARK INTRA:                  -1.506
REMARK UNBOUND:                -1.549
REMARK SMILES CCCCCCCCCCCCCCCCCCCCCCCCCCCCCC(=O)[O-]
REMARK SMILES IDX 16 1 17 2 18 3 19 4 20 5 21 6 22 7 23 8 24 9 25 10 26 11
REMARK SMILES IDX 27 12 28 13 29 14 30 15 31 16 32 17 15 18 14 19 13 20 12 21
REMARK SMILES IDX 11 22 10 23 9 24 8 25 7 26 6 27 5 28 4 29 3 30 2 31 1 32
REMARK H PARENT
REMARK Flexibility Score: inf
ROOT
ATOM      1  C   UNL     1     -17.073  -6.731 -23.975  1.00  0.00     0.000 C 
ENDROOT
BRANCH   1   2
ATOM      2  C   UNL     1     -16.342  -6.072 -25.155  1.00  0.00     0.000 C 
BRANCH   2   3
ATOM      3  C   UNL     1     -16.996  -6.391 -26.510  1.00  0.00     0.000 C 
BRANCH   3   4
ATOM      4  C   UNL     1     -18.524  -6.249 -26.480  1.00  0.00     0.000 C 
BRANCH   4   5
ATOM      5  C   UNL     1     -19.178  -7.110 -27.572  1.00  0.00     0.000 C 
BRANCH   5   6
ATOM      6  C   UNL     1     -18.156  -7.716 -28.551  1.00  0.00     0.000 C 
BRANCH   6   7
ATOM      7  C   UNL     1     -18.760  -8.552 -29.693  1.00  0.00     0.000 C 
BRANCH   7   8
ATOM      8  C   UNL     1     -17.779  -8.768 -30.858  1.00  0.00     0.000 C 
BRANCH   8   9
ATOM      9  C   UNL     1     -17.978 -10.122 -31.566  1.00  0.00     0.000 C 
BRANCH   9  10
ATOM     10  C   UNL     1     -17.022 -11.247 -31.122  1.00  0.00     0.000 C 
BRANCH  10  11
ATOM     11  C   UNL     1     -17.196 -11.716 -29.668  1.00  0.00     0.000 C 
BRANCH  11  12
ATOM     12  C   UNL     1     -15.937 -11.499 -28.817  1.00  0.00     0.000 C 
BRANCH  12  13
ATOM     13  C   UNL     1     -15.464 -10.040 -28.901  1.00  0.00     0.006 C 
BRANCH  13  14
ATOM     14  C   UNL     1     -13.957  -9.930 -29.169  1.00  0.00     0.053 C 
BRANCH  14  15
ATOM     15  C   UNL     1     -13.558 -10.665 -30.412  1.00  0.00     0.041 C 
ATOM     16  O   UNL     1     -14.170 -10.458 -31.493  1.00  0.00    -0.550 OA
ATOM     17  O   UNL     1     -12.529 -11.596 -30.370  1.00  0.00    -0.550 OA
ENDBRANCH  14  15
ENDBRANCH  13  14
ENDBRANCH  12  13
ENDBRANCH  11  12
ENDBRANCH  10  11
ENDBRANCH   9  10
ENDBRANCH   8   9
ENDBRANCH   7   8
ENDBRANCH   6   7
ENDBRANCH   5   6
ENDBRANCH   4   5
ENDBRANCH   3   4
ENDBRANCH   2   3
ENDBRANCH   1   2
BRANCH   1  18
ATOM     18  C   UNL     1     -16.870  -5.926 -22.682  1.00  0.00     0.000 C 
BRANCH  18  19
ATOM     19  C   UNL     1     -16.010  -6.667 -21.645  1.00  0.00     0.000 C 
BRANCH  19  20
ATOM     20  C   UNL     1     -14.872  -7.477 -22.287  1.00  0.00     0.000 C 
BRANCH  20  21
ATOM     21  C   UNL     1     -13.822  -7.942 -21.264  1.00  0.00     0.000 C 
BRANCH  21  22
ATOM     22  C   UNL     1     -12.742  -8.871 -21.858  1.00  0.00     0.000 C 
BRANCH  22  23
ATOM     23  C   UNL     1     -11.543  -8.085 -22.413  1.00  0.00     0.000 C 
BRANCH  23  24
ATOM     24  C   UNL     1     -10.416  -7.907 -21.382  1.00  0.00    -0.000 C 
BRANCH  24  25
ATOM     25  C   UNL     1     -10.239  -6.447 -20.911  1.00  0.00    -0.000 C 
BRANCH  25  26
ATOM     26  C   UNL     1      -9.959  -5.487 -22.081  1.00  0.00    -0.000 C 
BRANCH  26  27
ATOM     27  C   UNL     1      -9.945  -4.012 -21.649  1.00  0.00    -0.000 C 
BRANCH  27  28
ATOM     28  C   UNL     1      -8.580  -3.569 -21.094  1.00  0.00    -0.000 C 
BRANCH  28  29
ATOM     29  C   UNL     1      -8.695  -2.822 -19.752  1.00  0.00    -0.000 C 
BRANCH  29  30
ATOM     30  C   UNL     1      -9.215  -1.374 -19.849  1.00  0.00    -0.000 C 
BRANCH  30  31
ATOM     31  C   UNL     1      -8.942  -0.674 -21.192  1.00  0.00    -0.003 C 
ATOM     32  C   UNL     1      -9.278   0.817 -21.166  1.00  0.00     0.004 C 
ENDBRANCH  30  31
ENDBRANCH  29  30
ENDBRANCH  28  29
ENDBRANCH  27  28
ENDBRANCH  26  27
ENDBRANCH  25  26
ENDBRANCH  24  25
ENDBRANCH  23  24
ENDBRANCH  22  23
ENDBRANCH  21  22
ENDBRANCH  20  21
ENDBRANCH  19  20
ENDBRANCH  18  19
ENDBRANCH   1  18
TORSDOF 28
ENDMDL
