MODEL 1
REMARK VINA RESULT:     6.342      0.000      0.000
REMARK INTER + INTRA:          12.543
REMARK INTER:                  13.758
REMARK INTRA:                  -1.214
REMARK UNBOUND:                -1.214
REMARK SMILES CCCCCCCCCCCCCCCCCCCCCC(=O)[O-]
REMARK SMILES IDX 12 1 11 2 10 3 9 4 8 5 7 6 6 7 5 8 4 9 3 10 2 11 1 12 13 13
REMARK SMILES IDX 14 14 15 15 16 16 17 17 18 18 19 19 20 20 21 21 22 22 23 23
REMARK SMILES IDX 24 24
REMARK H PARENT
REMARK Flexibility Score: inf
ROOT
ATOM      1  C   UNL     1       2.456  44.426  12.410  1.00  0.00     0.000 C 
ENDROOT
BRANCH   1   2
ATOM      2  C   UNL     1       2.739  44.661  10.917  1.00  0.00     0.000 C 
BRANCH   2   3
ATOM      3  C   UNL     1       3.394  43.444  10.240  1.00  0.00     0.000 C 
BRANCH   3   4
ATOM      4  C   UNL     1       4.928  43.544  10.199  1.00  0.00    -0.000 C 
BRANCH   4   5
ATOM      5  C   UNL     1       5.422  45.002  10.183  1.00  0.00    -0.000 C 
BRANCH   5   6
ATOM      6  C   UNL     1       6.938  45.115   9.949  1.00  0.00    -0.000 C 
BRANCH   6   7
ATOM      7  C   UNL     1       7.707  43.778   9.925  1.00  0.00    -0.000 C 
BRANCH   7   8
ATOM      8  C   UNL     1       8.312  43.334  11.274  1.00  0.00    -0.000 C 
BRANCH   8   9
ATOM      9  C   UNL     1       7.771  41.993  11.807  1.00  0.00    -0.000 C 
BRANCH   9  10
ATOM     10  C   UNL     1       7.932  41.833  13.336  1.00  0.00    -0.000 C 
BRANCH  10  11
ATOM     11  C   UNL     1       6.721  42.349  14.131  1.00  0.00    -0.003 C 
ATOM     12  C   UNL     1       5.892  43.367  13.350  1.00  0.00     0.004 C 
ENDBRANCH  10  11
ENDBRANCH   9  10
ENDBRANCH   8   9
ENDBRANCH   7   8
ENDBRANCH   6   7
ENDBRANCH   5   6
ENDBRANCH   4   5
ENDBRANCH   3   4
ENDBRANCH   2   3
ENDBRANCH   1   2
BRANCH   1  13
ATOM     13  C   UNL     1       0.993  44.031  12.677  1.00  0.00     0.000 C 
BRANCH  13  14
ATOM     14  C   UNL     1       0.369  44.836  13.829  1.00  0.00     0.000 C 
BRANCH  14  15
ATOM     15  C   UNL     1      -1.157  44.977  13.697  1.00  0.00     0.000 C 
BRANCH  15  16
ATOM     16  C   UNL     1      -1.901  44.662  15.007  1.00  0.00     0.000 C 
BRANCH  16  17
ATOM     17  C   UNL     1      -2.004  43.165  15.351  1.00  0.00     0.000 C 
BRANCH  17  18
ATOM     18  C   UNL     1      -3.261  42.498  14.771  1.00  0.00     0.000 C 
BRANCH  18  19
ATOM     19  C   UNL     1      -2.922  41.424  13.714  1.00  0.00     0.000 C 
BRANCH  19  20
ATOM     20  C   UNL     1      -1.547  41.623  13.047  1.00  0.00     0.006 C 
BRANCH  20  21
ATOM     21  C   UNL     1      -1.616  41.976  11.554  1.00  0.00     0.053 C 
BRANCH  21  22
ATOM     22  C   UNL     1      -0.455  41.415  10.787  1.00  0.00     0.041 C 
ATOM     23  O   UNL     1       0.349  42.186  10.199  1.00  0.00    -0.550 OA
ATOM     24  O   UNL     1      -0.265  40.042  10.716  1.00  0.00    -0.550 OA
ENDBRANCH  21  22
ENDBRANCH  20  21
ENDBRANCH  19  20
ENDBRANCH  18  19
ENDBRANCH  17  18
ENDBRANCH  16  17
ENDBRANCH  15  16
ENDBRANCH  14  15
ENDBRANCH  13  14
ENDBRANCH   1  13
TORSDOF 20
ENDMDL
MODEL 2
REMARK VINA RESULT:     7.288      2.695      3.538
REMARK INTER + INTRA:          14.594
REMARK INTER:                  14.894
REMARK INTRA:                  -0.300
REMARK UNBOUND:                -1.214
REMARK SMILES CCCCCCCCCCCCCCCCCCCCCC(=O)[O-]
REMARK SMILES IDX 12 1 11 2 10 3 9 4 8 5 7 6 6 7 5 8 4 9 3 10 2 11 1 12 13 13
REMARK SMILES IDX 14 14 15 15 16 16 17 17 18 18 19 19 20 20 21 21 22 22 23 23
REMARK SMILES IDX 24 24
REMARK H PARENT
REMARK Flexibility Score: inf
ROOT
ATOM      1  C   UNL     1       0.727  42.806  11.875  1.00  0.00     0.000 C 
ENDROOT
BRANCH   1   2
ATOM      2  C   UNL     1       0.969  42.839  10.356  1.00  0.00     0.000 C 
BRANCH   2   3
ATOM      3  C   UNL     1       2.423  43.191   9.997  1.00  0.00     0.000 C 
BRANCH   3   4
ATOM      4  C   UNL     1       2.652  44.707   9.875  1.00  0.00    -0.000 C 
BRANCH   4   5
ATOM      5  C   UNL     1       4.079  45.121  10.275  1.00  0.00    -0.000 C 
BRANCH   5   6
ATOM      6  C   UNL     1       4.600  44.353  11.503  1.00  0.00    -0.000 C 
BRANCH   6   7
ATOM      7  C   UNL     1       6.065  44.642  11.893  1.00  0.00    -0.000 C 
BRANCH   7   8
ATOM      8  C   UNL     1       7.064  44.711  10.719  1.00  0.00    -0.000 C 
BRANCH   8   9
ATOM      9  C   UNL     1       8.064  43.540  10.662  1.00  0.00    -0.000 C 
BRANCH   9  10
ATOM     10  C   UNL     1       8.611  43.135  12.049  1.00  0.00    -0.000 C 
BRANCH  10  11
ATOM     11  C   UNL     1       7.808  42.004  12.712  1.00  0.00    -0.003 C 
ATOM     12  C   UNL     1       6.816  42.517  13.754  1.00  0.00     0.004 C 
ENDBRANCH  10  11
ENDBRANCH   9  10
ENDBRANCH   8   9
ENDBRANCH   7   8
ENDBRANCH   6   7
ENDBRANCH   5   6
ENDBRANCH   4   5
ENDBRANCH   3   4
ENDBRANCH   2   3
ENDBRANCH   1   2
BRANCH   1  13
ATOM     13  C   UNL     1       1.489  43.919  12.616  1.00  0.00     0.000 C 
BRANCH  13  14
ATOM     14  C   UNL     1       0.593  45.124  12.947  1.00  0.00     0.000 C 
BRANCH  14  15
ATOM     15  C   UNL     1       0.112  45.123  14.408  1.00  0.00     0.000 C 
BRANCH  15  16
ATOM     16  C   UNL     1      -1.419  45.020  14.532  1.00  0.00     0.000 C 
BRANCH  16  17
ATOM     17  C   UNL     1      -2.033  43.735  13.947  1.00  0.00     0.000 C 
BRANCH  17  18
ATOM     18  C   UNL     1      -2.684  42.839  15.013  1.00  0.00     0.000 C 
BRANCH  18  19
ATOM     19  C   UNL     1      -2.748  41.359  14.578  1.00  0.00     0.000 C 
BRANCH  19  20
ATOM     20  C   UNL     1      -4.130  40.926  14.052  1.00  0.00     0.006 C 
BRANCH  20  21
ATOM     21  C   UNL     1      -5.302  41.311  14.966  1.00  0.00     0.053 C 
BRANCH  21  22
ATOM     22  C   UNL     1      -5.998  40.108  15.531  1.00  0.00     0.041 C 
ATOM     23  O   UNL     1      -5.444  38.978  15.491  1.00  0.00    -0.550 OA
ATOM     24  O   UNL     1      -7.259  40.234  16.097  1.00  0.00    -0.550 OA
ENDBRANCH  21  22
ENDBRANCH  20  21
ENDBRANCH  19  20
ENDBRANCH  18  19
ENDBRANCH  17  18
ENDBRANCH  16  17
ENDBRANCH  15  16
ENDBRANCH  14  15
ENDBRANCH  13  14
ENDBRANCH   1  13
TORSDOF 20
ENDMDL
MODEL 3
REMARK VINA RESULT:     7.729      2.806      9.080
REMARK INTER + INTRA:          15.551
REMARK INTER:                  15.947
REMARK INTRA:                  -0.396
REMARK UNBOUND:                -1.214
REMARK SMILES CCCCCCCCCCCCCCCCCCCCCC(=O)[O-]
REMARK SMILES IDX 12 1 11 2 10 3 9 4 8 5 7 6 6 7 5 8 4 9 3 10 2 11 1 12 13 13
REMARK SMILES IDX 14 14 15 15 16 16 17 17 18 18 19 19 20 20 21 21 22 22 23 23
REMARK SMILES IDX 24 24
REMARK H PARENT
REMARK Flexibility Score: inf
ROOT
ATOM      1  C   UNL     1      -0.195  42.949  12.234  1.00  0.00     0.000 C 
ENDROOT
BRANCH   1   2
ATOM      2  C   UNL     1       0.721  43.997  12.890  1.00  0.00     0.000 C 
BRANCH   2   3
ATOM      3  C   UNL     1      -0.069  45.118  13.589  1.00  0.00     0.000 C 
BRANCH   3   4
ATOM      4  C   UNL     1      -0.735  44.648  14.893  1.00  0.00    -0.000 C 
BRANCH   4   5
ATOM      5  C   UNL     1      -2.260  44.856  14.883  1.00  0.00    -0.000 C 
BRANCH   5   6
ATOM      6  C   UNL     1      -3.040  43.539  14.724  1.00  0.00    -0.000 C 
BRANCH   6   7
ATOM      7  C   UNL     1      -2.232  42.253  14.998  1.00  0.00    -0.000 C 
BRANCH   7   8
ATOM      8  C   UNL     1      -2.991  40.930  14.767  1.00  0.00    -0.000 C 
BRANCH   8   9
ATOM      9  C   UNL     1      -4.525  41.048  14.859  1.00  0.00    -0.000 C 
BRANCH   9  10
ATOM     10  C   UNL     1      -5.239  39.681  14.961  1.00  0.00    -0.000 C 
BRANCH  10  11
ATOM     11  C   UNL     1      -6.598  39.757  15.677  1.00  0.00    -0.003 C 
ATOM     12  C   UNL     1      -7.154  41.179  15.737  1.00  0.00     0.004 C 
ENDBRANCH  10  11
ENDBRANCH   9  10
ENDBRANCH   8   9
ENDBRANCH   7   8
ENDBRANCH   6   7
ENDBRANCH   5   6
ENDBRANCH   4   5
ENDBRANCH   3   4
ENDBRANCH   2   3
ENDBRANCH   1   2
BRANCH   1  13
ATOM     13  C   UNL     1       0.533  42.121  11.162  1.00  0.00     0.000 C 
BRANCH  13  14
ATOM     14  C   UNL     1       0.823  42.932   9.889  1.00  0.00     0.000 C 
BRANCH  14  15
ATOM     15  C   UNL     1       2.240  43.531   9.875  1.00  0.00     0.000 C 
BRANCH  15  16
ATOM     16  C   UNL     1       2.842  43.673  11.285  1.00  0.00     0.000 C 
BRANCH  16  17
ATOM     17  C   UNL     1       4.020  44.658  11.392  1.00  0.00     0.000 C 
BRANCH  17  18
ATOM     18  C   UNL     1       4.715  44.914  10.044  1.00  0.00     0.000 C 
BRANCH  18  19
ATOM     19  C   UNL     1       6.202  44.499  10.062  1.00  0.00     0.000 C 
BRANCH  19  20
ATOM     20  C   UNL     1       6.430  43.024  10.444  1.00  0.00     0.006 C 
BRANCH  20  21
ATOM     21  C   UNL     1       7.664  42.784  11.325  1.00  0.00     0.053 C 
BRANCH  21  22
ATOM     22  C   UNL     1       7.294  42.452  12.740  1.00  0.00     0.041 C 
ATOM     23  O   UNL     1       8.141  41.931  13.512  1.00  0.00    -0.550 OA
ATOM     24  O   UNL     1       6.011  42.712  13.204  1.00  0.00    -0.550 OA
ENDBRANCH  21  22
ENDBRANCH  20  21
ENDBRANCH  19  20
ENDBRANCH  18  19
ENDBRANCH  17  18
ENDBRANCH  16  17
ENDBRANCH  15  16
ENDBRANCH  14  15
ENDBRANCH  13  14
ENDBRANCH   1  13
TORSDOF 20
ENDMDL
MODEL 4
REMARK VINA RESULT:     8.109      2.269      8.511
REMARK INTER + INTRA:          16.375
REMARK INTER:                  15.793
REMARK INTRA:                   0.582
REMARK UNBOUND:                -1.214
REMARK SMILES CCCCCCCCCCCCCCCCCCCCCC(=O)[O-]
REMARK SMILES IDX 12 1 11 2 10 3 9 4 8 5 7 6 6 7 5 8 4 9 3 10 2 11 1 12 13 13
REMARK SMILES IDX 14 14 15 15 16 16 17 17 18 18 19 19 20 20 21 21 22 22 23 23
REMARK SMILES IDX 24 24
REMARK H PARENT
REMARK Flexibility Score: inf
ROOT
ATOM      1  C   UNL     1       2.299  44.942  12.728  1.00  0.00     0.000 C 
ENDROOT
BRANCH   1   2
ATOM      2  C   UNL     1       1.254  45.114  13.843  1.00  0.00     0.000 C 
BRANCH   2   3
ATOM      3  C   UNL     1      -0.134  44.589  13.438  1.00  0.00     0.000 C 
BRANCH   3   4
ATOM      4  C   UNL     1      -0.967  44.124  14.644  1.00  0.00    -0.000 C 
BRANCH   4   5
ATOM      5  C   UNL     1      -2.399  44.686  14.623  1.00  0.00    -0.000 C 
BRANCH   5   6
ATOM      6  C   UNL     1      -3.472  43.593  14.766  1.00  0.00    -0.000 C 
BRANCH   6   7
ATOM      7  C   UNL     1      -2.976  42.250  15.343  1.00  0.00    -0.000 C 
BRANCH   7   8
ATOM      8  C   UNL     1      -2.075  41.417  14.407  1.00  0.00    -0.000 C 
BRANCH   8   9
ATOM      9  C   UNL     1      -2.307  41.670  12.905  1.00  0.00    -0.000 C 
BRANCH   9  10
ATOM     10  C   UNL     1      -1.253  40.991  12.000  1.00  0.00    -0.000 C 
BRANCH  10  11
ATOM     11  C   UNL     1      -0.182  41.963  11.480  1.00  0.00    -0.003 C 
ATOM     12  C   UNL     1      -0.119  42.010   9.954  1.00  0.00     0.004 C 
ENDBRANCH  10  11
ENDBRANCH   9  10
ENDBRANCH   8   9
ENDBRANCH   7   8
ENDBRANCH   6   7
ENDBRANCH   5   6
ENDBRANCH   4   5
ENDBRANCH   3   4
ENDBRANCH   2   3
ENDBRANCH   1   2
BRANCH   1  13
ATOM     13  C   UNL     1       1.722  44.248  11.482  1.00  0.00     0.000 C 
BRANCH  13  14
ATOM     14  C   UNL     1       2.647  43.145  10.942  1.00  0.00     0.000 C 
BRANCH  14  15
ATOM     15  C   UNL     1       3.628  43.661   9.876  1.00  0.00     0.000 C 
BRANCH  15  16
ATOM     16  C   UNL     1       5.079  43.736  10.385  1.00  0.00     0.000 C 
BRANCH  16  17
ATOM     17  C   UNL     1       5.781  45.086  10.148  1.00  0.00     0.000 C 
BRANCH  17  18
ATOM     18  C   UNL     1       7.278  45.056  10.496  1.00  0.00     0.000 C 
BRANCH  18  19
ATOM     19  C   UNL     1       7.979  43.786   9.969  1.00  0.00     0.000 C 
BRANCH  19  20
ATOM     20  C   UNL     1       8.228  42.720  11.053  1.00  0.00     0.006 C 
BRANCH  20  21
ATOM     21  C   UNL     1       8.190  43.260  12.490  1.00  0.00     0.053 C 
BRANCH  21  22
ATOM     22  C   UNL     1       7.112  42.613  13.309  1.00  0.00     0.041 C 
ATOM     23  O   UNL     1       5.968  43.135  13.377  1.00  0.00    -0.550 OA
ATOM     24  O   UNL     1       7.372  41.438  14.000  1.00  0.00    -0.550 OA
ENDBRANCH  21  22
ENDBRANCH  20  21
ENDBRANCH  19  20
ENDBRANCH  18  19
ENDBRANCH  17  18
ENDBRANCH  16  17
ENDBRANCH  15  16
ENDBRANCH  14  15
ENDBRANCH  13  14
ENDBRANCH   1  13
TORSDOF 20
ENDMDL
MODEL 5
REMARK VINA RESULT:     9.039      3.710     10.503
REMARK INTER + INTRA:          18.393
REMARK INTER:                  19.304
REMARK INTRA:                  -0.911
REMARK UNBOUND:                -1.214
REMARK SMILES CCCCCCCCCCCCCCCCCCCCCC(=O)[O-]
REMARK SMILES IDX 12 1 11 2 10 3 9 4 8 5 7 6 6 7 5 8 4 9 3 10 2 11 1 12 13 13
REMARK SMILES IDX 14 14 15 15 16 16 17 17 18 18 19 19 20 20 21 21 22 22 23 23
REMARK SMILES IDX 24 24
REMARK H PARENT
REMARK Flexibility Score: inf
ROOT
ATOM      1  C   UNL     1       0.139  43.702  13.679  1.00  0.00     0.000 C 
ENDROOT
BRANCH   1   2
ATOM      2  C   UNL     1      -1.138  44.547  13.829  1.00  0.00     0.000 C 
BRANCH   2   3
ATOM      3  C   UNL     1      -2.097  43.985  14.893  1.00  0.00     0.000 C 
BRANCH   3   4
ATOM      4  C   UNL     1      -2.514  42.533  14.606  1.00  0.00    -0.000 C 
BRANCH   4   5
ATOM      5  C   UNL     1      -4.015  42.293  14.848  1.00  0.00    -0.000 C 
BRANCH   5   6
ATOM      6  C   UNL     1      -4.469  40.884  14.429  1.00  0.00    -0.000 C 
BRANCH   6   7
ATOM      7  C   UNL     1      -4.774  39.914  15.590  1.00  0.00    -0.000 C 
BRANCH   7   8
ATOM      8  C   UNL     1      -6.228  39.403  15.664  1.00  0.00    -0.000 C 
BRANCH   8   9
ATOM      9  C   UNL     1      -7.292  40.444  15.266  1.00  0.00    -0.000 C 
BRANCH   9  10
ATOM     10  C   UNL     1      -8.497  40.487  16.233  1.00  0.00    -0.000 C 
BRANCH  10  11
ATOM     11  C   UNL     1      -9.834  40.143  15.554  1.00  0.00    -0.003 C 
ATOM     12  C   UNL     1     -10.288  38.712  15.836  1.00  0.00     0.004 C 
ENDBRANCH  10  11
ENDBRANCH   9  10
ENDBRANCH   8   9
ENDBRANCH   7   8
ENDBRANCH   6   7
ENDBRANCH   5   6
ENDBRANCH   4   5
ENDBRANCH   3   4
ENDBRANCH   2   3
ENDBRANCH   1   2
BRANCH   1  13
ATOM     13  C   UNL     1       0.962  44.094  12.440  1.00  0.00     0.000 C 
BRANCH  13  14
ATOM     14  C   UNL     1       0.874  43.045  11.320  1.00  0.00     0.000 C 
BRANCH  14  15
ATOM     15  C   UNL     1       2.209  42.849  10.582  1.00  0.00     0.000 C 
BRANCH  15  16
ATOM     16  C   UNL     1       2.846  44.179  10.136  1.00  0.00     0.000 C 
BRANCH  16  17
ATOM     17  C   UNL     1       4.283  44.410  10.638  1.00  0.00     0.000 C 
BRANCH  17  18
ATOM     18  C   UNL     1       4.505  43.920  12.078  1.00  0.00     0.000 C 
BRANCH  18  19
ATOM     19  C   UNL     1       5.966  44.103  12.543  1.00  0.00     0.000 C 
BRANCH  19  20
ATOM     20  C   UNL     1       6.526  42.896  13.319  1.00  0.00     0.006 C 
BRANCH  20  21
ATOM     21  C   UNL     1       7.779  42.269  12.692  1.00  0.00     0.053 C 
BRANCH  21  22
ATOM     22  C   UNL     1       7.766  42.355  11.194  1.00  0.00     0.041 C 
ATOM     23  O   UNL     1       7.301  41.407  10.509  1.00  0.00    -0.550 OA
ATOM     24  O   UNL     1       8.272  43.479  10.556  1.00  0.00    -0.550 OA
ENDBRANCH  21  22
ENDBRANCH  20  21
ENDBRANCH  19  20
ENDBRANCH  18  19
ENDBRANCH  17  18
ENDBRANCH  16  17
ENDBRANCH  15  16
ENDBRANCH  14  15
ENDBRANCH  13  14
ENDBRANCH   1  13
TORSDOF 20
ENDMDL
