MODEL 1
REMARK VINA RESULT:     3.215      0.000      0.000
REMARK INTER + INTRA:           4.638
REMARK INTER:                   3.779
REMARK INTRA:                   0.858
REMARK UNBOUND:                 0.858
REMARK SMILES O=C([O-])C=Cc1ccc(O)c(O)c1
REMARK SMILES IDX 6 1 13 2 7 3 11 4 8 5 9 6 5 7 4 8 2 9 1 10 3 11 12 12 10 14
REMARK H PARENT 12 13 10 15
REMARK Flexibility Score: inf
ROOT
ATOM      1  C   UNL     1      -8.702  -6.722  22.127  1.00  0.00    -0.022 A 
ATOM      2  C   UNL     1      -7.971  -5.544  21.895  1.00  0.00     0.058 A 
ATOM      3  C   UNL     1      -9.125  -7.493  21.035  1.00  0.00     0.012 A 
ATOM      4  C   UNL     1      -7.621  -5.170  20.589  1.00  0.00     0.157 A 
ATOM      5  C   UNL     1      -8.778  -7.122  19.733  1.00  0.00     0.051 A 
ATOM      6  C   UNL     1      -8.024  -5.967  19.504  1.00  0.00     0.157 A 
ENDROOT
BRANCH   1   7
ATOM      7  C   UNL     1      -9.125  -7.106  23.490  1.00  0.00     0.010 C 
ATOM      8  C   UNL     1      -8.789  -8.244  24.116  1.00  0.00     0.025 C 
BRANCH   8   9
ATOM      9  C   UNL     1      -8.094  -9.393  23.504  1.00  0.00     0.064 C 
ATOM     10  O   UNL     1      -8.362  -9.781  22.336  1.00  0.00    -0.545 OA
ATOM     11  O   UNL     1      -7.171 -10.106  24.259  1.00  0.00    -0.545 OA
ENDBRANCH   8   9
ENDBRANCH   1   7
BRANCH   4  12
ATOM     12  O   UNL     1      -6.882  -4.009  20.367  1.00  0.00    -0.504 OA
ATOM     13  H   UNL     1      -6.864  -3.556  19.461  1.00  0.00     0.293 HD
ENDBRANCH   4  12
BRANCH   6  14
ATOM     14  O   UNL     1      -7.689  -5.624  18.194  1.00  0.00    -0.504 OA
ATOM     15  H   UNL     1      -7.777  -6.280  17.427  1.00  0.00     0.293 HD
ENDBRANCH   6  14
TORSDOF 4
ENDMDL
MODEL 2
REMARK VINA RESULT:     3.262      1.142      5.152
REMARK INTER + INTRA:           4.693
REMARK INTER:                   4.269
REMARK INTRA:                   0.424
REMARK UNBOUND:                 0.858
REMARK SMILES O=C([O-])C=Cc1ccc(O)c(O)c1
REMARK SMILES IDX 6 1 13 2 7 3 11 4 8 5 9 6 5 7 4 8 2 9 1 10 3 11 12 12 10 14
REMARK H PARENT 12 13 10 15
REMARK Flexibility Score: inf
ROOT
ATOM      1  C   UNL     1      -8.888  -6.981  21.129  1.00  0.00    -0.022 A 
ATOM      2  C   UNL     1      -8.538  -8.323  21.362  1.00  0.00     0.058 A 
ATOM      3  C   UNL     1      -9.125  -6.135  22.222  1.00  0.00     0.012 A 
ATOM      4  C   UNL     1      -8.376  -8.797  22.672  1.00  0.00     0.157 A 
ATOM      5  C   UNL     1      -8.963  -6.606  23.527  1.00  0.00     0.051 A 
ATOM      6  C   UNL     1      -8.585  -7.932  23.759  1.00  0.00     0.157 A 
ENDROOT
BRANCH   1   7
ATOM      7  C   UNL     1      -9.115  -6.475  19.760  1.00  0.00     0.010 C 
ATOM      8  C   UNL     1      -8.340  -5.585  19.121  1.00  0.00     0.025 C 
BRANCH   8   9
ATOM      9  C   UNL     1      -7.232  -4.818  19.723  1.00  0.00     0.064 C 
ATOM     10  O   UNL     1      -6.522  -5.298  20.646  1.00  0.00    -0.545 OA
ATOM     11  O   UNL     1      -7.010  -3.511  19.309  1.00  0.00    -0.545 OA
ENDBRANCH   8   9
ENDBRANCH   1   7
BRANCH   4  12
ATOM     12  O   UNL     1      -8.013 -10.125  22.895  1.00  0.00    -0.504 OA
ATOM     13  H   UNL     1      -8.241 -10.599  23.762  1.00  0.00     0.293 HD
ENDBRANCH   4  12
BRANCH   6  14
ATOM     14  O   UNL     1      -8.428  -8.373  25.073  1.00  0.00    -0.504 OA
ATOM     15  H   UNL     1      -7.560  -8.253  25.580  1.00  0.00     0.293 HD
ENDBRANCH   6  14
TORSDOF 4
ENDMDL
MODEL 3
REMARK VINA RESULT:     3.762      1.457      4.798
REMARK INTER + INTRA:           5.280
REMARK INTER:                   5.326
REMARK INTRA:                  -0.046
REMARK UNBOUND:                 0.858
REMARK SMILES O=C([O-])C=Cc1ccc(O)c(O)c1
REMARK SMILES IDX 6 1 13 2 7 3 11 4 8 5 9 6 5 7 4 8 2 9 1 10 3 11 12 12 10 14
REMARK H PARENT 12 13 10 15
REMARK Flexibility Score: inf
ROOT
ATOM      1  C   UNL     1      -8.949  -7.277  21.402  1.00  0.00    -0.022 A 
ATOM      2  C   UNL     1      -9.047  -6.611  22.637  1.00  0.00     0.058 A 
ATOM      3  C   UNL     1      -8.579  -8.629  21.380  1.00  0.00     0.012 A 
ATOM      4  C   UNL     1      -8.828  -7.304  23.836  1.00  0.00     0.157 A 
ATOM      5  C   UNL     1      -8.360  -9.320  22.575  1.00  0.00     0.051 A 
ATOM      6  C   UNL     1      -8.487  -8.666  23.804  1.00  0.00     0.157 A 
ENDROOT
BRANCH   1   7
ATOM      7  C   UNL     1      -9.125  -6.554  20.125  1.00  0.00     0.010 C 
ATOM      8  C   UNL     1      -8.243  -5.697  19.590  1.00  0.00     0.025 C 
BRANCH   8   9
ATOM      9  C   UNL     1      -7.028  -5.182  20.253  1.00  0.00     0.064 C 
ATOM     10  O   UNL     1      -6.112  -5.954  20.642  1.00  0.00    -0.545 OA
ATOM     11  O   UNL     1      -6.925  -3.822  20.516  1.00  0.00    -0.545 OA
ENDBRANCH   8   9
ENDBRANCH   1   7
BRANCH   4  12
ATOM     12  O   UNL     1      -8.942  -6.641  25.058  1.00  0.00    -0.504 OA
ATOM     13  H   UNL     1      -8.376  -6.901  25.858  1.00  0.00     0.293 HD
ENDBRANCH   4  12
BRANCH   6  14
ATOM     14  O   UNL     1      -8.266  -9.383  24.980  1.00  0.00    -0.504 OA
ATOM     15  H   UNL     1      -7.770  -8.984  25.768  1.00  0.00     0.293 HD
ENDBRANCH   6  14
TORSDOF 4
ENDMDL
MODEL 4
REMARK VINA RESULT:     4.210      2.089      3.338
REMARK INTER + INTRA:           5.807
REMARK INTER:                   4.289
REMARK INTRA:                   1.518
REMARK UNBOUND:                 0.858
REMARK SMILES O=C([O-])C=Cc1ccc(O)c(O)c1
REMARK SMILES IDX 6 1 13 2 7 3 11 4 8 5 9 6 5 7 4 8 2 9 1 10 3 11 12 12 10 14
REMARK H PARENT 12 13 10 15
REMARK Flexibility Score: inf
ROOT
ATOM      1  C   UNL     1      -7.740  -5.587  19.739  1.00  0.00    -0.022 A 
ATOM      2  C   UNL     1      -7.062  -5.311  20.939  1.00  0.00     0.058 A 
ATOM      3  C   UNL     1      -7.825  -4.592  18.755  1.00  0.00     0.012 A 
ATOM      4  C   UNL     1      -6.432  -4.072  21.130  1.00  0.00     0.157 A 
ATOM      5  C   UNL     1      -7.198  -3.358  18.943  1.00  0.00     0.051 A 
ATOM      6  C   UNL     1      -6.498  -3.093  20.124  1.00  0.00     0.157 A 
ENDROOT
BRANCH   1   7
ATOM      7  C   UNL     1      -8.454  -6.865  19.539  1.00  0.00     0.010 C 
ATOM      8  C   UNL     1      -9.125  -7.538  20.487  1.00  0.00     0.025 C 
BRANCH   8   9
ATOM      9  C   UNL     1      -9.125  -7.225  21.929  1.00  0.00     0.064 C 
ATOM     10  O   UNL     1      -9.119  -6.037  22.347  1.00  0.00    -0.545 OA
ATOM     11  O   UNL     1      -9.059  -8.266  22.848  1.00  0.00    -0.545 OA
ENDBRANCH   8   9
ENDBRANCH   1   7
BRANCH   4  12
ATOM     12  O   UNL     1      -5.748  -3.811  22.316  1.00  0.00    -0.504 OA
ATOM     13  H   UNL     1      -6.240  -3.638  23.186  1.00  0.00     0.293 HD
ENDBRANCH   4  12
BRANCH   6  14
ATOM     14  O   UNL     1      -5.879  -1.854  20.283  1.00  0.00    -0.504 OA
ATOM     15  H   UNL     1      -6.224  -1.160  20.935  1.00  0.00     0.293 HD
ENDBRANCH   6  14
TORSDOF 4
ENDMDL
MODEL 5
REMARK VINA RESULT:     4.340      2.549      5.147
REMARK INTER + INTRA:           5.959
REMARK INTER:                   4.692
REMARK INTRA:                   1.268
REMARK UNBOUND:                 0.858
REMARK SMILES O=C([O-])C=Cc1ccc(O)c(O)c1
REMARK SMILES IDX 6 1 13 2 7 3 11 4 8 5 9 6 5 7 4 8 2 9 1 10 3 11 12 12 10 14
REMARK H PARENT 12 13 10 15
REMARK Flexibility Score: inf
ROOT
ATOM      1  C   UNL     1      -7.220  -4.409  19.790  1.00  0.00    -0.022 A 
ATOM      2  C   UNL     1      -7.379  -4.772  21.139  1.00  0.00     0.058 A 
ATOM      3  C   UNL     1      -7.660  -5.286  18.788  1.00  0.00     0.012 A 
ATOM      4  C   UNL     1      -8.018  -5.973  21.481  1.00  0.00     0.157 A 
ATOM      5  C   UNL     1      -8.297  -6.483  19.127  1.00  0.00     0.051 A 
ATOM      6  C   UNL     1      -8.483  -6.830  20.469  1.00  0.00     0.157 A 
ENDROOT
BRANCH   1   7
ATOM      7  C   UNL     1      -6.504  -3.174  19.408  1.00  0.00     0.010 C 
ATOM      8  C   UNL     1      -6.106  -2.213  20.255  1.00  0.00     0.025 C 
BRANCH   8   9
ATOM      9  C   UNL     1      -6.461  -2.121  21.685  1.00  0.00     0.064 C 
ATOM     10  O   UNL     1      -7.184  -1.190  22.127  1.00  0.00    -0.545 OA
ATOM     11  O   UNL     1      -5.930  -3.046  22.576  1.00  0.00    -0.545 OA
ENDBRANCH   8   9
ENDBRANCH   1   7
BRANCH   4  12
ATOM     12  O   UNL     1      -8.187  -6.319  22.821  1.00  0.00    -0.504 OA
ATOM     13  H   UNL     1      -7.461  -6.800  23.341  1.00  0.00     0.293 HD
ENDBRANCH   4  12
BRANCH   6  14
ATOM     14  O   UNL     1      -9.125  -8.029  20.776  1.00  0.00    -0.504 OA
ATOM     15  H   UNL     1      -9.849  -8.418  20.185  1.00  0.00     0.293 HD
ENDBRANCH   6  14
TORSDOF 4
ENDMDL
MODEL 6
REMARK VINA RESULT:     4.743      1.693      3.141
REMARK INTER + INTRA:           6.433
REMARK INTER:                   4.598
REMARK INTRA:                   1.836
REMARK UNBOUND:                 0.858
REMARK SMILES O=C([O-])C=Cc1ccc(O)c(O)c1
REMARK SMILES IDX 6 1 13 2 7 3 11 4 8 5 9 6 5 7 4 8 2 9 1 10 3 11 12 12 10 14
REMARK H PARENT 12 13 10 15
REMARK Flexibility Score: inf
ROOT
ATOM      1  C   UNL     1      -7.989  -5.714  19.941  1.00  0.00    -0.022 A 
ATOM      2  C   UNL     1      -7.286  -5.044  18.924  1.00  0.00     0.058 A 
ATOM      3  C   UNL     1      -7.937  -5.219  21.251  1.00  0.00     0.012 A 
ATOM      4  C   UNL     1      -6.584  -3.863  19.206  1.00  0.00     0.157 A 
ATOM      5  C   UNL     1      -7.237  -4.042  21.534  1.00  0.00     0.051 A 
ATOM      6  C   UNL     1      -6.564  -3.359  20.517  1.00  0.00     0.157 A 
ENDROOT
BRANCH   1   7
ATOM      7  C   UNL     1      -8.692  -6.987  19.676  1.00  0.00     0.010 C 
ATOM      8  C   UNL     1      -9.124  -7.846  20.612  1.00  0.00     0.025 C 
BRANCH   8   9
ATOM      9  C   UNL     1      -8.823  -7.772  22.055  1.00  0.00     0.064 C 
ATOM     10  O   UNL     1      -9.114  -6.755  22.739  1.00  0.00    -0.545 OA
ATOM     11  O   UNL     1      -8.140  -8.820  22.660  1.00  0.00    -0.545 OA
ENDBRANCH   8   9
ENDBRANCH   1   7
BRANCH   4  12
ATOM     12  O   UNL     1      -5.902  -3.195  18.190  1.00  0.00    -0.504 OA
ATOM     13  H   UNL     1      -5.320  -2.388  18.382  1.00  0.00     0.293 HD
ENDBRANCH   4  12
BRANCH   6  14
ATOM     14  O   UNL     1      -5.877  -2.185  20.828  1.00  0.00    -0.504 OA
ATOM     15  H   UNL     1      -5.172  -2.152  21.554  1.00  0.00     0.293 HD
ENDBRANCH   6  14
TORSDOF 4
ENDMDL
MODEL 7
REMARK VINA RESULT:     5.529      1.394      2.298
REMARK INTER + INTRA:           7.357
REMARK INTER:                   6.229
REMARK INTRA:                   1.128
REMARK UNBOUND:                 0.858
REMARK SMILES O=C([O-])C=Cc1ccc(O)c(O)c1
REMARK SMILES IDX 6 1 13 2 7 3 11 4 8 5 9 6 5 7 4 8 2 9 1 10 3 11 12 12 10 14
REMARK H PARENT 12 13 10 15
REMARK Flexibility Score: inf
ROOT
ATOM      1  C   UNL     1      -8.630  -7.186  21.417  1.00  0.00    -0.022 A 
ATOM      2  C   UNL     1      -8.774  -6.975  20.034  1.00  0.00     0.058 A 
ATOM      3  C   UNL     1      -7.916  -6.254  22.182  1.00  0.00     0.012 A 
ATOM      4  C   UNL     1      -8.255  -5.818  19.435  1.00  0.00     0.157 A 
ATOM      5  C   UNL     1      -7.398  -5.100  21.586  1.00  0.00     0.051 A 
ATOM      6  C   UNL     1      -7.568  -4.875  20.216  1.00  0.00     0.157 A 
ENDROOT
BRANCH   1   7
ATOM      7  C   UNL     1      -9.123  -8.422  22.058  1.00  0.00     0.010 C 
ATOM      8  C   UNL     1      -9.125  -8.666  23.378  1.00  0.00     0.025 C 
BRANCH   8   9
ATOM      9  C   UNL     1      -8.478  -7.832  24.410  1.00  0.00     0.064 C 
ATOM     10  O   UNL     1      -8.968  -6.730  24.771  1.00  0.00    -0.545 OA
ATOM     11  O   UNL     1      -7.263  -8.240  24.947  1.00  0.00    -0.545 OA
ENDBRANCH   8   9
ENDBRANCH   1   7
BRANCH   4  12
ATOM     12  O   UNL     1      -8.415  -5.607  18.066  1.00  0.00    -0.504 OA
ATOM     13  H   UNL     1      -9.105  -4.956  17.706  1.00  0.00     0.293 HD
ENDBRANCH   4  12
BRANCH   6  14
ATOM     14  O   UNL     1      -7.043  -3.713  19.651  1.00  0.00    -0.504 OA
ATOM     15  H   UNL     1      -6.187  -3.289  19.988  1.00  0.00     0.293 HD
ENDBRANCH   6  14
TORSDOF 4
ENDMDL
