MODEL 1
REMARK VINA RESULT:    -4.133      0.000      0.000
REMARK INTER + INTRA:          -7.349
REMARK INTER:                  -6.549
REMARK INTRA:                  -0.800
REMARK UNBOUND:                -0.800
REMARK SMILES CCCCCCCCCCCC(=O)[O-]
REMARK SMILES IDX 7 1 8 2 9 3 10 4 11 5 12 6 13 7 14 8 6 9 5 10 4 11 3 12 2 13
REMARK SMILES IDX 1 14
REMARK H PARENT
REMARK Flexibility Score: inf
ROOT
ATOM      1  C   UNL     1      10.414 -12.898 -45.172  1.00  0.00     0.000 C 
ENDROOT
BRANCH   1   2
ATOM      2  C   UNL     1      11.943 -13.010 -45.072  1.00  0.00     0.000 C 
BRANCH   2   3
ATOM      3  C   UNL     1      12.389 -13.131 -43.607  1.00  0.00     0.000 C 
BRANCH   3   4
ATOM      4  C   UNL     1      13.256 -11.946 -43.153  1.00  0.00     0.006 C 
BRANCH   4   5
ATOM      5  C   UNL     1      14.275 -11.516 -44.218  1.00  0.00     0.053 C 
BRANCH   5   6
ATOM      6  C   UNL     1      15.670 -11.709 -43.711  1.00  0.00     0.041 C 
ATOM      7  O   UNL     1      15.913 -11.629 -42.478  1.00  0.00    -0.550 OA
ATOM      8  O   UNL     1      16.693 -12.025 -44.596  1.00  0.00    -0.550 OA
ENDBRANCH   5   6
ENDBRANCH   4   5
ENDBRANCH   3   4
ENDBRANCH   2   3
ENDBRANCH   1   2
BRANCH   1   9
ATOM      9  C   UNL     1       9.952 -11.588 -45.836  1.00  0.00     0.000 C 
BRANCH   9  10
ATOM     10  C   UNL     1       9.731 -10.409 -44.868  1.00  0.00    -0.000 C 
BRANCH  10  11
ATOM     11  C   UNL     1      10.997  -9.599 -44.526  1.00  0.00    -0.000 C 
BRANCH  11  12
ATOM     12  C   UNL     1      10.787  -8.074 -44.422  1.00  0.00    -0.000 C 
BRANCH  12  13
ATOM     13  C   UNL     1       9.843  -7.629 -43.292  1.00  0.00    -0.003 C 
ATOM     14  C   UNL     1      10.306  -8.092 -41.912  1.00  0.00     0.004 C 
ENDBRANCH  12  13
ENDBRANCH  11  12
ENDBRANCH  10  11
ENDBRANCH   9  10
ENDBRANCH   1   9
TORSDOF 10
ENDMDL
MODEL 2
REMARK VINA RESULT:    -3.993      3.275      4.751
REMARK INTER + INTRA:          -7.128
REMARK INTER:                  -6.200
REMARK INTRA:                  -0.928
REMARK UNBOUND:                -0.800
REMARK SMILES CCCCCCCCCCCC(=O)[O-]
REMARK SMILES IDX 7 1 8 2 9 3 10 4 11 5 12 6 13 7 14 8 6 9 5 10 4 11 3 12 2 13
REMARK SMILES IDX 1 14
REMARK H PARENT
REMARK Flexibility Score: inf
ROOT
ATOM      1  C   UNL     1       8.192 -10.522 -45.604  1.00  0.00     0.000 C 
ENDROOT
BRANCH   1   2
ATOM      2  C   UNL     1       7.252 -11.697 -45.912  1.00  0.00     0.000 C 
BRANCH   2   3
ATOM      3  C   UNL     1       7.745 -12.488 -47.133  1.00  0.00     0.000 C 
BRANCH   3   4
ATOM      4  C   UNL     1       7.829 -13.999 -46.864  1.00  0.00     0.006 C 
BRANCH   4   5
ATOM      5  C   UNL     1       8.979 -14.672 -47.625  1.00  0.00     0.053 C 
BRANCH   5   6
ATOM      6  C   UNL     1      10.298 -14.173 -47.124  1.00  0.00     0.041 C 
ATOM      7  O   UNL     1      11.059 -13.519 -47.885  1.00  0.00    -0.550 OA
ATOM      8  O   UNL     1      10.666 -14.389 -45.802  1.00  0.00    -0.550 OA
ENDBRANCH   5   6
ENDBRANCH   4   5
ENDBRANCH   3   4
ENDBRANCH   2   3
ENDBRANCH   1   2
BRANCH   1   9
ATOM      9  C   UNL     1       9.680 -10.890 -45.752  1.00  0.00     0.000 C 
BRANCH   9  10
ATOM     10  C   UNL     1      10.450 -11.034 -44.425  1.00  0.00    -0.000 C 
BRANCH  10  11
ATOM     11  C   UNL     1      11.533  -9.965 -44.178  1.00  0.00    -0.000 C 
BRANCH  11  12
ATOM     12  C   UNL     1      11.160  -8.541 -44.640  1.00  0.00    -0.000 C 
BRANCH  12  13
ATOM     13  C   UNL     1      10.156  -7.810 -43.733  1.00  0.00    -0.003 C 
ATOM     14  C   UNL     1      10.380  -8.092 -42.248  1.00  0.00     0.004 C 
ENDBRANCH  12  13
ENDBRANCH  11  12
ENDBRANCH  10  11
ENDBRANCH   9  10
ENDBRANCH   1   9
TORSDOF 10
ENDMDL
MODEL 3
REMARK VINA RESULT:    -3.981      3.950      5.496
REMARK INTER + INTRA:          -7.108
REMARK INTER:                  -6.068
REMARK INTRA:                  -1.040
REMARK UNBOUND:                -0.800
REMARK SMILES CCCCCCCCCCCC(=O)[O-]
REMARK SMILES IDX 7 1 8 2 9 3 10 4 11 5 12 6 13 7 14 8 6 9 5 10 4 11 3 12 2 13
REMARK SMILES IDX 1 14
REMARK H PARENT
REMARK Flexibility Score: inf
ROOT
ATOM      1  C   UNL     1       8.706 -10.792 -45.452  1.00  0.00     0.000 C 
ENDROOT
BRANCH   1   2
ATOM      2  C   UNL     1       7.766 -11.414 -46.494  1.00  0.00     0.000 C 
BRANCH   2   3
ATOM      3  C   UNL     1       6.950 -12.562 -45.881  1.00  0.00     0.000 C 
BRANCH   3   4
ATOM      4  C   UNL     1       7.241 -13.917 -46.547  1.00  0.00     0.006 C 
BRANCH   4   5
ATOM      5  C   UNL     1       8.328 -14.714 -45.814  1.00  0.00     0.053 C 
BRANCH   5   6
ATOM      6  C   UNL     1       7.945 -14.922 -44.382  1.00  0.00     0.041 C 
ATOM      7  O   UNL     1       8.725 -14.565 -43.459  1.00  0.00    -0.550 OA
ATOM      8  O   UNL     1       6.706 -15.465 -44.065  1.00  0.00    -0.550 OA
ENDBRANCH   5   6
ENDBRANCH   4   5
ENDBRANCH   3   4
ENDBRANCH   2   3
ENDBRANCH   1   2
BRANCH   1   9
ATOM      9  C   UNL     1      10.079 -11.485 -45.392  1.00  0.00     0.000 C 
BRANCH   9  10
ATOM     10  C   UNL     1      10.662 -11.655 -43.975  1.00  0.00    -0.000 C 
BRANCH  10  11
ATOM     11  C   UNL     1      11.136 -10.352 -43.303  1.00  0.00    -0.000 C 
BRANCH  11  12
ATOM     12  C   UNL     1      11.895  -9.379 -44.229  1.00  0.00    -0.000 C 
BRANCH  12  13
ATOM     13  C   UNL     1      11.128  -8.093 -44.580  1.00  0.00    -0.003 C 
ATOM     14  C   UNL     1       9.997  -7.786 -43.599  1.00  0.00     0.004 C 
ENDBRANCH  12  13
ENDBRANCH  11  12
ENDBRANCH  10  11
ENDBRANCH   9  10
ENDBRANCH   1   9
TORSDOF 10
ENDMDL
MODEL 4
REMARK VINA RESULT:    -3.885      2.806      5.547
REMARK INTER + INTRA:          -6.957
REMARK INTER:                  -5.939
REMARK INTRA:                  -1.018
REMARK UNBOUND:                -0.800
REMARK SMILES CCCCCCCCCCCC(=O)[O-]
REMARK SMILES IDX 7 1 8 2 9 3 10 4 11 5 12 6 13 7 14 8 6 9 5 10 4 11 3 12 2 13
REMARK SMILES IDX 1 14
REMARK H PARENT
REMARK Flexibility Score: inf
ROOT
ATOM      1  C   UNL     1      11.959 -13.020 -44.524  1.00  0.00     0.000 C 
ENDROOT
BRANCH   1   2
ATOM      2  C   UNL     1      10.721 -12.356 -45.144  1.00  0.00     0.000 C 
BRANCH   2   3
ATOM      3  C   UNL     1      10.236 -11.184 -44.277  1.00  0.00     0.000 C 
BRANCH   3   4
ATOM      4  C   UNL     1      10.482  -9.818 -44.937  1.00  0.00     0.006 C 
BRANCH   4   5
ATOM      5  C   UNL     1      11.320  -8.879 -44.058  1.00  0.00     0.053 C 
BRANCH   5   6
ATOM      6  C   UNL     1      10.454  -8.210 -43.037  1.00  0.00     0.041 C 
ATOM      7  O   UNL     1       9.629  -7.326 -43.388  1.00  0.00    -0.550 OA
ATOM      8  O   UNL     1      10.523  -8.598 -41.705  1.00  0.00    -0.550 OA
ENDBRANCH   5   6
ENDBRANCH   4   5
ENDBRANCH   3   4
ENDBRANCH   2   3
ENDBRANCH   1   2
BRANCH   1   9
ATOM      9  C   UNL     1      12.373 -12.385 -43.184  1.00  0.00     0.000 C 
BRANCH   9  10
ATOM     10  C   UNL     1      13.831 -11.891 -43.119  1.00  0.00    -0.000 C 
BRANCH  10  11
ATOM     11  C   UNL     1      14.375 -11.286 -44.429  1.00  0.00    -0.000 C 
BRANCH  11  12
ATOM     12  C   UNL     1      15.765 -11.799 -44.856  1.00  0.00    -0.000 C 
BRANCH  12  13
ATOM     13  C   UNL     1      16.535 -12.562 -43.764  1.00  0.00    -0.003 C 
ATOM     14  C   UNL     1      17.754 -11.798 -43.250  1.00  0.00     0.004 C 
ENDBRANCH  12  13
ENDBRANCH  11  12
ENDBRANCH  10  11
ENDBRANCH   9  10
ENDBRANCH   1   9
TORSDOF 10
ENDMDL
MODEL 5
REMARK VINA RESULT:    -3.865      2.871      5.134
REMARK INTER + INTRA:          -6.924
REMARK INTER:                  -5.721
REMARK INTRA:                  -1.203
REMARK UNBOUND:                -0.800
REMARK SMILES CCCCCCCCCCCC(=O)[O-]
REMARK SMILES IDX 7 1 8 2 9 3 10 4 11 5 12 6 13 7 14 8 6 9 5 10 4 11 3 12 2 13
REMARK SMILES IDX 1 14
REMARK H PARENT
REMARK Flexibility Score: inf
ROOT
ATOM      1  C   UNL     1      10.028 -12.056 -46.191  1.00  0.00     0.000 C 
ENDROOT
BRANCH   1   2
ATOM      2  C   UNL     1       8.785 -11.164 -46.068  1.00  0.00     0.000 C 
BRANCH   2   3
ATOM      3  C   UNL     1       9.028 -10.018 -45.073  1.00  0.00     0.000 C 
BRANCH   3   4
ATOM      4  C   UNL     1      10.497  -9.918 -44.634  1.00  0.00     0.006 C 
BRANCH   4   5
ATOM      5  C   UNL     1      10.940  -8.471 -44.377  1.00  0.00     0.053 C 
BRANCH   5   6
ATOM      6  C   UNL     1      10.270  -7.930 -43.154  1.00  0.00     0.041 C 
ATOM      7  O   UNL     1       9.435  -6.992 -43.251  1.00  0.00    -0.550 OA
ATOM      8  O   UNL     1      10.530  -8.495 -41.911  1.00  0.00    -0.550 OA
ENDBRANCH   5   6
ENDBRANCH   4   5
ENDBRANCH   3   4
ENDBRANCH   2   3
ENDBRANCH   1   2
BRANCH   1   9
ATOM      9  C   UNL     1       9.737 -13.536 -45.883  1.00  0.00     0.000 C 
BRANCH   9  10
ATOM     10  C   UNL     1      10.729 -14.206 -44.912  1.00  0.00    -0.000 C 
BRANCH  10  11
ATOM     11  C   UNL     1      10.605 -13.763 -43.441  1.00  0.00    -0.000 C 
BRANCH  11  12
ATOM     12  C   UNL     1      11.723 -12.821 -42.947  1.00  0.00    -0.000 C 
BRANCH  12  13
ATOM     13  C   UNL     1      13.040 -12.915 -43.736  1.00  0.00    -0.003 C 
ATOM     14  C   UNL     1      13.783 -11.582 -43.815  1.00  0.00     0.004 C 
ENDBRANCH  12  13
ENDBRANCH  11  12
ENDBRANCH  10  11
ENDBRANCH   9  10
ENDBRANCH   1   9
TORSDOF 10
ENDMDL
MODEL 6
REMARK VINA RESULT:    -3.850     11.253     13.121
REMARK INTER + INTRA:          -6.901
REMARK INTER:                  -5.440
REMARK INTRA:                  -1.461
REMARK UNBOUND:                -0.800
REMARK SMILES CCCCCCCCCCCC(=O)[O-]
REMARK SMILES IDX 7 1 8 2 9 3 10 4 11 5 12 6 13 7 14 8 6 9 5 10 4 11 3 12 2 13
REMARK SMILES IDX 1 14
REMARK H PARENT
REMARK Flexibility Score: inf
ROOT
ATOM      1  C   UNL     1      10.815 -23.216 -36.986  1.00  0.00     0.000 C 
ENDROOT
BRANCH   1   2
ATOM      2  C   UNL     1      10.247 -22.613 -38.279  1.00  0.00     0.000 C 
BRANCH   2   3
ATOM      3  C   UNL     1      10.326 -21.079 -38.250  1.00  0.00     0.000 C 
BRANCH   3   4
ATOM      4  C   UNL     1      10.934 -20.543 -36.944  1.00  0.00     0.006 C 
BRANCH   4   5
ATOM      5  C   UNL     1      11.678 -19.215 -37.140  1.00  0.00     0.053 C 
BRANCH   5   6
ATOM      6  C   UNL     1      13.053 -19.463 -37.677  1.00  0.00     0.041 C 
ATOM      7  O   UNL     1      13.478 -18.800 -38.659  1.00  0.00    -0.550 OA
ATOM      8  O   UNL     1      13.882 -20.391 -37.061  1.00  0.00    -0.550 OA
ENDBRANCH   5   6
ENDBRANCH   4   5
ENDBRANCH   3   4
ENDBRANCH   2   3
ENDBRANCH   1   2
BRANCH   1   9
ATOM      9  C   UNL     1       9.744 -23.920 -36.132  1.00  0.00     0.000 C 
BRANCH   9  10
ATOM     10  C   UNL     1       9.355 -23.182 -34.836  1.00  0.00    -0.000 C 
BRANCH  10  11
ATOM     11  C   UNL     1       8.319 -22.055 -35.013  1.00  0.00    -0.000 C 
BRANCH  11  12
ATOM     12  C   UNL     1       7.259 -22.308 -36.105  1.00  0.00    -0.000 C 
BRANCH  12  13
ATOM     13  C   UNL     1       6.819 -21.053 -36.880  1.00  0.00    -0.003 C 
ATOM     14  C   UNL     1       7.273 -19.754 -36.216  1.00  0.00     0.004 C 
ENDBRANCH  12  13
ENDBRANCH  11  12
ENDBRANCH  10  11
ENDBRANCH   9  10
ENDBRANCH   1   9
TORSDOF 10
ENDMDL
MODEL 7
REMARK VINA RESULT:    -3.837      2.357      3.412
REMARK INTER + INTRA:          -6.880
REMARK INTER:                  -6.088
REMARK INTRA:                  -0.792
REMARK UNBOUND:                -0.800
REMARK SMILES CCCCCCCCCCCC(=O)[O-]
REMARK SMILES IDX 7 1 8 2 9 3 10 4 11 5 12 6 13 7 14 8 6 9 5 10 4 11 3 12 2 13
REMARK SMILES IDX 1 14
REMARK H PARENT
REMARK Flexibility Score: inf
ROOT
ATOM      1  C   UNL     1       7.506 -11.746 -46.116  1.00  0.00     0.000 C 
ENDROOT
BRANCH   1   2
ATOM      2  C   UNL     1       7.641 -13.267 -45.953  1.00  0.00     0.000 C 
BRANCH   2   3
ATOM      3  C   UNL     1       9.116 -13.694 -45.993  1.00  0.00     0.000 C 
BRANCH   3   4
ATOM      4  C   UNL     1       9.658 -14.082 -44.608  1.00  0.00     0.006 C 
BRANCH   4   5
ATOM      5  C   UNL     1      11.150 -13.765 -44.447  1.00  0.00     0.053 C 
BRANCH   5   6
ATOM      6  C   UNL     1      11.391 -13.023 -43.170  1.00  0.00     0.041 C 
ATOM      7  O   UNL     1      12.386 -12.259 -43.058  1.00  0.00    -0.550 OA
ATOM      8  O   UNL     1      10.489 -13.137 -42.119  1.00  0.00    -0.550 OA
ENDBRANCH   5   6
ENDBRANCH   4   5
ENDBRANCH   3   4
ENDBRANCH   2   3
ENDBRANCH   1   2
BRANCH   1   9
ATOM      9  C   UNL     1       8.866 -11.024 -46.150  1.00  0.00     0.000 C 
BRANCH   9  10
ATOM     10  C   UNL     1       9.115 -10.048 -44.984  1.00  0.00    -0.000 C 
BRANCH  10  11
ATOM     11  C   UNL     1      10.595  -9.702 -44.727  1.00  0.00    -0.000 C 
BRANCH  11  12
ATOM     12  C   UNL     1      10.867  -8.226 -44.368  1.00  0.00    -0.000 C 
BRANCH  12  13
ATOM     13  C   UNL     1       9.932  -7.640 -43.296  1.00  0.00    -0.003 C 
ATOM     14  C   UNL     1      10.290  -8.094 -41.881  1.00  0.00     0.004 C 
ENDBRANCH  12  13
ENDBRANCH  11  12
ENDBRANCH  10  11
ENDBRANCH   9  10
ENDBRANCH   1   9
TORSDOF 10
ENDMDL
MODEL 8
REMARK VINA RESULT:    -3.828      3.132      6.004
REMARK INTER + INTRA:          -6.866
REMARK INTER:                  -5.964
REMARK INTRA:                  -0.903
REMARK UNBOUND:                -0.800
REMARK SMILES CCCCCCCCCCCC(=O)[O-]
REMARK SMILES IDX 7 1 8 2 9 3 10 4 11 5 12 6 13 7 14 8 6 9 5 10 4 11 3 12 2 13
REMARK SMILES IDX 1 14
REMARK H PARENT
REMARK Flexibility Score: inf
ROOT
ATOM      1  C   UNL     1      12.645 -12.931 -43.678  1.00  0.00     0.000 C 
ENDROOT
BRANCH   1   2
ATOM      2  C   UNL     1      11.605 -12.399 -44.674  1.00  0.00     0.000 C 
BRANCH   2   3
ATOM      3  C   UNL     1      10.612 -11.454 -43.978  1.00  0.00     0.000 C 
BRANCH   3   4
ATOM      4  C   UNL     1      10.407 -10.140 -44.749  1.00  0.00     0.006 C 
BRANCH   4   5
ATOM      5  C   UNL     1      11.236  -8.983 -44.176  1.00  0.00     0.053 C 
BRANCH   5   6
ATOM      6  C   UNL     1      10.425  -8.197 -43.194  1.00  0.00     0.041 C 
ATOM      7  O   UNL     1       9.618  -7.319 -43.599  1.00  0.00    -0.550 OA
ATOM      8  O   UNL     1      10.523  -8.468 -41.836  1.00  0.00    -0.550 OA
ENDBRANCH   5   6
ENDBRANCH   4   5
ENDBRANCH   3   4
ENDBRANCH   2   3
ENDBRANCH   1   2
BRANCH   1   9
ATOM      9  C   UNL     1      13.588 -11.833 -43.152  1.00  0.00     0.000 C 
BRANCH   9  10
ATOM     10  C   UNL     1      15.080 -12.045 -43.475  1.00  0.00    -0.000 C 
BRANCH  10  11
ATOM     11  C   UNL     1      15.398 -12.281 -44.965  1.00  0.00    -0.000 C 
BRANCH  11  12
ATOM     12  C   UNL     1      15.775 -13.732 -45.330  1.00  0.00    -0.000 C 
BRANCH  12  13
ATOM     13  C   UNL     1      15.089 -14.277 -46.594  1.00  0.00    -0.003 C 
ATOM     14  C   UNL     1      13.900 -15.185 -46.283  1.00  0.00     0.004 C 
ENDBRANCH  12  13
ENDBRANCH  11  12
ENDBRANCH  10  11
ENDBRANCH   9  10
ENDBRANCH   1   9
TORSDOF 10
ENDMDL
MODEL 9
REMARK VINA RESULT:    -3.804     11.541     13.615
REMARK INTER + INTRA:          -6.827
REMARK INTER:                  -5.560
REMARK INTRA:                  -1.268
REMARK UNBOUND:                -0.800
REMARK SMILES CCCCCCCCCCCC(=O)[O-]
REMARK SMILES IDX 7 1 8 2 9 3 10 4 11 5 12 6 13 7 14 8 6 9 5 10 4 11 3 12 2 13
REMARK SMILES IDX 1 14
REMARK H PARENT
REMARK Flexibility Score: inf
ROOT
ATOM      1  C   UNL     1       7.272 -22.213 -36.299  1.00  0.00     0.000 C 
ENDROOT
BRANCH   1   2
ATOM      2  C   UNL     1       6.478 -20.970 -36.724  1.00  0.00     0.000 C 
BRANCH   2   3
ATOM      3  C   UNL     1       7.003 -19.714 -36.013  1.00  0.00     0.000 C 
BRANCH   3   4
ATOM      4  C   UNL     1       6.381 -18.420 -36.560  1.00  0.00     0.006 C 
BRANCH   4   5
ATOM      5  C   UNL     1       5.687 -17.590 -35.471  1.00  0.00     0.053 C 
BRANCH   5   6
ATOM      6  C   UNL     1       6.029 -16.141 -35.622  1.00  0.00     0.041 C 
ATOM      7  O   UNL     1       6.630 -15.736 -36.653  1.00  0.00    -0.550 OA
ATOM      8  O   UNL     1       5.640 -15.230 -34.649  1.00  0.00    -0.550 OA
ENDBRANCH   5   6
ENDBRANCH   4   5
ENDBRANCH   3   4
ENDBRANCH   2   3
ENDBRANCH   1   2
BRANCH   1   9
ATOM      9  C   UNL     1       8.189 -21.955 -35.089  1.00  0.00     0.000 C 
BRANCH   9  10
ATOM     10  C   UNL     1       9.600 -22.565 -35.198  1.00  0.00    -0.000 C 
BRANCH  10  11
ATOM     11  C   UNL     1      10.455 -22.028 -36.363  1.00  0.00    -0.000 C 
BRANCH  11  12
ATOM     12  C   UNL     1      10.609 -20.493 -36.405  1.00  0.00    -0.000 C 
BRANCH  12  13
ATOM     13  C   UNL     1      10.222 -19.843 -37.745  1.00  0.00    -0.003 C 
ATOM     14  C   UNL     1       9.750 -20.858 -38.785  1.00  0.00     0.004 C 
ENDBRANCH  12  13
ENDBRANCH  11  12
ENDBRANCH  10  11
ENDBRANCH   9  10
ENDBRANCH   1   9
TORSDOF 10
ENDMDL
