MODEL 1
REMARK VINA RESULT:    58.947      0.000      0.000
REMARK INTER + INTRA:          99.832
REMARK INTER:                  96.854
REMARK INTRA:                   2.978
REMARK UNBOUND:                 2.978
REMARK SMILES C[C@@H]1O[C@@H](OC[C@@H]2O[C@@H](Oc3c(-c4ccc(O)c(O)c4)oc4cc(O)cc(O)c4c3=O)[C@@H](O)[C@@H](O)[C@H]2O)[C@@H](O)[C@H](O)[C@H]1O
REMARK SMILES IDX 7 1 36 2 34 3 32 4 9 5 8 6 6 7 5 8 4 9 1 10 2 11 42 12 3 13
REMARK SMILES IDX 40 14 38 15 43 16 41 18 39 20 37 22 35 24 10 26 11 27 12 28
REMARK SMILES IDX 30 29 21 30 29 31 31 32 22 33 27 34 23 35 26 36 24 37 13 38
REMARK SMILES IDX 20 39 14 40 18 41 15 42 16 43 19 44 17 46 28 48 25 50 33 52
REMARK H PARENT 43 17 41 19 39 21 37 23 35 25 19 45 17 47 28 49 25 51 33 53
REMARK Flexibility Score: inf
ROOT
ATOM      1  C   UNL     1      -0.303 -10.031  14.443  1.00  0.00     0.180 C 
ATOM      2  C   UNL     1      -0.248 -10.250  15.988  1.00  0.00     0.177 C 
ATOM      3  C   UNL     1      -0.848 -11.667  16.315  1.00  0.00     0.180 C 
ATOM      4  C   UNL     1      -0.481 -12.731  15.143  1.00  0.00     0.214 C 
ATOM      5  C   UNL     1       0.782 -12.295  14.423  1.00  0.00     0.339 C 
ATOM      6  O   UNL     1       0.561 -10.990  13.764  1.00  0.00    -0.332 OA
ENDROOT
BRANCH   1   7
ATOM      7  C   UNL     1      -1.700  -9.813  13.719  1.00  0.00     0.198 C 
BRANCH   7   8
ATOM      8  O   UNL     1      -2.055  -8.395  13.384  1.00  0.00    -0.347 OA
BRANCH   8   9
ATOM      9  C   UNL     1      -3.475  -8.182  13.163  1.00  0.00     0.281 C 
ATOM     10  C   UNL     1      -6.114  -9.591  12.758  1.00  0.00     0.041 C 
ATOM     11  C   UNL     1      -5.373  -8.636  11.863  1.00  0.00     0.150 C 
ATOM     12  C   UNL     1      -6.000  -7.168  12.130  1.00  0.00     0.174 C 
ATOM     13  O   UNL     1      -3.925  -8.792  11.919  1.00  0.00    -0.344 OA
ATOM     14  C   UNL     1      -5.405  -6.473  13.388  1.00  0.00     0.179 C 
ATOM     15  C   UNL     1      -3.796  -6.700  13.458  1.00  0.00     0.202 C 
BRANCH  12  16
ATOM     16  O   UNL     1      -5.702  -6.367  11.008  1.00  0.00    -0.388 OA
ATOM     17  H   UNL     1      -4.705  -6.188  11.010  1.00  0.00     0.211 HD
ENDBRANCH  12  16
BRANCH  14  18
ATOM     18  O   UNL     1      -6.080  -7.080  14.509  1.00  0.00    -0.387 OA
ATOM     19  H   UNL     1      -7.072  -6.961  14.300  1.00  0.00     0.211 HD
ENDBRANCH  14  18
BRANCH  15  20
ATOM     20  O   UNL     1      -3.198  -5.855  12.607  1.00  0.00    -0.385 OA
ATOM     21  H   UNL     1      -2.686  -5.239  13.171  1.00  0.00     0.211 HD
ENDBRANCH  15  20
ENDBRANCH   8   9
ENDBRANCH   7   8
ENDBRANCH   1   7
BRANCH   2  22
ATOM     22  O   UNL     1       1.060 -10.172  16.493  1.00  0.00    -0.387 OA
ATOM     23  H   UNL     1       1.483 -10.980  16.129  1.00  0.00     0.211 HD
ENDBRANCH   2  22
BRANCH   3  24
ATOM     24  O   UNL     1      -0.358 -12.096  17.573  1.00  0.00    -0.387 OA
ATOM     25  H   UNL     1      -0.535 -11.314  18.174  1.00  0.00     0.211 HD
ENDBRANCH   3  24
BRANCH   5  26
ATOM     26  O   UNL     1       1.923 -12.392  15.390  1.00  0.00    -0.454 OA
BRANCH  26  27
ATOM     27  C   UNL     1       3.106 -13.231  15.442  1.00  0.00     0.214 A 
ATOM     28  C   UNL     1       2.724 -14.251  16.320  1.00  0.00     0.180 A 
ATOM     29  C   UNL     1       3.687 -14.013  14.437  1.00  0.00     0.239 A 
ATOM     30  O   UNL     1       1.796 -15.120  15.680  1.00  0.00    -0.452 OA
ATOM     31  C   UNL     1       2.856 -14.583  13.581  1.00  0.00     0.111 A 
ATOM     32  O   UNL     1       4.847 -14.530  14.486  1.00  0.00    -0.285 OA
ATOM     33  C   UNL     1       1.668 -15.069  14.262  1.00  0.00     0.146 A 
ATOM     34  C   UNL     1       2.720 -13.934  12.318  1.00  0.00     0.134 A 
ATOM     35  C   UNL     1       0.446 -15.125  13.424  1.00  0.00     0.094 A 
ATOM     36  C   UNL     1       1.669 -14.245  11.464  1.00  0.00     0.093 A 
ATOM     37  C   UNL     1       0.444 -14.617  12.003  1.00  0.00     0.123 A 
BRANCH  28  38
ATOM     38  C   UNL     1       3.425 -14.224  17.670  1.00  0.00     0.025 A 
ATOM     39  C   UNL     1       4.583 -15.045  17.704  1.00  0.00     0.062 A 
ATOM     40  C   UNL     1       3.623 -12.985  18.250  1.00  0.00     0.016 A 
ATOM     41  C   UNL     1       5.762 -14.478  17.355  1.00  0.00     0.158 A 
ATOM     42  C   UNL     1       4.873 -12.424  18.219  1.00  0.00     0.051 A 
ATOM     43  C   UNL     1       5.977 -13.156  17.708  1.00  0.00     0.157 A 
BRANCH  41  44
ATOM     44  O   UNL     1       6.588 -15.114  16.391  1.00  0.00    -0.504 OA
ATOM     45  H   UNL     1       6.378 -15.100  15.402  1.00  0.00     0.293 HD
ENDBRANCH  41  44
BRANCH  43  46
ATOM     46  O   UNL     1       7.119 -12.505  17.329  1.00  0.00    -0.504 OA
ATOM     47  H   UNL     1       8.064 -12.800  17.354  1.00  0.00     0.293 HD
ENDBRANCH  43  46
ENDBRANCH  28  38
BRANCH  34  48
ATOM     48  O   UNL     1       3.233 -12.610  12.179  1.00  0.00    -0.507 OA
ATOM     49  H   UNL     1       2.773 -11.953  11.588  1.00  0.00     0.293 HD
ENDBRANCH  34  48
BRANCH  37  50
ATOM     50  O   UNL     1      -0.612 -14.700  11.114  1.00  0.00    -0.508 OA
ATOM     51  H   UNL     1      -1.011 -13.807  10.813  1.00  0.00     0.293 HD
ENDBRANCH  37  50
ENDBRANCH  26  27
ENDBRANCH   5  26
BRANCH   4  52
ATOM     52  O   UNL     1      -0.317 -14.020  15.704  1.00  0.00    -0.384 OA
ATOM     53  H   UNL     1      -1.197 -14.427  16.023  1.00  0.00     0.211 HD
ENDBRANCH   4  52
TORSDOF 16
ENDMDL
