MODEL 1
REMARK VINA RESULT:    -4.438      0.000      0.000
REMARK INTER + INTRA:         -16.483
REMARK INTER:                 -11.704
REMARK INTRA:                  -4.779
REMARK UNBOUND:                -4.779
REMARK SMILES CCCCCCCCCCCCCCCCCCCCCCCCCCCCCC(=O)[O-]
REMARK SMILES IDX 16 1 17 2 18 3 19 4 20 5 21 6 22 7 23 8 24 9 25 10 26 11
REMARK SMILES IDX 27 12 28 13 29 14 30 15 31 16 32 17 15 18 14 19 13 20 12 21
REMARK SMILES IDX 11 22 10 23 9 24 8 25 7 26 6 27 5 28 4 29 3 30 2 31 1 32
REMARK H PARENT
REMARK Flexibility Score: inf
ROOT
ATOM      1  C   UNL     1      20.026   9.158  29.012  1.00  0.00     0.000 C 
ENDROOT
BRANCH   1   2
ATOM      2  C   UNL     1      19.599   8.079  30.022  1.00  0.00     0.000 C 
BRANCH   2   3
ATOM      3  C   UNL     1      18.695   8.628  31.139  1.00  0.00     0.000 C 
BRANCH   3   4
ATOM      4  C   UNL     1      17.892   9.883  30.734  1.00  0.00     0.000 C 
BRANCH   4   5
ATOM      5  C   UNL     1      18.438  11.165  31.384  1.00  0.00     0.000 C 
BRANCH   5   6
ATOM      6  C   UNL     1      19.527  10.840  32.417  1.00  0.00     0.000 C 
BRANCH   6   7
ATOM      7  C   UNL     1      20.938  11.243  31.948  1.00  0.00     0.000 C 
BRANCH   7   8
ATOM      8  C   UNL     1      21.756  12.063  32.965  1.00  0.00     0.000 C 
BRANCH   8   9
ATOM      9  C   UNL     1      21.580  13.589  32.859  1.00  0.00     0.000 C 
BRANCH   9  10
ATOM     10  C   UNL     1      20.830  14.185  34.063  1.00  0.00     0.000 C 
BRANCH  10  11
ATOM     11  C   UNL     1      20.658  13.173  35.206  1.00  0.00     0.000 C 
BRANCH  11  12
ATOM     12  C   UNL     1      19.211  13.098  35.716  1.00  0.00     0.000 C 
BRANCH  12  13
ATOM     13  C   UNL     1      18.943  11.754  36.411  1.00  0.00     0.006 C 
BRANCH  13  14
ATOM     14  C   UNL     1      19.930  10.665  35.969  1.00  0.00     0.053 C 
BRANCH  14  15
ATOM     15  C   UNL     1      19.327   9.297  36.054  1.00  0.00     0.041 C 
ATOM     16  O   UNL     1      18.596   8.867  35.123  1.00  0.00    -0.550 OA
ATOM     17  O   UNL     1      19.559   8.502  37.169  1.00  0.00    -0.550 OA
ENDBRANCH  14  15
ENDBRANCH  13  14
ENDBRANCH  12  13
ENDBRANCH  11  12
ENDBRANCH  10  11
ENDBRANCH   9  10
ENDBRANCH   8   9
ENDBRANCH   7   8
ENDBRANCH   6   7
ENDBRANCH   5   6
ENDBRANCH   4   5
ENDBRANCH   3   4
ENDBRANCH   2   3
ENDBRANCH   1   2
BRANCH   1  18
ATOM     18  C   UNL     1      21.553   9.290  28.901  1.00  0.00     0.000 C 
BRANCH  18  19
ATOM     19  C   UNL     1      22.295   8.349  29.865  1.00  0.00     0.000 C 
BRANCH  19  20
ATOM     20  C   UNL     1      23.534   9.006  30.496  1.00  0.00     0.000 C 
BRANCH  20  21
ATOM     21  C   UNL     1      23.752  10.479  30.098  1.00  0.00     0.000 C 
BRANCH  21  22
ATOM     22  C   UNL     1      24.857  11.185  30.914  1.00  0.00     0.000 C 
BRANCH  22  23
ATOM     23  C   UNL     1      26.094  10.293  31.117  1.00  0.00     0.000 C 
BRANCH  23  24
ATOM     24  C   UNL     1      27.372  10.910  30.526  1.00  0.00    -0.000 C 
BRANCH  24  25
ATOM     25  C   UNL     1      27.308  12.442  30.446  1.00  0.00    -0.000 C 
BRANCH  25  26
ATOM     26  C   UNL     1      28.584  13.076  31.013  1.00  0.00    -0.000 C 
BRANCH  26  27
ATOM     27  C   UNL     1      28.708  12.813  32.521  1.00  0.00    -0.000 C 
BRANCH  27  28
ATOM     28  C   UNL     1      27.519  13.378  33.316  1.00  0.00    -0.000 C 
BRANCH  28  29
ATOM     29  C   UNL     1      27.341  12.683  34.677  1.00  0.00    -0.000 C 
BRANCH  29  30
ATOM     30  C   UNL     1      26.413  11.457  34.605  1.00  0.00    -0.000 C 
BRANCH  30  31
ATOM     31  C   UNL     1      24.909  11.783  34.595  1.00  0.00    -0.003 C 
ATOM     32  C   UNL     1      24.477  12.643  35.783  1.00  0.00     0.004 C 
ENDBRANCH  30  31
ENDBRANCH  29  30
ENDBRANCH  28  29
ENDBRANCH  27  28
ENDBRANCH  26  27
ENDBRANCH  25  26
ENDBRANCH  24  25
ENDBRANCH  23  24
ENDBRANCH  22  23
ENDBRANCH  21  22
ENDBRANCH  20  21
ENDBRANCH  19  20
ENDBRANCH  18  19
ENDBRANCH   1  18
TORSDOF 28
ENDMDL
MODEL 2
REMARK VINA RESULT:    -4.419      1.346      2.988
REMARK INTER + INTRA:         -16.432
REMARK INTER:                 -11.071
REMARK INTRA:                  -5.361
REMARK UNBOUND:                -4.779
REMARK SMILES CCCCCCCCCCCCCCCCCCCCCCCCCCCCCC(=O)[O-]
REMARK SMILES IDX 16 1 17 2 18 3 19 4 20 5 21 6 22 7 23 8 24 9 25 10 26 11
REMARK SMILES IDX 27 12 28 13 29 14 30 15 31 16 32 17 15 18 14 19 13 20 12 21
REMARK SMILES IDX 11 22 10 23 9 24 8 25 7 26 6 27 5 28 4 29 3 30 2 31 1 32
REMARK H PARENT
REMARK Flexibility Score: inf
ROOT
ATOM      1  C   UNL     1      20.484  10.270  31.421  1.00  0.00     0.000 C 
ENDROOT
BRANCH   1   2
ATOM      2  C   UNL     1      19.013  10.572  31.088  1.00  0.00     0.000 C 
BRANCH   2   3
ATOM      3  C   UNL     1      18.722  12.078  30.972  1.00  0.00     0.000 C 
BRANCH   3   4
ATOM      4  C   UNL     1      19.329  12.738  29.715  1.00  0.00     0.000 C 
BRANCH   4   5
ATOM      5  C   UNL     1      20.011  14.079  30.027  1.00  0.00     0.000 C 
BRANCH   5   6
ATOM      6  C   UNL     1      21.209  13.885  30.968  1.00  0.00     0.000 C 
BRANCH   6   7
ATOM      7  C   UNL     1      21.271  14.941  32.087  1.00  0.00     0.000 C 
BRANCH   7   8
ATOM      8  C   UNL     1      20.884  14.431  33.490  1.00  0.00     0.000 C 
BRANCH   8   9
ATOM      9  C   UNL     1      21.276  12.972  33.780  1.00  0.00     0.000 C 
BRANCH   9  10
ATOM     10  C   UNL     1      21.254  12.639  35.282  1.00  0.00     0.000 C 
BRANCH  10  11
ATOM     11  C   UNL     1      19.853  12.242  35.774  1.00  0.00     0.000 C 
BRANCH  11  12
ATOM     12  C   UNL     1      18.993  11.618  34.666  1.00  0.00     0.000 C 
BRANCH  12  13
ATOM     13  C   UNL     1      18.948  10.088  34.803  1.00  0.00     0.006 C 
BRANCH  13  14
ATOM     14  C   UNL     1      19.600   9.603  36.104  1.00  0.00     0.053 C 
BRANCH  14  15
ATOM     15  C   UNL     1      18.990   8.324  36.591  1.00  0.00     0.041 C 
ATOM     16  O   UNL     1      19.284   7.874  37.730  1.00  0.00    -0.550 OA
ATOM     17  O   UNL     1      18.109   7.620  35.780  1.00  0.00    -0.550 OA
ENDBRANCH  14  15
ENDBRANCH  13  14
ENDBRANCH  12  13
ENDBRANCH  11  12
ENDBRANCH  10  11
ENDBRANCH   9  10
ENDBRANCH   8   9
ENDBRANCH   7   8
ENDBRANCH   6   7
ENDBRANCH   5   6
ENDBRANCH   4   5
ENDBRANCH   3   4
ENDBRANCH   2   3
ENDBRANCH   1   2
BRANCH   1  18
ATOM     18  C   UNL     1      21.072   9.160  30.537  1.00  0.00     0.000 C 
BRANCH  18  19
ATOM     19  C   UNL     1      21.398   9.651  29.116  1.00  0.00     0.000 C 
BRANCH  19  20
ATOM     20  C   UNL     1      22.755  10.370  29.036  1.00  0.00     0.000 C 
BRANCH  20  21
ATOM     21  C   UNL     1      23.935   9.584  29.641  1.00  0.00     0.000 C 
BRANCH  21  22
ATOM     22  C   UNL     1      24.607  10.296  30.835  1.00  0.00     0.000 C 
BRANCH  22  23
ATOM     23  C   UNL     1      24.435  11.825  30.776  1.00  0.00     0.000 C 
BRANCH  23  24
ATOM     24  C   UNL     1      24.455  12.476  32.168  1.00  0.00    -0.000 C 
BRANCH  24  25
ATOM     25  C   UNL     1      24.768  11.473  33.287  1.00  0.00    -0.000 C 
BRANCH  25  26
ATOM     26  C   UNL     1      24.894  12.182  34.641  1.00  0.00    -0.000 C 
BRANCH  26  27
ATOM     27  C   UNL     1      26.353  12.569  34.928  1.00  0.00    -0.000 C 
BRANCH  27  28
ATOM     28  C   UNL     1      27.351  11.515  34.421  1.00  0.00    -0.000 C 
BRANCH  28  29
ATOM     29  C   UNL     1      28.534  12.143  33.665  1.00  0.00    -0.000 C 
BRANCH  29  30
ATOM     30  C   UNL     1      28.094  13.217  32.654  1.00  0.00    -0.000 C 
BRANCH  30  31
ATOM     31  C   UNL     1      28.495  12.936  31.196  1.00  0.00    -0.003 C 
ATOM     32  C   UNL     1      28.093  11.539  30.725  1.00  0.00     0.004 C 
ENDBRANCH  30  31
ENDBRANCH  29  30
ENDBRANCH  28  29
ENDBRANCH  27  28
ENDBRANCH  26  27
ENDBRANCH  25  26
ENDBRANCH  24  25
ENDBRANCH  23  24
ENDBRANCH  22  23
ENDBRANCH  21  22
ENDBRANCH  20  21
ENDBRANCH  19  20
ENDBRANCH  18  19
ENDBRANCH   1  18
TORSDOF 28
ENDMDL
MODEL 3
REMARK VINA RESULT:    -4.353      1.493      7.430
REMARK INTER + INTRA:         -16.258
REMARK INTER:                 -11.862
REMARK INTRA:                  -4.396
REMARK UNBOUND:                -4.779
REMARK SMILES CCCCCCCCCCCCCCCCCCCCCCCCCCCCCC(=O)[O-]
REMARK SMILES IDX 16 1 17 2 18 3 19 4 20 5 21 6 22 7 23 8 24 9 25 10 26 11
REMARK SMILES IDX 27 12 28 13 29 14 30 15 31 16 32 17 15 18 14 19 13 20 12 21
REMARK SMILES IDX 11 22 10 23 9 24 8 25 7 26 6 27 5 28 4 29 3 30 2 31 1 32
REMARK H PARENT
REMARK Flexibility Score: inf
ROOT
ATOM      1  C   UNL     1      27.494  11.650  34.625  1.00  0.00     0.000 C 
ENDROOT
BRANCH   1   2
ATOM      2  C   UNL     1      28.607  11.992  33.621  1.00  0.00     0.000 C 
BRANCH   2   3
ATOM      3  C   UNL     1      28.243  13.171  32.702  1.00  0.00     0.000 C 
BRANCH   3   4
ATOM      4  C   UNL     1      28.744  13.011  31.250  1.00  0.00     0.000 C 
BRANCH   4   5
ATOM      5  C   UNL     1      27.775  12.192  30.382  1.00  0.00     0.000 C 
BRANCH   5   6
ATOM      6  C   UNL     1      26.446  12.937  30.184  1.00  0.00     0.000 C 
BRANCH   6   7
ATOM      7  C   UNL     1      25.242  12.186  30.782  1.00  0.00     0.000 C 
BRANCH   7   8
ATOM      8  C   UNL     1      25.379  10.651  30.818  1.00  0.00     0.000 C 
BRANCH   8   9
ATOM      9  C   UNL     1      24.268   9.885  30.079  1.00  0.00     0.000 C 
BRANCH   9  10
ATOM     10  C   UNL     1      22.886  10.069  30.729  1.00  0.00     0.000 C 
BRANCH  10  11
ATOM     11  C   UNL     1      21.957  10.960  29.890  1.00  0.00     0.000 C 
BRANCH  11  12
ATOM     12  C   UNL     1      20.472  10.723  30.201  1.00  0.00     0.000 C 
BRANCH  12  13
ATOM     13  C   UNL     1      20.304   9.638  31.275  1.00  0.00     0.006 C 
BRANCH  13  14
ATOM     14  C   UNL     1      18.838   9.455  31.692  1.00  0.00     0.053 C 
BRANCH  14  15
ATOM     15  C   UNL     1      18.477   8.010  31.847  1.00  0.00     0.041 C 
ATOM     16  O   UNL     1      18.375   7.269  30.834  1.00  0.00    -0.550 OA
ATOM     17  O   UNL     1      18.238   7.484  33.110  1.00  0.00    -0.550 OA
ENDBRANCH  14  15
ENDBRANCH  13  14
ENDBRANCH  12  13
ENDBRANCH  11  12
ENDBRANCH  10  11
ENDBRANCH   9  10
ENDBRANCH   8   9
ENDBRANCH   7   8
ENDBRANCH   6   7
ENDBRANCH   5   6
ENDBRANCH   4   5
ENDBRANCH   3   4
ENDBRANCH   2   3
ENDBRANCH   1   2
BRANCH   1  18
ATOM     18  C   UNL     1      26.178  12.381  34.318  1.00  0.00     0.000 C 
BRANCH  18  19
ATOM     19  C   UNL     1      25.280  12.521  35.558  1.00  0.00     0.000 C 
BRANCH  19  20
ATOM     20  C   UNL     1      23.785  12.567  35.203  1.00  0.00     0.000 C 
BRANCH  20  21
ATOM     21  C   UNL     1      23.425  11.920  33.851  1.00  0.00     0.000 C 
BRANCH  21  22
ATOM     22  C   UNL     1      22.018  12.296  33.339  1.00  0.00     0.000 C 
BRANCH  22  23
ATOM     23  C   UNL     1      21.628  13.739  33.705  1.00  0.00     0.000 C 
BRANCH  23  24
ATOM     24  C   UNL     1      20.262  14.146  33.129  1.00  0.00    -0.000 C 
BRANCH  24  25
ATOM     25  C   UNL     1      19.302  12.957  32.983  1.00  0.00    -0.000 C 
BRANCH  25  26
ATOM     26  C   UNL     1      18.279  12.933  34.125  1.00  0.00    -0.000 C 
BRANCH  26  27
ATOM     27  C   UNL     1      18.945  13.259  35.470  1.00  0.00    -0.000 C 
BRANCH  27  28
ATOM     28  C   UNL     1      18.986  12.046  36.415  1.00  0.00    -0.000 C 
BRANCH  28  29
ATOM     29  C   UNL     1      20.005  10.986  35.964  1.00  0.00    -0.000 C 
BRANCH  29  30
ATOM     30  C   UNL     1      19.352   9.635  35.624  1.00  0.00    -0.000 C 
BRANCH  30  31
ATOM     31  C   UNL     1      19.517   8.547  36.699  1.00  0.00    -0.003 C 
ATOM     32  C   UNL     1      18.206   7.837  37.035  1.00  0.00     0.004 C 
ENDBRANCH  30  31
ENDBRANCH  29  30
ENDBRANCH  28  29
ENDBRANCH  27  28
ENDBRANCH  26  27
ENDBRANCH  25  26
ENDBRANCH  24  25
ENDBRANCH  23  24
ENDBRANCH  22  23
ENDBRANCH  21  22
ENDBRANCH  20  21
ENDBRANCH  19  20
ENDBRANCH  18  19
ENDBRANCH   1  18
TORSDOF 28
ENDMDL
MODEL 4
REMARK VINA RESULT:    -4.348      1.711      4.821
REMARK INTER + INTRA:         -16.243
REMARK INTER:                 -11.229
REMARK INTRA:                  -5.015
REMARK UNBOUND:                -4.779
REMARK SMILES CCCCCCCCCCCCCCCCCCCCCCCCCCCCCC(=O)[O-]
REMARK SMILES IDX 16 1 17 2 18 3 19 4 20 5 21 6 22 7 23 8 24 9 25 10 26 11
REMARK SMILES IDX 27 12 28 13 29 14 30 15 31 16 32 17 15 18 14 19 13 20 12 21
REMARK SMILES IDX 11 22 10 23 9 24 8 25 7 26 6 27 5 28 4 29 3 30 2 31 1 32
REMARK H PARENT
REMARK Flexibility Score: inf
ROOT
ATOM      1  C   UNL     1      22.644  12.628  34.868  1.00  0.00     0.000 C 
ENDROOT
BRANCH   1   2
ATOM      2  C   UNL     1      22.255  12.688  33.381  1.00  0.00     0.000 C 
BRANCH   2   3
ATOM      3  C   UNL     1      21.258  13.817  33.068  1.00  0.00     0.000 C 
BRANCH   3   4
ATOM      4  C   UNL     1      20.205  13.443  32.002  1.00  0.00     0.000 C 
BRANCH   4   5
ATOM      5  C   UNL     1      20.659  12.275  31.113  1.00  0.00     0.000 C 
BRANCH   5   6
ATOM      6  C   UNL     1      19.631  11.133  31.133  1.00  0.00     0.000 C 
BRANCH   6   7
ATOM      7  C   UNL     1      20.088   9.900  30.331  1.00  0.00     0.000 C 
BRANCH   7   8
ATOM      8  C   UNL     1      19.718   8.540  30.955  1.00  0.00     0.000 C 
BRANCH   8   9
ATOM      9  C   UNL     1      18.265   8.428  31.450  1.00  0.00     0.000 C 
BRANCH   9  10
ATOM     10  C   UNL     1      18.172   7.971  32.916  1.00  0.00     0.000 C 
BRANCH  10  11
ATOM     11  C   UNL     1      18.115   9.154  33.897  1.00  0.00     0.000 C 
BRANCH  11  12
ATOM     12  C   UNL     1      18.932   8.903  35.172  1.00  0.00     0.000 C 
BRANCH  12  13
ATOM     13  C   UNL     1      19.546  10.211  35.696  1.00  0.00     0.006 C 
BRANCH  13  14
ATOM     14  C   UNL     1      19.073  11.434  34.901  1.00  0.00     0.053 C 
BRANCH  14  15
ATOM     15  C   UNL     1      18.736  12.586  35.796  1.00  0.00     0.041 C 
ATOM     16  O   UNL     1      18.574  13.739  35.314  1.00  0.00    -0.550 OA
ATOM     17  O   UNL     1      18.617  12.392  37.166  1.00  0.00    -0.550 OA
ENDBRANCH  14  15
ENDBRANCH  13  14
ENDBRANCH  12  13
ENDBRANCH  11  12
ENDBRANCH  10  11
ENDBRANCH   9  10
ENDBRANCH   8   9
ENDBRANCH   7   8
ENDBRANCH   6   7
ENDBRANCH   5   6
ENDBRANCH   4   5
ENDBRANCH   3   4
ENDBRANCH   2   3
ENDBRANCH   1   2
BRANCH   1  18
ATOM     18  C   UNL     1      24.166  12.585  35.078  1.00  0.00     0.000 C 
BRANCH  18  19
ATOM     19  C   UNL     1      24.904  11.945  33.890  1.00  0.00     0.000 C 
BRANCH  19  20
ATOM     20  C   UNL     1      26.124  11.118  34.329  1.00  0.00     0.000 C 
BRANCH  20  21
ATOM     21  C   UNL     1      27.303  11.949  34.870  1.00  0.00     0.000 C 
BRANCH  21  22
ATOM     22  C   UNL     1      28.397  12.232  33.818  1.00  0.00     0.000 C 
BRANCH  22  23
ATOM     23  C   UNL     1      28.050  13.433  32.921  1.00  0.00     0.000 C 
BRANCH  23  24
ATOM     24  C   UNL     1      27.717  13.018  31.479  1.00  0.00    -0.000 C 
BRANCH  24  25
ATOM     25  C   UNL     1      27.988  11.531  31.213  1.00  0.00    -0.000 C 
BRANCH  25  26
ATOM     26  C   UNL     1      27.826  11.200  29.724  1.00  0.00    -0.000 C 
BRANCH  26  27
ATOM     27  C   UNL     1      26.546  10.390  29.474  1.00  0.00    -0.000 C 
BRANCH  27  28
ATOM     28  C   UNL     1      25.785  10.079  30.774  1.00  0.00    -0.000 C 
BRANCH  28  29
ATOM     29  C   UNL     1      24.267  10.281  30.627  1.00  0.00    -0.000 C 
BRANCH  29  30
ATOM     30  C   UNL     1      23.908  11.441  29.681  1.00  0.00    -0.000 C 
BRANCH  30  31
ATOM     31  C   UNL     1      24.192  12.845  30.241  1.00  0.00    -0.003 C 
ATOM     32  C   UNL     1      24.862  13.769  29.224  1.00  0.00     0.004 C 
ENDBRANCH  30  31
ENDBRANCH  29  30
ENDBRANCH  28  29
ENDBRANCH  27  28
ENDBRANCH  26  27
ENDBRANCH  25  26
ENDBRANCH  24  25
ENDBRANCH  23  24
ENDBRANCH  22  23
ENDBRANCH  21  22
ENDBRANCH  20  21
ENDBRANCH  19  20
ENDBRANCH  18  19
ENDBRANCH   1  18
TORSDOF 28
ENDMDL
MODEL 5
REMARK VINA RESULT:    -4.329      1.591      3.143
REMARK INTER + INTRA:         -16.195
REMARK INTER:                 -10.693
REMARK INTRA:                  -5.501
REMARK UNBOUND:                -4.779
REMARK SMILES CCCCCCCCCCCCCCCCCCCCCCCCCCCCCC(=O)[O-]
REMARK SMILES IDX 16 1 17 2 18 3 19 4 20 5 21 6 22 7 23 8 24 9 25 10 26 11
REMARK SMILES IDX 27 12 28 13 29 14 30 15 31 16 32 17 15 18 14 19 13 20 12 21
REMARK SMILES IDX 11 22 10 23 9 24 8 25 7 26 6 27 5 28 4 29 3 30 2 31 1 32
REMARK H PARENT
REMARK Flexibility Score: inf
ROOT
ATOM      1  C   UNL     1      21.488  10.377  31.129  1.00  0.00     0.000 C 
ENDROOT
BRANCH   1   2
ATOM      2  C   UNL     1      19.967  10.144  31.131  1.00  0.00     0.000 C 
BRANCH   2   3
ATOM      3  C   UNL     1      19.418   9.764  29.745  1.00  0.00     0.000 C 
BRANCH   3   4
ATOM      4  C   UNL     1      18.872  10.962  28.939  1.00  0.00     0.000 C 
BRANCH   4   5
ATOM      5  C   UNL     1      18.090  11.953  29.816  1.00  0.00     0.000 C 
BRANCH   5   6
ATOM      6  C   UNL     1      18.603  13.388  29.621  1.00  0.00     0.000 C 
BRANCH   6   7
ATOM      7  C   UNL     1      19.964  13.447  28.902  1.00  0.00     0.000 C 
BRANCH   7   8
ATOM      8  C   UNL     1      20.993  14.410  29.526  1.00  0.00     0.000 C 
BRANCH   8   9
ATOM      9  C   UNL     1      21.664  13.897  30.813  1.00  0.00     0.000 C 
BRANCH   9  10
ATOM     10  C   UNL     1      21.085  14.544  32.083  1.00  0.00     0.000 C 
BRANCH  10  11
ATOM     11  C   UNL     1      20.380  13.525  32.992  1.00  0.00     0.000 C 
BRANCH  11  12
ATOM     12  C   UNL     1      20.570  13.833  34.484  1.00  0.00     0.000 C 
BRANCH  12  13
ATOM     13  C   UNL     1      21.014  12.578  35.251  1.00  0.00     0.006 C 
BRANCH  13  14
ATOM     14  C   UNL     1      19.861  11.941  36.038  1.00  0.00     0.053 C 
BRANCH  14  15
ATOM     15  C   UNL     1      19.472  10.608  35.478  1.00  0.00     0.041 C 
ATOM     16  O   UNL     1      19.805   9.548  36.071  1.00  0.00    -0.550 OA
ATOM     17  O   UNL     1      18.754  10.534  34.291  1.00  0.00    -0.550 OA
ENDBRANCH  14  15
ENDBRANCH  13  14
ENDBRANCH  12  13
ENDBRANCH  11  12
ENDBRANCH  10  11
ENDBRANCH   9  10
ENDBRANCH   8   9
ENDBRANCH   7   8
ENDBRANCH   6   7
ENDBRANCH   5   6
ENDBRANCH   4   5
ENDBRANCH   3   4
ENDBRANCH   2   3
ENDBRANCH   1   2
BRANCH   1  18
ATOM     18  C   UNL     1      22.165   9.831  29.862  1.00  0.00     0.000 C 
BRANCH  18  19
ATOM     19  C   UNL     1      22.793  10.944  29.006  1.00  0.00     0.000 C 
BRANCH  19  20
ATOM     20  C   UNL     1      24.286  11.151  29.309  1.00  0.00     0.000 C 
BRANCH  20  21
ATOM     21  C   UNL     1      24.896  10.115  30.272  1.00  0.00     0.000 C 
BRANCH  21  22
ATOM     22  C   UNL     1      25.342  10.712  31.624  1.00  0.00     0.000 C 
BRANCH  22  23
ATOM     23  C   UNL     1      24.735  12.104  31.878  1.00  0.00     0.000 C 
BRANCH  23  24
ATOM     24  C   UNL     1      24.208  12.266  33.312  1.00  0.00    -0.000 C 
BRANCH  24  25
ATOM     25  C   UNL     1      25.062  11.519  34.346  1.00  0.00    -0.000 C 
BRANCH  25  26
ATOM     26  C   UNL     1      25.762  12.502  35.294  1.00  0.00    -0.000 C 
BRANCH  26  27
ATOM     27  C   UNL     1      27.273  12.546  35.026  1.00  0.00    -0.000 C 
BRANCH  27  28
ATOM     28  C   UNL     1      27.732  13.904  34.469  1.00  0.00    -0.000 C 
BRANCH  28  29
ATOM     29  C   UNL     1      27.739  13.935  32.931  1.00  0.00    -0.000 C 
BRANCH  29  30
ATOM     30  C   UNL     1      28.450  12.718  32.313  1.00  0.00    -0.000 C 
BRANCH  30  31
ATOM     31  C   UNL     1      28.871  12.892  30.843  1.00  0.00    -0.003 C 
ATOM     32  C   UNL     1      28.422  11.735  29.952  1.00  0.00     0.004 C 
ENDBRANCH  30  31
ENDBRANCH  29  30
ENDBRANCH  28  29
ENDBRANCH  27  28
ENDBRANCH  26  27
ENDBRANCH  25  26
ENDBRANCH  24  25
ENDBRANCH  23  24
ENDBRANCH  22  23
ENDBRANCH  21  22
ENDBRANCH  20  21
ENDBRANCH  19  20
ENDBRANCH  18  19
ENDBRANCH   1  18
TORSDOF 28
ENDMDL
MODEL 6
REMARK VINA RESULT:    -4.269      1.882      7.057
REMARK INTER + INTRA:         -16.037
REMARK INTER:                 -11.369
REMARK INTRA:                  -4.669
REMARK UNBOUND:                -4.779
REMARK SMILES CCCCCCCCCCCCCCCCCCCCCCCCCCCCCC(=O)[O-]
REMARK SMILES IDX 16 1 17 2 18 3 19 4 20 5 21 6 22 7 23 8 24 9 25 10 26 11
REMARK SMILES IDX 27 12 28 13 29 14 30 15 31 16 32 17 15 18 14 19 13 20 12 21
REMARK SMILES IDX 11 22 10 23 9 24 8 25 7 26 6 27 5 28 4 29 3 30 2 31 1 32
REMARK H PARENT
REMARK Flexibility Score: inf
ROOT
ATOM      1  C   UNL     1      25.049  11.212  31.334  1.00  0.00     0.000 C 
ENDROOT
BRANCH   1   2
ATOM      2  C   UNL     1      24.966  12.546  30.572  1.00  0.00     0.000 C 
BRANCH   2   3
ATOM      3  C   UNL     1      26.337  13.038  30.076  1.00  0.00     0.000 C 
BRANCH   3   4
ATOM      4  C   UNL     1      27.518  12.146  30.514  1.00  0.00     0.000 C 
BRANCH   4   5
ATOM      5  C   UNL     1      28.547  12.910  31.363  1.00  0.00     0.000 C 
BRANCH   5   6
ATOM      6  C   UNL     1      28.440  12.521  32.845  1.00  0.00     0.000 C 
BRANCH   6   7
ATOM      7  C   UNL     1      27.844  13.640  33.719  1.00  0.00     0.000 C 
BRANCH   7   8
ATOM      8  C   UNL     1      26.757  13.187  34.713  1.00  0.00     0.000 C 
BRANCH   8   9
ATOM      9  C   UNL     1      26.430  11.684  34.674  1.00  0.00     0.000 C 
BRANCH   9  10
ATOM     10  C   UNL     1      25.158  11.332  35.466  1.00  0.00     0.000 C 
BRANCH  10  11
ATOM     11  C   UNL     1      24.312  12.572  35.797  1.00  0.00     0.000 C 
BRANCH  11  12
ATOM     12  C   UNL     1      22.885  12.480  35.238  1.00  0.00     0.000 C 
BRANCH  12  13
ATOM     13  C   UNL     1      22.873  12.727  33.722  1.00  0.00     0.006 C 
BRANCH  13  14
ATOM     14  C   UNL     1      21.547  12.305  33.075  1.00  0.00     0.053 C 
BRANCH  14  15
ATOM     15  C   UNL     1      20.719  13.487  32.675  1.00  0.00     0.041 C 
ATOM     16  O   UNL     1      19.729  13.339  31.911  1.00  0.00    -0.550 OA
ATOM     17  O   UNL     1      21.050  14.756  33.133  1.00  0.00    -0.550 OA
ENDBRANCH  14  15
ENDBRANCH  13  14
ENDBRANCH  12  13
ENDBRANCH  11  12
ENDBRANCH  10  11
ENDBRANCH   9  10
ENDBRANCH   8   9
ENDBRANCH   7   8
ENDBRANCH   6   7
ENDBRANCH   5   6
ENDBRANCH   4   5
ENDBRANCH   3   4
ENDBRANCH   2   3
ENDBRANCH   1   2
BRANCH   1  18
ATOM     18  C   UNL     1      24.569  10.022  30.489  1.00  0.00     0.000 C 
BRANCH  18  19
ATOM     19  C   UNL     1      23.607  10.447  29.367  1.00  0.00     0.000 C 
BRANCH  19  20
ATOM     20  C   UNL     1      22.135  10.163  29.712  1.00  0.00     0.000 C 
BRANCH  20  21
ATOM     21  C   UNL     1      21.898   8.850  30.483  1.00  0.00     0.000 C 
BRANCH  21  22
ATOM     22  C   UNL     1      20.887   7.904  29.801  1.00  0.00     0.000 C 
BRANCH  22  23
ATOM     23  C   UNL     1      19.431   8.368  29.992  1.00  0.00     0.000 C 
BRANCH  23  24
ATOM     24  C   UNL     1      19.076   8.607  31.467  1.00  0.00    -0.000 C 
BRANCH  24  25
ATOM     25  C   UNL     1      18.599  10.041  31.737  1.00  0.00    -0.000 C 
BRANCH  25  26
ATOM     26  C   UNL     1      17.995  10.165  33.142  1.00  0.00    -0.000 C 
BRANCH  26  27
ATOM     27  C   UNL     1      18.260   8.899  33.970  1.00  0.00    -0.000 C 
BRANCH  27  28
ATOM     28  C   UNL     1      19.058   9.192  35.252  1.00  0.00    -0.000 C 
BRANCH  28  29
ATOM     29  C   UNL     1      19.608  10.628  35.285  1.00  0.00    -0.000 C 
BRANCH  29  30
ATOM     30  C   UNL     1      19.049  11.456  36.456  1.00  0.00    -0.000 C 
BRANCH  30  31
ATOM     31  C   UNL     1      18.898  12.960  36.171  1.00  0.00    -0.003 C 
ATOM     32  C   UNL     1      17.928  13.257  35.028  1.00  0.00     0.004 C 
ENDBRANCH  30  31
ENDBRANCH  29  30
ENDBRANCH  28  29
ENDBRANCH  27  28
ENDBRANCH  26  27
ENDBRANCH  25  26
ENDBRANCH  24  25
ENDBRANCH  23  24
ENDBRANCH  22  23
ENDBRANCH  21  22
ENDBRANCH  20  21
ENDBRANCH  19  20
ENDBRANCH  18  19
ENDBRANCH   1  18
TORSDOF 28
ENDMDL
MODEL 7
REMARK VINA RESULT:    -4.240      2.359      7.704
REMARK INTER + INTRA:         -15.961
REMARK INTER:                 -10.974
REMARK INTRA:                  -4.987
REMARK UNBOUND:                -4.779
REMARK SMILES CCCCCCCCCCCCCCCCCCCCCCCCCCCCCC(=O)[O-]
REMARK SMILES IDX 16 1 17 2 18 3 19 4 20 5 21 6 22 7 23 8 24 9 25 10 26 11
REMARK SMILES IDX 27 12 28 13 29 14 30 15 31 16 32 17 15 18 14 19 13 20 12 21
REMARK SMILES IDX 11 22 10 23 9 24 8 25 7 26 6 27 5 28 4 29 3 30 2 31 1 32
REMARK H PARENT
REMARK Flexibility Score: inf
ROOT
ATOM      1  C   UNL     1      20.316  14.132  30.632  1.00  0.00     0.000 C 
ENDROOT
BRANCH   1   2
ATOM      2  C   UNL     1      21.072  13.441  29.484  1.00  0.00     0.000 C 
BRANCH   2   3
ATOM      3  C   UNL     1      22.545  13.875  29.390  1.00  0.00     0.000 C 
BRANCH   3   4
ATOM      4  C   UNL     1      23.544  12.699  29.379  1.00  0.00     0.000 C 
BRANCH   4   5
ATOM      5  C   UNL     1      24.679  12.883  30.400  1.00  0.00     0.000 C 
BRANCH   5   6
ATOM      6  C   UNL     1      24.523  11.913  31.581  1.00  0.00     0.000 C 
BRANCH   6   7
ATOM      7  C   UNL     1      24.911  10.466  31.225  1.00  0.00     0.000 C 
BRANCH   7   8
ATOM      8  C   UNL     1      26.180  10.322  30.362  1.00  0.00     0.000 C 
BRANCH   8   9
ATOM      9  C   UNL     1      27.484  10.763  31.051  1.00  0.00     0.000 C 
BRANCH   9  10
ATOM     10  C   UNL     1      28.238  11.845  30.257  1.00  0.00     0.000 C 
BRANCH  10  11
ATOM     11  C   UNL     1      28.799  12.952  31.163  1.00  0.00     0.000 C 
BRANCH  11  12
ATOM     12  C   UNL     1      27.859  13.296  32.327  1.00  0.00     0.000 C 
BRANCH  12  13
ATOM     13  C   UNL     1      28.453  12.836  33.667  1.00  0.00     0.006 C 
BRANCH  13  14
ATOM     14  C   UNL     1      27.507  13.106  34.845  1.00  0.00     0.053 C 
BRANCH  14  15
ATOM     15  C   UNL     1      26.375  12.127  34.888  1.00  0.00     0.041 C 
ATOM     16  O   UNL     1      26.561  10.927  34.552  1.00  0.00    -0.550 OA
ATOM     17  O   UNL     1      25.110  12.542  35.285  1.00  0.00    -0.550 OA
ENDBRANCH  14  15
ENDBRANCH  13  14
ENDBRANCH  12  13
ENDBRANCH  11  12
ENDBRANCH  10  11
ENDBRANCH   9  10
ENDBRANCH   8   9
ENDBRANCH   7   8
ENDBRANCH   6   7
ENDBRANCH   5   6
ENDBRANCH   4   5
ENDBRANCH   3   4
ENDBRANCH   2   3
ENDBRANCH   1   2
BRANCH   1  18
ATOM     18  C   UNL     1      21.258  14.642  31.733  1.00  0.00     0.000 C 
BRANCH  18  19
ATOM     19  C   UNL     1      21.359  13.666  32.918  1.00  0.00     0.000 C 
BRANCH  19  20
ATOM     20  C   UNL     1      20.192  13.816  33.909  1.00  0.00     0.000 C 
BRANCH  20  21
ATOM     21  C   UNL     1      20.514  13.381  35.351  1.00  0.00     0.000 C 
BRANCH  21  22
ATOM     22  C   UNL     1      20.819  11.874  35.491  1.00  0.00     0.000 C 
BRANCH  22  23
ATOM     23  C   UNL     1      19.581  11.063  35.915  1.00  0.00     0.000 C 
BRANCH  23  24
ATOM     24  C   UNL     1      19.134  10.061  34.840  1.00  0.00    -0.000 C 
BRANCH  24  25
ATOM     25  C   UNL     1      18.393  10.731  33.675  1.00  0.00    -0.000 C 
BRANCH  25  26
ATOM     26  C   UNL     1      18.533   9.909  32.388  1.00  0.00    -0.000 C 
BRANCH  26  27
ATOM     27  C   UNL     1      19.378  10.655  31.344  1.00  0.00    -0.000 C 
BRANCH  27  28
ATOM     28  C   UNL     1      20.885  10.405  31.520  1.00  0.00    -0.000 C 
BRANCH  28  29
ATOM     29  C   UNL     1      21.528   9.793  30.264  1.00  0.00    -0.000 C 
BRANCH  29  30
ATOM     30  C   UNL     1      20.510   9.071  29.363  1.00  0.00    -0.000 C 
BRANCH  30  31
ATOM     31  C   UNL     1      20.359   7.564  29.637  1.00  0.00    -0.003 C 
ATOM     32  C   UNL     1      18.905   7.096  29.609  1.00  0.00     0.004 C 
ENDBRANCH  30  31
ENDBRANCH  29  30
ENDBRANCH  28  29
ENDBRANCH  27  28
ENDBRANCH  26  27
ENDBRANCH  25  26
ENDBRANCH  24  25
ENDBRANCH  23  24
ENDBRANCH  22  23
ENDBRANCH  21  22
ENDBRANCH  20  21
ENDBRANCH  19  20
ENDBRANCH  18  19
ENDBRANCH   1  18
TORSDOF 28
ENDMDL
MODEL 8
REMARK VINA RESULT:    -4.161      2.546      6.028
REMARK INTER + INTRA:         -15.752
REMARK INTER:                 -10.607
REMARK INTRA:                  -5.146
REMARK UNBOUND:                -4.779
REMARK SMILES CCCCCCCCCCCCCCCCCCCCCCCCCCCCCC(=O)[O-]
REMARK SMILES IDX 16 1 17 2 18 3 19 4 20 5 21 6 22 7 23 8 24 9 25 10 26 11
REMARK SMILES IDX 27 12 28 13 29 14 30 15 31 16 32 17 15 18 14 19 13 20 12 21
REMARK SMILES IDX 11 22 10 23 9 24 8 25 7 26 6 27 5 28 4 29 3 30 2 31 1 32
REMARK H PARENT
REMARK Flexibility Score: inf
ROOT
ATOM      1  C   UNL     1      26.436  11.617  34.585  1.00  0.00     0.000 C 
ENDROOT
BRANCH   1   2
ATOM      2  C   UNL     1      24.985  12.125  34.627  1.00  0.00     0.000 C 
BRANCH   2   3
ATOM      3  C   UNL     1      24.226  11.882  33.310  1.00  0.00     0.000 C 
BRANCH   3   4
ATOM      4  C   UNL     1      22.766  12.383  33.328  1.00  0.00     0.000 C 
BRANCH   4   5
ATOM      5  C   UNL     1      22.372  12.997  34.681  1.00  0.00     0.000 C 
BRANCH   5   6
ATOM      6  C   UNL     1      21.108  12.329  35.243  1.00  0.00     0.000 C 
BRANCH   6   7
ATOM      7  C   UNL     1      20.490  11.302  34.276  1.00  0.00     0.000 C 
BRANCH   7   8
ATOM      8  C   UNL     1      19.062  11.630  33.798  1.00  0.00     0.000 C 
BRANCH   8   9
ATOM      9  C   UNL     1      18.902  13.006  33.128  1.00  0.00     0.000 C 
BRANCH   9  10
ATOM     10  C   UNL     1      18.609  12.903  31.621  1.00  0.00     0.000 C 
BRANCH  10  11
ATOM     11  C   UNL     1      18.970  11.524  31.047  1.00  0.00     0.000 C 
BRANCH  11  12
ATOM     12  C   UNL     1      19.342  11.583  29.558  1.00  0.00     0.000 C 
BRANCH  12  13
ATOM     13  C   UNL     1      20.729  10.968  29.315  1.00  0.00     0.006 C 
BRANCH  13  14
ATOM     14  C   UNL     1      21.289  10.284  30.569  1.00  0.00     0.053 C 
BRANCH  14  15
ATOM     15  C   UNL     1      21.706   8.871  30.296  1.00  0.00     0.041 C 
ATOM     16  O   UNL     1      20.843   7.998  30.014  1.00  0.00    -0.550 OA
ATOM     17  O   UNL     1      23.046   8.515  30.367  1.00  0.00    -0.550 OA
ENDBRANCH  14  15
ENDBRANCH  13  14
ENDBRANCH  12  13
ENDBRANCH  11  12
ENDBRANCH  10  11
ENDBRANCH   9  10
ENDBRANCH   8   9
ENDBRANCH   7   8
ENDBRANCH   6   7
ENDBRANCH   5   6
ENDBRANCH   4   5
ENDBRANCH   3   4
ENDBRANCH   2   3
ENDBRANCH   1   2
BRANCH   1  18
ATOM     18  C   UNL     1      27.459  12.739  34.813  1.00  0.00     0.000 C 
BRANCH  18  19
ATOM     19  C   UNL     1      28.417  12.913  33.622  1.00  0.00     0.000 C 
BRANCH  19  20
ATOM     20  C   UNL     1      27.676  13.201  32.306  1.00  0.00     0.000 C 
BRANCH  20  21
ATOM     21  C   UNL     1      28.520  12.992  31.034  1.00  0.00     0.000 C 
BRANCH  21  22
ATOM     22  C   UNL     1      28.100  11.759  30.205  1.00  0.00     0.000 C 
BRANCH  22  23
ATOM     23  C   UNL     1      27.358  10.710  31.053  1.00  0.00     0.000 C 
BRANCH  23  24
ATOM     24  C   UNL     1      25.970  10.368  30.489  1.00  0.00    -0.000 C 
BRANCH  24  25
ATOM     25  C   UNL     1      25.720  10.993  29.109  1.00  0.00    -0.000 C 
BRANCH  25  26
ATOM     26  C   UNL     1      24.384  11.745  29.080  1.00  0.00    -0.000 C 
BRANCH  26  27
ATOM     27  C   UNL     1      24.547  13.182  29.597  1.00  0.00    -0.000 C 
BRANCH  27  28
ATOM     28  C   UNL     1      23.340  14.071  29.252  1.00  0.00    -0.000 C 
BRANCH  28  29
ATOM     29  C   UNL     1      22.204  13.942  30.281  1.00  0.00    -0.000 C 
BRANCH  29  30
ATOM     30  C   UNL     1      21.158  15.064  30.159  1.00  0.00    -0.000 C 
BRANCH  30  31
ATOM     31  C   UNL     1      21.258  15.906  28.875  1.00  0.00    -0.003 C 
ATOM     32  C   UNL     1      20.531  17.246  28.982  1.00  0.00     0.004 C 
ENDBRANCH  30  31
ENDBRANCH  29  30
ENDBRANCH  28  29
ENDBRANCH  27  28
ENDBRANCH  26  27
ENDBRANCH  25  26
ENDBRANCH  24  25
ENDBRANCH  23  24
ENDBRANCH  22  23
ENDBRANCH  21  22
ENDBRANCH  20  21
ENDBRANCH  19  20
ENDBRANCH  18  19
ENDBRANCH   1  18
TORSDOF 28
ENDMDL
MODEL 9
REMARK VINA RESULT:    -4.108      1.338      2.356
REMARK INTER + INTRA:         -15.612
REMARK INTER:                 -10.098
REMARK INTRA:                  -5.514
REMARK UNBOUND:                -4.779
REMARK SMILES CCCCCCCCCCCCCCCCCCCCCCCCCCCCCC(=O)[O-]
REMARK SMILES IDX 16 1 17 2 18 3 19 4 20 5 21 6 22 7 23 8 24 9 25 10 26 11
REMARK SMILES IDX 27 12 28 13 29 14 30 15 31 16 32 17 15 18 14 19 13 20 12 21
REMARK SMILES IDX 11 22 10 23 9 24 8 25 7 26 6 27 5 28 4 29 3 30 2 31 1 32
REMARK H PARENT
REMARK Flexibility Score: inf
ROOT
ATOM      1  C   UNL     1      19.747  10.390  31.804  1.00  0.00     0.000 C 
ENDROOT
BRANCH   1   2
ATOM      2  C   UNL     1      18.764  11.573  31.839  1.00  0.00     0.000 C 
BRANCH   2   3
ATOM      3  C   UNL     1      17.940  11.707  30.547  1.00  0.00     0.000 C 
BRANCH   3   4
ATOM      4  C   UNL     1      18.535  12.700  29.526  1.00  0.00     0.000 C 
BRANCH   4   5
ATOM      5  C   UNL     1      19.617  13.600  30.144  1.00  0.00     0.000 C 
BRANCH   5   6
ATOM      6  C   UNL     1      20.955  13.444  29.404  1.00  0.00     0.000 C 
BRANCH   6   7
ATOM      7  C   UNL     1      22.089  12.940  30.316  1.00  0.00     0.000 C 
BRANCH   7   8
ATOM      8  C   UNL     1      21.973  13.354  31.796  1.00  0.00     0.000 C 
BRANCH   8   9
ATOM      9  C   UNL     1      22.704  12.431  32.787  1.00  0.00     0.000 C 
BRANCH   9  10
ATOM     10  C   UNL     1      22.234  12.626  34.239  1.00  0.00     0.000 C 
BRANCH  10  11
ATOM     11  C   UNL     1      20.932  13.437  34.329  1.00  0.00     0.000 C 
BRANCH  11  12
ATOM     12  C   UNL     1      20.069  13.035  35.534  1.00  0.00     0.000 C 
BRANCH  12  13
ATOM     13  C   UNL     1      19.385  11.681  35.291  1.00  0.00     0.006 C 
BRANCH  13  14
ATOM     14  C   UNL     1      19.975  10.567  36.166  1.00  0.00     0.053 C 
BRANCH  14  15
ATOM     15  C   UNL     1      19.291   9.255  35.938  1.00  0.00     0.041 C 
ATOM     16  O   UNL     1      18.611   9.067  34.894  1.00  0.00    -0.550 OA
ATOM     17  O   UNL     1      19.389   8.244  36.885  1.00  0.00    -0.550 OA
ENDBRANCH  14  15
ENDBRANCH  13  14
ENDBRANCH  12  13
ENDBRANCH  11  12
ENDBRANCH  10  11
ENDBRANCH   9  10
ENDBRANCH   8   9
ENDBRANCH   7   8
ENDBRANCH   6   7
ENDBRANCH   5   6
ENDBRANCH   4   5
ENDBRANCH   3   4
ENDBRANCH   2   3
ENDBRANCH   1   2
BRANCH   1  18
ATOM     18  C   UNL     1      19.128   9.130  31.179  1.00  0.00     0.000 C 
BRANCH  18  19
ATOM     19  C   UNL     1      20.015   8.524  30.078  1.00  0.00     0.000 C 
BRANCH  19  20
ATOM     20  C   UNL     1      20.573   9.588  29.117  1.00  0.00     0.000 C 
BRANCH  20  21
ATOM     21  C   UNL     1      22.110   9.609  29.005  1.00  0.00     0.000 C 
BRANCH  21  22
ATOM     22  C   UNL     1      22.829   8.996  30.226  1.00  0.00     0.000 C 
BRANCH  22  23
ATOM     23  C   UNL     1      24.159   9.707  30.538  1.00  0.00     0.000 C 
BRANCH  23  24
ATOM     24  C   UNL     1      24.742  10.434  29.316  1.00  0.00    -0.000 C 
BRANCH  24  25
ATOM     25  C   UNL     1      25.483  11.725  29.692  1.00  0.00    -0.000 C 
BRANCH  25  26
ATOM     26  C   UNL     1      26.039  11.644  31.119  1.00  0.00    -0.000 C 
BRANCH  26  27
ATOM     27  C   UNL     1      26.578  13.006  31.580  1.00  0.00    -0.000 C 
BRANCH  27  28
ATOM     28  C   UNL     1      28.011  12.916  32.129  1.00  0.00    -0.000 C 
BRANCH  28  29
ATOM     29  C   UNL     1      28.066  13.098  33.656  1.00  0.00    -0.000 C 
BRANCH  29  30
ATOM     30  C   UNL     1      28.056  11.761  34.418  1.00  0.00    -0.000 C 
BRANCH  30  31
ATOM     31  C   UNL     1      26.657  11.190  34.706  1.00  0.00    -0.003 C 
ATOM     32  C   UNL     1      25.664  12.254  35.174  1.00  0.00     0.004 C 
ENDBRANCH  30  31
ENDBRANCH  29  30
ENDBRANCH  28  29
ENDBRANCH  27  28
ENDBRANCH  26  27
ENDBRANCH  25  26
ENDBRANCH  24  25
ENDBRANCH  23  24
ENDBRANCH  22  23
ENDBRANCH  21  22
ENDBRANCH  20  21
ENDBRANCH  19  20
ENDBRANCH  18  19
ENDBRANCH   1  18
TORSDOF 28
ENDMDL
