MODEL 1
REMARK VINA RESULT:     3.797      0.000      0.000
REMARK INTER + INTRA:           5.454
REMARK INTER:                   6.017
REMARK INTRA:                  -0.562
REMARK UNBOUND:                -0.562
REMARK SMILES CCCCCCCCCCCC(=O)[O-]
REMARK SMILES IDX 7 1 8 2 9 3 10 4 11 5 12 6 13 7 14 8 6 9 5 10 4 11 3 12 2 13
REMARK SMILES IDX 1 14
REMARK H PARENT
REMARK Flexibility Score: inf
ROOT
ATOM      1  C   UNL     1       4.099  -8.544  12.456  1.00  0.00     0.000 C 
ENDROOT
BRANCH   1   2
ATOM      2  C   UNL     1       3.496  -8.238  11.074  1.00  0.00     0.000 C 
BRANCH   2   3
ATOM      3  C   UNL     1       2.258  -7.327  11.148  1.00  0.00     0.000 C 
BRANCH   3   4
ATOM      4  C   UNL     1       1.268  -7.672  12.277  1.00  0.00     0.006 C 
BRANCH   4   5
ATOM      5  C   UNL     1      -0.192  -7.411  11.891  1.00  0.00     0.053 C 
BRANCH   5   6
ATOM      6  C   UNL     1      -0.499  -8.023  10.561  1.00  0.00     0.041 C 
ATOM      7  O   UNL     1      -1.125  -7.366   9.689  1.00  0.00    -0.550 OA
ATOM      8  O   UNL     1      -0.048  -9.304  10.266  1.00  0.00    -0.550 OA
ENDBRANCH   5   6
ENDBRANCH   4   5
ENDBRANCH   3   4
ENDBRANCH   2   3
ENDBRANCH   1   2
BRANCH   1   9
ATOM      9  C   UNL     1       4.886  -7.356  13.031  1.00  0.00     0.000 C 
BRANCH   9  10
ATOM     10  C   UNL     1       5.770  -6.669  11.975  1.00  0.00    -0.000 C 
BRANCH  10  11
ATOM     11  C   UNL     1       7.269  -6.745  12.314  1.00  0.00    -0.000 C 
BRANCH  11  12
ATOM     12  C   UNL     1       7.591  -6.872  13.816  1.00  0.00    -0.000 C 
BRANCH  12  13
ATOM     13  C   UNL     1       8.165  -5.602  14.468  1.00  0.00    -0.003 C 
ATOM     14  C   UNL     1       7.145  -4.864  15.333  1.00  0.00     0.004 C 
ENDBRANCH  12  13
ENDBRANCH  11  12
ENDBRANCH  10  11
ENDBRANCH   9  10
ENDBRANCH   1   9
TORSDOF 10
ENDMDL
MODEL 2
REMARK VINA RESULT:     4.316      3.952      7.466
REMARK INTER + INTRA:           6.277
REMARK INTER:                   6.833
REMARK INTRA:                  -0.556
REMARK UNBOUND:                -0.562
REMARK SMILES CCCCCCCCCCCC(=O)[O-]
REMARK SMILES IDX 7 1 8 2 9 3 10 4 11 5 12 6 13 7 14 8 6 9 5 10 4 11 3 12 2 13
REMARK SMILES IDX 1 14
REMARK H PARENT
REMARK Flexibility Score: inf
ROOT
ATOM      1  C   UNL     1       3.656  -8.428  12.559  1.00  0.00     0.000 C 
ENDROOT
BRANCH   1   2
ATOM      2  C   UNL     1       5.016  -7.875  13.019  1.00  0.00     0.000 C 
BRANCH   2   3
ATOM      3  C   UNL     1       5.728  -7.053  11.930  1.00  0.00     0.000 C 
BRANCH   3   4
ATOM      4  C   UNL     1       7.024  -6.357  12.388  1.00  0.00     0.006 C 
BRANCH   4   5
ATOM      5  C   UNL     1       7.473  -6.793  13.788  1.00  0.00     0.053 C 
BRANCH   5   6
ATOM      6  C   UNL     1       7.870  -5.603  14.603  1.00  0.00     0.041 C 
ATOM      7  O   UNL     1       9.078  -5.255  14.670  1.00  0.00    -0.550 OA
ATOM      8  O   UNL     1       6.899  -4.846  15.248  1.00  0.00    -0.550 OA
ENDBRANCH   5   6
ENDBRANCH   4   5
ENDBRANCH   3   4
ENDBRANCH   2   3
ENDBRANCH   1   2
BRANCH   1   9
ATOM      9  C   UNL     1       3.239  -7.891  11.181  1.00  0.00     0.000 C 
BRANCH   9  10
ATOM     10  C   UNL     1       2.243  -6.722  11.281  1.00  0.00    -0.000 C 
BRANCH  10  11
ATOM     11  C   UNL     1       0.836  -7.174  11.710  1.00  0.00    -0.000 C 
BRANCH  11  12
ATOM     12  C   UNL     1       0.292  -8.406  10.960  1.00  0.00    -0.000 C 
BRANCH  12  13
ATOM     13  C   UNL     1      -1.097  -8.219  10.322  1.00  0.00    -0.003 C 
ATOM     14  C   UNL     1      -1.125  -7.109   9.273  1.00  0.00     0.004 C 
ENDBRANCH  12  13
ENDBRANCH  11  12
ENDBRANCH  10  11
ENDBRANCH   9  10
ENDBRANCH   1   9
TORSDOF 10
ENDMDL
MODEL 3
REMARK VINA RESULT:     4.952      0.517      1.151
REMARK INTER + INTRA:           7.285
REMARK INTER:                   8.023
REMARK INTRA:                  -0.738
REMARK UNBOUND:                -0.562
REMARK SMILES CCCCCCCCCCCC(=O)[O-]
REMARK SMILES IDX 7 1 8 2 9 3 10 4 11 5 12 6 13 7 14 8 6 9 5 10 4 11 3 12 2 13
REMARK SMILES IDX 1 14
REMARK H PARENT
REMARK Flexibility Score: inf
ROOT
ATOM      1  C   UNL     1       4.831  -7.587  13.064  1.00  0.00     0.000 C 
ENDROOT
BRANCH   1   2
ATOM      2  C   UNL     1       3.567  -8.320  12.582  1.00  0.00     0.000 C 
BRANCH   2   3
ATOM      3  C   UNL     1       3.110  -7.870  11.183  1.00  0.00     0.000 C 
BRANCH   3   4
ATOM      4  C   UNL     1       1.954  -6.851  11.177  1.00  0.00     0.006 C 
BRANCH   4   5
ATOM      5  C   UNL     1       0.660  -7.413  11.777  1.00  0.00     0.053 C 
BRANCH   5   6
ATOM      6  C   UNL     1      -0.231  -7.939  10.697  1.00  0.00     0.041 C 
ATOM      7  O   UNL     1      -0.894  -7.145   9.979  1.00  0.00    -0.550 OA
ATOM      8  O   UNL     1      -0.292  -9.305  10.449  1.00  0.00    -0.550 OA
ENDBRANCH   5   6
ENDBRANCH   4   5
ENDBRANCH   3   4
ENDBRANCH   2   3
ENDBRANCH   1   2
BRANCH   1   9
ATOM      9  C   UNL     1       5.555  -6.852  11.924  1.00  0.00     0.000 C 
BRANCH   9  10
ATOM     10  C   UNL     1       7.052  -6.648  12.213  1.00  0.00    -0.000 C 
BRANCH  10  11
ATOM     11  C   UNL     1       7.416  -6.917  13.684  1.00  0.00    -0.000 C 
BRANCH  11  12
ATOM     12  C   UNL     1       8.331  -5.857  14.332  1.00  0.00    -0.000 C 
BRANCH  12  13
ATOM     13  C   UNL     1       7.599  -4.787  15.162  1.00  0.00    -0.003 C 
ATOM     14  C   UNL     1       6.265  -5.277  15.722  1.00  0.00     0.004 C 
ENDBRANCH  12  13
ENDBRANCH  11  12
ENDBRANCH  10  11
ENDBRANCH   9  10
ENDBRANCH   1   9
TORSDOF 10
ENDMDL
MODEL 4
REMARK VINA RESULT:     5.132      3.800      7.195
REMARK INTER + INTRA:           7.570
REMARK INTER:                   7.987
REMARK INTRA:                  -0.417
REMARK UNBOUND:                -0.562
REMARK SMILES CCCCCCCCCCCC(=O)[O-]
REMARK SMILES IDX 7 1 8 2 9 3 10 4 11 5 12 6 13 7 14 8 6 9 5 10 4 11 3 12 2 13
REMARK SMILES IDX 1 14
REMARK H PARENT
REMARK Flexibility Score: inf
ROOT
ATOM      1  C   UNL     1       3.607  -8.051  11.137  1.00  0.00     0.000 C 
ENDROOT
BRANCH   1   2
ATOM      2  C   UNL     1       3.853  -8.316  12.633  1.00  0.00     0.000 C 
BRANCH   2   3
ATOM      3  C   UNL     1       5.235  -7.833  13.108  1.00  0.00     0.000 C 
BRANCH   3   4
ATOM      4  C   UNL     1       6.082  -7.135  12.028  1.00  0.00     0.006 C 
BRANCH   4   5
ATOM      5  C   UNL     1       6.783  -5.871  12.543  1.00  0.00     0.053 C 
BRANCH   5   6
ATOM      6  C   UNL     1       7.541  -6.170  13.797  1.00  0.00     0.041 C 
ATOM      7  O   UNL     1       8.414  -7.077  13.809  1.00  0.00    -0.550 OA
ATOM      8  O   UNL     1       7.320  -5.412  14.941  1.00  0.00    -0.550 OA
ENDBRANCH   5   6
ENDBRANCH   4   5
ENDBRANCH   3   4
ENDBRANCH   2   3
ENDBRANCH   1   2
BRANCH   1   9
ATOM      9  C   UNL     1       2.776  -6.781  10.894  1.00  0.00     0.000 C 
BRANCH   9  10
ATOM     10  C   UNL     1       1.866  -6.436  12.086  1.00  0.00    -0.000 C 
BRANCH  10  11
ATOM     11  C   UNL     1       0.522  -7.185  12.044  1.00  0.00    -0.000 C 
BRANCH  11  12
ATOM     12  C   UNL     1       0.385  -8.212  10.902  1.00  0.00    -0.000 C 
BRANCH  12  13
ATOM     13  C   UNL     1      -0.992  -8.239  10.213  1.00  0.00    -0.003 C 
ATOM     14  C   UNL     1      -1.125  -7.193   9.108  1.00  0.00     0.004 C 
ENDBRANCH  12  13
ENDBRANCH  11  12
ENDBRANCH  10  11
ENDBRANCH   9  10
ENDBRANCH   1   9
TORSDOF 10
ENDMDL
MODEL 5
REMARK VINA RESULT:     5.526      0.852      1.894
REMARK INTER + INTRA:           8.194
REMARK INTER:                   7.274
REMARK INTRA:                   0.920
REMARK UNBOUND:                -0.562
REMARK SMILES CCCCCCCCCCCC(=O)[O-]
REMARK SMILES IDX 7 1 8 2 9 3 10 4 11 5 12 6 13 7 14 8 6 9 5 10 4 11 3 12 2 13
REMARK SMILES IDX 1 14
REMARK H PARENT
REMARK Flexibility Score: inf
ROOT
ATOM      1  C   UNL     1       3.905  -7.387  10.668  1.00  0.00     0.000 C 
ENDROOT
BRANCH   1   2
ATOM      2  C   UNL     1       3.092  -6.354  11.468  1.00  0.00     0.000 C 
BRANCH   2   3
ATOM      3  C   UNL     1       1.579  -6.441  11.196  1.00  0.00     0.000 C 
BRANCH   3   4
ATOM      4  C   UNL     1       0.867  -7.627  11.875  1.00  0.00     0.006 C 
BRANCH   4   5
ATOM      5  C   UNL     1      -0.648  -7.627  11.639  1.00  0.00     0.053 C 
BRANCH   5   6
ATOM      6  C   UNL     1      -0.958  -8.052  10.238  1.00  0.00     0.041 C 
ATOM      7  O   UNL     1      -1.123  -9.270   9.967  1.00  0.00    -0.550 OA
ATOM      8  O   UNL     1      -1.115  -7.097   9.241  1.00  0.00    -0.550 OA
ENDBRANCH   5   6
ENDBRANCH   4   5
ENDBRANCH   3   4
ENDBRANCH   2   3
ENDBRANCH   1   2
BRANCH   1   9
ATOM      9  C   UNL     1       4.207  -8.655  11.482  1.00  0.00     0.000 C 
BRANCH   9  10
ATOM     10  C   UNL     1       4.153  -8.408  13.000  1.00  0.00    -0.000 C 
BRANCH  10  11
ATOM     11  C   UNL     1       5.046  -7.236  13.444  1.00  0.00    -0.000 C 
BRANCH  11  12
ATOM     12  C   UNL     1       6.162  -6.855  12.449  1.00  0.00    -0.000 C 
BRANCH  12  13
ATOM     13  C   UNL     1       7.590  -6.918  13.019  1.00  0.00    -0.003 C 
ATOM     14  C   UNL     1       7.859  -5.843  14.071  1.00  0.00     0.004 C 
ENDBRANCH  12  13
ENDBRANCH  11  12
ENDBRANCH  10  11
ENDBRANCH   9  10
ENDBRANCH   1   9
TORSDOF 10
ENDMDL
MODEL 6
REMARK VINA RESULT:     6.557      1.997      2.656
REMARK INTER + INTRA:           9.827
REMARK INTER:                  10.636
REMARK INTRA:                  -0.809
REMARK UNBOUND:                -0.562
REMARK SMILES CCCCCCCCCCCC(=O)[O-]
REMARK SMILES IDX 7 1 8 2 9 3 10 4 11 5 12 6 13 7 14 8 6 9 5 10 4 11 3 12 2 13
REMARK SMILES IDX 1 14
REMARK H PARENT
REMARK Flexibility Score: inf
ROOT
ATOM      1  C   UNL     1       4.138  -8.588  10.971  1.00  0.00     0.000 C 
ENDROOT
BRANCH   1   2
ATOM      2  C   UNL     1       2.685  -8.571  10.466  1.00  0.00     0.000 C 
BRANCH   2   3
ATOM      3  C   UNL     1       1.678  -8.148  11.550  1.00  0.00     0.000 C 
BRANCH   3   4
ATOM      4  C   UNL     1       1.187  -6.691  11.444  1.00  0.00     0.006 C 
BRANCH   4   5
ATOM      5  C   UNL     1       2.336  -5.680  11.346  1.00  0.00     0.053 C 
BRANCH   5   6
ATOM      6  C   UNL     1       2.209  -4.866  10.097  1.00  0.00     0.041 C 
ATOM      7  O   UNL     1       1.612  -5.334   9.093  1.00  0.00    -0.550 OA
ATOM      8  O   UNL     1       2.706  -3.569  10.060  1.00  0.00    -0.550 OA
ENDBRANCH   5   6
ENDBRANCH   4   5
ENDBRANCH   3   4
ENDBRANCH   2   3
ENDBRANCH   1   2
BRANCH   1   9
ATOM      9  C   UNL     1       4.227  -8.633  12.505  1.00  0.00     0.000 C 
BRANCH   9  10
ATOM     10  C   UNL     1       4.870  -7.366  13.095  1.00  0.00    -0.000 C 
BRANCH  10  11
ATOM     11  C   UNL     1       5.749  -6.617  12.078  1.00  0.00    -0.000 C 
BRANCH  11  12
ATOM     12  C   UNL     1       7.266  -6.703  12.342  1.00  0.00    -0.000 C 
BRANCH  12  13
ATOM     13  C   UNL     1       7.663  -6.811  13.826  1.00  0.00    -0.003 C 
ATOM     14  C   UNL     1       7.558  -5.480  14.568  1.00  0.00     0.004 C 
ENDBRANCH  12  13
ENDBRANCH  11  12
ENDBRANCH  10  11
ENDBRANCH   9  10
ENDBRANCH   1   9
TORSDOF 10
ENDMDL
