MODEL 1
REMARK VINA RESULT:    -8.870      0.000      0.000
REMARK INTER + INTRA:          -8.999
REMARK INTER:                  -9.648
REMARK INTRA:                   0.649
REMARK UNBOUND:                 0.649
REMARK SMILES C[C@H]1[C@H]2C3=CC[C@H]4[C@]5(C)CC[C@H](O)C(C)(C)[C@@H]5CC[C@@]4(C)[C@@]3(C)CC[C@]2(C(=O)[O-])CC[C@@H]1C
REMARK SMILES IDX 26 1 30 2 25 3 3 4 31 5 24 6 4 7 2 8 32 9 22 10 5 11 1 12
REMARK SMILES IDX 33 13 23 14 20 15 6 16 7 17 19 18 21 19 8 20 18 21 17 22
REMARK SMILES IDX 10 23 9 24 14 25 11 26 12 27 15 28 16 29 27 30 28 31 29 32
REMARK SMILES IDX 13 33
REMARK H PARENT 13 34
REMARK Flexibility Score: inf
ROOT
ATOM      1  C   UNL     1      20.423  33.598  10.962  1.00  0.00     0.017 C 
ATOM      2  C   UNL     1      20.713  35.044  11.459  1.00  0.00     0.014 C 
ATOM      3  C   UNL     1      20.831  32.631  12.091  1.00  0.00     0.014 C 
ATOM      4  C   UNL     1      18.886  33.446  10.717  1.00  0.00     0.030 C 
ATOM      5  C   UNL     1      20.221  36.113  10.477  1.00  0.00     0.004 C 
ATOM      6  C   UNL     1      20.536  31.168  11.743  1.00  0.00     0.013 C 
ATOM      7  C   UNL     1      18.461  31.977  10.466  1.00  0.00    -0.063 C 
ATOM      8  C   UNL     1      18.318  34.547   9.740  1.00  0.00    -0.003 C 
ATOM      9  C   UNL     1      18.714  35.988  10.181  1.00  0.00    -0.011 C 
ATOM     10  C   UNL     1      19.046  30.855  11.341  1.00  0.00    -0.006 C 
ATOM     11  C   UNL     1      17.323  31.711   9.789  1.00  0.00    -0.027 C 
ATOM     12  C   UNL     1      18.665  34.328   8.252  1.00  0.00     0.008 C 
ATOM     13  C   UNL     1      17.864  36.487  11.365  1.00  0.00     0.008 C 
ATOM     14  C   UNL     1      18.220  30.875  12.666  1.00  0.00     0.017 C 
ATOM     15  C   UNL     1      18.920  29.421  10.593  1.00  0.00    -0.020 C 
ATOM     16  C   UNL     1      16.800  30.339   9.486  1.00  0.00     0.032 C 
ATOM     17  C   UNL     1      17.413  29.117  10.256  1.00  0.00     0.006 C 
ATOM     18  C   UNL     1      19.660  29.418   9.222  1.00  0.00     0.008 C 
ATOM     19  C   UNL     1      19.534  28.323  11.519  1.00  0.00     0.012 C 
ATOM     20  C   UNL     1      17.099  27.730   9.492  1.00  0.00    -0.025 C 
ATOM     21  C   UNL     1      19.585  28.077   8.487  1.00  0.00     0.005 C 
ATOM     22  C   UNL     1      18.180  27.384   8.364  1.00  0.00     0.003 C 
ATOM     23  C   UNL     1      16.968  26.539  10.493  1.00  0.00     0.010 C 
ATOM     24  C   UNL     1      15.654  27.864   8.865  1.00  0.00     0.012 C 
ATOM     25  C   UNL     1      18.340  25.821   8.017  1.00  0.00    -0.006 C 
ATOM     26  C   UNL     1      16.626  25.178   9.835  1.00  0.00     0.033 C 
ATOM     27  C   UNL     1      17.035  25.041   8.346  1.00  0.00     0.120 C 
ATOM     28  C   UNL     1      19.520  25.117   8.759  1.00  0.00     0.014 C 
ATOM     29  C   UNL     1      18.613  25.679   6.497  1.00  0.00     0.014 C 
ENDROOT
BRANCH   1  30
ATOM     30  C   UNL     1      21.272  33.285   9.731  1.00  0.00     0.048 C 
ATOM     31  O   UNL     1      22.446  33.733   9.636  1.00  0.00    -0.550 OA
ATOM     32  O   UNL     1      20.817  32.413   8.751  1.00  0.00    -0.550 OA
ENDBRANCH   1  30
BRANCH  27  33
ATOM     33  O   UNL     1      17.171  23.676   8.026  1.00  0.00    -0.393 OA
ATOM     34  H   UNL     1      17.896  23.606   7.351  1.00  0.00     0.210 HD
ENDBRANCH  27  33
TORSDOF 2
ENDMDL
MODEL 2
REMARK VINA RESULT:    -8.611      1.581      1.926
REMARK INTER + INTRA:          -8.717
REMARK INTER:                  -9.368
REMARK INTRA:                   0.651
REMARK UNBOUND:                 0.649
REMARK SMILES C[C@H]1[C@H]2C3=CC[C@H]4[C@]5(C)CC[C@H](O)C(C)(C)[C@@H]5CC[C@@]4(C)[C@@]3(C)CC[C@]2(C(=O)[O-])CC[C@@H]1C
REMARK SMILES IDX 26 1 30 2 25 3 3 4 31 5 24 6 4 7 2 8 32 9 22 10 5 11 1 12
REMARK SMILES IDX 33 13 23 14 20 15 6 16 7 17 19 18 21 19 8 20 18 21 17 22
REMARK SMILES IDX 10 23 9 24 14 25 11 26 12 27 15 28 16 29 27 30 28 31 29 32
REMARK SMILES IDX 13 33
REMARK H PARENT 13 34
REMARK Flexibility Score: inf
ROOT
ATOM      1  C   UNL     1      18.628  34.053  11.054  1.00  0.00     0.017 C 
ATOM      2  C   UNL     1      18.775  35.446  11.730  1.00  0.00     0.014 C 
ATOM      3  C   UNL     1      19.833  33.197  11.488  1.00  0.00     0.014 C 
ATOM      4  C   UNL     1      17.324  33.368  11.582  1.00  0.00     0.030 C 
ATOM      5  C   UNL     1      17.561  36.350  11.487  1.00  0.00     0.004 C 
ATOM      6  C   UNL     1      19.771  31.771  10.930  1.00  0.00     0.013 C 
ATOM      7  C   UNL     1      17.217  31.879  11.167  1.00  0.00    -0.063 C 
ATOM      8  C   UNL     1      16.047  34.273  11.391  1.00  0.00    -0.003 C 
ATOM      9  C   UNL     1      16.246  35.707  11.967  1.00  0.00    -0.011 C 
ATOM     10  C   UNL     1      18.456  30.971  11.261  1.00  0.00    -0.006 C 
ATOM     11  C   UNL     1      16.009  31.281  11.111  1.00  0.00    -0.027 C 
ATOM     12  C   UNL     1      15.523  34.348   9.940  1.00  0.00     0.008 C 
ATOM     13  C   UNL     1      16.133  35.735  13.503  1.00  0.00     0.008 C 
ATOM     14  C   UNL     1      18.563  30.553  12.762  1.00  0.00     0.017 C 
ATOM     15  C   UNL     1      18.290  29.675  10.301  1.00  0.00    -0.020 C 
ATOM     16  C   UNL     1      15.770  29.850  10.730  1.00  0.00     0.032 C 
ATOM     17  C   UNL     1      16.996  28.870  10.696  1.00  0.00     0.006 C 
ATOM     18  C   UNL     1      18.086  30.083   8.811  1.00  0.00     0.008 C 
ATOM     19  C   UNL     1      19.574  28.795  10.429  1.00  0.00     0.012 C 
ATOM     20  C   UNL     1      16.662  27.550   9.830  1.00  0.00    -0.025 C 
ATOM     21  C   UNL     1      17.943  28.889   7.863  1.00  0.00     0.005 C 
ATOM     22  C   UNL     1      16.950  27.742   8.268  1.00  0.00     0.003 C 
ATOM     23  C   UNL     1      17.430  26.301  10.368  1.00  0.00     0.010 C 
ATOM     24  C   UNL     1      15.140  27.202  10.085  1.00  0.00     0.012 C 
ATOM     25  C   UNL     1      17.268  26.392   7.453  1.00  0.00    -0.006 C 
ATOM     26  C   UNL     1      17.129  24.983   9.610  1.00  0.00     0.033 C 
ATOM     27  C   UNL     1      16.632  25.156   8.151  1.00  0.00     0.120 C 
ATOM     28  C   UNL     1      18.791  26.104   7.261  1.00  0.00     0.014 C 
ATOM     29  C   UNL     1      16.649  26.514   6.036  1.00  0.00     0.014 C 
ENDROOT
BRANCH   1  30
ATOM     30  C   UNL     1      18.666  34.200   9.533  1.00  0.00     0.048 C 
ATOM     31  O   UNL     1      19.469  35.006   8.991  1.00  0.00    -0.550 OA
ATOM     32  O   UNL     1      17.907  33.374   8.715  1.00  0.00    -0.550 OA
ENDBRANCH   1  30
BRANCH  27  33
ATOM     33  O   UNL     1      16.898  23.977   7.428  1.00  0.00    -0.393 OA
ATOM     34  H   UNL     1      16.159  23.864   6.774  1.00  0.00     0.210 HD
ENDBRANCH  27  33
TORSDOF 2
ENDMDL
MODEL 3
REMARK VINA RESULT:    -8.488      8.574     10.414
REMARK INTER + INTRA:          -8.584
REMARK INTER:                  -9.232
REMARK INTRA:                   0.649
REMARK UNBOUND:                 0.649
REMARK SMILES C[C@H]1[C@H]2C3=CC[C@H]4[C@]5(C)CC[C@H](O)C(C)(C)[C@@H]5CC[C@@]4(C)[C@@]3(C)CC[C@]2(C(=O)[O-])CC[C@@H]1C
REMARK SMILES IDX 26 1 30 2 25 3 3 4 31 5 24 6 4 7 2 8 32 9 22 10 5 11 1 12
REMARK SMILES IDX 33 13 23 14 20 15 6 16 7 17 19 18 21 19 8 20 18 21 17 22
REMARK SMILES IDX 10 23 9 24 14 25 11 26 12 27 15 28 16 29 27 30 28 31 29 32
REMARK SMILES IDX 13 33
REMARK H PARENT 13 34
REMARK Flexibility Score: inf
ROOT
ATOM      1  C   UNL     1      13.213  36.878   7.465  1.00  0.00     0.017 C 
ATOM      2  C   UNL     1      14.139  37.621   8.470  1.00  0.00     0.014 C 
ATOM      3  C   UNL     1      14.115  36.205   6.414  1.00  0.00     0.014 C 
ATOM      4  C   UNL     1      12.431  35.759   8.229  1.00  0.00     0.030 C 
ATOM      5  C   UNL     1      13.367  38.221   9.650  1.00  0.00     0.004 C 
ATOM      6  C   UNL     1      13.317  35.385   5.394  1.00  0.00     0.013 C 
ATOM      7  C   UNL     1      11.674  34.798   7.278  1.00  0.00    -0.063 C 
ATOM      8  C   UNL     1      11.647  36.316   9.479  1.00  0.00    -0.003 C 
ATOM      9  C   UNL     1      12.557  37.160  10.420  1.00  0.00    -0.011 C 
ATOM     10  C   UNL     1      12.367  34.286   6.003  1.00  0.00    -0.006 C 
ATOM     11  C   UNL     1      10.608  34.103   7.729  1.00  0.00    -0.027 C 
ATOM     12  C   UNL     1      10.361  37.099   9.135  1.00  0.00     0.008 C 
ATOM     13  C   UNL     1      13.472  36.275  11.289  1.00  0.00     0.008 C 
ATOM     14  C   UNL     1      13.292  33.114   6.464  1.00  0.00     0.017 C 
ATOM     15  C   UNL     1      11.272  33.779   4.920  1.00  0.00    -0.020 C 
ATOM     16  C   UNL     1       9.796  33.141   6.914  1.00  0.00     0.032 C 
ATOM     17  C   UNL     1      10.378  32.644   5.545  1.00  0.00     0.006 C 
ATOM     18  C   UNL     1      10.283  34.915   4.524  1.00  0.00     0.008 C 
ATOM     19  C   UNL     1      12.028  33.279   3.647  1.00  0.00     0.012 C 
ATOM     20  C   UNL     1       9.217  32.028   4.608  1.00  0.00    -0.025 C 
ATOM     21  C   UNL     1       9.240  34.488   3.488  1.00  0.00     0.005 C 
ATOM     22  C   UNL     1       8.472  33.139   3.730  1.00  0.00     0.003 C 
ATOM     23  C   UNL     1       9.764  30.893   3.686  1.00  0.00     0.010 C 
ATOM     24  C   UNL     1       8.197  31.287   5.564  1.00  0.00     0.012 C 
ATOM     25  C   UNL     1       7.801  32.607   2.368  1.00  0.00    -0.006 C 
ATOM     26  C   UNL     1       8.696  30.223   2.784  1.00  0.00     0.033 C 
ATOM     27  C   UNL     1       7.452  31.095   2.472  1.00  0.00     0.120 C 
ATOM     28  C   UNL     1       8.685  32.810   1.097  1.00  0.00     0.014 C 
ATOM     29  C   UNL     1       6.483  33.388   2.130  1.00  0.00     0.014 C 
ENDROOT
BRANCH   1  30
ATOM     30  C   UNL     1      12.304  37.877   6.750  1.00  0.00     0.048 C 
ATOM     31  O   UNL     1      12.733  39.022   6.445  1.00  0.00    -0.550 OA
ATOM     32  O   UNL     1      11.035  37.510   6.320  1.00  0.00    -0.550 OA
ENDBRANCH   1  30
BRANCH  27  33
ATOM     33  O   UNL     1       6.850  30.635   1.284  1.00  0.00    -0.393 OA
ATOM     34  H   UNL     1       5.932  30.337   1.520  1.00  0.00     0.210 HD
ENDBRANCH  27  33
TORSDOF 2
ENDMDL
MODEL 4
REMARK VINA RESULT:    -8.183      2.533      8.078
REMARK INTER + INTRA:          -8.252
REMARK INTER:                  -8.971
REMARK INTRA:                   0.720
REMARK UNBOUND:                 0.649
REMARK SMILES C[C@H]1[C@H]2C3=CC[C@H]4[C@]5(C)CC[C@H](O)C(C)(C)[C@@H]5CC[C@@]4(C)[C@@]3(C)CC[C@]2(C(=O)[O-])CC[C@@H]1C
REMARK SMILES IDX 26 1 30 2 25 3 3 4 31 5 24 6 4 7 2 8 32 9 22 10 5 11 1 12
REMARK SMILES IDX 33 13 23 14 20 15 6 16 7 17 19 18 21 19 8 20 18 21 17 22
REMARK SMILES IDX 10 23 9 24 14 25 11 26 12 27 15 28 16 29 27 30 28 31 29 32
REMARK SMILES IDX 13 33
REMARK H PARENT 13 34
REMARK Flexibility Score: inf
ROOT
ATOM      1  C   UNL     1      17.100  26.463   9.300  1.00  0.00     0.017 C 
ATOM      2  C   UNL     1      17.356  25.075   8.644  1.00  0.00     0.014 C 
ATOM      3  C   UNL     1      18.062  26.594  10.496  1.00  0.00     0.014 C 
ATOM      4  C   UNL     1      17.448  27.584   8.265  1.00  0.00     0.030 C 
ATOM      5  C   UNL     1      16.554  24.877   7.353  1.00  0.00     0.004 C 
ATOM      6  C   UNL     1      17.947  27.954  11.194  1.00  0.00     0.013 C 
ATOM      7  C   UNL     1      17.470  28.998   8.897  1.00  0.00    -0.063 C 
ATOM      8  C   UNL     1      16.676  27.406   6.901  1.00  0.00    -0.003 C 
ATOM      9  C   UNL     1      16.843  25.975   6.310  1.00  0.00    -0.011 C 
ATOM     10  C   UNL     1      18.142  29.211  10.265  1.00  0.00    -0.006 C 
ATOM     11  C   UNL     1      17.279  30.086   8.122  1.00  0.00    -0.027 C 
ATOM     12  C   UNL     1      15.183  27.795   6.950  1.00  0.00     0.008 C 
ATOM     13  C   UNL     1      18.220  25.776   5.649  1.00  0.00     0.008 C 
ATOM     14  C   UNL     1      19.674  29.308   9.975  1.00  0.00     0.017 C 
ATOM     15  C   UNL     1      17.592  30.564  10.970  1.00  0.00    -0.020 C 
ATOM     16  C   UNL     1      17.282  31.505   8.608  1.00  0.00     0.032 C 
ATOM     17  C   UNL     1      17.854  31.805  10.038  1.00  0.00     0.006 C 
ATOM     18  C   UNL     1      16.048  30.519  11.178  1.00  0.00     0.008 C 
ATOM     19  C   UNL     1      18.299  30.725  12.353  1.00  0.00     0.012 C 
ATOM     20  C   UNL     1      17.354  33.242  10.575  1.00  0.00    -0.025 C 
ATOM     21  C   UNL     1      15.485  31.769  11.858  1.00  0.00     0.005 C 
ATOM     22  C   UNL     1      15.933  33.171  11.310  1.00  0.00     0.003 C 
ATOM     23  C   UNL     1      18.411  33.904  11.515  1.00  0.00     0.010 C 
ATOM     24  C   UNL     1      17.294  34.208   9.325  1.00  0.00     0.012 C 
ATOM     25  C   UNL     1      15.658  34.327  12.394  1.00  0.00    -0.006 C 
ATOM     26  C   UNL     1      18.017  35.308  12.040  1.00  0.00     0.033 C 
ATOM     27  C   UNL     1      16.495  35.599  12.077  1.00  0.00     0.120 C 
ATOM     28  C   UNL     1      15.960  33.908  13.868  1.00  0.00     0.014 C 
ATOM     29  C   UNL     1      14.157  34.713  12.333  1.00  0.00     0.014 C 
ENDROOT
BRANCH   1  30
ATOM     30  C   UNL     1      15.667  26.540   9.824  1.00  0.00     0.048 C 
ATOM     31  O   UNL     1      15.041  25.488  10.124  1.00  0.00    -0.550 OA
ATOM     32  O   UNL     1      15.067  27.764  10.090  1.00  0.00    -0.550 OA
ENDBRANCH   1  30
BRANCH  27  33
ATOM     33  O   UNL     1      16.241  36.616  13.019  1.00  0.00    -0.393 OA
ATOM     34  H   UNL     1      15.270  36.823  12.968  1.00  0.00     0.210 HD
ENDBRANCH  27  33
TORSDOF 2
ENDMDL
MODEL 5
REMARK VINA RESULT:    -8.171     10.124     12.149
REMARK INTER + INTRA:          -8.239
REMARK INTER:                  -8.892
REMARK INTRA:                   0.653
REMARK UNBOUND:                 0.649
REMARK SMILES C[C@H]1[C@H]2C3=CC[C@H]4[C@]5(C)CC[C@H](O)C(C)(C)[C@@H]5CC[C@@]4(C)[C@@]3(C)CC[C@]2(C(=O)[O-])CC[C@@H]1C
REMARK SMILES IDX 26 1 30 2 25 3 3 4 31 5 24 6 4 7 2 8 32 9 22 10 5 11 1 12
REMARK SMILES IDX 33 13 23 14 20 15 6 16 7 17 19 18 21 19 8 20 18 21 17 22
REMARK SMILES IDX 10 23 9 24 14 25 11 26 12 27 15 28 16 29 27 30 28 31 29 32
REMARK SMILES IDX 13 33
REMARK H PARENT 13 34
REMARK Flexibility Score: inf
ROOT
ATOM      1  C   UNL     1       8.576  37.889   7.540  1.00  0.00     0.017 C 
ATOM      2  C   UNL     1       8.923  39.368   7.879  1.00  0.00     0.014 C 
ATOM      3  C   UNL     1       7.223  37.888   6.805  1.00  0.00     0.014 C 
ATOM      4  C   UNL     1       9.664  37.324   6.568  1.00  0.00     0.030 C 
ATOM      5  C   UNL     1      10.319  39.520   8.493  1.00  0.00     0.004 C 
ATOM      6  C   UNL     1       6.798  36.482   6.362  1.00  0.00     0.013 C 
ATOM      7  C   UNL     1       9.278  35.947   5.972  1.00  0.00    -0.063 C 
ATOM      8  C   UNL     1      11.126  37.489   7.137  1.00  0.00    -0.003 C 
ATOM      9  C   UNL     1      11.424  38.952   7.583  1.00  0.00    -0.011 C 
ATOM     10  C   UNL     1       7.842  35.708   5.474  1.00  0.00    -0.006 C 
ATOM     11  C   UNL     1      10.241  35.114   5.521  1.00  0.00    -0.027 C 
ATOM     12  C   UNL     1      11.495  36.500   8.263  1.00  0.00     0.008 C 
ATOM     13  C   UNL     1      11.700  39.880   6.385  1.00  0.00     0.008 C 
ATOM     14  C   UNL     1       7.773  36.352   4.052  1.00  0.00     0.017 C 
ATOM     15  C   UNL     1       7.513  34.121   5.415  1.00  0.00    -0.020 C 
ATOM     16  C   UNL     1      10.000  33.762   4.918  1.00  0.00     0.032 C 
ATOM     17  C   UNL     1       8.542  33.389   4.476  1.00  0.00     0.006 C 
ATOM     18  C   UNL     1       7.672  33.447   6.811  1.00  0.00     0.008 C 
ATOM     19  C   UNL     1       6.045  33.937   4.913  1.00  0.00     0.012 C 
ATOM     20  C   UNL     1       8.375  31.792   4.311  1.00  0.00    -0.025 C 
ATOM     21  C   UNL     1       7.353  31.950   6.809  1.00  0.00     0.005 C 
ATOM     22  C   UNL     1       7.996  31.062   5.683  1.00  0.00     0.003 C 
ATOM     23  C   UNL     1       7.329  31.435   3.207  1.00  0.00     0.010 C 
ATOM     24  C   UNL     1       9.741  31.241   3.737  1.00  0.00     0.012 C 
ATOM     25  C   UNL     1       7.207  29.669   5.530  1.00  0.00    -0.006 C 
ATOM     26  C   UNL     1       7.143  29.916   2.962  1.00  0.00     0.033 C 
ATOM     27  C   UNL     1       7.515  29.002   4.158  1.00  0.00     0.120 C 
ATOM     28  C   UNL     1       5.656  29.793   5.666  1.00  0.00     0.014 C 
ATOM     29  C   UNL     1       7.683  28.706   6.649  1.00  0.00     0.014 C 
ENDROOT
BRANCH   1  30
ATOM     30  C   UNL     1       8.426  37.078   8.826  1.00  0.00     0.048 C 
ATOM     31  O   UNL     1       7.900  37.595   9.848  1.00  0.00    -0.550 OA
ATOM     32  O   UNL     1       8.754  35.729   8.864  1.00  0.00    -0.550 OA
ENDBRANCH   1  30
BRANCH  27  33
ATOM     33  O   UNL     1       6.835  27.774   4.032  1.00  0.00    -0.393 OA
ATOM     34  H   UNL     1       6.783  27.376   4.941  1.00  0.00     0.210 HD
ENDBRANCH  27  33
TORSDOF 2
ENDMDL
MODEL 6
REMARK VINA RESULT:    -8.162      8.511     12.188
REMARK INTER + INTRA:          -8.229
REMARK INTER:                  -8.879
REMARK INTRA:                   0.650
REMARK UNBOUND:                 0.649
REMARK SMILES C[C@H]1[C@H]2C3=CC[C@H]4[C@]5(C)CC[C@H](O)C(C)(C)[C@@H]5CC[C@@]4(C)[C@@]3(C)CC[C@]2(C(=O)[O-])CC[C@@H]1C
REMARK SMILES IDX 26 1 30 2 25 3 3 4 31 5 24 6 4 7 2 8 32 9 22 10 5 11 1 12
REMARK SMILES IDX 33 13 23 14 20 15 6 16 7 17 19 18 21 19 8 20 18 21 17 22
REMARK SMILES IDX 10 23 9 24 14 25 11 26 12 27 15 28 16 29 27 30 28 31 29 32
REMARK SMILES IDX 13 33
REMARK H PARENT 13 34
REMARK Flexibility Score: inf
ROOT
ATOM      1  C   UNL     1       7.660  33.194   4.298  1.00  0.00     0.017 C 
ATOM      2  C   UNL     1       6.386  32.393   3.904  1.00  0.00     0.014 C 
ATOM      3  C   UNL     1       7.250  34.215   5.377  1.00  0.00     0.014 C 
ATOM      4  C   UNL     1       8.704  32.211   4.924  1.00  0.00     0.030 C 
ATOM      5  C   UNL     1       6.688  31.246   2.933  1.00  0.00     0.004 C 
ATOM      6  C   UNL     1       8.441  35.031   5.893  1.00  0.00     0.013 C 
ATOM      7  C   UNL     1       9.902  32.944   5.579  1.00  0.00    -0.063 C 
ATOM      8  C   UNL     1       9.024  30.989   3.979  1.00  0.00    -0.003 C 
ATOM      9  C   UNL     1       7.734  30.263   3.494  1.00  0.00    -0.011 C 
ATOM     10  C   UNL     1       9.650  34.189   6.447  1.00  0.00    -0.006 C 
ATOM     11  C   UNL     1      11.081  32.304   5.733  1.00  0.00    -0.027 C 
ATOM     12  C   UNL     1       9.933  31.326   2.777  1.00  0.00     0.008 C 
ATOM     13  C   UNL     1       7.129  29.361   4.587  1.00  0.00     0.008 C 
ATOM     14  C   UNL     1       9.206  33.649   7.844  1.00  0.00     0.017 C 
ATOM     15  C   UNL     1      10.996  35.086   6.565  1.00  0.00    -0.020 C 
ATOM     16  C   UNL     1      12.310  32.898   6.354  1.00  0.00     0.032 C 
ATOM     17  C   UNL     1      12.168  34.228   7.173  1.00  0.00     0.006 C 
ATOM     18  C   UNL     1      11.504  35.551   5.168  1.00  0.00     0.008 C 
ATOM     19  C   UNL     1      10.682  36.336   7.448  1.00  0.00     0.012 C 
ATOM     20  C   UNL     1      13.595  34.960   7.349  1.00  0.00    -0.025 C 
ATOM     21  C   UNL     1      12.764  36.418   5.230  1.00  0.00     0.005 C 
ATOM     22  C   UNL     1      13.958  35.918   6.120  1.00  0.00     0.003 C 
ATOM     23  C   UNL     1      13.672  35.755   8.690  1.00  0.00     0.010 C 
ATOM     24  C   UNL     1      14.680  33.821   7.515  1.00  0.00     0.012 C 
ATOM     25  C   UNL     1      14.966  37.125   6.459  1.00  0.00    -0.006 C 
ATOM     26  C   UNL     1      15.032  36.453   8.949  1.00  0.00     0.033 C 
ATOM     27  C   UNL     1      15.863  36.775   7.681  1.00  0.00     0.120 C 
ATOM     28  C   UNL     1      14.260  38.485   6.756  1.00  0.00     0.014 C 
ATOM     29  C   UNL     1      15.891  37.354   5.235  1.00  0.00     0.014 C 
ENDROOT
BRANCH   1  30
ATOM     30  C   UNL     1       8.193  33.961   3.088  1.00  0.00     0.048 C 
ATOM     31  O   UNL     1       7.396  34.459   2.249  1.00  0.00    -0.550 OA
ATOM     32  O   UNL     1       9.550  34.225   2.949  1.00  0.00    -0.550 OA
ENDBRANCH   1  30
BRANCH  27  33
ATOM     33  O   UNL     1      16.756  37.826   7.967  1.00  0.00    -0.393 OA
ATOM     34  H   UNL     1      17.612  37.614   7.508  1.00  0.00     0.210 HD
ENDBRANCH  27  33
TORSDOF 2
ENDMDL
MODEL 7
REMARK VINA RESULT:    -8.054      1.771      8.015
REMARK INTER + INTRA:          -8.111
REMARK INTER:                  -8.763
REMARK INTRA:                   0.652
REMARK UNBOUND:                 0.649
REMARK SMILES C[C@H]1[C@H]2C3=CC[C@H]4[C@]5(C)CC[C@H](O)C(C)(C)[C@@H]5CC[C@@]4(C)[C@@]3(C)CC[C@]2(C(=O)[O-])CC[C@@H]1C
REMARK SMILES IDX 26 1 30 2 25 3 3 4 31 5 24 6 4 7 2 8 32 9 22 10 5 11 1 12
REMARK SMILES IDX 33 13 23 14 20 15 6 16 7 17 19 18 21 19 8 20 18 21 17 22
REMARK SMILES IDX 10 23 9 24 14 25 11 26 12 27 15 28 16 29 27 30 28 31 29 32
REMARK SMILES IDX 13 33
REMARK H PARENT 13 34
REMARK Flexibility Score: inf
ROOT
ATOM      1  C   UNL     1      17.048  26.703   9.335  1.00  0.00     0.017 C 
ATOM      2  C   UNL     1      16.949  25.170   9.089  1.00  0.00     0.014 C 
ATOM      3  C   UNL     1      17.058  26.928  10.859  1.00  0.00     0.014 C 
ATOM      4  C   UNL     1      18.404  27.224   8.753  1.00  0.00     0.030 C 
ATOM      5  C   UNL     1      17.070  24.802   7.606  1.00  0.00     0.004 C 
ATOM      6  C   UNL     1      17.213  28.407  11.232  1.00  0.00     0.013 C 
ATOM      7  C   UNL     1      18.714  28.683   9.168  1.00  0.00    -0.063 C 
ATOM      8  C   UNL     1      18.597  26.839   7.236  1.00  0.00    -0.003 C 
ATOM      9  C   UNL     1      18.380  25.318   6.980  1.00  0.00    -0.011 C 
ATOM     10  C   UNL     1      18.470  29.132  10.620  1.00  0.00    -0.006 C 
ATOM     11  C   UNL     1      19.545  29.436   8.416  1.00  0.00    -0.027 C 
ATOM     12  C   UNL     1      17.753  27.674   6.248  1.00  0.00     0.008 C 
ATOM     13  C   UNL     1      19.589  24.475   7.429  1.00  0.00     0.008 C 
ATOM     14  C   UNL     1      19.705  28.630  11.433  1.00  0.00     0.017 C 
ATOM     15  C   UNL     1      18.327  30.744  10.706  1.00  0.00    -0.020 C 
ATOM     16  C   UNL     1      19.929  30.856   8.710  1.00  0.00     0.032 C 
ATOM     17  C   UNL     1      19.622  31.434  10.136  1.00  0.00     0.006 C 
ATOM     18  C   UNL     1      17.155  31.268   9.821  1.00  0.00     0.008 C 
ATOM     19  C   UNL     1      18.073  31.142  12.195  1.00  0.00     0.012 C 
ATOM     20  C   UNL     1      19.650  33.048  10.128  1.00  0.00    -0.025 C 
ATOM     21  C   UNL     1      16.970  32.786   9.884  1.00  0.00     0.005 C 
ATOM     22  C   UNL     1      18.243  33.691   9.716  1.00  0.00     0.003 C 
ATOM     23  C   UNL     1      20.120  33.621  11.502  1.00  0.00     0.010 C 
ATOM     24  C   UNL     1      20.786  33.486   9.120  1.00  0.00     0.012 C 
ATOM     25  C   UNL     1      17.972  35.174  10.276  1.00  0.00    -0.006 C 
ATOM     26  C   UNL     1      20.211  35.167  11.558  1.00  0.00     0.033 C 
ATOM     27  C   UNL     1      19.309  35.921  10.546  1.00  0.00     0.120 C 
ATOM     28  C   UNL     1      17.123  35.219  11.586  1.00  0.00     0.014 C 
ATOM     29  C   UNL     1      17.187  35.971   9.202  1.00  0.00     0.014 C 
ENDROOT
BRANCH   1  30
ATOM     30  C   UNL     1      15.823  27.408   8.753  1.00  0.00     0.048 C 
ATOM     31  O   UNL     1      14.694  26.850   8.780  1.00  0.00    -0.550 OA
ATOM     32  O   UNL     1      15.903  28.715   8.291  1.00  0.00    -0.550 OA
ENDBRANCH   1  30
BRANCH  27  33
ATOM     33  O   UNL     1      19.070  37.225  11.022  1.00  0.00    -0.393 OA
ATOM     34  H   UNL     1      18.775  37.141  11.967  1.00  0.00     0.210 HD
ENDBRANCH  27  33
TORSDOF 2
ENDMDL
MODEL 8
REMARK VINA RESULT:    -7.999      8.907     12.582
REMARK INTER + INTRA:          -8.052
REMARK INTER:                  -8.700
REMARK INTRA:                   0.648
REMARK UNBOUND:                 0.649
REMARK SMILES C[C@H]1[C@H]2C3=CC[C@H]4[C@]5(C)CC[C@H](O)C(C)(C)[C@@H]5CC[C@@]4(C)[C@@]3(C)CC[C@]2(C(=O)[O-])CC[C@@H]1C
REMARK SMILES IDX 26 1 30 2 25 3 3 4 31 5 24 6 4 7 2 8 32 9 22 10 5 11 1 12
REMARK SMILES IDX 33 13 23 14 20 15 6 16 7 17 19 18 21 19 8 20 18 21 17 22
REMARK SMILES IDX 10 23 9 24 14 25 11 26 12 27 15 28 16 29 27 30 28 31 29 32
REMARK SMILES IDX 13 33
REMARK H PARENT 13 34
REMARK Flexibility Score: inf
ROOT
ATOM      1  C   UNL     1       7.585  30.865   4.099  1.00  0.00     0.017 C 
ATOM      2  C   UNL     1       6.282  30.194   3.575  1.00  0.00     0.014 C 
ATOM      3  C   UNL     1       8.687  30.617   3.052  1.00  0.00     0.014 C 
ATOM      4  C   UNL     1       7.351  32.408   4.209  1.00  0.00     0.030 C 
ATOM      5  C   UNL     1       5.070  30.488   4.465  1.00  0.00     0.004 C 
ATOM      6  C   UNL     1      10.014  31.285   3.428  1.00  0.00     0.013 C 
ATOM      7  C   UNL     1       8.658  33.196   4.477  1.00  0.00    -0.063 C 
ATOM      8  C   UNL     1       6.089  32.767   5.085  1.00  0.00    -0.003 C 
ATOM      9  C   UNL     1       4.814  31.999   4.626  1.00  0.00    -0.011 C 
ATOM     10  C   UNL     1       9.938  32.834   3.704  1.00  0.00    -0.006 C 
ATOM     11  C   UNL     1       8.604  34.414   5.057  1.00  0.00    -0.027 C 
ATOM     12  C   UNL     1       6.295  32.602   6.606  1.00  0.00     0.008 C 
ATOM     13  C   UNL     1       4.199  32.605   3.351  1.00  0.00     0.008 C 
ATOM     14  C   UNL     1       9.801  33.522   2.309  1.00  0.00     0.017 C 
ATOM     15  C   UNL     1      11.252  33.363   4.493  1.00  0.00    -0.020 C 
ATOM     16  C   UNL     1       9.790  35.277   5.365  1.00  0.00     0.032 C 
ATOM     17  C   UNL     1      11.167  34.921   4.702  1.00  0.00     0.006 C 
ATOM     18  C   UNL     1      11.349  32.756   5.924  1.00  0.00     0.008 C 
ATOM     19  C   UNL     1      12.519  32.963   3.671  1.00  0.00     0.012 C 
ATOM     20  C   UNL     1      12.390  35.622   5.488  1.00  0.00    -0.025 C 
ATOM     21  C   UNL     1      12.587  33.214   6.702  1.00  0.00     0.005 C 
ATOM     22  C   UNL     1      12.916  34.750   6.723  1.00  0.00     0.003 C 
ATOM     23  C   UNL     1      13.574  35.958   4.527  1.00  0.00     0.010 C 
ATOM     24  C   UNL     1      11.877  37.036   5.975  1.00  0.00     0.012 C 
ATOM     25  C   UNL     1      14.448  35.003   7.144  1.00  0.00    -0.006 C 
ATOM     26  C   UNL     1      14.772  36.672   5.204  1.00  0.00     0.033 C 
ATOM     27  C   UNL     1      14.912  36.428   6.729  1.00  0.00     0.120 C 
ATOM     28  C   UNL     1      15.456  33.974   6.542  1.00  0.00     0.014 C 
ATOM     29  C   UNL     1      14.559  34.893   8.687  1.00  0.00     0.014 C 
ENDROOT
BRANCH   1  30
ATOM     30  C   UNL     1       8.016  30.218   5.415  1.00  0.00     0.048 C 
ATOM     31  O   UNL     1       7.828  28.988   5.612  1.00  0.00    -0.550 OA
ATOM     32  O   UNL     1       8.726  30.939   6.367  1.00  0.00    -0.550 OA
ENDBRANCH   1  30
BRANCH  27  33
ATOM     33  O   UNL     1      16.249  36.653   7.112  1.00  0.00    -0.393 OA
ATOM     34  H   UNL     1      16.488  37.569   6.811  1.00  0.00     0.210 HD
ENDBRANCH  27  33
TORSDOF 2
ENDMDL
MODEL 9
REMARK VINA RESULT:    -7.743      3.826      8.302
REMARK INTER + INTRA:          -7.773
REMARK INTER:                  -8.438
REMARK INTRA:                   0.665
REMARK UNBOUND:                 0.649
REMARK SMILES C[C@H]1[C@H]2C3=CC[C@H]4[C@]5(C)CC[C@H](O)C(C)(C)[C@@H]5CC[C@@]4(C)[C@@]3(C)CC[C@]2(C(=O)[O-])CC[C@@H]1C
REMARK SMILES IDX 26 1 30 2 25 3 3 4 31 5 24 6 4 7 2 8 32 9 22 10 5 11 1 12
REMARK SMILES IDX 33 13 23 14 20 15 6 16 7 17 19 18 21 19 8 20 18 21 17 22
REMARK SMILES IDX 10 23 9 24 14 25 11 26 12 27 15 28 16 29 27 30 28 31 29 32
REMARK SMILES IDX 13 33
REMARK H PARENT 13 34
REMARK Flexibility Score: inf
ROOT
ATOM      1  C   UNL     1      18.525  31.035  11.106  1.00  0.00     0.017 C 
ATOM      2  C   UNL     1      19.425  29.838  11.528  1.00  0.00     0.014 C 
ATOM      3  C   UNL     1      19.340  32.325  11.319  1.00  0.00     0.014 C 
ATOM      4  C   UNL     1      18.196  30.908   9.581  1.00  0.00     0.030 C 
ATOM      5  C   UNL     1      18.777  28.481  11.232  1.00  0.00     0.004 C 
ATOM      6  C   UNL     1      18.577  33.579  10.879  1.00  0.00     0.013 C 
ATOM      7  C   UNL     1      17.520  32.178   9.006  1.00  0.00    -0.063 C 
ATOM      8  C   UNL     1      17.560  29.512   9.215  1.00  0.00    -0.003 C 
ATOM      9  C   UNL     1      18.409  28.319   9.745  1.00  0.00    -0.011 C 
ATOM     10  C   UNL     1      18.053  33.568   9.394  1.00  0.00    -0.006 C 
ATOM     11  C   UNL     1      16.759  32.091   7.895  1.00  0.00    -0.027 C 
ATOM     12  C   UNL     1      16.084  29.348   9.636  1.00  0.00     0.008 C 
ATOM     13  C   UNL     1      19.658  28.065   8.880  1.00  0.00     0.008 C 
ATOM     14  C   UNL     1      19.301  33.812   8.487  1.00  0.00     0.017 C 
ATOM     15  C   UNL     1      16.922  34.704   9.153  1.00  0.00    -0.020 C 
ATOM     16  C   UNL     1      16.056  33.241   7.237  1.00  0.00     0.032 C 
ATOM     17  C   UNL     1      16.462  34.700   7.648  1.00  0.00     0.006 C 
ATOM     18  C   UNL     1      15.633  34.419   9.981  1.00  0.00     0.008 C 
ATOM     19  C   UNL     1      17.512  36.089   9.570  1.00  0.00     0.012 C 
ATOM     20  C   UNL     1      15.322  35.762   7.228  1.00  0.00    -0.025 C 
ATOM     21  C   UNL     1      14.541  35.476   9.800  1.00  0.00     0.005 C 
ATOM     22  C   UNL     1      14.178  35.916   8.336  1.00  0.00     0.003 C 
ATOM     23  C   UNL     1      15.933  37.158   6.890  1.00  0.00     0.010 C 
ATOM     24  C   UNL     1      14.713  35.268   5.854  1.00  0.00     0.012 C 
ATOM     25  C   UNL     1      13.401  37.325   8.336  1.00  0.00    -0.006 C 
ATOM     26  C   UNL     1      14.900  38.222   6.438  1.00  0.00     0.033 C 
ATOM     27  C   UNL     1      13.449  37.987   6.929  1.00  0.00     0.120 C 
ATOM     28  C   UNL     1      13.947  38.358   9.371  1.00  0.00     0.014 C 
ATOM     29  C   UNL     1      11.914  37.068   8.695  1.00  0.00     0.014 C 
ENDROOT
BRANCH   1  30
ATOM     30  C   UNL     1      17.284  31.097  11.995  1.00  0.00     0.048 C 
ATOM     31  O   UNL     1      17.380  30.912  13.237  1.00  0.00    -0.550 OA
ATOM     32  O   UNL     1      16.051  31.472  11.477  1.00  0.00    -0.550 OA
ENDBRANCH   1  30
BRANCH  27  33
ATOM     33  O   UNL     1      12.755  39.213   6.926  1.00  0.00    -0.393 OA
ATOM     34  H   UNL     1      13.126  39.756   6.182  1.00  0.00     0.210 HD
ENDBRANCH  27  33
TORSDOF 2
ENDMDL
