MODEL 1
REMARK VINA RESULT:    -4.976      0.000      0.000
REMARK INTER + INTRA:          -8.581
REMARK INTER:                  -7.885
REMARK INTRA:                  -0.695
REMARK UNBOUND:                -0.695
REMARK SMILES CCCCCCCCCCCC(=O)[O-]
REMARK SMILES IDX 7 1 8 2 9 3 10 4 11 5 12 6 13 7 14 8 6 9 5 10 4 11 3 12 2 13
REMARK SMILES IDX 1 14
REMARK H PARENT
REMARK Flexibility Score: inf
ROOT
ATOM      1  C   UNL     1      -2.599  11.962  -9.451  1.00  0.00     0.000 C 
ENDROOT
BRANCH   1   2
ATOM      2  C   UNL     1      -1.456  11.164  -8.797  1.00  0.00     0.000 C 
BRANCH   2   3
ATOM      3  C   UNL     1      -0.309  12.056  -8.300  1.00  0.00     0.000 C 
BRANCH   3   4
ATOM      4  C   UNL     1       0.804  11.215  -7.663  1.00  0.00     0.006 C 
BRANCH   4   5
ATOM      5  C   UNL     1       1.136   9.996  -8.528  1.00  0.00     0.053 C 
BRANCH   5   6
ATOM      6  C   UNL     1       2.603   9.944  -8.818  1.00  0.00     0.041 C 
ATOM      7  O   UNL     1       3.422  10.513  -8.049  1.00  0.00    -0.550 OA
ATOM      8  O   UNL     1       3.064   9.308  -9.964  1.00  0.00    -0.550 OA
ENDBRANCH   5   6
ENDBRANCH   4   5
ENDBRANCH   3   4
ENDBRANCH   2   3
ENDBRANCH   1   2
BRANCH   1   9
ATOM      9  C   UNL     1      -3.824  12.213  -8.551  1.00  0.00     0.000 C 
BRANCH   9  10
ATOM     10  C   UNL     1      -5.002  12.852  -9.305  1.00  0.00    -0.000 C 
BRANCH  10  11
ATOM     11  C   UNL     1      -6.072  11.828  -9.726  1.00  0.00    -0.000 C 
BRANCH  11  12
ATOM     12  C   UNL     1      -5.739  11.013 -10.989  1.00  0.00    -0.000 C 
BRANCH  12  13
ATOM     13  C   UNL     1      -5.535   9.519 -10.702  1.00  0.00    -0.003 C 
ATOM     14  C   UNL     1      -4.125   9.073 -11.084  1.00  0.00     0.004 C 
ENDBRANCH  12  13
ENDBRANCH  11  12
ENDBRANCH  10  11
ENDBRANCH   9  10
ENDBRANCH   1   9
TORSDOF 10
ENDMDL
MODEL 2
REMARK VINA RESULT:    -4.952      0.790      2.214
REMARK INTER + INTRA:          -8.543
REMARK INTER:                  -7.698
REMARK INTRA:                  -0.845
REMARK UNBOUND:                -0.695
REMARK SMILES CCCCCCCCCCCC(=O)[O-]
REMARK SMILES IDX 7 1 8 2 9 3 10 4 11 5 12 6 13 7 14 8 6 9 5 10 4 11 3 12 2 13
REMARK SMILES IDX 1 14
REMARK H PARENT
REMARK Flexibility Score: inf
ROOT
ATOM      1  C   UNL     1      -2.707  10.557  -9.867  1.00  0.00     0.000 C 
ENDROOT
BRANCH   1   2
ATOM      2  C   UNL     1      -1.685  10.563  -8.715  1.00  0.00     0.000 C 
BRANCH   2   3
ATOM      3  C   UNL     1      -0.888  11.872  -8.625  1.00  0.00     0.000 C 
BRANCH   3   4
ATOM      4  C   UNL     1       0.572  11.602  -8.244  1.00  0.00     0.006 C 
BRANCH   4   5
ATOM      5  C   UNL     1       0.953  10.145  -8.525  1.00  0.00     0.053 C 
BRANCH   5   6
ATOM      6  C   UNL     1       2.435  10.014  -8.688  1.00  0.00     0.041 C 
ATOM      7  O   UNL     1       3.212  10.487  -7.817  1.00  0.00    -0.550 OA
ATOM      8  O   UNL     1       2.959   9.413  -9.825  1.00  0.00    -0.550 OA
ENDBRANCH   5   6
ENDBRANCH   4   5
ENDBRANCH   3   4
ENDBRANCH   2   3
ENDBRANCH   1   2
BRANCH   1   9
ATOM      9  C   UNL     1      -3.693   9.373  -9.865  1.00  0.00     0.000 C 
BRANCH   9  10
ATOM     10  C   UNL     1      -4.928   9.620 -10.748  1.00  0.00    -0.000 C 
BRANCH  10  11
ATOM     11  C   UNL     1      -5.189  11.114 -11.010  1.00  0.00    -0.000 C 
BRANCH  11  12
ATOM     12  C   UNL     1      -6.127  11.804 -10.003  1.00  0.00    -0.000 C 
BRANCH  12  13
ATOM     13  C   UNL     1      -5.467  12.989  -9.283  1.00  0.00    -0.003 C 
ATOM     14  C   UNL     1      -5.046  12.606  -7.866  1.00  0.00     0.004 C 
ENDBRANCH  12  13
ENDBRANCH  11  12
ENDBRANCH  10  11
ENDBRANCH   9  10
ENDBRANCH   1   9
TORSDOF 10
ENDMDL
MODEL 3
REMARK VINA RESULT:    -4.908      1.409      1.937
REMARK INTER + INTRA:          -8.473
REMARK INTER:                  -7.953
REMARK INTRA:                  -0.520
REMARK UNBOUND:                -0.695
REMARK SMILES CCCCCCCCCCCC(=O)[O-]
REMARK SMILES IDX 7 1 8 2 9 3 10 4 11 5 12 6 13 7 14 8 6 9 5 10 4 11 3 12 2 13
REMARK SMILES IDX 1 14
REMARK H PARENT
REMARK Flexibility Score: inf
ROOT
ATOM      1  C   UNL     1      -3.017  10.283  -8.662  1.00  0.00     0.000 C 
ENDROOT
BRANCH   1   2
ATOM      2  C   UNL     1      -1.479  10.223  -8.622  1.00  0.00     0.000 C 
BRANCH   2   3
ATOM      3  C   UNL     1      -0.822  11.610  -8.682  1.00  0.00     0.000 C 
BRANCH   3   4
ATOM      4  C   UNL     1       0.655  11.537  -8.276  1.00  0.00     0.006 C 
BRANCH   4   5
ATOM      5  C   UNL     1       1.186  10.105  -8.388  1.00  0.00     0.053 C 
BRANCH   5   6
ATOM      6  C   UNL     1       2.676  10.109  -8.519  1.00  0.00     0.041 C 
ATOM      7  O   UNL     1       3.389  10.651  -7.633  1.00  0.00    -0.550 OA
ATOM      8  O   UNL     1       3.278   9.557  -9.643  1.00  0.00    -0.550 OA
ENDBRANCH   5   6
ENDBRANCH   4   5
ENDBRANCH   3   4
ENDBRANCH   2   3
ENDBRANCH   1   2
BRANCH   1   9
ATOM      9  C   UNL     1      -3.608  11.405  -9.537  1.00  0.00     0.000 C 
BRANCH   9  10
ATOM     10  C   UNL     1      -4.422  10.872 -10.728  1.00  0.00    -0.000 C 
BRANCH  10  11
ATOM     11  C   UNL     1      -4.138   9.390 -11.033  1.00  0.00    -0.000 C 
BRANCH  11  12
ATOM     12  C   UNL     1      -5.358   8.455 -10.944  1.00  0.00    -0.000 C 
BRANCH  12  13
ATOM     13  C   UNL     1      -5.005   6.983 -11.200  1.00  0.00    -0.003 C 
ATOM     14  C   UNL     1      -6.190   6.071 -10.888  1.00  0.00     0.004 C 
ENDBRANCH  12  13
ENDBRANCH  11  12
ENDBRANCH  10  11
ENDBRANCH   9  10
ENDBRANCH   1   9
TORSDOF 10
ENDMDL
MODEL 4
REMARK VINA RESULT:    -4.832      3.755      6.684
REMARK INTER + INTRA:          -8.353
REMARK INTER:                  -7.729
REMARK INTRA:                  -0.624
REMARK UNBOUND:                -0.695
REMARK SMILES CCCCCCCCCCCC(=O)[O-]
REMARK SMILES IDX 7 1 8 2 9 3 10 4 11 5 12 6 13 7 14 8 6 9 5 10 4 11 3 12 2 13
REMARK SMILES IDX 1 14
REMARK H PARENT
REMARK Flexibility Score: inf
ROOT
ATOM      1  C   UNL     1      -2.508  10.422  -7.922  1.00  0.00     0.000 C 
ENDROOT
BRANCH   1   2
ATOM      2  C   UNL     1      -2.610  10.448  -9.459  1.00  0.00     0.000 C 
BRANCH   2   3
ATOM      3  C   UNL     1      -3.870  11.165  -9.965  1.00  0.00     0.000 C 
BRANCH   3   4
ATOM      4  C   UNL     1      -4.556  10.355 -11.072  1.00  0.00     0.006 C 
BRANCH   4   5
ATOM      5  C   UNL     1      -4.043   8.912 -11.096  1.00  0.00     0.053 C 
BRANCH   5   6
ATOM      6  C   UNL     1      -5.188   7.950 -11.093  1.00  0.00     0.041 C 
ATOM      7  O   UNL     1      -5.115   6.876 -11.747  1.00  0.00    -0.550 OA
ATOM      8  O   UNL     1      -6.355   8.259 -10.407  1.00  0.00    -0.550 OA
ENDBRANCH   5   6
ENDBRANCH   4   5
ENDBRANCH   3   4
ENDBRANCH   2   3
ENDBRANCH   1   2
BRANCH   1   9
ATOM      9  C   UNL     1      -1.491  11.408  -7.315  1.00  0.00     0.000 C 
BRANCH   9  10
ATOM     10  C   UNL     1      -0.593  12.070  -8.373  1.00  0.00    -0.000 C 
BRANCH  10  11
ATOM     11  C   UNL     1       0.894  11.706  -8.211  1.00  0.00    -0.000 C 
BRANCH  11  12
ATOM     12  C   UNL     1       1.240  10.228  -8.467  1.00  0.00    -0.000 C 
BRANCH  12  13
ATOM     13  C   UNL     1       2.744   9.937  -8.367  1.00  0.00    -0.003 C 
ATOM     14  C   UNL     1       3.328   9.585  -9.734  1.00  0.00     0.004 C 
ENDBRANCH  12  13
ENDBRANCH  11  12
ENDBRANCH  10  11
ENDBRANCH   9  10
ENDBRANCH   1   9
TORSDOF 10
ENDMDL
MODEL 5
REMARK VINA RESULT:    -4.768      3.281      6.584
REMARK INTER + INTRA:          -8.251
REMARK INTER:                  -7.569
REMARK INTRA:                  -0.682
REMARK UNBOUND:                -0.695
REMARK SMILES CCCCCCCCCCCC(=O)[O-]
REMARK SMILES IDX 7 1 8 2 9 3 10 4 11 5 12 6 13 7 14 8 6 9 5 10 4 11 3 12 2 13
REMARK SMILES IDX 1 14
REMARK H PARENT
REMARK Flexibility Score: inf
ROOT
ATOM      1  C   UNL     1      -2.764  12.320  -8.873  1.00  0.00     0.000 C 
ENDROOT
BRANCH   1   2
ATOM      2  C   UNL     1      -4.216  12.263  -8.365  1.00  0.00     0.000 C 
BRANCH   2   3
ATOM      3  C   UNL     1      -5.224  12.861  -9.358  1.00  0.00     0.000 C 
BRANCH   3   4
ATOM      4  C   UNL     1      -6.153  11.777  -9.918  1.00  0.00     0.006 C 
BRANCH   4   5
ATOM      5  C   UNL     1      -5.499  11.048 -11.097  1.00  0.00     0.053 C 
BRANCH   5   6
ATOM      6  C   UNL     1      -5.443   9.576 -10.835  1.00  0.00     0.041 C 
ATOM      7  O   UNL     1      -6.420   8.991 -10.296  1.00  0.00    -0.550 OA
ATOM      8  O   UNL     1      -4.295   8.858 -11.141  1.00  0.00    -0.550 OA
ENDBRANCH   5   6
ENDBRANCH   4   5
ENDBRANCH   3   4
ENDBRANCH   2   3
ENDBRANCH   1   2
BRANCH   1   9
ATOM      9  C   UNL     1      -2.203  10.990  -9.412  1.00  0.00     0.000 C 
BRANCH   9  10
ATOM     10  C   UNL     1      -1.151  10.361  -8.483  1.00  0.00    -0.000 C 
BRANCH  10  11
ATOM     11  C   UNL     1      -0.216  11.404  -7.844  1.00  0.00    -0.000 C 
BRANCH  11  12
ATOM     12  C   UNL     1       1.245  11.361  -8.330  1.00  0.00    -0.000 C 
BRANCH  12  13
ATOM     13  C   UNL     1       1.768   9.931  -8.533  1.00  0.00    -0.003 C 
ATOM     14  C   UNL     1       3.192   9.940  -9.084  1.00  0.00     0.004 C 
ENDBRANCH  12  13
ENDBRANCH  11  12
ENDBRANCH  10  11
ENDBRANCH   9  10
ENDBRANCH   1   9
TORSDOF 10
ENDMDL
MODEL 6
REMARK VINA RESULT:    -4.759      0.668      1.448
REMARK INTER + INTRA:          -8.236
REMARK INTER:                  -7.367
REMARK INTRA:                  -0.870
REMARK UNBOUND:                -0.695
REMARK SMILES CCCCCCCCCCCC(=O)[O-]
REMARK SMILES IDX 7 1 8 2 9 3 10 4 11 5 12 6 13 7 14 8 6 9 5 10 4 11 3 12 2 13
REMARK SMILES IDX 1 14
REMARK H PARENT
REMARK Flexibility Score: inf
ROOT
ATOM      1  C   UNL     1      -3.656  11.620  -8.630  1.00  0.00     0.000 C 
ENDROOT
BRANCH   1   2
ATOM      2  C   UNL     1      -2.319  11.520  -9.387  1.00  0.00     0.000 C 
BRANCH   2   3
ATOM      3  C   UNL     1      -1.399  10.420  -8.838  1.00  0.00     0.000 C 
BRANCH   3   4
ATOM      4  C   UNL     1      -0.054  11.002  -8.389  1.00  0.00     0.006 C 
BRANCH   4   5
ATOM      5  C   UNL     1       0.872   9.903  -7.859  1.00  0.00     0.053 C 
BRANCH   5   6
ATOM      6  C   UNL     1       2.244  10.051  -8.439  1.00  0.00     0.041 C 
ATOM      7  O   UNL     1       2.509   9.567  -9.571  1.00  0.00    -0.550 OA
ATOM      8  O   UNL     1       3.244  10.680  -7.709  1.00  0.00    -0.550 OA
ENDBRANCH   5   6
ENDBRANCH   4   5
ENDBRANCH   3   4
ENDBRANCH   2   3
ENDBRANCH   1   2
BRANCH   1   9
ATOM      9  C   UNL     1      -4.639  12.678  -9.168  1.00  0.00     0.000 C 
BRANCH   9  10
ATOM     10  C   UNL     1      -5.935  12.064  -9.724  1.00  0.00    -0.000 C 
BRANCH  10  11
ATOM     11  C   UNL     1      -5.680  10.997 -10.803  1.00  0.00    -0.000 C 
BRANCH  11  12
ATOM     12  C   UNL     1      -6.252   9.601 -10.495  1.00  0.00    -0.000 C 
BRANCH  12  13
ATOM     13  C   UNL     1      -5.166   8.563 -10.178  1.00  0.00    -0.003 C 
ATOM     14  C   UNL     1      -3.971   8.715 -11.116  1.00  0.00     0.004 C 
ENDBRANCH  12  13
ENDBRANCH  11  12
ENDBRANCH  10  11
ENDBRANCH   9  10
ENDBRANCH   1   9
TORSDOF 10
ENDMDL
MODEL 7
REMARK VINA RESULT:    -4.686      1.631      2.124
REMARK INTER + INTRA:          -8.120
REMARK INTER:                  -6.937
REMARK INTRA:                  -1.183
REMARK UNBOUND:                -0.695
REMARK SMILES CCCCCCCCCCCC(=O)[O-]
REMARK SMILES IDX 7 1 8 2 9 3 10 4 11 5 12 6 13 7 14 8 6 9 5 10 4 11 3 12 2 13
REMARK SMILES IDX 1 14
REMARK H PARENT
REMARK Flexibility Score: inf
ROOT
ATOM      1  C   UNL     1      -2.843  12.627  -8.027  1.00  0.00     0.000 C 
ENDROOT
BRANCH   1   2
ATOM      2  C   UNL     1      -2.055  11.716  -8.987  1.00  0.00     0.000 C 
BRANCH   2   3
ATOM      3  C   UNL     1      -1.575  10.417  -8.324  1.00  0.00     0.000 C 
BRANCH   3   4
ATOM      4  C   UNL     1      -0.047  10.304  -8.380  1.00  0.00     0.006 C 
BRANCH   4   5
ATOM      5  C   UNL     1       0.606  11.689  -8.407  1.00  0.00     0.053 C 
BRANCH   5   6
ATOM      6  C   UNL     1       1.083  12.069  -7.041  1.00  0.00     0.041 C 
ATOM      7  O   UNL     1       0.485  12.965  -6.387  1.00  0.00    -0.550 OA
ATOM      8  O   UNL     1       2.217  11.471  -6.508  1.00  0.00    -0.550 OA
ENDBRANCH   5   6
ENDBRANCH   4   5
ENDBRANCH   3   4
ENDBRANCH   2   3
ENDBRANCH   1   2
BRANCH   1   9
ATOM      9  C   UNL     1      -4.368  12.409  -8.017  1.00  0.00     0.000 C 
BRANCH   9  10
ATOM     10  C   UNL     1      -5.026  12.711  -9.374  1.00  0.00    -0.000 C 
BRANCH  10  11
ATOM     11  C   UNL     1      -5.707  11.480  -9.998  1.00  0.00    -0.000 C 
BRANCH  11  12
ATOM     12  C   UNL     1      -5.002  10.896 -11.235  1.00  0.00    -0.000 C 
BRANCH  12  13
ATOM     13  C   UNL     1      -4.329   9.543 -10.959  1.00  0.00    -0.003 C 
ATOM     14  C   UNL     1      -4.847   8.926  -9.662  1.00  0.00     0.004 C 
ENDBRANCH  12  13
ENDBRANCH  11  12
ENDBRANCH  10  11
ENDBRANCH   9  10
ENDBRANCH   1   9
TORSDOF 10
ENDMDL
MODEL 8
REMARK VINA RESULT:    -4.618      3.717      6.640
REMARK INTER + INTRA:          -8.013
REMARK INTER:                  -7.213
REMARK INTRA:                  -0.800
REMARK UNBOUND:                -0.695
REMARK SMILES CCCCCCCCCCCC(=O)[O-]
REMARK SMILES IDX 7 1 8 2 9 3 10 4 11 5 12 6 13 7 14 8 6 9 5 10 4 11 3 12 2 13
REMARK SMILES IDX 1 14
REMARK H PARENT
REMARK Flexibility Score: inf
ROOT
ATOM      1  C   UNL     1      -2.557  10.908  -8.013  1.00  0.00     0.000 C 
ENDROOT
BRANCH   1   2
ATOM      2  C   UNL     1      -2.690  10.007  -9.255  1.00  0.00     0.000 C 
BRANCH   2   3
ATOM      3  C   UNL     1      -3.237  10.751 -10.482  1.00  0.00     0.000 C 
BRANCH   3   4
ATOM      4  C   UNL     1      -4.531  10.102 -10.987  1.00  0.00     0.006 C 
BRANCH   4   5
ATOM      5  C   UNL     1      -5.689  11.106 -10.983  1.00  0.00     0.053 C 
BRANCH   5   6
ATOM      6  C   UNL     1      -5.812  11.755  -9.640  1.00  0.00     0.041 C 
ATOM      7  O   UNL     1      -6.335  11.130  -8.680  1.00  0.00    -0.550 OA
ATOM      8  O   UNL     1      -5.395  13.068  -9.462  1.00  0.00    -0.550 OA
ENDBRANCH   5   6
ENDBRANCH   4   5
ENDBRANCH   3   4
ENDBRANCH   2   3
ENDBRANCH   1   2
BRANCH   1   9
ATOM      9  C   UNL     1      -1.994  12.316  -8.281  1.00  0.00     0.000 C 
BRANCH   9  10
ATOM     10  C   UNL     1      -0.618  12.545  -7.632  1.00  0.00    -0.000 C 
BRANCH  10  11
ATOM     11  C   UNL     1       0.529  11.864  -8.402  1.00  0.00    -0.000 C 
BRANCH  11  12
ATOM     12  C   UNL     1       1.036  10.544  -7.792  1.00  0.00    -0.000 C 
BRANCH  12  13
ATOM     13  C   UNL     1       1.794   9.669  -8.800  1.00  0.00    -0.003 C 
ATOM     14  C   UNL     1       3.249  10.113  -8.930  1.00  0.00     0.004 C 
ENDBRANCH  12  13
ENDBRANCH  11  12
ENDBRANCH  10  11
ENDBRANCH   9  10
ENDBRANCH   1   9
TORSDOF 10
ENDMDL
MODEL 9
REMARK VINA RESULT:    -4.570      1.787      3.074
REMARK INTER + INTRA:          -7.936
REMARK INTER:                  -7.336
REMARK INTRA:                  -0.601
REMARK UNBOUND:                -0.695
REMARK SMILES CCCCCCCCCCCC(=O)[O-]
REMARK SMILES IDX 7 1 8 2 9 3 10 4 11 5 12 6 13 7 14 8 6 9 5 10 4 11 3 12 2 13
REMARK SMILES IDX 1 14
REMARK H PARENT
REMARK Flexibility Score: inf
ROOT
ATOM      1  C   UNL     1      -1.990  10.936  -9.171  1.00  0.00     0.000 C 
ENDROOT
BRANCH   1   2
ATOM      2  C   UNL     1      -1.173  10.402  -7.981  1.00  0.00     0.000 C 
BRANCH   2   3
ATOM      3  C   UNL     1       0.255   9.990  -8.368  1.00  0.00     0.000 C 
BRANCH   3   4
ATOM      4  C   UNL     1       1.232  11.158  -8.189  1.00  0.00     0.006 C 
BRANCH   4   5
ATOM      5  C   UNL     1       0.814  12.050  -7.016  1.00  0.00     0.053 C 
BRANCH   5   6
ATOM      6  C   UNL     1       1.783  11.913  -5.884  1.00  0.00     0.041 C 
ATOM      7  O   UNL     1       3.010  11.749  -6.117  1.00  0.00    -0.550 OA
ATOM      8  O   UNL     1       1.327  11.919  -4.573  1.00  0.00    -0.550 OA
ENDBRANCH   5   6
ENDBRANCH   4   5
ENDBRANCH   3   4
ENDBRANCH   2   3
ENDBRANCH   1   2
BRANCH   1   9
ATOM      9  C   UNL     1      -3.238  10.109  -9.536  1.00  0.00     0.000 C 
BRANCH   9  10
ATOM     10  C   UNL     1      -3.781  10.428 -10.939  1.00  0.00    -0.000 C 
BRANCH  10  11
ATOM     11  C   UNL     1      -5.304  10.650 -10.958  1.00  0.00    -0.000 C 
BRANCH  11  12
ATOM     12  C   UNL     1      -5.905  11.187  -9.646  1.00  0.00    -0.000 C 
BRANCH  12  13
ATOM     13  C   UNL     1      -5.631  12.682  -9.428  1.00  0.00    -0.003 C 
ATOM     14  C   UNL     1      -5.561  13.017  -7.939  1.00  0.00     0.004 C 
ENDBRANCH  12  13
ENDBRANCH  11  12
ENDBRANCH  10  11
ENDBRANCH   9  10
ENDBRANCH   1   9
TORSDOF 10
ENDMDL
