MODEL 1
REMARK VINA RESULT:    -4.560      0.000      0.000
REMARK INTER + INTRA:         -14.954
REMARK INTER:                 -12.024
REMARK INTRA:                  -2.931
REMARK UNBOUND:                -2.931
REMARK SMILES CCCCCCCCCCCCCCCCCCCCCCCCCCCCCC(=O)[O-]
REMARK SMILES IDX 16 1 17 2 18 3 19 4 20 5 21 6 22 7 23 8 24 9 25 10 26 11
REMARK SMILES IDX 27 12 28 13 29 14 30 15 31 16 32 17 15 18 14 19 13 20 12 21
REMARK SMILES IDX 11 22 10 23 9 24 8 25 7 26 6 27 5 28 4 29 3 30 2 31 1 32
REMARK H PARENT
REMARK Flexibility Score: inf
ROOT
ATOM      1  C   UNL     1       6.691   1.927  -7.890  1.00  0.00     0.000 C 
ENDROOT
BRANCH   1   2
ATOM      2  C   UNL     1       6.876   0.478  -7.413  1.00  0.00     0.000 C 
BRANCH   2   3
ATOM      3  C   UNL     1       5.663  -0.384  -7.797  1.00  0.00     0.000 C 
BRANCH   3   4
ATOM      4  C   UNL     1       5.982  -1.410  -8.900  1.00  0.00     0.000 C 
BRANCH   4   5
ATOM      5  C   UNL     1       5.058  -2.645  -8.932  1.00  0.00     0.000 C 
BRANCH   5   6
ATOM      6  C   UNL     1       3.615  -2.393  -8.454  1.00  0.00     0.000 C 
BRANCH   6   7
ATOM      7  C   UNL     1       3.132  -3.329  -7.329  1.00  0.00     0.000 C 
BRANCH   7   8
ATOM      8  C   UNL     1       2.007  -4.295  -7.763  1.00  0.00     0.000 C 
BRANCH   8   9
ATOM      9  C   UNL     1       2.367  -5.084  -9.033  1.00  0.00     0.000 C 
BRANCH   9  10
ATOM     10  C   UNL     1       2.175  -6.608  -8.863  1.00  0.00     0.000 C 
BRANCH  10  11
ATOM     11  C   UNL     1       3.221  -7.266  -7.946  1.00  0.00     0.000 C 
BRANCH  11  12
ATOM     12  C   UNL     1       4.616  -6.616  -7.995  1.00  0.00     0.000 C 
BRANCH  12  13
ATOM     13  C   UNL     1       5.281  -6.471  -6.607  1.00  0.00     0.006 C 
BRANCH  13  14
ATOM     14  C   UNL     1       4.284  -6.623  -5.452  1.00  0.00     0.053 C 
BRANCH  14  15
ATOM     15  C   UNL     1       4.630  -7.815  -4.615  1.00  0.00     0.041 C 
ATOM     16  O   UNL     1       4.485  -8.977  -5.078  1.00  0.00    -0.550 OA
ATOM     17  O   UNL     1       5.168  -7.642  -3.347  1.00  0.00    -0.550 OA
ENDBRANCH  14  15
ENDBRANCH  13  14
ENDBRANCH  12  13
ENDBRANCH  11  12
ENDBRANCH  10  11
ENDBRANCH   9  10
ENDBRANCH   8   9
ENDBRANCH   7   8
ENDBRANCH   6   7
ENDBRANCH   5   6
ENDBRANCH   4   5
ENDBRANCH   3   4
ENDBRANCH   2   3
ENDBRANCH   1   2
BRANCH   1  18
ATOM     18  C   UNL     1       6.724   2.058  -9.422  1.00  0.00     0.000 C 
BRANCH  18  19
ATOM     19  C   UNL     1       6.435   3.490  -9.909  1.00  0.00     0.000 C 
BRANCH  19  20
ATOM     20  C   UNL     1       6.221   4.477  -8.750  1.00  0.00     0.000 C 
BRANCH  20  21
ATOM     21  C   UNL     1       5.692   5.841  -9.224  1.00  0.00     0.000 C 
BRANCH  21  22
ATOM     22  C   UNL     1       5.790   6.887  -8.106  1.00  0.00     0.000 C 
BRANCH  22  23
ATOM     23  C   UNL     1       6.488   8.164  -8.602  1.00  0.00     0.000 C 
BRANCH  23  24
ATOM     24  C   UNL     1       7.677   7.880  -9.539  1.00  0.00    -0.000 C 
BRANCH  24  25
ATOM     25  C   UNL     1       9.060   8.005  -8.866  1.00  0.00    -0.000 C 
BRANCH  25  26
ATOM     26  C   UNL     1       9.162   9.218  -7.922  1.00  0.00    -0.000 C 
BRANCH  26  27
ATOM     27  C   UNL     1       9.657   8.834  -6.511  1.00  0.00    -0.000 C 
BRANCH  27  28
ATOM     28  C   UNL     1       8.935   7.621  -5.891  1.00  0.00    -0.000 C 
BRANCH  28  29
ATOM     29  C   UNL     1       8.074   7.928  -4.655  1.00  0.00    -0.000 C 
BRANCH  29  30
ATOM     30  C   UNL     1       6.652   8.440  -4.956  1.00  0.00    -0.000 C 
BRANCH  30  31
ATOM     31  C   UNL     1       5.529   7.548  -4.384  1.00  0.00    -0.003 C 
ATOM     32  C   UNL     1       5.800   7.100  -2.948  1.00  0.00     0.004 C 
ENDBRANCH  30  31
ENDBRANCH  29  30
ENDBRANCH  28  29
ENDBRANCH  27  28
ENDBRANCH  26  27
ENDBRANCH  25  26
ENDBRANCH  24  25
ENDBRANCH  23  24
ENDBRANCH  22  23
ENDBRANCH  21  22
ENDBRANCH  20  21
ENDBRANCH  19  20
ENDBRANCH  18  19
ENDBRANCH   1  18
TORSDOF 28
ENDMDL
MODEL 2
REMARK VINA RESULT:    -4.510      3.277      7.428
REMARK INTER + INTRA:         -14.822
REMARK INTER:                 -10.989
REMARK INTRA:                  -3.833
REMARK UNBOUND:                -2.931
REMARK SMILES CCCCCCCCCCCCCCCCCCCCCCCCCCCCCC(=O)[O-]
REMARK SMILES IDX 16 1 17 2 18 3 19 4 20 5 21 6 22 7 23 8 24 9 25 10 26 11
REMARK SMILES IDX 27 12 28 13 29 14 30 15 31 16 32 17 15 18 14 19 13 20 12 21
REMARK SMILES IDX 11 22 10 23 9 24 8 25 7 26 6 27 5 28 4 29 3 30 2 31 1 32
REMARK H PARENT
REMARK Flexibility Score: inf
ROOT
ATOM      1  C   UNL     1       4.394  -5.420  -7.550  1.00  0.00     0.000 C 
ENDROOT
BRANCH   1   2
ATOM      2  C   UNL     1       4.295  -6.621  -8.502  1.00  0.00     0.000 C 
BRANCH   2   3
ATOM      3  C   UNL     1       3.081  -7.498  -8.154  1.00  0.00     0.000 C 
BRANCH   3   4
ATOM      4  C   UNL     1       3.475  -8.919  -7.713  1.00  0.00     0.000 C 
BRANCH   4   5
ATOM      5  C   UNL     1       4.978  -9.122  -7.424  1.00  0.00     0.000 C 
BRANCH   5   6
ATOM      6  C   UNL     1       5.328  -9.385  -5.947  1.00  0.00     0.000 C 
BRANCH   6   7
ATOM      7  C   UNL     1       4.542  -8.532  -4.933  1.00  0.00     0.000 C 
BRANCH   7   8
ATOM      8  C   UNL     1       5.314  -7.291  -4.433  1.00  0.00     0.000 C 
BRANCH   8   9
ATOM      9  C   UNL     1       6.574  -7.007  -5.268  1.00  0.00     0.000 C 
BRANCH   9  10
ATOM     10  C   UNL     1       7.879  -7.365  -4.520  1.00  0.00     0.000 C 
BRANCH  10  11
ATOM     11  C   UNL     1       9.011  -7.847  -5.443  1.00  0.00     0.000 C 
BRANCH  11  12
ATOM     12  C   UNL     1       8.584  -8.102  -6.901  1.00  0.00     0.000 C 
BRANCH  12  13
ATOM     13  C   UNL     1       9.209  -7.113  -7.912  1.00  0.00     0.006 C 
BRANCH  13  14
ATOM     14  C   UNL     1       8.312  -6.865  -9.130  1.00  0.00     0.053 C 
BRANCH  14  15
ATOM     15  C   UNL     1       8.264  -5.404  -9.457  1.00  0.00     0.041 C 
ATOM     16  O   UNL     1       7.166  -4.853  -9.735  1.00  0.00    -0.550 OA
ATOM     17  O   UNL     1       9.421  -4.640  -9.394  1.00  0.00    -0.550 OA
ENDBRANCH  14  15
ENDBRANCH  13  14
ENDBRANCH  12  13
ENDBRANCH  11  12
ENDBRANCH  10  11
ENDBRANCH   9  10
ENDBRANCH   8   9
ENDBRANCH   7   8
ENDBRANCH   6   7
ENDBRANCH   5   6
ENDBRANCH   4   5
ENDBRANCH   3   4
ENDBRANCH   2   3
ENDBRANCH   1   2
BRANCH   1  18
ATOM     18  C   UNL     1       3.139  -5.246  -6.677  1.00  0.00     0.000 C 
BRANCH  18  19
ATOM     19  C   UNL     1       2.205  -4.132  -7.183  1.00  0.00     0.000 C 
BRANCH  19  20
ATOM     20  C   UNL     1       2.974  -2.925  -7.745  1.00  0.00     0.000 C 
BRANCH  20  21
ATOM     21  C   UNL     1       2.792  -2.761  -9.263  1.00  0.00     0.000 C 
BRANCH  21  22
ATOM     22  C   UNL     1       4.149  -2.624  -9.968  1.00  0.00     0.000 C 
BRANCH  22  23
ATOM     23  C   UNL     1       5.212  -2.056  -9.015  1.00  0.00     0.000 C 
BRANCH  23  24
ATOM     24  C   UNL     1       6.411  -1.427  -9.750  1.00  0.00    -0.000 C 
BRANCH  24  25
ATOM     25  C   UNL     1       7.191  -0.386  -8.920  1.00  0.00    -0.000 C 
BRANCH  25  26
ATOM     26  C   UNL     1       6.466   0.010  -7.619  1.00  0.00    -0.000 C 
BRANCH  26  27
ATOM     27  C   UNL     1       6.283   1.536  -7.480  1.00  0.00    -0.000 C 
BRANCH  27  28
ATOM     28  C   UNL     1       7.080   2.369  -8.504  1.00  0.00    -0.000 C 
BRANCH  28  29
ATOM     29  C   UNL     1       6.297   3.505  -9.182  1.00  0.00    -0.000 C 
BRANCH  29  30
ATOM     30  C   UNL     1       6.084   4.763  -8.317  1.00  0.00    -0.000 C 
BRANCH  30  31
ATOM     31  C   UNL     1       5.439   5.944  -9.075  1.00  0.00    -0.003 C 
ATOM     32  C   UNL     1       4.178   5.541  -9.838  1.00  0.00     0.004 C 
ENDBRANCH  30  31
ENDBRANCH  29  30
ENDBRANCH  28  29
ENDBRANCH  27  28
ENDBRANCH  26  27
ENDBRANCH  25  26
ENDBRANCH  24  25
ENDBRANCH  23  24
ENDBRANCH  22  23
ENDBRANCH  21  22
ENDBRANCH  20  21
ENDBRANCH  19  20
ENDBRANCH  18  19
ENDBRANCH   1  18
TORSDOF 28
ENDMDL
MODEL 3
REMARK VINA RESULT:    -4.095      4.990     12.148
REMARK INTER + INTRA:         -13.729
REMARK INTER:                  -9.112
REMARK INTRA:                  -4.617
REMARK UNBOUND:                -2.931
REMARK SMILES CCCCCCCCCCCCCCCCCCCCCCCCCCCCCC(=O)[O-]
REMARK SMILES IDX 16 1 17 2 18 3 19 4 20 5 21 6 22 7 23 8 24 9 25 10 26 11
REMARK SMILES IDX 27 12 28 13 29 14 30 15 31 16 32 17 15 18 14 19 13 20 12 21
REMARK SMILES IDX 11 22 10 23 9 24 8 25 7 26 6 27 5 28 4 29 3 30 2 31 1 32
REMARK H PARENT
REMARK Flexibility Score: inf
ROOT
ATOM      1  C   UNL     1       5.857  -6.369  -4.876  1.00  0.00     0.000 C 
ENDROOT
BRANCH   1   2
ATOM      2  C   UNL     1       4.847  -7.222  -4.094  1.00  0.00     0.000 C 
BRANCH   2   3
ATOM      3  C   UNL     1       3.450  -7.138  -4.731  1.00  0.00     0.000 C 
BRANCH   3   4
ATOM      4  C   UNL     1       3.470  -6.513  -6.138  1.00  0.00     0.000 C 
BRANCH   4   5
ATOM      5  C   UNL     1       2.308  -5.541  -6.438  1.00  0.00     0.000 C 
BRANCH   5   6
ATOM      6  C   UNL     1       2.528  -4.618  -7.651  1.00  0.00     0.000 C 
BRANCH   6   7
ATOM      7  C   UNL     1       3.419  -3.391  -7.380  1.00  0.00     0.000 C 
BRANCH   7   8
ATOM      8  C   UNL     1       3.397  -2.341  -8.513  1.00  0.00     0.000 C 
BRANCH   8   9
ATOM      9  C   UNL     1       4.273  -2.750  -9.710  1.00  0.00     0.000 C 
BRANCH   9  10
ATOM     10  C   UNL     1       5.773  -2.839  -9.348  1.00  0.00     0.000 C 
BRANCH  10  11
ATOM     11  C   UNL     1       6.601  -1.636  -9.834  1.00  0.00     0.000 C 
BRANCH  11  12
ATOM     12  C   UNL     1       7.232  -0.796  -8.709  1.00  0.00     0.000 C 
BRANCH  12  13
ATOM     13  C   UNL     1       6.211   0.065  -7.930  1.00  0.00     0.006 C 
BRANCH  13  14
ATOM     14  C   UNL     1       6.821   1.362  -7.386  1.00  0.00     0.053 C 
BRANCH  14  15
ATOM     15  C   UNL     1       6.656   2.473  -8.377  1.00  0.00     0.041 C 
ATOM     16  O   UNL     1       7.216   2.406  -9.503  1.00  0.00    -0.550 OA
ATOM     17  O   UNL     1       5.836   3.553  -8.079  1.00  0.00    -0.550 OA
ENDBRANCH  14  15
ENDBRANCH  13  14
ENDBRANCH  12  13
ENDBRANCH  11  12
ENDBRANCH  10  11
ENDBRANCH   9  10
ENDBRANCH   8   9
ENDBRANCH   7   8
ENDBRANCH   6   7
ENDBRANCH   5   6
ENDBRANCH   4   5
ENDBRANCH   3   4
ENDBRANCH   2   3
ENDBRANCH   1   2
BRANCH   1  18
ATOM     18  C   UNL     1       7.179  -7.109  -5.146  1.00  0.00     0.000 C 
BRANCH  18  19
ATOM     19  C   UNL     1       7.188  -8.544  -4.592  1.00  0.00     0.000 C 
BRANCH  19  20
ATOM     20  C   UNL     1       8.561  -8.956  -4.037  1.00  0.00     0.000 C 
BRANCH  20  21
ATOM     21  C   UNL     1       9.466  -9.590  -5.106  1.00  0.00     0.000 C 
BRANCH  21  22
ATOM     22  C   UNL     1       8.640 -10.092  -6.298  1.00  0.00     0.000 C 
BRANCH  22  23
ATOM     23  C   UNL     1       9.208  -9.566  -7.626  1.00  0.00     0.000 C 
BRANCH  23  24
ATOM     24  C   UNL     1       9.678  -8.101  -7.547  1.00  0.00    -0.000 C 
BRANCH  24  25
ATOM     25  C   UNL     1       9.643  -7.349  -8.894  1.00  0.00    -0.000 C 
BRANCH  25  26
ATOM     26  C   UNL     1       8.800  -6.059  -8.840  1.00  0.00    -0.000 C 
BRANCH  26  27
ATOM     27  C   UNL     1       7.439  -6.207  -9.553  1.00  0.00    -0.000 C 
BRANCH  27  28
ATOM     28  C   UNL     1       6.250  -6.467  -8.607  1.00  0.00    -0.000 C 
BRANCH  28  29
ATOM     29  C   UNL     1       5.391  -7.695  -8.951  1.00  0.00    -0.000 C 
BRANCH  29  30
ATOM     30  C   UNL     1       5.598  -8.918  -8.035  1.00  0.00    -0.000 C 
BRANCH  30  31
ATOM     31  C   UNL     1       4.322  -9.758  -7.811  1.00  0.00    -0.003 C 
ATOM     32  C   UNL     1       3.102  -9.187  -8.534  1.00  0.00     0.004 C 
ENDBRANCH  30  31
ENDBRANCH  29  30
ENDBRANCH  28  29
ENDBRANCH  27  28
ENDBRANCH  26  27
ENDBRANCH  25  26
ENDBRANCH  24  25
ENDBRANCH  23  24
ENDBRANCH  22  23
ENDBRANCH  21  22
ENDBRANCH  20  21
ENDBRANCH  19  20
ENDBRANCH  18  19
ENDBRANCH   1  18
TORSDOF 28
ENDMDL
MODEL 4
REMARK VINA RESULT:    -3.334      3.059      7.696
REMARK INTER + INTRA:         -11.721
REMARK INTER:                  -9.096
REMARK INTRA:                  -2.625
REMARK UNBOUND:                -2.931
REMARK SMILES CCCCCCCCCCCCCCCCCCCCCCCCCCCCCC(=O)[O-]
REMARK SMILES IDX 16 1 17 2 18 3 19 4 20 5 21 6 22 7 23 8 24 9 25 10 26 11
REMARK SMILES IDX 27 12 28 13 29 14 30 15 31 16 32 17 15 18 14 19 13 20 12 21
REMARK SMILES IDX 11 22 10 23 9 24 8 25 7 26 6 27 5 28 4 29 3 30 2 31 1 32
REMARK H PARENT
REMARK Flexibility Score: inf
ROOT
ATOM      1  C   UNL     1       4.334  -6.042  -7.432  1.00  0.00     0.000 C 
ENDROOT
BRANCH   1   2
ATOM      2  C   UNL     1       4.878  -6.192  -8.862  1.00  0.00     0.000 C 
BRANCH   2   3
ATOM      3  C   UNL     1       4.889  -7.668  -9.291  1.00  0.00     0.000 C 
BRANCH   3   4
ATOM      4  C   UNL     1       6.296  -8.292  -9.258  1.00  0.00     0.000 C 
BRANCH   4   5
ATOM      5  C   UNL     1       6.708  -8.907  -7.904  1.00  0.00     0.000 C 
BRANCH   5   6
ATOM      6  C   UNL     1       5.874 -10.123  -7.460  1.00  0.00     0.000 C 
BRANCH   6   7
ATOM      7  C   UNL     1       4.642  -9.785  -6.599  1.00  0.00     0.000 C 
BRANCH   7   8
ATOM      8  C   UNL     1       4.940  -9.715  -5.085  1.00  0.00     0.000 C 
BRANCH   8   9
ATOM      9  C   UNL     1       4.322  -8.472  -4.422  1.00  0.00     0.000 C 
BRANCH   9  10
ATOM     10  C   UNL     1       5.386  -7.528  -3.817  1.00  0.00     0.000 C 
BRANCH  10  11
ATOM     11  C   UNL     1       6.342  -6.921  -4.858  1.00  0.00     0.000 C 
BRANCH  11  12
ATOM     12  C   UNL     1       7.835  -7.173  -4.580  1.00  0.00     0.000 C 
BRANCH  12  13
ATOM     13  C   UNL     1       8.218  -8.671  -4.558  1.00  0.00     0.006 C 
BRANCH  13  14
ATOM     14  C   UNL     1       9.694  -8.911  -4.893  1.00  0.00     0.053 C 
BRANCH  14  15
ATOM     15  C   UNL     1      10.004  -8.424  -6.275  1.00  0.00     0.041 C 
ATOM     16  O   UNL     1      10.104  -9.242  -7.228  1.00  0.00    -0.550 OA
ATOM     17  O   UNL     1      10.121  -7.062  -6.522  1.00  0.00    -0.550 OA
ENDBRANCH  14  15
ENDBRANCH  13  14
ENDBRANCH  12  13
ENDBRANCH  11  12
ENDBRANCH  10  11
ENDBRANCH   9  10
ENDBRANCH   8   9
ENDBRANCH   7   8
ENDBRANCH   6   7
ENDBRANCH   5   6
ENDBRANCH   4   5
ENDBRANCH   3   4
ENDBRANCH   2   3
ENDBRANCH   1   2
BRANCH   1  18
ATOM     18  C   UNL     1       2.797  -6.028  -7.378  1.00  0.00     0.000 C 
BRANCH  18  19
ATOM     19  C   UNL     1       2.164  -5.176  -8.492  1.00  0.00     0.000 C 
BRANCH  19  20
ATOM     20  C   UNL     1       1.609  -3.840  -7.972  1.00  0.00     0.000 C 
BRANCH  20  21
ATOM     21  C   UNL     1       1.584  -2.748  -9.055  1.00  0.00     0.000 C 
BRANCH  21  22
ATOM     22  C   UNL     1       2.808  -2.857  -9.974  1.00  0.00     0.000 C 
BRANCH  22  23
ATOM     23  C   UNL     1       4.114  -2.786  -9.167  1.00  0.00     0.000 C 
BRANCH  23  24
ATOM     24  C   UNL     1       5.224  -1.989  -9.878  1.00  0.00    -0.000 C 
BRANCH  24  25
ATOM     25  C   UNL     1       6.628  -2.167  -9.263  1.00  0.00    -0.000 C 
BRANCH  25  26
ATOM     26  C   UNL     1       7.575  -0.992  -9.579  1.00  0.00    -0.000 C 
BRANCH  26  27
ATOM     27  C   UNL     1       6.818   0.317  -9.886  1.00  0.00    -0.000 C 
BRANCH  27  28
ATOM     28  C   UNL     1       6.970   1.408  -8.807  1.00  0.00    -0.000 C 
BRANCH  28  29
ATOM     29  C   UNL     1       6.863   2.855  -9.314  1.00  0.00    -0.000 C 
BRANCH  29  30
ATOM     30  C   UNL     1       6.069   3.813  -8.404  1.00  0.00    -0.000 C 
BRANCH  30  31
ATOM     31  C   UNL     1       6.545   5.280  -8.469  1.00  0.00    -0.003 C 
ATOM     32  C   UNL     1       5.449   6.239  -8.934  1.00  0.00     0.004 C 
ENDBRANCH  30  31
ENDBRANCH  29  30
ENDBRANCH  28  29
ENDBRANCH  27  28
ENDBRANCH  26  27
ENDBRANCH  25  26
ENDBRANCH  24  25
ENDBRANCH  23  24
ENDBRANCH  22  23
ENDBRANCH  21  22
ENDBRANCH  20  21
ENDBRANCH  19  20
ENDBRANCH  18  19
ENDBRANCH   1  18
TORSDOF 28
ENDMDL
MODEL 5
REMARK VINA RESULT:    -3.161     10.870     13.265
REMARK INTER + INTRA:         -11.266
REMARK INTER:                  -7.681
REMARK INTRA:                  -3.585
REMARK UNBOUND:                -2.931
REMARK SMILES CCCCCCCCCCCCCCCCCCCCCCCCCCCCCC(=O)[O-]
REMARK SMILES IDX 16 1 17 2 18 3 19 4 20 5 21 6 22 7 23 8 24 9 25 10 26 11
REMARK SMILES IDX 27 12 28 13 29 14 30 15 31 16 32 17 15 18 14 19 13 20 12 21
REMARK SMILES IDX 11 22 10 23 9 24 8 25 7 26 6 27 5 28 4 29 3 30 2 31 1 32
REMARK H PARENT
REMARK Flexibility Score: inf
ROOT
ATOM      1  C   UNL     1      -3.820   8.514  -8.779  1.00  0.00     0.000 C 
ENDROOT
BRANCH   1   2
ATOM      2  C   UNL     1      -4.857   9.608  -8.478  1.00  0.00     0.000 C 
BRANCH   2   3
ATOM      3  C   UNL     1      -5.669   9.953  -9.737  1.00  0.00     0.000 C 
BRANCH   3   4
ATOM      4  C   UNL     1      -7.061   9.294  -9.751  1.00  0.00     0.000 C 
BRANCH   4   5
ATOM      5  C   UNL     1      -7.945   9.605  -8.525  1.00  0.00     0.000 C 
BRANCH   5   6
ATOM      6  C   UNL     1      -9.412   9.151  -8.647  1.00  0.00     0.000 C 
BRANCH   6   7
ATOM      7  C   UNL     1      -9.810   7.984  -7.723  1.00  0.00     0.000 C 
BRANCH   7   8
ATOM      8  C   UNL     1      -9.893   6.620  -8.444  1.00  0.00     0.000 C 
BRANCH   8   9
ATOM      9  C   UNL     1      -8.768   5.661  -8.019  1.00  0.00     0.000 C 
BRANCH   9  10
ATOM     10  C   UNL     1      -7.512   5.782  -8.911  1.00  0.00     0.000 C 
BRANCH  10  11
ATOM     11  C   UNL     1      -6.188   5.636  -8.141  1.00  0.00     0.000 C 
BRANCH  11  12
ATOM     12  C   UNL     1      -6.347   5.236  -6.663  1.00  0.00     0.000 C 
BRANCH  12  13
ATOM     13  C   UNL     1      -5.784   6.282  -5.673  1.00  0.00     0.006 C 
BRANCH  13  14
ATOM     14  C   UNL     1      -6.487   7.640  -5.782  1.00  0.00     0.053 C 
BRANCH  14  15
ATOM     15  C   UNL     1      -7.612   7.728  -4.798  1.00  0.00     0.041 C 
ATOM     16  O   UNL     1      -8.309   6.711  -4.540  1.00  0.00    -0.550 OA
ATOM     17  O   UNL     1      -7.852   8.916  -4.121  1.00  0.00    -0.550 OA
ENDBRANCH  14  15
ENDBRANCH  13  14
ENDBRANCH  12  13
ENDBRANCH  11  12
ENDBRANCH  10  11
ENDBRANCH   9  10
ENDBRANCH   8   9
ENDBRANCH   7   8
ENDBRANCH   6   7
ENDBRANCH   5   6
ENDBRANCH   4   5
ENDBRANCH   3   4
ENDBRANCH   2   3
ENDBRANCH   1   2
BRANCH   1  18
ATOM     18  C   UNL     1      -3.037   8.077  -7.529  1.00  0.00     0.000 C 
BRANCH  18  19
ATOM     19  C   UNL     1      -2.448   6.660  -7.656  1.00  0.00     0.000 C 
BRANCH  19  20
ATOM     20  C   UNL     1      -2.730   6.022  -9.025  1.00  0.00     0.000 C 
BRANCH  20  21
ATOM     21  C   UNL     1      -1.452   5.809  -9.854  1.00  0.00     0.000 C 
BRANCH  21  22
ATOM     22  C   UNL     1      -0.198   6.055  -9.004  1.00  0.00     0.000 C 
BRANCH  22  23
ATOM     23  C   UNL     1       0.706   4.812  -8.979  1.00  0.00     0.000 C 
BRANCH  23  24
ATOM     24  C   UNL     1       1.822   4.852 -10.041  1.00  0.00    -0.000 C 
BRANCH  24  25
ATOM     25  C   UNL     1       3.093   5.607  -9.599  1.00  0.00    -0.000 C 
BRANCH  25  26
ATOM     26  C   UNL     1       4.385   4.803  -9.845  1.00  0.00    -0.000 C 
BRANCH  26  27
ATOM     27  C   UNL     1       5.592   5.364  -9.065  1.00  0.00    -0.000 C 
BRANCH  27  28
ATOM     28  C   UNL     1       5.442   6.836  -8.632  1.00  0.00    -0.000 C 
BRANCH  28  29
ATOM     29  C   UNL     1       6.355   7.280  -7.477  1.00  0.00    -0.000 C 
BRANCH  29  30
ATOM     30  C   UNL     1       7.446   8.300  -7.857  1.00  0.00    -0.000 C 
BRANCH  30  31
ATOM     31  C   UNL     1       8.865   7.904  -7.393  1.00  0.00    -0.003 C 
ATOM     32  C   UNL     1       9.105   8.190  -5.911  1.00  0.00     0.004 C 
ENDBRANCH  30  31
ENDBRANCH  29  30
ENDBRANCH  28  29
ENDBRANCH  27  28
ENDBRANCH  26  27
ENDBRANCH  25  26
ENDBRANCH  24  25
ENDBRANCH  23  24
ENDBRANCH  22  23
ENDBRANCH  21  22
ENDBRANCH  20  21
ENDBRANCH  19  20
ENDBRANCH  18  19
ENDBRANCH   1  18
TORSDOF 28
ENDMDL
MODEL 6
REMARK VINA RESULT:    -2.945      8.724     14.320
REMARK INTER + INTRA:         -10.695
REMARK INTER:                  -9.282
REMARK INTRA:                  -1.413
REMARK UNBOUND:                -2.931
REMARK SMILES CCCCCCCCCCCCCCCCCCCCCCCCCCCCCC(=O)[O-]
REMARK SMILES IDX 16 1 17 2 18 3 19 4 20 5 21 6 22 7 23 8 24 9 25 10 26 11
REMARK SMILES IDX 27 12 28 13 29 14 30 15 31 16 32 17 15 18 14 19 13 20 12 21
REMARK SMILES IDX 11 22 10 23 9 24 8 25 7 26 6 27 5 28 4 29 3 30 2 31 1 32
REMARK H PARENT
REMARK Flexibility Score: inf
ROOT
ATOM      1  C   UNL     1      -1.102  -1.177  -9.915  1.00  0.00     0.000 C 
ENDROOT
BRANCH   1   2
ATOM      2  C   UNL     1      -2.312  -0.316  -9.520  1.00  0.00     0.000 C 
BRANCH   2   3
ATOM      3  C   UNL     1      -1.932   1.173  -9.470  1.00  0.00     0.000 C 
BRANCH   3   4
ATOM      4  C   UNL     1      -3.009   2.087 -10.081  1.00  0.00     0.000 C 
BRANCH   4   5
ATOM      5  C   UNL     1      -2.647   3.587 -10.124  1.00  0.00     0.000 C 
BRANCH   5   6
ATOM      6  C   UNL     1      -3.837   4.550  -9.956  1.00  0.00     0.000 C 
BRANCH   6   7
ATOM      7  C   UNL     1      -3.453   6.032  -9.780  1.00  0.00     0.000 C 
BRANCH   7   8
ATOM      8  C   UNL     1      -3.881   6.629  -8.421  1.00  0.00     0.000 C 
BRANCH   8   9
ATOM      9  C   UNL     1      -3.453   8.098  -8.263  1.00  0.00     0.000 C 
BRANCH   9  10
ATOM     10  C   UNL     1      -3.937   8.721  -6.934  1.00  0.00     0.000 C 
BRANCH  10  11
ATOM     11  C   UNL     1      -5.399   9.199  -6.969  1.00  0.00     0.000 C 
BRANCH  11  12
ATOM     12  C   UNL     1      -6.377   8.328  -6.157  1.00  0.00     0.000 C 
BRANCH  12  13
ATOM     13  C   UNL     1      -7.728   8.086  -6.868  1.00  0.00     0.006 C 
BRANCH  13  14
ATOM     14  C   UNL     1      -7.721   6.827  -7.742  1.00  0.00     0.053 C 
BRANCH  14  15
ATOM     15  C   UNL     1      -8.181   5.639  -6.955  1.00  0.00     0.041 C 
ATOM     16  O   UNL     1      -7.500   4.580  -6.950  1.00  0.00    -0.550 OA
ATOM     17  O   UNL     1      -9.329   5.722  -6.179  1.00  0.00    -0.550 OA
ENDBRANCH  14  15
ENDBRANCH  13  14
ENDBRANCH  12  13
ENDBRANCH  11  12
ENDBRANCH  10  11
ENDBRANCH   9  10
ENDBRANCH   8   9
ENDBRANCH   7   8
ENDBRANCH   6   7
ENDBRANCH   5   6
ENDBRANCH   4   5
ENDBRANCH   3   4
ENDBRANCH   2   3
ENDBRANCH   1   2
BRANCH   1  18
ATOM     18  C   UNL     1      -0.268  -1.624  -8.702  1.00  0.00     0.000 C 
BRANCH  18  19
ATOM     19  C   UNL     1       0.616  -2.848  -9.000  1.00  0.00     0.000 C 
BRANCH  19  20
ATOM     20  C   UNL     1       1.407  -3.321  -7.769  1.00  0.00     0.000 C 
BRANCH  20  21
ATOM     21  C   UNL     1       2.910  -3.011  -7.875  1.00  0.00     0.000 C 
BRANCH  21  22
ATOM     22  C   UNL     1       3.724  -4.298  -8.068  1.00  0.00     0.000 C 
BRANCH  22  23
ATOM     23  C   UNL     1       4.871  -4.081  -9.068  1.00  0.00     0.000 C 
BRANCH  23  24
ATOM     24  C   UNL     1       5.939  -5.190  -9.014  1.00  0.00    -0.000 C 
BRANCH  24  25
ATOM     25  C   UNL     1       5.369  -6.617  -8.875  1.00  0.00    -0.000 C 
BRANCH  25  26
ATOM     26  C   UNL     1       5.583  -7.215  -7.471  1.00  0.00    -0.000 C 
BRANCH  26  27
ATOM     27  C   UNL     1       4.325  -7.116  -6.583  1.00  0.00    -0.000 C 
BRANCH  27  28
ATOM     28  C   UNL     1       4.586  -6.556  -5.171  1.00  0.00    -0.000 C 
BRANCH  28  29
ATOM     29  C   UNL     1       5.544  -7.386  -4.300  1.00  0.00    -0.000 C 
BRANCH  29  30
ATOM     30  C   UNL     1       7.001  -6.883  -4.264  1.00  0.00    -0.000 C 
BRANCH  30  31
ATOM     31  C   UNL     1       8.022  -7.873  -4.866  1.00  0.00    -0.003 C 
ATOM     32  C   UNL     1       7.403  -9.228  -5.207  1.00  0.00     0.004 C 
ENDBRANCH  30  31
ENDBRANCH  29  30
ENDBRANCH  28  29
ENDBRANCH  27  28
ENDBRANCH  26  27
ENDBRANCH  25  26
ENDBRANCH  24  25
ENDBRANCH  23  24
ENDBRANCH  22  23
ENDBRANCH  21  22
ENDBRANCH  20  21
ENDBRANCH  19  20
ENDBRANCH  18  19
ENDBRANCH   1  18
TORSDOF 28
ENDMDL
MODEL 7
REMARK VINA RESULT:    -2.932     10.561     13.939
REMARK INTER + INTRA:         -10.663
REMARK INTER:                  -7.306
REMARK INTRA:                  -3.357
REMARK UNBOUND:                -2.931
REMARK SMILES CCCCCCCCCCCCCCCCCCCCCCCCCCCCCC(=O)[O-]
REMARK SMILES IDX 16 1 17 2 18 3 19 4 20 5 21 6 22 7 23 8 24 9 25 10 26 11
REMARK SMILES IDX 27 12 28 13 29 14 30 15 31 16 32 17 15 18 14 19 13 20 12 21
REMARK SMILES IDX 11 22 10 23 9 24 8 25 7 26 6 27 5 28 4 29 3 30 2 31 1 32
REMARK H PARENT
REMARK Flexibility Score: inf
ROOT
ATOM      1  C   UNL     1      -3.922   8.142  -7.638  1.00  0.00     0.000 C 
ENDROOT
BRANCH   1   2
ATOM      2  C   UNL     1      -3.176   6.847  -7.282  1.00  0.00     0.000 C 
BRANCH   2   3
ATOM      3  C   UNL     1      -1.828   6.772  -8.016  1.00  0.00     0.000 C 
BRANCH   3   4
ATOM      4  C   UNL     1      -1.757   5.609  -9.022  1.00  0.00     0.000 C 
BRANCH   4   5
ATOM      5  C   UNL     1      -0.434   5.505  -9.810  1.00  0.00     0.000 C 
BRANCH   5   6
ATOM      6  C   UNL     1       0.769   4.986  -9.000  1.00  0.00     0.000 C 
BRANCH   6   7
ATOM      7  C   UNL     1       1.997   4.592  -9.843  1.00  0.00     0.000 C 
BRANCH   7   8
ATOM      8  C   UNL     1       3.182   5.576  -9.714  1.00  0.00     0.000 C 
BRANCH   8   9
ATOM      9  C   UNL     1       4.543   4.859  -9.711  1.00  0.00     0.000 C 
BRANCH   9  10
ATOM     10  C   UNL     1       5.724   5.821  -9.447  1.00  0.00     0.000 C 
BRANCH  10  11
ATOM     11  C   UNL     1       5.290   7.229  -9.003  1.00  0.00     0.000 C 
BRANCH  11  12
ATOM     12  C   UNL     1       6.389   8.046  -8.300  1.00  0.00     0.000 C 
BRANCH  12  13
ATOM     13  C   UNL     1       7.110   7.275  -7.171  1.00  0.00     0.006 C 
BRANCH  13  14
ATOM     14  C   UNL     1       6.300   7.232  -5.870  1.00  0.00     0.053 C 
BRANCH  14  15
ATOM     15  C   UNL     1       6.645   8.400  -5.000  1.00  0.00     0.041 C 
ATOM     16  O   UNL     1       5.734   9.131  -4.529  1.00  0.00    -0.550 OA
ATOM     17  O   UNL     1       7.969   8.646  -4.659  1.00  0.00    -0.550 OA
ENDBRANCH  14  15
ENDBRANCH  13  14
ENDBRANCH  12  13
ENDBRANCH  11  12
ENDBRANCH  10  11
ENDBRANCH   9  10
ENDBRANCH   8   9
ENDBRANCH   7   8
ENDBRANCH   6   7
ENDBRANCH   5   6
ENDBRANCH   4   5
ENDBRANCH   3   4
ENDBRANCH   2   3
ENDBRANCH   1   2
BRANCH   1  18
ATOM     18  C   UNL     1      -3.627   8.626  -9.068  1.00  0.00     0.000 C 
BRANCH  18  19
ATOM     19  C   UNL     1      -4.525   7.959 -10.125  1.00  0.00     0.000 C 
BRANCH  19  20
ATOM     20  C   UNL     1      -5.966   7.752  -9.632  1.00  0.00     0.000 C 
BRANCH  20  21
ATOM     21  C   UNL     1      -6.351   6.266  -9.539  1.00  0.00     0.000 C 
BRANCH  21  22
ATOM     22  C   UNL     1      -6.747   5.890  -8.104  1.00  0.00     0.000 C 
BRANCH  22  23
ATOM     23  C   UNL     1      -7.898   4.871  -8.097  1.00  0.00     0.000 C 
BRANCH  23  24
ATOM     24  C   UNL     1      -9.281   5.517  -8.309  1.00  0.00    -0.000 C 
BRANCH  24  25
ATOM     25  C   UNL     1      -9.386   6.973  -7.809  1.00  0.00    -0.000 C 
BRANCH  25  26
ATOM     26  C   UNL     1      -9.736   7.970  -8.931  1.00  0.00    -0.000 C 
BRANCH  26  27
ATOM     27  C   UNL     1      -9.344   9.421  -8.582  1.00  0.00    -0.000 C 
BRANCH  27  28
ATOM     28  C   UNL     1      -8.795   9.606  -7.153  1.00  0.00    -0.000 C 
BRANCH  28  29
ATOM     29  C   UNL     1      -7.273   9.800  -7.052  1.00  0.00    -0.000 C 
BRANCH  29  30
ATOM     30  C   UNL     1      -6.679   9.605  -5.643  1.00  0.00    -0.000 C 
BRANCH  30  31
ATOM     31  C   UNL     1      -7.380   8.507  -4.813  1.00  0.00    -0.003 C 
ATOM     32  C   UNL     1      -6.780   7.119  -5.038  1.00  0.00     0.004 C 
ENDBRANCH  30  31
ENDBRANCH  29  30
ENDBRANCH  28  29
ENDBRANCH  27  28
ENDBRANCH  26  27
ENDBRANCH  25  26
ENDBRANCH  24  25
ENDBRANCH  23  24
ENDBRANCH  22  23
ENDBRANCH  21  22
ENDBRANCH  20  21
ENDBRANCH  19  20
ENDBRANCH  18  19
ENDBRANCH   1  18
TORSDOF 28
ENDMDL
MODEL 8
REMARK VINA RESULT:    -2.844      5.077      8.111
REMARK INTER + INTRA:         -10.429
REMARK INTER:                  -8.169
REMARK INTRA:                  -2.260
REMARK UNBOUND:                -2.931
REMARK SMILES CCCCCCCCCCCCCCCCCCCCCCCCCCCCCC(=O)[O-]
REMARK SMILES IDX 16 1 17 2 18 3 19 4 20 5 21 6 22 7 23 8 24 9 25 10 26 11
REMARK SMILES IDX 27 12 28 13 29 14 30 15 31 16 32 17 15 18 14 19 13 20 12 21
REMARK SMILES IDX 11 22 10 23 9 24 8 25 7 26 6 27 5 28 4 29 3 30 2 31 1 32
REMARK H PARENT
REMARK Flexibility Score: inf
ROOT
ATOM      1  C   UNL     1       4.287  -6.004  -7.584  1.00  0.00     0.000 C 
ENDROOT
BRANCH   1   2
ATOM      2  C   UNL     1       4.774  -6.285  -9.014  1.00  0.00     0.000 C 
BRANCH   2   3
ATOM      3  C   UNL     1       4.814  -7.796  -9.292  1.00  0.00     0.000 C 
BRANCH   3   4
ATOM      4  C   UNL     1       6.246  -8.361  -9.331  1.00  0.00     0.000 C 
BRANCH   4   5
ATOM      5  C   UNL     1       6.763  -8.929  -7.993  1.00  0.00     0.000 C 
BRANCH   5   6
ATOM      6  C   UNL     1       5.942 -10.101  -7.422  1.00  0.00     0.000 C 
BRANCH   6   7
ATOM      7  C   UNL     1       4.600  -9.701  -6.780  1.00  0.00     0.000 C 
BRANCH   7   8
ATOM      8  C   UNL     1       4.550  -9.921  -5.251  1.00  0.00     0.000 C 
BRANCH   8   9
ATOM      9  C   UNL     1       4.236  -8.627  -4.482  1.00  0.00     0.000 C 
BRANCH   9  10
ATOM     10  C   UNL     1       5.491  -8.000  -3.831  1.00  0.00     0.000 C 
BRANCH  10  11
ATOM     11  C   UNL     1       6.045  -6.786  -4.596  1.00  0.00     0.000 C 
BRANCH  11  12
ATOM     12  C   UNL     1       7.581  -6.740  -4.700  1.00  0.00     0.000 C 
BRANCH  12  13
ATOM     13  C   UNL     1       8.250  -8.131  -4.611  1.00  0.00     0.006 C 
BRANCH  13  14
ATOM     14  C   UNL     1       9.742  -8.095  -4.959  1.00  0.00     0.053 C 
BRANCH  14  15
ATOM     15  C   UNL     1       9.937  -8.170  -6.441  1.00  0.00     0.041 C 
ATOM     16  O   UNL     1       9.988  -7.115  -7.128  1.00  0.00    -0.550 OA
ATOM     17  O   UNL     1      10.124  -9.401  -7.056  1.00  0.00    -0.550 OA
ENDBRANCH  14  15
ENDBRANCH  13  14
ENDBRANCH  12  13
ENDBRANCH  11  12
ENDBRANCH  10  11
ENDBRANCH   9  10
ENDBRANCH   8   9
ENDBRANCH   7   8
ENDBRANCH   6   7
ENDBRANCH   5   6
ENDBRANCH   4   5
ENDBRANCH   3   4
ENDBRANCH   2   3
ENDBRANCH   1   2
BRANCH   1  18
ATOM     18  C   UNL     1       2.759  -6.109  -7.443  1.00  0.00     0.000 C 
BRANCH  18  19
ATOM     19  C   UNL     1       2.003  -5.133  -8.362  1.00  0.00     0.000 C 
BRANCH  19  20
ATOM     20  C   UNL     1       1.557  -3.856  -7.631  1.00  0.00     0.000 C 
BRANCH  20  21
ATOM     21  C   UNL     1       1.433  -2.647  -8.573  1.00  0.00     0.000 C 
BRANCH  21  22
ATOM     22  C   UNL     1       2.512  -2.688  -9.664  1.00  0.00     0.000 C 
BRANCH  22  23
ATOM     23  C   UNL     1       3.913  -2.846  -9.052  1.00  0.00     0.000 C 
BRANCH  23  24
ATOM     24  C   UNL     1       4.996  -2.050  -9.803  1.00  0.00    -0.000 C 
BRANCH  24  25
ATOM     25  C   UNL     1       6.442  -2.480  -9.479  1.00  0.00    -0.000 C 
BRANCH  25  26
ATOM     26  C   UNL     1       7.495  -1.467  -9.968  1.00  0.00    -0.000 C 
BRANCH  26  27
ATOM     27  C   UNL     1       7.014  -0.005  -9.851  1.00  0.00    -0.000 C 
BRANCH  27  28
ATOM     28  C   UNL     1       8.136   1.012  -9.563  1.00  0.00    -0.000 C 
BRANCH  28  29
ATOM     29  C   UNL     1       9.431   0.420  -8.984  1.00  0.00    -0.000 C 
BRANCH  29  30
ATOM     30  C   UNL     1       9.234  -0.593  -7.838  1.00  0.00    -0.000 C 
BRANCH  30  31
ATOM     31  C   UNL     1       8.636   0.021  -6.554  1.00  0.00    -0.003 C 
ATOM     32  C   UNL     1       9.703   0.440  -5.544  1.00  0.00     0.004 C 
ENDBRANCH  30  31
ENDBRANCH  29  30
ENDBRANCH  28  29
ENDBRANCH  27  28
ENDBRANCH  26  27
ENDBRANCH  25  26
ENDBRANCH  24  25
ENDBRANCH  23  24
ENDBRANCH  22  23
ENDBRANCH  21  22
ENDBRANCH  20  21
ENDBRANCH  19  20
ENDBRANCH  18  19
ENDBRANCH   1  18
TORSDOF 28
ENDMDL
MODEL 9
REMARK VINA RESULT:    -2.799     11.068     13.970
REMARK INTER + INTRA:         -10.310
REMARK INTER:                  -8.121
REMARK INTRA:                  -2.189
REMARK UNBOUND:                -2.931
REMARK SMILES CCCCCCCCCCCCCCCCCCCCCCCCCCCCCC(=O)[O-]
REMARK SMILES IDX 16 1 17 2 18 3 19 4 20 5 21 6 22 7 23 8 24 9 25 10 26 11
REMARK SMILES IDX 27 12 28 13 29 14 30 15 31 16 32 17 15 18 14 19 13 20 12 21
REMARK SMILES IDX 11 22 10 23 9 24 8 25 7 26 6 27 5 28 4 29 3 30 2 31 1 32
REMARK H PARENT
REMARK Flexibility Score: inf
ROOT
ATOM      1  C   UNL     1      -4.291   8.439  -8.424  1.00  0.00     0.000 C 
ENDROOT
BRANCH   1   2
ATOM      2  C   UNL     1      -5.617   9.187  -8.223  1.00  0.00     0.000 C 
BRANCH   2   3
ATOM      3  C   UNL     1      -6.645   8.776  -9.290  1.00  0.00     0.000 C 
BRANCH   3   4
ATOM      4  C   UNL     1      -6.283   7.455  -9.992  1.00  0.00     0.000 C 
BRANCH   4   5
ATOM      5  C   UNL     1      -7.042   6.212  -9.481  1.00  0.00     0.000 C 
BRANCH   5   6
ATOM      6  C   UNL     1      -6.389   5.496  -8.284  1.00  0.00     0.000 C 
BRANCH   6   7
ATOM      7  C   UNL     1      -7.373   4.769  -7.347  1.00  0.00     0.000 C 
BRANCH   7   8
ATOM      8  C   UNL     1      -8.522   5.665  -6.834  1.00  0.00     0.000 C 
BRANCH   8   9
ATOM      9  C   UNL     1      -8.072   7.115  -6.589  1.00  0.00     0.000 C 
BRANCH   9  10
ATOM     10  C   UNL     1      -7.853   7.427  -5.091  1.00  0.00     0.000 C 
BRANCH  10  11
ATOM     11  C   UNL     1      -7.440   8.883  -4.814  1.00  0.00     0.000 C 
BRANCH  11  12
ATOM     12  C   UNL     1      -8.610   9.829  -4.486  1.00  0.00     0.000 C 
BRANCH  12  13
ATOM     13  C   UNL     1      -9.708   9.180  -3.614  1.00  0.00     0.006 C 
BRANCH  13  14
ATOM     14  C   UNL     1      -9.656   9.642  -2.153  1.00  0.00     0.053 C 
BRANCH  14  15
ATOM     15  C   UNL     1      -8.873   8.671  -1.324  1.00  0.00     0.041 C 
ATOM     16  O   UNL     1      -9.318   7.510  -1.119  1.00  0.00    -0.550 OA
ATOM     17  O   UNL     1      -7.626   9.027  -0.828  1.00  0.00    -0.550 OA
ENDBRANCH  14  15
ENDBRANCH  13  14
ENDBRANCH  12  13
ENDBRANCH  11  12
ENDBRANCH  10  11
ENDBRANCH   9  10
ENDBRANCH   8   9
ENDBRANCH   7   8
ENDBRANCH   6   7
ENDBRANCH   5   6
ENDBRANCH   4   5
ENDBRANCH   3   4
ENDBRANCH   2   3
ENDBRANCH   1   2
BRANCH   1  18
ATOM     18  C   UNL     1      -3.482   8.299  -7.123  1.00  0.00     0.000 C 
BRANCH  18  19
ATOM     19  C   UNL     1      -2.419   7.188  -7.192  1.00  0.00     0.000 C 
BRANCH  19  20
ATOM     20  C   UNL     1      -2.142   6.723  -8.631  1.00  0.00     0.000 C 
BRANCH  20  21
ATOM     21  C   UNL     1      -0.691   6.253  -8.832  1.00  0.00     0.000 C 
BRANCH  21  22
ATOM     22  C   UNL     1      -0.648   4.889  -9.534  1.00  0.00     0.000 C 
BRANCH  22  23
ATOM     23  C   UNL     1       0.756   4.596 -10.087  1.00  0.00     0.000 C 
BRANCH  23  24
ATOM     24  C   UNL     1       1.877   5.297  -9.297  1.00  0.00    -0.000 C 
BRANCH  24  25
ATOM     25  C   UNL     1       3.301   4.825  -9.659  1.00  0.00    -0.000 C 
BRANCH  25  26
ATOM     26  C   UNL     1       4.338   5.965  -9.627  1.00  0.00    -0.000 C 
BRANCH  26  27
ATOM     27  C   UNL     1       5.714   5.504  -9.102  1.00  0.00    -0.000 C 
BRANCH  27  28
ATOM     28  C   UNL     1       5.906   3.974  -9.079  1.00  0.00    -0.000 C 
BRANCH  28  29
ATOM     29  C   UNL     1       7.363   3.495  -8.971  1.00  0.00    -0.000 C 
BRANCH  29  30
ATOM     30  C   UNL     1       7.610   2.371  -7.945  1.00  0.00    -0.000 C 
BRANCH  30  31
ATOM     31  C   UNL     1       6.330   1.624  -7.513  1.00  0.00    -0.003 C 
ATOM     32  C   UNL     1       6.350   0.144  -7.895  1.00  0.00     0.004 C 
ENDBRANCH  30  31
ENDBRANCH  29  30
ENDBRANCH  28  29
ENDBRANCH  27  28
ENDBRANCH  26  27
ENDBRANCH  25  26
ENDBRANCH  24  25
ENDBRANCH  23  24
ENDBRANCH  22  23
ENDBRANCH  21  22
ENDBRANCH  20  21
ENDBRANCH  19  20
ENDBRANCH  18  19
ENDBRANCH   1  18
TORSDOF 28
ENDMDL
