MODEL 1
REMARK VINA RESULT:    -3.705      0.000      0.000
REMARK INTER + INTRA:          -7.640
REMARK INTER:                  -6.954
REMARK INTRA:                  -0.686
REMARK UNBOUND:                -0.686
REMARK SMILES CCCCCCCCC=CCCCCCCCC(=O)[O-]
REMARK SMILES IDX 10 1 9 2 11 3 12 4 13 5 14 6 15 7 16 8 17 9 18 10 19 11
REMARK SMILES IDX 20 12 8 13 7 14 6 15 5 16 4 17 3 18 2 19 1 20
REMARK H PARENT
REMARK Flexibility Score: inf
ROOT
ATOM      1  C   UNL     1     120.757  69.731  -0.376  1.00  0.00    -0.031 C 
ATOM      2  C   UNL     1     120.093  70.254  -1.417  1.00  0.00    -0.031 C 
ENDROOT
BRANCH   1   3
ATOM      3  C   UNL     1     120.619  70.295   1.013  1.00  0.00     0.027 C 
BRANCH   3   4
ATOM      4  C   UNL     1     120.630  71.831   1.026  1.00  0.00     0.004 C 
BRANCH   4   5
ATOM      5  C   UNL     1     120.106  72.404   2.351  1.00  0.00     0.000 C 
BRANCH   5   6
ATOM      6  C   UNL     1     120.926  71.877   3.538  1.00  0.00     0.000 C 
BRANCH   6   7
ATOM      7  C   UNL     1     120.045  71.316   4.666  1.00  0.00     0.000 C 
BRANCH   7   8
ATOM      8  C   UNL     1     120.092  72.178   5.940  1.00  0.00     0.006 C 
BRANCH   8   9
ATOM      9  C   UNL     1     120.724  71.429   7.121  1.00  0.00     0.053 C 
BRANCH   9  10
ATOM     10  C   UNL     1     120.688  72.242   8.379  1.00  0.00     0.041 C 
ATOM     11  O   UNL     1     120.713  73.500   8.322  1.00  0.00    -0.550 OA
ATOM     12  O   UNL     1     120.659  71.610   9.616  1.00  0.00    -0.550 OA
ENDBRANCH   9  10
ENDBRANCH   8   9
ENDBRANCH   7   8
ENDBRANCH   6   7
ENDBRANCH   5   6
ENDBRANCH   4   5
ENDBRANCH   3   4
ENDBRANCH   1   3
BRANCH   2  13
ATOM     13  C   UNL     1     120.246  69.669  -2.797  1.00  0.00     0.027 C 
BRANCH  13  14
ATOM     14  C   UNL     1     119.938  68.163  -2.832  1.00  0.00     0.004 C 
BRANCH  14  15
ATOM     15  C   UNL     1     119.877  67.570  -4.253  1.00  0.00     0.000 C 
BRANCH  15  16
ATOM     16  C   UNL     1     120.152  66.059  -4.278  1.00  0.00     0.000 C 
BRANCH  16  17
ATOM     17  C   UNL     1     120.576  65.602  -5.682  1.00  0.00    -0.000 C 
BRANCH  17  18
ATOM     18  C   UNL     1     120.771  66.777  -6.654  1.00  0.00    -0.000 C 
BRANCH  18  19
ATOM     19  C   UNL     1     121.397  66.344  -7.988  1.00  0.00    -0.003 C 
ATOM     20  C   UNL     1     120.933  64.945  -8.383  1.00  0.00     0.004 C 
ENDBRANCH  18  19
ENDBRANCH  17  18
ENDBRANCH  16  17
ENDBRANCH  15  16
ENDBRANCH  14  15
ENDBRANCH  13  14
ENDBRANCH   2  13
TORSDOF 15
ENDMDL
MODEL 2
REMARK VINA RESULT:    -3.495      1.471      2.389
REMARK INTER + INTRA:          -7.246
REMARK INTER:                  -6.585
REMARK INTRA:                  -0.662
REMARK UNBOUND:                -0.686
REMARK SMILES CCCCCCCCC=CCCCCCCCC(=O)[O-]
REMARK SMILES IDX 10 1 9 2 11 3 12 4 13 5 14 6 15 7 16 8 17 9 18 10 19 11
REMARK SMILES IDX 20 12 8 13 7 14 6 15 5 16 4 17 3 18 2 19 1 20
REMARK H PARENT
REMARK Flexibility Score: inf
ROOT
ATOM      1  C   UNL     1     120.625  69.693  -0.041  1.00  0.00    -0.031 C 
ATOM      2  C   UNL     1     121.264  68.569  -0.397  1.00  0.00    -0.031 C 
ENDROOT
BRANCH   1   3
ATOM      3  C   UNL     1     121.351  71.005   0.094  1.00  0.00     0.027 C 
BRANCH   3   4
ATOM      4  C   UNL     1     120.596  72.004   0.984  1.00  0.00     0.004 C 
BRANCH   4   5
ATOM      5  C   UNL     1     119.893  71.315   2.163  1.00  0.00     0.000 C 
BRANCH   5   6
ATOM      6  C   UNL     1     120.796  71.300   3.406  1.00  0.00     0.000 C 
BRANCH   6   7
ATOM      7  C   UNL     1     120.012  71.063   4.706  1.00  0.00     0.000 C 
BRANCH   7   8
ATOM      8  C   UNL     1     120.580  71.860   5.894  1.00  0.00     0.006 C 
BRANCH   8   9
ATOM      9  C   UNL     1     120.174  71.254   7.244  1.00  0.00     0.053 C 
BRANCH   9  10
ATOM     10  C   UNL     1     120.568  72.134   8.391  1.00  0.00     0.041 C 
ATOM     11  O   UNL     1     120.575  71.678   9.566  1.00  0.00    -0.550 OA
ATOM     12  O   UNL     1     120.897  73.464   8.168  1.00  0.00    -0.550 OA
ENDBRANCH   9  10
ENDBRANCH   8   9
ENDBRANCH   7   8
ENDBRANCH   6   7
ENDBRANCH   5   6
ENDBRANCH   4   5
ENDBRANCH   3   4
ENDBRANCH   1   3
BRANCH   2  13
ATOM     13  C   UNL     1     120.514  67.269  -0.527  1.00  0.00     0.027 C 
BRANCH  13  14
ATOM     14  C   UNL     1     120.854  66.524  -1.829  1.00  0.00     0.004 C 
BRANCH  14  15
ATOM     15  C   UNL     1     119.919  66.861  -3.005  1.00  0.00     0.000 C 
BRANCH  15  16
ATOM     16  C   UNL     1     120.504  66.452  -4.365  1.00  0.00     0.000 C 
BRANCH  16  17
ATOM     17  C   UNL     1     119.875  67.271  -5.502  1.00  0.00    -0.000 C 
BRANCH  17  18
ATOM     18  C   UNL     1     120.624  68.588  -5.769  1.00  0.00    -0.000 C 
BRANCH  18  19
ATOM     19  C   UNL     1     120.228  69.702  -4.789  1.00  0.00    -0.003 C 
ATOM     20  C   UNL     1     119.900  70.994  -5.533  1.00  0.00     0.004 C 
ENDBRANCH  18  19
ENDBRANCH  17  18
ENDBRANCH  16  17
ENDBRANCH  15  16
ENDBRANCH  14  15
ENDBRANCH  13  14
ENDBRANCH   2  13
TORSDOF 15
ENDMDL
MODEL 3
REMARK VINA RESULT:    -3.287      1.484      1.969
REMARK INTER + INTRA:          -6.855
REMARK INTER:                  -5.763
REMARK INTRA:                  -1.091
REMARK UNBOUND:                -0.686
REMARK SMILES CCCCCCCCC=CCCCCCCCC(=O)[O-]
REMARK SMILES IDX 10 1 9 2 11 3 12 4 13 5 14 6 15 7 16 8 17 9 18 10 19 11
REMARK SMILES IDX 20 12 8 13 7 14 6 15 5 16 4 17 3 18 2 19 1 20
REMARK H PARENT
REMARK Flexibility Score: inf
ROOT
ATOM      1  C   UNL     1     119.995  69.162  -0.861  1.00  0.00    -0.031 C 
ATOM      2  C   UNL     1     120.507  69.675  -1.989  1.00  0.00    -0.031 C 
ENDROOT
BRANCH   1   3
ATOM      3  C   UNL     1     120.478  69.601   0.497  1.00  0.00     0.027 C 
BRANCH   3   4
ATOM      4  C   UNL     1     121.189  70.962   0.454  1.00  0.00     0.004 C 
BRANCH   4   5
ATOM      5  C   UNL     1     120.286  72.104   0.944  1.00  0.00     0.000 C 
BRANCH   5   6
ATOM      6  C   UNL     1     119.876  71.889   2.409  1.00  0.00     0.000 C 
BRANCH   6   7
ATOM      7  C   UNL     1     120.877  72.501   3.401  1.00  0.00     0.000 C 
BRANCH   7   8
ATOM      8  C   UNL     1     121.208  71.555   4.569  1.00  0.00     0.006 C 
BRANCH   8   9
ATOM      9  C   UNL     1     120.094  70.529   4.816  1.00  0.00     0.053 C 
BRANCH   9  10
ATOM     10  C   UNL     1     119.965  70.185   6.268  1.00  0.00     0.041 C 
ATOM     11  O   UNL     1     119.966  71.096   7.138  1.00  0.00    -0.550 OA
ATOM     12  O   UNL     1     119.875  68.856   6.664  1.00  0.00    -0.550 OA
ENDBRANCH   9  10
ENDBRANCH   8   9
ENDBRANCH   7   8
ENDBRANCH   6   7
ENDBRANCH   5   6
ENDBRANCH   4   5
ENDBRANCH   3   4
ENDBRANCH   1   3
BRANCH   2  13
ATOM     13  C   UNL     1     120.005  69.221  -3.334  1.00  0.00     0.027 C 
BRANCH  13  14
ATOM     14  C   UNL     1     119.993  67.689  -3.469  1.00  0.00     0.004 C 
BRANCH  14  15
ATOM     15  C   UNL     1     120.315  67.182  -4.888  1.00  0.00     0.000 C 
BRANCH  15  16
ATOM     16  C   UNL     1     120.410  68.318  -5.917  1.00  0.00     0.000 C 
BRANCH  16  17
ATOM     17  C   UNL     1     120.155  67.794  -7.338  1.00  0.00    -0.000 C 
BRANCH  17  18
ATOM     18  C   UNL     1     121.436  67.287  -8.021  1.00  0.00    -0.000 C 
BRANCH  18  19
ATOM     19  C   UNL     1     121.518  65.755  -8.064  1.00  0.00    -0.003 C 
ATOM     20  C   UNL     1     120.131  65.128  -7.950  1.00  0.00     0.004 C 
ENDBRANCH  18  19
ENDBRANCH  17  18
ENDBRANCH  16  17
ENDBRANCH  15  16
ENDBRANCH  14  15
ENDBRANCH  13  14
ENDBRANCH   2  13
TORSDOF 15
ENDMDL
MODEL 4
REMARK VINA RESULT:    -3.147      5.085     11.344
REMARK INTER + INTRA:          -6.593
REMARK INTER:                  -6.147
REMARK INTRA:                  -0.446
REMARK UNBOUND:                -0.686
REMARK SMILES CCCCCCCCC=CCCCCCCCC(=O)[O-]
REMARK SMILES IDX 10 1 9 2 11 3 12 4 13 5 14 6 15 7 16 8 17 9 18 10 19 11
REMARK SMILES IDX 20 12 8 13 7 14 6 15 5 16 4 17 3 18 2 19 1 20
REMARK H PARENT
REMARK Flexibility Score: inf
ROOT
ATOM      1  C   UNL     1     120.448  71.425   0.954  1.00  0.00    -0.031 C 
ATOM      2  C   UNL     1     120.915  72.627   1.321  1.00  0.00    -0.031 C 
ENDROOT
BRANCH   1   3
ATOM      3  C   UNL     1     120.755  70.837  -0.398  1.00  0.00     0.027 C 
BRANCH   3   4
ATOM      4  C   UNL     1     120.189  69.419  -0.563  1.00  0.00     0.004 C 
BRANCH   4   5
ATOM      5  C   UNL     1     121.274  68.341  -0.419  1.00  0.00     0.000 C 
BRANCH   5   6
ATOM      6  C   UNL     1     120.647  66.965  -0.148  1.00  0.00     0.000 C 
BRANCH   6   7
ATOM      7  C   UNL     1     119.875  66.416  -1.358  1.00  0.00     0.000 C 
BRANCH   7   8
ATOM      8  C   UNL     1     120.347  67.029  -2.689  1.00  0.00     0.006 C 
BRANCH   8   9
ATOM      9  C   UNL     1     119.900  66.198  -3.899  1.00  0.00     0.053 C 
BRANCH   9  10
ATOM     10  C   UNL     1     120.471  66.725  -5.180  1.00  0.00     0.041 C 
ATOM     11  O   UNL     1     120.146  67.869  -5.595  1.00  0.00    -0.550 OA
ATOM     12  O   UNL     1     121.337  65.941  -5.932  1.00  0.00    -0.550 OA
ENDBRANCH   9  10
ENDBRANCH   8   9
ENDBRANCH   7   8
ENDBRANCH   6   7
ENDBRANCH   5   6
ENDBRANCH   4   5
ENDBRANCH   3   4
ENDBRANCH   1   3
BRANCH   2  13
ATOM     13  C   UNL     1     120.595  73.192   2.680  1.00  0.00     0.027 C 
BRANCH  13  14
ATOM     14  C   UNL     1     120.126  72.111   3.668  1.00  0.00     0.004 C 
BRANCH  14  15
ATOM     15  C   UNL     1     120.670  72.291   5.098  1.00  0.00     0.000 C 
BRANCH  15  16
ATOM     16  C   UNL     1     120.821  70.958   5.847  1.00  0.00     0.000 C 
BRANCH  16  17
ATOM     17  C   UNL     1     119.876  70.900   7.058  1.00  0.00    -0.000 C 
BRANCH  17  18
ATOM     18  C   UNL     1     120.625  70.685   8.383  1.00  0.00    -0.000 C 
BRANCH  18  19
ATOM     19  C   UNL     1     120.533  71.899   9.319  1.00  0.00    -0.003 C 
ATOM     20  C   UNL     1     120.146  73.158   8.548  1.00  0.00     0.004 C 
ENDBRANCH  18  19
ENDBRANCH  17  18
ENDBRANCH  16  17
ENDBRANCH  15  16
ENDBRANCH  14  15
ENDBRANCH  13  14
ENDBRANCH   2  13
TORSDOF 15
ENDMDL
MODEL 5
REMARK VINA RESULT:    -2.632      5.502     12.509
REMARK INTER + INTRA:          -5.625
REMARK INTER:                  -4.927
REMARK INTRA:                  -0.698
REMARK UNBOUND:                -0.686
REMARK SMILES CCCCCCCCC=CCCCCCCCC(=O)[O-]
REMARK SMILES IDX 10 1 9 2 11 3 12 4 13 5 14 6 15 7 16 8 17 9 18 10 19 11
REMARK SMILES IDX 20 12 8 13 7 14 6 15 5 16 4 17 3 18 2 19 1 20
REMARK H PARENT
REMARK Flexibility Score: inf
ROOT
ATOM      1  C   UNL     1     120.958  71.770   2.431  1.00  0.00    -0.031 C 
ATOM      2  C   UNL     1     120.302  70.917   3.231  1.00  0.00    -0.031 C 
ENDROOT
BRANCH   1   3
ATOM      3  C   UNL     1     121.120  71.505   0.957  1.00  0.00     0.027 C 
BRANCH   3   4
ATOM      4  C   UNL     1     120.201  70.380   0.460  1.00  0.00     0.004 C 
BRANCH   4   5
ATOM      5  C   UNL     1     120.900  69.465  -0.557  1.00  0.00     0.000 C 
BRANCH   5   6
ATOM      6  C   UNL     1     120.774  70.030  -1.979  1.00  0.00     0.000 C 
BRANCH   6   7
ATOM      7  C   UNL     1     120.034  69.077  -2.932  1.00  0.00     0.000 C 
BRANCH   7   8
ATOM      8  C   UNL     1     120.739  68.936  -4.293  1.00  0.00     0.006 C 
BRANCH   8   9
ATOM      9  C   UNL     1     119.898  68.141  -5.301  1.00  0.00     0.053 C 
BRANCH   9  10
ATOM     10  C   UNL     1     120.475  68.203  -6.682  1.00  0.00     0.041 C 
ATOM     11  O   UNL     1     121.522  67.560  -6.961  1.00  0.00    -0.550 OA
ATOM     12  O   UNL     1     119.876  68.995  -7.653  1.00  0.00    -0.550 OA
ENDBRANCH   9  10
ENDBRANCH   8   9
ENDBRANCH   7   8
ENDBRANCH   6   7
ENDBRANCH   5   6
ENDBRANCH   4   5
ENDBRANCH   3   4
ENDBRANCH   1   3
BRANCH   2  13
ATOM     13  C   UNL     1     120.152  71.207   4.702  1.00  0.00     0.027 C 
BRANCH  13  14
ATOM     14  C   UNL     1     120.449  72.677   5.042  1.00  0.00     0.004 C 
BRANCH  14  15
ATOM     15  C   UNL     1     120.113  73.063   6.496  1.00  0.00     0.000 C 
BRANCH  15  16
ATOM     16  C   UNL     1     120.899  72.239   7.526  1.00  0.00     0.000 C 
BRANCH  16  17
ATOM     17  C   UNL     1     119.993  71.805   8.688  1.00  0.00    -0.000 C 
BRANCH  17  18
ATOM     18  C   UNL     1     120.676  71.948  10.058  1.00  0.00    -0.000 C 
BRANCH  18  19
ATOM     19  C   UNL     1     119.882  72.836  11.026  1.00  0.00    -0.003 C 
ATOM     20  C   UNL     1     120.141  74.315  10.750  1.00  0.00     0.004 C 
ENDBRANCH  18  19
ENDBRANCH  17  18
ENDBRANCH  16  17
ENDBRANCH  15  16
ENDBRANCH  14  15
ENDBRANCH  13  14
ENDBRANCH   2  13
TORSDOF 15
ENDMDL
MODEL 6
REMARK VINA RESULT:    -2.264      5.326     11.916
REMARK INTER + INTRA:          -4.935
REMARK INTER:                  -4.280
REMARK INTRA:                  -0.655
REMARK UNBOUND:                -0.686
REMARK SMILES CCCCCCCCC=CCCCCCCCC(=O)[O-]
REMARK SMILES IDX 10 1 9 2 11 3 12 4 13 5 14 6 15 7 16 8 17 9 18 10 19 11
REMARK SMILES IDX 20 12 8 13 7 14 6 15 5 16 4 17 3 18 2 19 1 20
REMARK H PARENT
REMARK Flexibility Score: inf
ROOT
ATOM      1  C   UNL     1     120.924  71.289   0.986  1.00  0.00    -0.031 C 
ATOM      2  C   UNL     1     119.875  71.567   1.774  1.00  0.00    -0.031 C 
ENDROOT
BRANCH   1   3
ATOM      3  C   UNL     1     120.746  70.914  -0.462  1.00  0.00     0.027 C 
BRANCH   3   4
ATOM      4  C   UNL     1     121.187  69.472  -0.752  1.00  0.00     0.004 C 
BRANCH   4   5
ATOM      5  C   UNL     1     120.241  68.761  -1.732  1.00  0.00     0.000 C 
BRANCH   5   6
ATOM      6  C   UNL     1     120.461  67.241  -1.701  1.00  0.00     0.000 C 
BRANCH   6   7
ATOM      7  C   UNL     1     119.934  66.540  -2.962  1.00  0.00     0.000 C 
BRANCH   7   8
ATOM      8  C   UNL     1     119.929  67.462  -4.195  1.00  0.00     0.006 C 
BRANCH   8   9
ATOM      9  C   UNL     1     120.357  66.725  -5.471  1.00  0.00     0.053 C 
BRANCH   9  10
ATOM     10  C   UNL     1     120.791  67.674  -6.545  1.00  0.00     0.041 C 
ATOM     11  O   UNL     1     120.997  68.887  -6.274  1.00  0.00    -0.550 OA
ATOM     12  O   UNL     1     120.938  67.228  -7.852  1.00  0.00    -0.550 OA
ENDBRANCH   9  10
ENDBRANCH   8   9
ENDBRANCH   7   8
ENDBRANCH   6   7
ENDBRANCH   5   6
ENDBRANCH   4   5
ENDBRANCH   3   4
ENDBRANCH   1   3
BRANCH   2  13
ATOM     13  C   UNL     1     120.079  71.942   3.218  1.00  0.00     0.027 C 
BRANCH  13  14
ATOM     14  C   UNL     1     121.416  71.424   3.775  1.00  0.00     0.004 C 
BRANCH  14  15
ATOM     15  C   UNL     1     121.418  71.209   5.300  1.00  0.00     0.000 C 
BRANCH  15  16
ATOM     16  C   UNL     1     120.149  71.747   5.978  1.00  0.00     0.000 C 
BRANCH  16  17
ATOM     17  C   UNL     1     120.426  72.126   7.440  1.00  0.00    -0.000 C 
BRANCH  17  18
ATOM     18  C   UNL     1     120.231  70.945   8.406  1.00  0.00    -0.000 C 
BRANCH  18  19
ATOM     19  C   UNL     1     119.936  71.398   9.843  1.00  0.00    -0.003 C 
ATOM     20  C   UNL     1     119.875  70.205  10.793  1.00  0.00     0.004 C 
ENDBRANCH  18  19
ENDBRANCH  17  18
ENDBRANCH  16  17
ENDBRANCH  15  16
ENDBRANCH  14  15
ENDBRANCH  13  14
ENDBRANCH   2  13
TORSDOF 15
ENDMDL
