MODEL 1
REMARK VINA RESULT:    -3.913      0.000      0.000
REMARK INTER + INTRA:         -15.031
REMARK INTER:                 -10.317
REMARK INTRA:                  -4.714
REMARK UNBOUND:                -4.714
REMARK SMILES CCCCCCCCCCCCCCCCCCCCCCCCCCCCCC(=O)[O-]
REMARK SMILES IDX 16 1 17 2 18 3 19 4 20 5 21 6 22 7 23 8 24 9 25 10 26 11
REMARK SMILES IDX 27 12 28 13 29 14 30 15 31 16 32 17 15 18 14 19 13 20 12 21
REMARK SMILES IDX 11 22 10 23 9 24 8 25 7 26 6 27 5 28 4 29 3 30 2 31 1 32
REMARK H PARENT
REMARK Flexibility Score: inf
ROOT
ATOM      1  C   UNL     1      44.185  46.745   9.858  1.00  0.00     0.000 C 
ENDROOT
BRANCH   1   2
ATOM      2  C   UNL     1      45.064  48.007   9.966  1.00  0.00     0.000 C 
BRANCH   2   3
ATOM      3  C   UNL     1      46.070  47.985  11.137  1.00  0.00     0.000 C 
BRANCH   3   4
ATOM      4  C   UNL     1      45.444  47.477  12.447  1.00  0.00     0.000 C 
BRANCH   4   5
ATOM      5  C   UNL     1      46.382  46.497  13.164  1.00  0.00     0.000 C 
BRANCH   5   6
ATOM      6  C   UNL     1      47.601  46.163  12.288  1.00  0.00     0.000 C 
BRANCH   6   7
ATOM      7  C   UNL     1      48.933  46.197  13.067  1.00  0.00     0.000 C 
BRANCH   7   8
ATOM      8  C   UNL     1      49.184  47.505  13.841  1.00  0.00     0.000 C 
BRANCH   8   9
ATOM      9  C   UNL     1      49.229  48.781  12.984  1.00  0.00     0.000 C 
BRANCH   9  10
ATOM     10  C   UNL     1      50.569  48.964  12.250  1.00  0.00     0.000 C 
BRANCH  10  11
ATOM     11  C   UNL     1      50.480  48.600  10.759  1.00  0.00     0.000 C 
BRANCH  11  12
ATOM     12  C   UNL     1      51.332  47.369  10.402  1.00  0.00     0.000 C 
BRANCH  12  13
ATOM     13  C   UNL     1      52.285  46.948  11.534  1.00  0.00     0.006 C 
BRANCH  13  14
ATOM     14  C   UNL     1      52.720  45.474  11.465  1.00  0.00     0.053 C 
BRANCH  14  15
ATOM     15  C   UNL     1      54.200  45.321  11.277  1.00  0.00     0.041 C 
ATOM     16  O   UNL     1      54.692  44.188  11.030  1.00  0.00    -0.550 OA
ATOM     17  O   UNL     1      55.033  46.432  11.336  1.00  0.00    -0.550 OA
ENDBRANCH  14  15
ENDBRANCH  13  14
ENDBRANCH  12  13
ENDBRANCH  11  12
ENDBRANCH  10  11
ENDBRANCH   9  10
ENDBRANCH   8   9
ENDBRANCH   7   8
ENDBRANCH   6   7
ENDBRANCH   5   6
ENDBRANCH   4   5
ENDBRANCH   3   4
ENDBRANCH   2   3
ENDBRANCH   1   2
BRANCH   1  18
ATOM     18  C   UNL     1      44.823  45.555   9.121  1.00  0.00     0.000 C 
BRANCH  18  19
ATOM     19  C   UNL     1      45.305  44.402  10.024  1.00  0.00     0.000 C 
BRANCH  19  20
ATOM     20  C   UNL     1      44.345  44.067  11.187  1.00  0.00     0.000 C 
BRANCH  20  21
ATOM     21  C   UNL     1      44.999  43.160  12.243  1.00  0.00     0.000 C 
BRANCH  21  22
ATOM     22  C   UNL     1      45.882  42.064  11.623  1.00  0.00     0.000 C 
BRANCH  22  23
ATOM     23  C   UNL     1      46.083  40.859  12.563  1.00  0.00     0.000 C 
BRANCH  23  24
ATOM     24  C   UNL     1      45.422  39.578  12.028  1.00  0.00    -0.000 C 
BRANCH  24  25
ATOM     25  C   UNL     1      45.845  39.249  10.587  1.00  0.00    -0.000 C 
BRANCH  25  26
ATOM     26  C   UNL     1      45.359  37.864  10.131  1.00  0.00    -0.000 C 
BRANCH  26  27
ATOM     27  C   UNL     1      43.916  37.879   9.594  1.00  0.00    -0.000 C 
BRANCH  27  28
ATOM     28  C   UNL     1      43.733  38.903   8.453  1.00  0.00    -0.000 C 
BRANCH  28  29
ATOM     29  C   UNL     1      42.725  40.018   8.780  1.00  0.00    -0.000 C 
BRANCH  29  30
ATOM     30  C   UNL     1      43.357  41.418   8.760  1.00  0.00    -0.000 C 
BRANCH  30  31
ATOM     31  C   UNL     1      44.607  41.482   7.869  1.00  0.00    -0.003 C 
ATOM     32  C   UNL     1      44.365  42.237   6.562  1.00  0.00     0.004 C 
ENDBRANCH  30  31
ENDBRANCH  29  30
ENDBRANCH  28  29
ENDBRANCH  27  28
ENDBRANCH  26  27
ENDBRANCH  25  26
ENDBRANCH  24  25
ENDBRANCH  23  24
ENDBRANCH  22  23
ENDBRANCH  21  22
ENDBRANCH  20  21
ENDBRANCH  19  20
ENDBRANCH  18  19
ENDBRANCH   1  18
TORSDOF 28
ENDMDL
MODEL 2
REMARK VINA RESULT:    -3.839      1.999      4.114
REMARK INTER + INTRA:         -14.837
REMARK INTER:                 -10.666
REMARK INTRA:                  -4.171
REMARK UNBOUND:                -4.714
REMARK SMILES CCCCCCCCCCCCCCCCCCCCCCCCCCCCCC(=O)[O-]
REMARK SMILES IDX 16 1 17 2 18 3 19 4 20 5 21 6 22 7 23 8 24 9 25 10 26 11
REMARK SMILES IDX 27 12 28 13 29 14 30 15 31 16 32 17 15 18 14 19 13 20 12 21
REMARK SMILES IDX 11 22 10 23 9 24 8 25 7 26 6 27 5 28 4 29 3 30 2 31 1 32
REMARK H PARENT
REMARK Flexibility Score: inf
ROOT
ATOM      1  C   UNL     1      45.996  42.826  11.699  1.00  0.00     0.000 C 
ENDROOT
BRANCH   1   2
ATOM      2  C   UNL     1      46.373  44.096  12.488  1.00  0.00     0.000 C 
BRANCH   2   3
ATOM      3  C   UNL     1      46.211  45.411  11.696  1.00  0.00     0.000 C 
BRANCH   3   4
ATOM      4  C   UNL     1      45.176  46.359  12.324  1.00  0.00     0.000 C 
BRANCH   4   5
ATOM      5  C   UNL     1      45.043  47.651  11.508  1.00  0.00     0.000 C 
BRANCH   5   6
ATOM      6  C   UNL     1      45.976  47.628  10.286  1.00  0.00     0.000 C 
BRANCH   6   7
ATOM      7  C   UNL     1      47.050  48.736  10.324  1.00  0.00     0.000 C 
BRANCH   7   8
ATOM      8  C   UNL     1      47.241  49.390  11.706  1.00  0.00     0.000 C 
BRANCH   8   9
ATOM      9  C   UNL     1      48.547  49.028  12.432  1.00  0.00     0.000 C 
BRANCH   9  10
ATOM     10  C   UNL     1      49.130  47.676  11.981  1.00  0.00     0.000 C 
BRANCH  10  11
ATOM     11  C   UNL     1      50.657  47.717  11.816  1.00  0.00     0.000 C 
BRANCH  11  12
ATOM     12  C   UNL     1      51.095  47.564  10.349  1.00  0.00     0.000 C 
BRANCH  12  13
ATOM     13  C   UNL     1      52.108  46.425  10.140  1.00  0.00     0.006 C 
BRANCH  13  14
ATOM     14  C   UNL     1      52.578  45.762  11.446  1.00  0.00     0.053 C 
BRANCH  14  15
ATOM     15  C   UNL     1      53.988  45.259  11.360  1.00  0.00     0.041 C 
ATOM     16  O   UNL     1      54.223  44.023  11.408  1.00  0.00    -0.550 OA
ATOM     17  O   UNL     1      55.041  46.150  11.186  1.00  0.00    -0.550 OA
ENDBRANCH  14  15
ENDBRANCH  13  14
ENDBRANCH  12  13
ENDBRANCH  11  12
ENDBRANCH  10  11
ENDBRANCH   9  10
ENDBRANCH   8   9
ENDBRANCH   7   8
ENDBRANCH   6   7
ENDBRANCH   5   6
ENDBRANCH   4   5
ENDBRANCH   3   4
ENDBRANCH   2   3
ENDBRANCH   1   2
BRANCH   1  18
ATOM     18  C   UNL     1      45.345  43.070  10.327  1.00  0.00     0.000 C 
BRANCH  18  19
ATOM     19  C   UNL     1      43.807  42.976  10.301  1.00  0.00     0.000 C 
BRANCH  19  20
ATOM     20  C   UNL     1      43.109  44.202   9.669  1.00  0.00     0.000 C 
BRANCH  20  21
ATOM     21  C   UNL     1      44.028  44.961   8.698  1.00  0.00     0.000 C 
BRANCH  21  22
ATOM     22  C   UNL     1      43.312  46.117   7.980  1.00  0.00     0.000 C 
BRANCH  22  23
ATOM     23  C   UNL     1      41.871  45.759   7.566  1.00  0.00     0.000 C 
BRANCH  23  24
ATOM     24  C   UNL     1      41.710  45.634   6.042  1.00  0.00    -0.000 C 
BRANCH  24  25
ATOM     25  C   UNL     1      42.106  44.244   5.515  1.00  0.00    -0.000 C 
BRANCH  25  26
ATOM     26  C   UNL     1      40.966  43.221   5.635  1.00  0.00    -0.000 C 
BRANCH  26  27
ATOM     27  C   UNL     1      41.187  41.968   4.769  1.00  0.00    -0.000 C 
BRANCH  27  28
ATOM     28  C   UNL     1      40.883  40.667   5.543  1.00  0.00    -0.000 C 
BRANCH  28  29
ATOM     29  C   UNL     1      42.142  39.938   6.043  1.00  0.00    -0.000 C 
BRANCH  29  30
ATOM     30  C   UNL     1      42.609  40.430   7.421  1.00  0.00    -0.000 C 
BRANCH  30  31
ATOM     31  C   UNL     1      44.116  40.726   7.456  1.00  0.00    -0.003 C 
ATOM     32  C   UNL     1      44.483  42.021   6.731  1.00  0.00     0.004 C 
ENDBRANCH  30  31
ENDBRANCH  29  30
ENDBRANCH  28  29
ENDBRANCH  27  28
ENDBRANCH  26  27
ENDBRANCH  25  26
ENDBRANCH  24  25
ENDBRANCH  23  24
ENDBRANCH  22  23
ENDBRANCH  21  22
ENDBRANCH  20  21
ENDBRANCH  19  20
ENDBRANCH  18  19
ENDBRANCH   1  18
TORSDOF 28
ENDMDL
MODEL 3
REMARK VINA RESULT:    -3.838      1.526      5.091
REMARK INTER + INTRA:         -14.834
REMARK INTER:                 -10.455
REMARK INTRA:                  -4.379
REMARK UNBOUND:                -4.714
REMARK SMILES CCCCCCCCCCCCCCCCCCCCCCCCCCCCCC(=O)[O-]
REMARK SMILES IDX 16 1 17 2 18 3 19 4 20 5 21 6 22 7 23 8 24 9 25 10 26 11
REMARK SMILES IDX 27 12 28 13 29 14 30 15 31 16 32 17 15 18 14 19 13 20 12 21
REMARK SMILES IDX 11 22 10 23 9 24 8 25 7 26 6 27 5 28 4 29 3 30 2 31 1 32
REMARK H PARENT
REMARK Flexibility Score: inf
ROOT
ATOM      1  C   UNL     1      45.499  42.228  10.847  1.00  0.00     0.000 C 
ENDROOT
BRANCH   1   2
ATOM      2  C   UNL     1      45.306  43.286   9.743  1.00  0.00     0.000 C 
BRANCH   2   3
ATOM      3  C   UNL     1      45.317  44.744  10.249  1.00  0.00     0.000 C 
BRANCH   3   4
ATOM      4  C   UNL     1      44.473  44.938  11.519  1.00  0.00     0.000 C 
BRANCH   4   5
ATOM      5  C   UNL     1      45.238  45.748  12.574  1.00  0.00     0.000 C 
BRANCH   5   6
ATOM      6  C   UNL     1      46.730  45.846  12.216  1.00  0.00     0.000 C 
BRANCH   6   7
ATOM      7  C   UNL     1      47.658  45.692  13.439  1.00  0.00     0.000 C 
BRANCH   7   8
ATOM      8  C   UNL     1      48.987  46.465  13.332  1.00  0.00     0.000 C 
BRANCH   8   9
ATOM      9  C   UNL     1      48.870  47.995  13.433  1.00  0.00     0.000 C 
BRANCH   9  10
ATOM     10  C   UNL     1      49.070  48.702  12.081  1.00  0.00     0.000 C 
BRANCH  10  11
ATOM     11  C   UNL     1      49.650  47.768  11.007  1.00  0.00     0.000 C 
BRANCH  11  12
ATOM     12  C   UNL     1      51.123  48.078  10.689  1.00  0.00     0.000 C 
BRANCH  12  13
ATOM     13  C   UNL     1      52.108  47.254  11.537  1.00  0.00     0.006 C 
BRANCH  13  14
ATOM     14  C   UNL     1      52.094  45.749  11.221  1.00  0.00     0.053 C 
BRANCH  14  15
ATOM     15  C   UNL     1      53.467  45.204  10.964  1.00  0.00     0.041 C 
ATOM     16  O   UNL     1      53.610  44.034  10.519  1.00  0.00    -0.550 OA
ATOM     17  O   UNL     1      54.587  45.997  11.179  1.00  0.00    -0.550 OA
ENDBRANCH  14  15
ENDBRANCH  13  14
ENDBRANCH  12  13
ENDBRANCH  11  12
ENDBRANCH  10  11
ENDBRANCH   9  10
ENDBRANCH   8   9
ENDBRANCH   7   8
ENDBRANCH   6   7
ENDBRANCH   5   6
ENDBRANCH   4   5
ENDBRANCH   3   4
ENDBRANCH   2   3
ENDBRANCH   1   2
BRANCH   1  18
ATOM     18  C   UNL     1      45.449  40.764  10.377  1.00  0.00     0.000 C 
BRANCH  18  19
ATOM     19  C   UNL     1      45.328  40.564   8.853  1.00  0.00     0.000 C 
BRANCH  19  20
ATOM     20  C   UNL     1      43.970  39.985   8.398  1.00  0.00     0.000 C 
BRANCH  20  21
ATOM     21  C   UNL     1      43.571  40.464   6.992  1.00  0.00     0.000 C 
BRANCH  21  22
ATOM     22  C   UNL     1      44.205  41.814   6.620  1.00  0.00     0.000 C 
BRANCH  22  23
ATOM     23  C   UNL     1      43.179  42.818   6.058  1.00  0.00     0.000 C 
BRANCH  23  24
ATOM     24  C   UNL     1      43.135  44.128   6.861  1.00  0.00    -0.000 C 
BRANCH  24  25
ATOM     25  C   UNL     1      42.190  44.052   8.072  1.00  0.00    -0.000 C 
BRANCH  25  26
ATOM     26  C   UNL     1      41.925  45.429   8.699  1.00  0.00    -0.000 C 
BRANCH  26  27
ATOM     27  C   UNL     1      41.721  46.539   7.652  1.00  0.00    -0.000 C 
BRANCH  27  28
ATOM     28  C   UNL     1      42.801  47.638   7.755  1.00  0.00    -0.000 C 
BRANCH  28  29
ATOM     29  C   UNL     1      43.674  47.529   9.018  1.00  0.00    -0.000 C 
BRANCH  29  30
ATOM     30  C   UNL     1      43.342  48.601  10.067  1.00  0.00    -0.000 C 
BRANCH  30  31
ATOM     31  C   UNL     1      44.550  48.952  10.948  1.00  0.00    -0.003 C 
ATOM     32  C   UNL     1      45.872  48.916  10.182  1.00  0.00     0.004 C 
ENDBRANCH  30  31
ENDBRANCH  29  30
ENDBRANCH  28  29
ENDBRANCH  27  28
ENDBRANCH  26  27
ENDBRANCH  25  26
ENDBRANCH  24  25
ENDBRANCH  23  24
ENDBRANCH  22  23
ENDBRANCH  21  22
ENDBRANCH  20  21
ENDBRANCH  19  20
ENDBRANCH  18  19
ENDBRANCH   1  18
TORSDOF 28
ENDMDL
MODEL 4
REMARK VINA RESULT:    -3.788      2.264      4.488
REMARK INTER + INTRA:         -14.703
REMARK INTER:                 -11.021
REMARK INTRA:                  -3.682
REMARK UNBOUND:                -4.714
REMARK SMILES CCCCCCCCCCCCCCCCCCCCCCCCCCCCCC(=O)[O-]
REMARK SMILES IDX 16 1 17 2 18 3 19 4 20 5 21 6 22 7 23 8 24 9 25 10 26 11
REMARK SMILES IDX 27 12 28 13 29 14 30 15 31 16 32 17 15 18 14 19 13 20 12 21
REMARK SMILES IDX 11 22 10 23 9 24 8 25 7 26 6 27 5 28 4 29 3 30 2 31 1 32
REMARK H PARENT
REMARK Flexibility Score: inf
ROOT
ATOM      1  C   UNL     1      44.883  45.109   8.861  1.00  0.00     0.000 C 
ENDROOT
BRANCH   1   2
ATOM      2  C   UNL     1      45.287  44.430  10.185  1.00  0.00     0.000 C 
BRANCH   2   3
ATOM      3  C   UNL     1      44.425  44.839  11.399  1.00  0.00     0.000 C 
BRANCH   3   4
ATOM      4  C   UNL     1      45.081  45.941  12.248  1.00  0.00     0.000 C 
BRANCH   4   5
ATOM      5  C   UNL     1      44.644  47.335  11.778  1.00  0.00     0.000 C 
BRANCH   5   6
ATOM      6  C   UNL     1      45.809  48.078  11.104  1.00  0.00     0.000 C 
BRANCH   6   7
ATOM      7  C   UNL     1      47.184  47.440  11.395  1.00  0.00     0.000 C 
BRANCH   7   8
ATOM      8  C   UNL     1      48.388  48.314  10.996  1.00  0.00     0.000 C 
BRANCH   8   9
ATOM      9  C   UNL     1      49.339  48.691  12.145  1.00  0.00     0.000 C 
BRANCH   9  10
ATOM     10  C   UNL     1      50.822  48.650  11.734  1.00  0.00     0.000 C 
BRANCH  10  11
ATOM     11  C   UNL     1      51.023  48.132  10.302  1.00  0.00     0.000 C 
BRANCH  11  12
ATOM     12  C   UNL     1      51.693  46.748  10.264  1.00  0.00     0.000 C 
BRANCH  12  13
ATOM     13  C   UNL     1      52.968  46.673  11.122  1.00  0.00     0.006 C 
BRANCH  13  14
ATOM     14  C   UNL     1      52.958  45.533  12.155  1.00  0.00     0.053 C 
BRANCH  14  15
ATOM     15  C   UNL     1      54.133  44.614  12.007  1.00  0.00     0.041 C 
ATOM     16  O   UNL     1      54.830  44.311  13.012  1.00  0.00    -0.550 OA
ATOM     17  O   UNL     1      54.437  44.059  10.769  1.00  0.00    -0.550 OA
ENDBRANCH  14  15
ENDBRANCH  13  14
ENDBRANCH  12  13
ENDBRANCH  11  12
ENDBRANCH  10  11
ENDBRANCH   9  10
ENDBRANCH   8   9
ENDBRANCH   7   8
ENDBRANCH   6   7
ENDBRANCH   5   6
ENDBRANCH   4   5
ENDBRANCH   3   4
ENDBRANCH   2   3
ENDBRANCH   1   2
BRANCH   1  18
ATOM     18  C   UNL     1      43.418  45.568   8.772  1.00  0.00     0.000 C 
BRANCH  18  19
ATOM     19  C   UNL     1      43.198  46.952   8.130  1.00  0.00     0.000 C 
BRANCH  19  20
ATOM     20  C   UNL     1      42.256  46.938   6.906  1.00  0.00     0.000 C 
BRANCH  20  21
ATOM     21  C   UNL     1      42.179  45.552   6.243  1.00  0.00     0.000 C 
BRANCH  21  22
ATOM     22  C   UNL     1      40.788  45.244   5.666  1.00  0.00     0.000 C 
BRANCH  22  23
ATOM     23  C   UNL     1      40.854  44.556   4.288  1.00  0.00     0.000 C 
BRANCH  23  24
ATOM     24  C   UNL     1      40.183  43.172   4.287  1.00  0.00    -0.000 C 
BRANCH  24  25
ATOM     25  C   UNL     1      41.143  42.047   4.709  1.00  0.00    -0.000 C 
BRANCH  25  26
ATOM     26  C   UNL     1      40.880  41.553   6.140  1.00  0.00    -0.000 C 
BRANCH  26  27
ATOM     27  C   UNL     1      42.005  41.926   7.122  1.00  0.00    -0.000 C 
BRANCH  27  28
ATOM     28  C   UNL     1      43.357  42.130   6.404  1.00  0.00    -0.000 C 
BRANCH  28  29
ATOM     29  C   UNL     1      44.578  41.860   7.301  1.00  0.00    -0.000 C 
BRANCH  29  30
ATOM     30  C   UNL     1      44.487  40.520   8.045  1.00  0.00    -0.000 C 
BRANCH  30  31
ATOM     31  C   UNL     1      45.342  40.501   9.321  1.00  0.00    -0.003 C 
ATOM     32  C   UNL     1      44.545  40.865  10.574  1.00  0.00     0.004 C 
ENDBRANCH  30  31
ENDBRANCH  29  30
ENDBRANCH  28  29
ENDBRANCH  27  28
ENDBRANCH  26  27
ENDBRANCH  25  26
ENDBRANCH  24  25
ENDBRANCH  23  24
ENDBRANCH  22  23
ENDBRANCH  21  22
ENDBRANCH  20  21
ENDBRANCH  19  20
ENDBRANCH  18  19
ENDBRANCH   1  18
TORSDOF 28
ENDMDL
MODEL 5
REMARK VINA RESULT:    -3.781      3.700      8.638
REMARK INTER + INTRA:         -14.683
REMARK INTER:                 -10.297
REMARK INTRA:                  -4.387
REMARK UNBOUND:                -4.714
REMARK SMILES CCCCCCCCCCCCCCCCCCCCCCCCCCCCCC(=O)[O-]
REMARK SMILES IDX 16 1 17 2 18 3 19 4 20 5 21 6 22 7 23 8 24 9 25 10 26 11
REMARK SMILES IDX 27 12 28 13 29 14 30 15 31 16 32 17 15 18 14 19 13 20 12 21
REMARK SMILES IDX 11 22 10 23 9 24 8 25 7 26 6 27 5 28 4 29 3 30 2 31 1 32
REMARK H PARENT
REMARK Flexibility Score: inf
ROOT
ATOM      1  C   UNL     1      43.338  46.426   7.746  1.00  0.00     0.000 C 
ENDROOT
BRANCH   1   2
ATOM      2  C   UNL     1      43.605  45.066   8.421  1.00  0.00     0.000 C 
BRANCH   2   3
ATOM      3  C   UNL     1      45.074  44.838   8.837  1.00  0.00     0.000 C 
BRANCH   3   4
ATOM      4  C   UNL     1      45.203  44.054  10.154  1.00  0.00     0.000 C 
BRANCH   4   5
ATOM      5  C   UNL     1      43.834  43.869  10.823  1.00  0.00     0.000 C 
BRANCH   5   6
ATOM      6  C   UNL     1      43.926  44.116  12.338  1.00  0.00     0.000 C 
BRANCH   6   7
ATOM      7  C   UNL     1      43.927  42.813  13.166  1.00  0.00     0.000 C 
BRANCH   7   8
ATOM      8  C   UNL     1      45.328  42.230  13.432  1.00  0.00     0.000 C 
BRANCH   8   9
ATOM      9  C   UNL     1      45.496  40.738  13.097  1.00  0.00     0.000 C 
BRANCH   9  10
ATOM     10  C   UNL     1      46.117  40.502  11.708  1.00  0.00     0.000 C 
BRANCH  10  11
ATOM     11  C   UNL     1      45.101  39.955  10.694  1.00  0.00     0.000 C 
BRANCH  11  12
ATOM     12  C   UNL     1      45.380  40.440   9.261  1.00  0.00     0.000 C 
BRANCH  12  13
ATOM     13  C   UNL     1      44.139  40.378   8.352  1.00  0.00     0.006 C 
BRANCH  13  14
ATOM     14  C   UNL     1      44.021  41.563   7.378  1.00  0.00     0.053 C 
BRANCH  14  15
ATOM     15  C   UNL     1      43.209  41.228   6.163  1.00  0.00     0.041 C 
ATOM     16  O   UNL     1      43.066  40.027   5.809  1.00  0.00    -0.550 OA
ATOM     17  O   UNL     1      42.579  42.234   5.441  1.00  0.00    -0.550 OA
ENDBRANCH  14  15
ENDBRANCH  13  14
ENDBRANCH  12  13
ENDBRANCH  11  12
ENDBRANCH  10  11
ENDBRANCH   9  10
ENDBRANCH   8   9
ENDBRANCH   7   8
ENDBRANCH   6   7
ENDBRANCH   5   6
ENDBRANCH   4   5
ENDBRANCH   3   4
ENDBRANCH   2   3
ENDBRANCH   1   2
BRANCH   1  18
ATOM     18  C   UNL     1      42.528  47.432   8.580  1.00  0.00     0.000 C 
BRANCH  18  19
ATOM     19  C   UNL     1      43.339  48.234   9.617  1.00  0.00     0.000 C 
BRANCH  19  20
ATOM     20  C   UNL     1      43.280  47.658  11.049  1.00  0.00     0.000 C 
BRANCH  20  21
ATOM     21  C   UNL     1      44.670  47.563  11.700  1.00  0.00     0.000 C 
BRANCH  21  22
ATOM     22  C   UNL     1      45.797  48.038  10.769  1.00  0.00     0.000 C 
BRANCH  22  23
ATOM     23  C   UNL     1      47.179  47.496  11.184  1.00  0.00     0.000 C 
BRANCH  23  24
ATOM     24  C   UNL     1      47.081  46.362  12.219  1.00  0.00    -0.000 C 
BRANCH  24  25
ATOM     25  C   UNL     1      48.203  46.418  13.269  1.00  0.00    -0.000 C 
BRANCH  25  26
ATOM     26  C   UNL     1      49.376  47.310  12.832  1.00  0.00    -0.000 C 
BRANCH  26  27
ATOM     27  C   UNL     1      50.458  46.542  12.050  1.00  0.00    -0.000 C 
BRANCH  27  28
ATOM     28  C   UNL     1      50.999  47.359  10.856  1.00  0.00    -0.000 C 
BRANCH  28  29
ATOM     29  C   UNL     1      52.144  46.661  10.101  1.00  0.00    -0.000 C 
BRANCH  29  30
ATOM     30  C   UNL     1      52.567  45.336  10.751  1.00  0.00    -0.000 C 
BRANCH  30  31
ATOM     31  C   UNL     1      53.931  44.844  10.242  1.00  0.00    -0.003 C 
ATOM     32  C   UNL     1      54.242  43.411  10.673  1.00  0.00     0.004 C 
ENDBRANCH  30  31
ENDBRANCH  29  30
ENDBRANCH  28  29
ENDBRANCH  27  28
ENDBRANCH  26  27
ENDBRANCH  25  26
ENDBRANCH  24  25
ENDBRANCH  23  24
ENDBRANCH  22  23
ENDBRANCH  21  22
ENDBRANCH  20  21
ENDBRANCH  19  20
ENDBRANCH  18  19
ENDBRANCH   1  18
TORSDOF 28
ENDMDL
MODEL 6
REMARK VINA RESULT:    -3.758      1.592      2.967
REMARK INTER + INTRA:         -14.622
REMARK INTER:                 -11.103
REMARK INTRA:                  -3.519
REMARK UNBOUND:                -4.714
REMARK SMILES CCCCCCCCCCCCCCCCCCCCCCCCCCCCCC(=O)[O-]
REMARK SMILES IDX 16 1 17 2 18 3 19 4 20 5 21 6 22 7 23 8 24 9 25 10 26 11
REMARK SMILES IDX 27 12 28 13 29 14 30 15 31 16 32 17 15 18 14 19 13 20 12 21
REMARK SMILES IDX 11 22 10 23 9 24 8 25 7 26 6 27 5 28 4 29 3 30 2 31 1 32
REMARK H PARENT
REMARK Flexibility Score: inf
ROOT
ATOM      1  C   UNL     1      45.261  45.679  10.600  1.00  0.00     0.000 C 
ENDROOT
BRANCH   1   2
ATOM      2  C   UNL     1      44.431  46.507  11.601  1.00  0.00     0.000 C 
BRANCH   2   3
ATOM      3  C   UNL     1      44.161  47.961  11.156  1.00  0.00     0.000 C 
BRANCH   3   4
ATOM      4  C   UNL     1      45.014  48.379   9.947  1.00  0.00     0.000 C 
BRANCH   4   5
ATOM      5  C   UNL     1      46.069  49.418  10.348  1.00  0.00     0.000 C 
BRANCH   5   6
ATOM      6  C   UNL     1      47.469  48.783  10.411  1.00  0.00     0.000 C 
BRANCH   6   7
ATOM      7  C   UNL     1      47.802  48.189  11.796  1.00  0.00     0.000 C 
BRANCH   7   8
ATOM      8  C   UNL     1      49.148  47.443  11.862  1.00  0.00     0.000 C 
BRANCH   8   9
ATOM      9  C   UNL     1      50.183  47.854  10.802  1.00  0.00     0.000 C 
BRANCH   9  10
ATOM     10  C   UNL     1      51.521  47.106  10.947  1.00  0.00     0.000 C 
BRANCH  10  11
ATOM     11  C   UNL     1      51.505  46.088  12.098  1.00  0.00     0.000 C 
BRANCH  11  12
ATOM     12  C   UNL     1      52.744  46.201  13.003  1.00  0.00     0.000 C 
BRANCH  12  13
ATOM     13  C   UNL     1      54.066  46.027  12.236  1.00  0.00     0.006 C 
BRANCH  13  14
ATOM     14  C   UNL     1      54.512  44.562  12.087  1.00  0.00     0.053 C 
BRANCH  14  15
ATOM     15  C   UNL     1      54.253  44.020  10.713  1.00  0.00     0.041 C 
ATOM     16  O   UNL     1      54.200  44.799   9.725  1.00  0.00    -0.550 OA
ATOM     17  O   UNL     1      54.109  42.652  10.515  1.00  0.00    -0.550 OA
ENDBRANCH  14  15
ENDBRANCH  13  14
ENDBRANCH  12  13
ENDBRANCH  11  12
ENDBRANCH  10  11
ENDBRANCH   9  10
ENDBRANCH   8   9
ENDBRANCH   7   8
ENDBRANCH   6   7
ENDBRANCH   5   6
ENDBRANCH   4   5
ENDBRANCH   3   4
ENDBRANCH   2   3
ENDBRANCH   1   2
BRANCH   1  18
ATOM     18  C   UNL     1      44.467  44.659   9.766  1.00  0.00     0.000 C 
BRANCH  18  19
ATOM     19  C   UNL     1      44.294  43.271  10.411  1.00  0.00     0.000 C 
BRANCH  19  20
ATOM     20  C   UNL     1      45.415  42.267  10.061  1.00  0.00     0.000 C 
BRANCH  20  21
ATOM     21  C   UNL     1      45.290  40.952  10.848  1.00  0.00     0.000 C 
BRANCH  21  22
ATOM     22  C   UNL     1      45.628  39.715  10.000  1.00  0.00     0.000 C 
BRANCH  22  23
ATOM     23  C   UNL     1      44.475  38.692   9.955  1.00  0.00     0.000 C 
BRANCH  23  24
ATOM     24  C   UNL     1      43.178  39.238  10.574  1.00  0.00    -0.000 C 
BRANCH  24  25
ATOM     25  C   UNL     1      42.055  39.417   9.539  1.00  0.00    -0.000 C 
BRANCH  25  26
ATOM     26  C   UNL     1      42.124  40.775   8.824  1.00  0.00    -0.000 C 
BRANCH  26  27
ATOM     27  C   UNL     1      42.469  40.653   7.329  1.00  0.00    -0.000 C 
BRANCH  27  28
ATOM     28  C   UNL     1      43.839  41.284   6.998  1.00  0.00    -0.000 C 
BRANCH  28  29
ATOM     29  C   UNL     1      43.738  42.688   6.375  1.00  0.00    -0.000 C 
BRANCH  29  30
ATOM     30  C   UNL     1      42.458  42.882   5.549  1.00  0.00    -0.000 C 
BRANCH  30  31
ATOM     31  C   UNL     1      41.931  44.324   5.617  1.00  0.00    -0.003 C 
ATOM     32  C   UNL     1      42.612  45.152   6.706  1.00  0.00     0.004 C 
ENDBRANCH  30  31
ENDBRANCH  29  30
ENDBRANCH  28  29
ENDBRANCH  27  28
ENDBRANCH  26  27
ENDBRANCH  25  26
ENDBRANCH  24  25
ENDBRANCH  23  24
ENDBRANCH  22  23
ENDBRANCH  21  22
ENDBRANCH  20  21
ENDBRANCH  19  20
ENDBRANCH  18  19
ENDBRANCH   1  18
TORSDOF 28
ENDMDL
MODEL 7
REMARK VINA RESULT:    -3.734      1.362      3.133
REMARK INTER + INTRA:         -14.561
REMARK INTER:                  -9.792
REMARK INTRA:                  -4.769
REMARK UNBOUND:                -4.714
REMARK SMILES CCCCCCCCCCCCCCCCCCCCCCCCCCCCCC(=O)[O-]
REMARK SMILES IDX 16 1 17 2 18 3 19 4 20 5 21 6 22 7 23 8 24 9 25 10 26 11
REMARK SMILES IDX 27 12 28 13 29 14 30 15 31 16 32 17 15 18 14 19 13 20 12 21
REMARK SMILES IDX 11 22 10 23 9 24 8 25 7 26 6 27 5 28 4 29 3 30 2 31 1 32
REMARK H PARENT
REMARK Flexibility Score: inf
ROOT
ATOM      1  C   UNL     1      44.621  47.280  10.163  1.00  0.00     0.000 C 
ENDROOT
BRANCH   1   2
ATOM      2  C   UNL     1      45.595  48.475  10.166  1.00  0.00     0.000 C 
BRANCH   2   3
ATOM      3  C   UNL     1      46.527  48.535  11.395  1.00  0.00     0.000 C 
BRANCH   3   4
ATOM      4  C   UNL     1      45.832  48.077  12.689  1.00  0.00     0.000 C 
BRANCH   4   5
ATOM      5  C   UNL     1      46.642  46.981  13.393  1.00  0.00     0.000 C 
BRANCH   5   6
ATOM      6  C   UNL     1      47.914  46.641  12.599  1.00  0.00     0.000 C 
BRANCH   6   7
ATOM      7  C   UNL     1      49.152  46.436  13.498  1.00  0.00     0.000 C 
BRANCH   7   8
ATOM      8  C   UNL     1      49.865  47.739  13.907  1.00  0.00     0.000 C 
BRANCH   8   9
ATOM      9  C   UNL     1      49.706  48.914  12.927  1.00  0.00     0.000 C 
BRANCH   9  10
ATOM     10  C   UNL     1      50.843  48.988  11.892  1.00  0.00     0.000 C 
BRANCH  10  11
ATOM     11  C   UNL     1      50.486  48.285  10.573  1.00  0.00     0.000 C 
BRANCH  11  12
ATOM     12  C   UNL     1      51.582  47.309  10.111  1.00  0.00     0.000 C 
BRANCH  12  13
ATOM     13  C   UNL     1      52.062  46.369  11.231  1.00  0.00     0.006 C 
BRANCH  13  14
ATOM     14  C   UNL     1      52.840  45.143  10.724  1.00  0.00     0.053 C 
BRANCH  14  15
ATOM     15  C   UNL     1      54.223  45.063  11.299  1.00  0.00     0.041 C 
ATOM     16  O   UNL     1      54.991  46.059  11.240  1.00  0.00    -0.550 OA
ATOM     17  O   UNL     1      54.651  43.904  11.935  1.00  0.00    -0.550 OA
ENDBRANCH  14  15
ENDBRANCH  13  14
ENDBRANCH  12  13
ENDBRANCH  11  12
ENDBRANCH  10  11
ENDBRANCH   9  10
ENDBRANCH   8   9
ENDBRANCH   7   8
ENDBRANCH   6   7
ENDBRANCH   5   6
ENDBRANCH   4   5
ENDBRANCH   3   4
ENDBRANCH   2   3
ENDBRANCH   1   2
BRANCH   1  18
ATOM     18  C   UNL     1      45.004  46.116   9.235  1.00  0.00     0.000 C 
BRANCH  18  19
ATOM     19  C   UNL     1      45.250  44.766   9.937  1.00  0.00     0.000 C 
BRANCH  19  20
ATOM     20  C   UNL     1      44.713  44.699  11.384  1.00  0.00     0.000 C 
BRANCH  20  21
ATOM     21  C   UNL     1      43.363  43.967  11.473  1.00  0.00     0.000 C 
BRANCH  21  22
ATOM     22  C   UNL     1      42.179  44.925  11.684  1.00  0.00     0.000 C 
BRANCH  22  23
ATOM     23  C   UNL     1      41.351  45.138  10.401  1.00  0.00     0.000 C 
BRANCH  23  24
ATOM     24  C   UNL     1      41.472  43.961   9.418  1.00  0.00    -0.000 C 
BRANCH  24  25
ATOM     25  C   UNL     1      41.897  44.405   8.009  1.00  0.00    -0.000 C 
BRANCH  25  26
ATOM     26  C   UNL     1      42.308  43.223   7.118  1.00  0.00    -0.000 C 
BRANCH  26  27
ATOM     27  C   UNL     1      43.822  43.173   6.845  1.00  0.00    -0.000 C 
BRANCH  27  28
ATOM     28  C   UNL     1      44.423  41.787   7.166  1.00  0.00    -0.000 C 
BRANCH  28  29
ATOM     29  C   UNL     1      44.438  41.454   8.669  1.00  0.00    -0.000 C 
BRANCH  29  30
ATOM     30  C   UNL     1      44.804  39.990   8.952  1.00  0.00    -0.000 C 
BRANCH  30  31
ATOM     31  C   UNL     1      45.658  39.835  10.219  1.00  0.00    -0.003 C 
ATOM     32  C   UNL     1      45.681  41.100  11.077  1.00  0.00     0.004 C 
ENDBRANCH  30  31
ENDBRANCH  29  30
ENDBRANCH  28  29
ENDBRANCH  27  28
ENDBRANCH  26  27
ENDBRANCH  25  26
ENDBRANCH  24  25
ENDBRANCH  23  24
ENDBRANCH  22  23
ENDBRANCH  21  22
ENDBRANCH  20  21
ENDBRANCH  19  20
ENDBRANCH  18  19
ENDBRANCH   1  18
TORSDOF 28
ENDMDL
MODEL 8
REMARK VINA RESULT:    -3.715      1.650      3.906
REMARK INTER + INTRA:         -14.510
REMARK INTER:                 -10.531
REMARK INTRA:                  -3.979
REMARK UNBOUND:                -4.714
REMARK SMILES CCCCCCCCCCCCCCCCCCCCCCCCCCCCCC(=O)[O-]
REMARK SMILES IDX 16 1 17 2 18 3 19 4 20 5 21 6 22 7 23 8 24 9 25 10 26 11
REMARK SMILES IDX 27 12 28 13 29 14 30 15 31 16 32 17 15 18 14 19 13 20 12 21
REMARK SMILES IDX 11 22 10 23 9 24 8 25 7 26 6 27 5 28 4 29 3 30 2 31 1 32
REMARK H PARENT
REMARK Flexibility Score: inf
ROOT
ATOM      1  C   UNL     1      45.832  41.979  11.753  1.00  0.00     0.000 C 
ENDROOT
BRANCH   1   2
ATOM      2  C   UNL     1      45.642  42.968  10.585  1.00  0.00     0.000 C 
BRANCH   2   3
ATOM      3  C   UNL     1      45.626  44.453  11.005  1.00  0.00     0.000 C 
BRANCH   3   4
ATOM      4  C   UNL     1      45.197  45.388   9.861  1.00  0.00     0.000 C 
BRANCH   4   5
ATOM      5  C   UNL     1      45.654  46.829  10.123  1.00  0.00     0.000 C 
BRANCH   5   6
ATOM      6  C   UNL     1      45.797  47.094  11.631  1.00  0.00     0.000 C 
BRANCH   6   7
ATOM      7  C   UNL     1      46.924  48.093  11.966  1.00  0.00     0.000 C 
BRANCH   7   8
ATOM      8  C   UNL     1      47.801  48.491  10.763  1.00  0.00     0.000 C 
BRANCH   8   9
ATOM      9  C   UNL     1      49.299  48.662  11.065  1.00  0.00     0.000 C 
BRANCH   9  10
ATOM     10  C   UNL     1      49.747  47.901  12.326  1.00  0.00     0.000 C 
BRANCH  10  11
ATOM     11  C   UNL     1      50.743  46.773  12.011  1.00  0.00     0.000 C 
BRANCH  11  12
ATOM     12  C   UNL     1      51.402  46.938  10.631  1.00  0.00     0.000 C 
BRANCH  12  13
ATOM     13  C   UNL     1      52.547  45.939  10.388  1.00  0.00     0.006 C 
BRANCH  13  14
ATOM     14  C   UNL     1      53.652  45.986  11.458  1.00  0.00     0.053 C 
BRANCH  14  15
ATOM     15  C   UNL     1      54.263  44.640  11.711  1.00  0.00     0.041 C 
ATOM     16  O   UNL     1      54.455  43.843  10.756  1.00  0.00    -0.550 OA
ATOM     17  O   UNL     1      54.656  44.280  12.995  1.00  0.00    -0.550 OA
ENDBRANCH  14  15
ENDBRANCH  13  14
ENDBRANCH  12  13
ENDBRANCH  11  12
ENDBRANCH  10  11
ENDBRANCH   9  10
ENDBRANCH   8   9
ENDBRANCH   7   8
ENDBRANCH   6   7
ENDBRANCH   5   6
ENDBRANCH   4   5
ENDBRANCH   3   4
ENDBRANCH   2   3
ENDBRANCH   1   2
BRANCH   1  18
ATOM     18  C   UNL     1      44.575  41.699  12.594  1.00  0.00     0.000 C 
BRANCH  18  19
ATOM     19  C   UNL     1      43.802  40.419  12.219  1.00  0.00     0.000 C 
BRANCH  19  20
ATOM     20  C   UNL     1      42.463  40.679  11.494  1.00  0.00     0.000 C 
BRANCH  20  21
ATOM     21  C   UNL     1      42.220  42.174  11.232  1.00  0.00     0.000 C 
BRANCH  21  22
ATOM     22  C   UNL     1      41.668  42.451   9.823  1.00  0.00     0.000 C 
BRANCH  22  23
ATOM     23  C   UNL     1      41.597  43.956   9.498  1.00  0.00     0.000 C 
BRANCH  23  24
ATOM     24  C   UNL     1      42.227  44.295   8.137  1.00  0.00    -0.000 C 
BRANCH  24  25
ATOM     25  C   UNL     1      42.210  43.106   7.161  1.00  0.00    -0.000 C 
BRANCH  25  26
ATOM     26  C   UNL     1      43.499  43.006   6.331  1.00  0.00    -0.000 C 
BRANCH  26  27
ATOM     27  C   UNL     1      44.558  42.091   6.971  1.00  0.00    -0.000 C 
BRANCH  27  28
ATOM     28  C   UNL     1      43.935  40.808   7.563  1.00  0.00    -0.000 C 
BRANCH  28  29
ATOM     29  C   UNL     1      44.808  40.138   8.638  1.00  0.00    -0.000 C 
BRANCH  29  30
ATOM     30  C   UNL     1      44.408  38.679   8.906  1.00  0.00    -0.000 C 
BRANCH  30  31
ATOM     31  C   UNL     1      42.955  38.388   8.504  1.00  0.00    -0.003 C 
ATOM     32  C   UNL     1      42.830  37.189   7.564  1.00  0.00     0.004 C 
ENDBRANCH  30  31
ENDBRANCH  29  30
ENDBRANCH  28  29
ENDBRANCH  27  28
ENDBRANCH  26  27
ENDBRANCH  25  26
ENDBRANCH  24  25
ENDBRANCH  23  24
ENDBRANCH  22  23
ENDBRANCH  21  22
ENDBRANCH  20  21
ENDBRANCH  19  20
ENDBRANCH  18  19
ENDBRANCH   1  18
TORSDOF 28
ENDMDL
MODEL 9
REMARK VINA RESULT:    -3.672      1.397      2.688
REMARK INTER + INTRA:         -14.397
REMARK INTER:                  -9.867
REMARK INTRA:                  -4.530
REMARK UNBOUND:                -4.714
REMARK SMILES CCCCCCCCCCCCCCCCCCCCCCCCCCCCCC(=O)[O-]
REMARK SMILES IDX 16 1 17 2 18 3 19 4 20 5 21 6 22 7 23 8 24 9 25 10 26 11
REMARK SMILES IDX 27 12 28 13 29 14 30 15 31 16 32 17 15 18 14 19 13 20 12 21
REMARK SMILES IDX 11 22 10 23 9 24 8 25 7 26 6 27 5 28 4 29 3 30 2 31 1 32
REMARK H PARENT
REMARK Flexibility Score: inf
ROOT
ATOM      1  C   UNL     1      43.450  45.786   8.519  1.00  0.00     0.000 C 
ENDROOT
BRANCH   1   2
ATOM      2  C   UNL     1      43.263  47.264   8.122  1.00  0.00     0.000 C 
BRANCH   2   3
ATOM      3  C   UNL     1      42.407  48.086   9.109  1.00  0.00     0.000 C 
BRANCH   3   4
ATOM      4  C   UNL     1      43.244  49.067   9.946  1.00  0.00     0.000 C 
BRANCH   4   5
ATOM      5  C   UNL     1      43.543  48.492  11.337  1.00  0.00     0.000 C 
BRANCH   5   6
ATOM      6  C   UNL     1      45.050  48.540  11.639  1.00  0.00     0.000 C 
BRANCH   6   7
ATOM      7  C   UNL     1      45.890  49.057  10.452  1.00  0.00     0.000 C 
BRANCH   7   8
ATOM      8  C   UNL     1      47.339  48.533  10.421  1.00  0.00     0.000 C 
BRANCH   8   9
ATOM      9  C   UNL     1      47.690  47.499  11.503  1.00  0.00     0.000 C 
BRANCH   9  10
ATOM     10  C   UNL     1      49.177  47.529  11.901  1.00  0.00     0.000 C 
BRANCH  10  11
ATOM     11  C   UNL     1      50.079  48.049  10.771  1.00  0.00     0.000 C 
BRANCH  11  12
ATOM     12  C   UNL     1      51.438  47.328  10.722  1.00  0.00     0.000 C 
BRANCH  12  13
ATOM     13  C   UNL     1      51.623  46.318  11.869  1.00  0.00     0.006 C 
BRANCH  13  14
ATOM     14  C   UNL     1      53.036  46.320  12.477  1.00  0.00     0.053 C 
BRANCH  14  15
ATOM     15  C   UNL     1      54.057  45.715  11.560  1.00  0.00     0.041 C 
ATOM     16  O   UNL     1      55.053  46.391  11.188  1.00  0.00    -0.550 OA
ATOM     17  O   UNL     1      53.932  44.395  11.145  1.00  0.00    -0.550 OA
ENDBRANCH  14  15
ENDBRANCH  13  14
ENDBRANCH  12  13
ENDBRANCH  11  12
ENDBRANCH  10  11
ENDBRANCH   9  10
ENDBRANCH   8   9
ENDBRANCH   7   8
ENDBRANCH   6   7
ENDBRANCH   5   6
ENDBRANCH   4   5
ENDBRANCH   3   4
ENDBRANCH   2   3
ENDBRANCH   1   2
BRANCH   1  18
ATOM     18  C   UNL     1      44.885  45.378   8.893  1.00  0.00     0.000 C 
BRANCH  18  19
ATOM     19  C   UNL     1      45.096  44.987  10.369  1.00  0.00     0.000 C 
BRANCH  19  20
ATOM     20  C   UNL     1      43.796  44.948  11.204  1.00  0.00     0.000 C 
BRANCH  20  21
ATOM     21  C   UNL     1      44.071  44.984  12.717  1.00  0.00     0.000 C 
BRANCH  21  22
ATOM     22  C   UNL     1      45.572  44.958  13.051  1.00  0.00     0.000 C 
BRANCH  22  23
ATOM     23  C   UNL     1      45.982  43.704  13.849  1.00  0.00     0.000 C 
BRANCH  23  24
ATOM     24  C   UNL     1      44.849  42.669  13.944  1.00  0.00    -0.000 C 
BRANCH  24  25
ATOM     25  C   UNL     1      45.074  41.456  13.025  1.00  0.00    -0.000 C 
BRANCH  25  26
ATOM     26  C   UNL     1      46.045  41.761  11.875  1.00  0.00    -0.000 C 
BRANCH  26  27
ATOM     27  C   UNL     1      45.656  41.067  10.557  1.00  0.00    -0.000 C 
BRANCH  27  28
ATOM     28  C   UNL     1      44.307  40.323  10.671  1.00  0.00    -0.000 C 
BRANCH  28  29
ATOM     29  C   UNL     1      43.736  39.871   9.315  1.00  0.00    -0.000 C 
BRANCH  29  30
ATOM     30  C   UNL     1      44.424  40.550   8.121  1.00  0.00    -0.000 C 
BRANCH  30  31
ATOM     31  C   UNL     1      43.446  41.382   7.278  1.00  0.00    -0.003 C 
ATOM     32  C   UNL     1      44.147  42.445   6.433  1.00  0.00     0.004 C 
ENDBRANCH  30  31
ENDBRANCH  29  30
ENDBRANCH  28  29
ENDBRANCH  27  28
ENDBRANCH  26  27
ENDBRANCH  25  26
ENDBRANCH  24  25
ENDBRANCH  23  24
ENDBRANCH  22  23
ENDBRANCH  21  22
ENDBRANCH  20  21
ENDBRANCH  19  20
ENDBRANCH  18  19
ENDBRANCH   1  18
TORSDOF 28
ENDMDL
