MODEL 1
REMARK VINA RESULT:    -3.250      0.000      0.000
REMARK INTER + INTRA:         -10.204
REMARK INTER:                  -7.050
REMARK INTRA:                  -3.155
REMARK UNBOUND:                -3.155
REMARK SMILES CCCCCCCCCCCCCCCCCCCCCC(=O)[O-]
REMARK SMILES IDX 12 1 11 2 10 3 9 4 8 5 7 6 6 7 5 8 4 9 3 10 2 11 1 12 13 13
REMARK SMILES IDX 14 14 15 15 16 16 17 17 18 18 19 19 20 20 21 21 22 22 23 23
REMARK SMILES IDX 24 24
REMARK H PARENT
REMARK Flexibility Score: inf
ROOT
ATOM      1  C   UNL     1    -102.027 -28.385 -16.389  1.00  0.00     0.000 C 
ENDROOT
BRANCH   1   2
ATOM      2  C   UNL     1    -103.005 -29.542 -16.106  1.00  0.00     0.000 C 
BRANCH   2   3
ATOM      3  C   UNL     1    -103.278 -29.811 -14.612  1.00  0.00     0.000 C 
BRANCH   3   4
ATOM      4  C   UNL     1    -104.709 -29.480 -14.143  1.00  0.00    -0.000 C 
BRANCH   4   5
ATOM      5  C   UNL     1    -104.857 -28.144 -13.389  1.00  0.00    -0.000 C 
BRANCH   5   6
ATOM      6  C   UNL     1    -104.080 -28.056 -12.060  1.00  0.00    -0.000 C 
BRANCH   6   7
ATOM      7  C   UNL     1    -102.800 -27.197 -12.114  1.00  0.00    -0.000 C 
BRANCH   7   8
ATOM      8  C   UNL     1    -101.493 -27.965 -11.836  1.00  0.00    -0.000 C 
BRANCH   8   9
ATOM      9  C   UNL     1    -100.448 -27.913 -12.970  1.00  0.00    -0.000 C 
BRANCH   9  10
ATOM     10  C   UNL     1     -99.759 -29.253 -13.284  1.00  0.00    -0.000 C 
BRANCH  10  11
ATOM     11  C   UNL     1     -98.650 -29.604 -12.282  1.00  0.00    -0.003 C 
ATOM     12  C   UNL     1     -97.336 -29.904 -12.999  1.00  0.00     0.004 C 
ENDBRANCH  10  11
ENDBRANCH   9  10
ENDBRANCH   8   9
ENDBRANCH   7   8
ENDBRANCH   6   7
ENDBRANCH   5   6
ENDBRANCH   4   5
ENDBRANCH   3   4
ENDBRANCH   2   3
ENDBRANCH   1   2
BRANCH   1  13
ATOM     13  C   UNL     1    -102.439 -27.020 -15.801  1.00  0.00     0.000 C 
BRANCH  13  14
ATOM     14  C   UNL     1    -103.311 -26.142 -16.717  1.00  0.00     0.000 C 
BRANCH  14  15
ATOM     15  C   UNL     1    -104.818 -26.330 -16.476  1.00  0.00     0.000 C 
BRANCH  15  16
ATOM     16  C   UNL     1    -105.466 -25.121 -15.780  1.00  0.00     0.000 C 
BRANCH  16  17
ATOM     17  C   UNL     1    -104.486 -24.295 -14.919  1.00  0.00     0.000 C 
BRANCH  17  18
ATOM     18  C   UNL     1    -104.814 -24.376 -13.417  1.00  0.00     0.000 C 
BRANCH  18  19
ATOM     19  C   UNL     1    -104.951 -22.992 -12.757  1.00  0.00     0.000 C 
BRANCH  19  20
ATOM     20  C   UNL     1    -104.810 -22.981 -11.221  1.00  0.00     0.006 C 
BRANCH  20  21
ATOM     21  C   UNL     1    -104.601 -24.365 -10.588  1.00  0.00     0.053 C 
BRANCH  21  22
ATOM     22  C   UNL     1    -103.642 -24.318  -9.438  1.00  0.00     0.041 C 
ATOM     23  O   UNL     1    -103.187 -23.214  -9.039  1.00  0.00    -0.550 OA
ATOM     24  O   UNL     1    -103.258 -25.492  -8.801  1.00  0.00    -0.550 OA
ENDBRANCH  21  22
ENDBRANCH  20  21
ENDBRANCH  19  20
ENDBRANCH  18  19
ENDBRANCH  17  18
ENDBRANCH  16  17
ENDBRANCH  15  16
ENDBRANCH  14  15
ENDBRANCH  13  14
ENDBRANCH   1  13
TORSDOF 20
ENDMDL
MODEL 2
REMARK VINA RESULT:    -3.242      1.663      3.529
REMARK INTER + INTRA:         -10.186
REMARK INTER:                  -7.646
REMARK INTRA:                  -2.540
REMARK UNBOUND:                -3.155
REMARK SMILES CCCCCCCCCCCCCCCCCCCCCC(=O)[O-]
REMARK SMILES IDX 12 1 11 2 10 3 9 4 8 5 7 6 6 7 5 8 4 9 3 10 2 11 1 12 13 13
REMARK SMILES IDX 14 14 15 15 16 16 17 17 18 18 19 19 20 20 21 21 22 22 23 23
REMARK SMILES IDX 24 24
REMARK H PARENT
REMARK Flexibility Score: inf
ROOT
ATOM      1  C   UNL     1    -103.507 -25.971 -16.117  1.00  0.00     0.000 C 
ENDROOT
BRANCH   1   2
ATOM      2  C   UNL     1    -102.383 -26.918 -15.653  1.00  0.00     0.000 C 
BRANCH   2   3
ATOM      3  C   UNL     1    -102.170 -28.158 -16.544  1.00  0.00     0.000 C 
BRANCH   3   4
ATOM      4  C   UNL     1    -102.866 -29.441 -16.049  1.00  0.00    -0.000 C 
BRANCH   4   5
ATOM      5  C   UNL     1    -101.921 -30.614 -15.724  1.00  0.00    -0.000 C 
BRANCH   5   6
ATOM      6  C   UNL     1    -100.418 -30.296 -15.851  1.00  0.00    -0.000 C 
BRANCH   6   7
ATOM      7  C   UNL     1     -99.518 -30.990 -14.809  1.00  0.00    -0.000 C 
BRANCH   7   8
ATOM      8  C   UNL     1     -98.714 -30.032 -13.908  1.00  0.00    -0.000 C 
BRANCH   8   9
ATOM      9  C   UNL     1     -99.500 -29.430 -12.725  1.00  0.00    -0.000 C 
BRANCH   9  10
ATOM     10  C   UNL     1    -100.184 -28.082 -13.015  1.00  0.00    -0.000 C 
BRANCH  10  11
ATOM     11  C   UNL     1    -101.453 -27.864 -12.179  1.00  0.00    -0.003 C 
ATOM     12  C   UNL     1    -102.424 -29.031 -12.341  1.00  0.00     0.004 C 
ENDBRANCH  10  11
ENDBRANCH   9  10
ENDBRANCH   8   9
ENDBRANCH   7   8
ENDBRANCH   6   7
ENDBRANCH   5   6
ENDBRANCH   4   5
ENDBRANCH   3   4
ENDBRANCH   2   3
ENDBRANCH   1   2
BRANCH   1  13
ATOM     13  C   UNL     1    -104.370 -25.374 -14.986  1.00  0.00     0.000 C 
BRANCH  13  14
ATOM     14  C   UNL     1    -104.384 -26.178 -13.673  1.00  0.00     0.000 C 
BRANCH  14  15
ATOM     15  C   UNL     1    -104.643 -25.304 -12.435  1.00  0.00     0.000 C 
BRANCH  15  16
ATOM     16  C   UNL     1    -104.665 -23.801 -12.759  1.00  0.00     0.000 C 
BRANCH  16  17
ATOM     17  C   UNL     1    -105.121 -22.913 -11.581  1.00  0.00     0.000 C 
BRANCH  17  18
ATOM     18  C   UNL     1    -104.211 -21.687 -11.385  1.00  0.00     0.000 C 
BRANCH  18  19
ATOM     19  C   UNL     1    -103.555 -21.642  -9.993  1.00  0.00     0.000 C 
BRANCH  19  20
ATOM     20  C   UNL     1    -103.440 -23.004  -9.278  1.00  0.00     0.006 C 
BRANCH  20  21
ATOM     21  C   UNL     1    -104.047 -23.040  -7.866  1.00  0.00     0.053 C 
BRANCH  21  22
ATOM     22  C   UNL     1    -103.012 -23.301  -6.816  1.00  0.00     0.041 C 
ATOM     23  O   UNL     1    -103.062 -22.696  -5.713  1.00  0.00    -0.550 OA
ATOM     24  O   UNL     1    -101.998 -24.222  -7.050  1.00  0.00    -0.550 OA
ENDBRANCH  21  22
ENDBRANCH  20  21
ENDBRANCH  19  20
ENDBRANCH  18  19
ENDBRANCH  17  18
ENDBRANCH  16  17
ENDBRANCH  15  16
ENDBRANCH  14  15
ENDBRANCH  13  14
ENDBRANCH   1  13
TORSDOF 20
ENDMDL
MODEL 3
REMARK VINA RESULT:    -3.235      3.362      6.859
REMARK INTER + INTRA:         -10.172
REMARK INTER:                  -6.295
REMARK INTRA:                  -3.877
REMARK UNBOUND:                -3.155
REMARK SMILES CCCCCCCCCCCCCCCCCCCCCC(=O)[O-]
REMARK SMILES IDX 12 1 11 2 10 3 9 4 8 5 7 6 6 7 5 8 4 9 3 10 2 11 1 12 13 13
REMARK SMILES IDX 14 14 15 15 16 16 17 17 18 18 19 19 20 20 21 21 22 22 23 23
REMARK SMILES IDX 24 24
REMARK H PARENT
REMARK Flexibility Score: inf
ROOT
ATOM      1  C   UNL     1    -101.921 -27.317 -15.022  1.00  0.00     0.000 C 
ENDROOT
BRANCH   1   2
ATOM      2  C   UNL     1    -100.792 -27.417 -13.977  1.00  0.00     0.000 C 
BRANCH   2   3
ATOM      3  C   UNL     1    -101.231 -27.945 -12.596  1.00  0.00     0.000 C 
BRANCH   3   4
ATOM      4  C   UNL     1    -102.594 -27.418 -12.102  1.00  0.00    -0.000 C 
BRANCH   4   5
ATOM      5  C   UNL     1    -103.686 -28.492 -11.931  1.00  0.00    -0.000 C 
BRANCH   5   6
ATOM      6  C   UNL     1    -103.430 -29.810 -12.687  1.00  0.00    -0.000 C 
BRANCH   6   7
ATOM      7  C   UNL     1    -104.361 -30.058 -13.891  1.00  0.00    -0.000 C 
BRANCH   7   8
ATOM      8  C   UNL     1    -105.343 -28.910 -14.197  1.00  0.00    -0.000 C 
BRANCH   8   9
ATOM      9  C   UNL     1    -105.415 -28.486 -15.679  1.00  0.00    -0.000 C 
BRANCH   9  10
ATOM     10  C   UNL     1    -105.412 -26.966 -15.923  1.00  0.00    -0.000 C 
BRANCH  10  11
ATOM     11  C   UNL     1    -105.688 -26.157 -14.648  1.00  0.00    -0.003 C 
ATOM     12  C   UNL     1    -104.579 -25.139 -14.391  1.00  0.00     0.004 C 
ENDBRANCH  10  11
ENDBRANCH   9  10
ENDBRANCH   8   9
ENDBRANCH   7   8
ENDBRANCH   6   7
ENDBRANCH   5   6
ENDBRANCH   4   5
ENDBRANCH   3   4
ENDBRANCH   2   3
ENDBRANCH   1   2
BRANCH   1  13
ATOM     13  C   UNL     1    -101.673 -28.093 -16.331  1.00  0.00     0.000 C 
BRANCH  13  14
ATOM     14  C   UNL     1    -101.859 -29.619 -16.240  1.00  0.00     0.000 C 
BRANCH  14  15
ATOM     15  C   UNL     1    -100.536 -30.376 -16.032  1.00  0.00     0.000 C 
BRANCH  15  16
ATOM     16  C   UNL     1    -100.571 -31.317 -14.816  1.00  0.00     0.000 C 
BRANCH  16  17
ATOM     17  C   UNL     1     -99.610 -30.906 -13.680  1.00  0.00     0.000 C 
BRANCH  17  18
ATOM     18  C   UNL     1     -99.736 -31.820 -12.448  1.00  0.00     0.000 C 
BRANCH  18  19
ATOM     19  C   UNL     1     -99.630 -31.053 -11.117  1.00  0.00     0.000 C 
BRANCH  19  20
ATOM     20  C   UNL     1     -98.624 -29.884 -11.113  1.00  0.00     0.006 C 
BRANCH  20  21
ATOM     21  C   UNL     1     -97.255 -30.219 -10.501  1.00  0.00     0.053 C 
BRANCH  21  22
ATOM     22  C   UNL     1     -96.128 -29.896 -11.432  1.00  0.00     0.041 C 
ATOM     23  O   UNL     1     -96.313 -29.909 -12.678  1.00  0.00    -0.550 OA
ATOM     24  O   UNL     1     -94.875 -29.570 -10.926  1.00  0.00    -0.550 OA
ENDBRANCH  21  22
ENDBRANCH  20  21
ENDBRANCH  19  20
ENDBRANCH  18  19
ENDBRANCH  17  18
ENDBRANCH  16  17
ENDBRANCH  15  16
ENDBRANCH  14  15
ENDBRANCH  13  14
ENDBRANCH   1  13
TORSDOF 20
ENDMDL
MODEL 4
REMARK VINA RESULT:    -3.153      3.652      7.130
REMARK INTER + INTRA:          -9.995
REMARK INTER:                  -6.348
REMARK INTRA:                  -3.646
REMARK UNBOUND:                -3.155
REMARK SMILES CCCCCCCCCCCCCCCCCCCCCC(=O)[O-]
REMARK SMILES IDX 12 1 11 2 10 3 9 4 8 5 7 6 6 7 5 8 4 9 3 10 2 11 1 12 13 13
REMARK SMILES IDX 14 14 15 15 16 16 17 17 18 18 19 19 20 20 21 21 22 22 23 23
REMARK SMILES IDX 24 24
REMARK H PARENT
REMARK Flexibility Score: inf
ROOT
ATOM      1  C   UNL     1    -104.136 -31.059 -13.031  1.00  0.00     0.000 C 
ENDROOT
BRANCH   1   2
ATOM      2  C   UNL     1    -103.237 -31.913 -13.947  1.00  0.00     0.000 C 
BRANCH   2   3
ATOM      3  C   UNL     1    -101.779 -31.425 -14.063  1.00  0.00     0.000 C 
BRANCH   3   4
ATOM      4  C   UNL     1    -101.233 -31.346 -15.503  1.00  0.00    -0.000 C 
BRANCH   4   5
ATOM      5  C   UNL     1    -100.885 -29.927 -15.993  1.00  0.00    -0.000 C 
BRANCH   5   6
ATOM      6  C   UNL     1    -102.025 -29.192 -16.725  1.00  0.00    -0.000 C 
BRANCH   6   7
ATOM      7  C   UNL     1    -102.312 -27.766 -16.212  1.00  0.00    -0.000 C 
BRANCH   7   8
ATOM      8  C   UNL     1    -103.538 -27.083 -16.851  1.00  0.00    -0.000 C 
BRANCH   8   9
ATOM      9  C   UNL     1    -103.917 -25.717 -16.242  1.00  0.00    -0.000 C 
BRANCH   9  10
ATOM     10  C   UNL     1    -103.729 -25.607 -14.718  1.00  0.00    -0.000 C 
BRANCH  10  11
ATOM     11  C   UNL     1    -104.668 -24.578 -14.074  1.00  0.00    -0.003 C 
ATOM     12  C   UNL     1    -104.682 -24.722 -12.554  1.00  0.00     0.004 C 
ENDBRANCH  10  11
ENDBRANCH   9  10
ENDBRANCH   8   9
ENDBRANCH   7   8
ENDBRANCH   6   7
ENDBRANCH   5   6
ENDBRANCH   4   5
ENDBRANCH   3   4
ENDBRANCH   2   3
ENDBRANCH   1   2
BRANCH   1  13
ATOM     13  C   UNL     1    -104.443 -29.640 -13.552  1.00  0.00     0.000 C 
BRANCH  13  14
ATOM     14  C   UNL     1    -103.833 -28.489 -12.730  1.00  0.00     0.000 C 
BRANCH  14  15
ATOM     15  C   UNL     1    -103.069 -28.974 -11.488  1.00  0.00     0.000 C 
BRANCH  15  16
ATOM     16  C   UNL     1    -101.577 -28.602 -11.522  1.00  0.00     0.000 C 
BRANCH  16  17
ATOM     17  C   UNL     1    -101.174 -27.744 -12.741  1.00  0.00     0.000 C 
BRANCH  17  18
ATOM     18  C   UNL     1     -99.769 -28.094 -13.265  1.00  0.00     0.000 C 
BRANCH  18  19
ATOM     19  C   UNL     1     -99.087 -29.210 -12.453  1.00  0.00     0.000 C 
BRANCH  19  20
ATOM     20  C   UNL     1     -97.862 -29.859 -13.131  1.00  0.00     0.006 C 
BRANCH  20  21
ATOM     21  C   UNL     1     -98.133 -31.234 -13.762  1.00  0.00     0.053 C 
BRANCH  21  22
ATOM     22  C   UNL     1     -97.153 -31.556 -14.847  1.00  0.00     0.041 C 
ATOM     23  O   UNL     1     -95.916 -31.519 -14.615  1.00  0.00    -0.550 OA
ATOM     24  O   UNL     1     -97.605 -31.910 -16.113  1.00  0.00    -0.550 OA
ENDBRANCH  21  22
ENDBRANCH  20  21
ENDBRANCH  19  20
ENDBRANCH  18  19
ENDBRANCH  17  18
ENDBRANCH  16  17
ENDBRANCH  15  16
ENDBRANCH  14  15
ENDBRANCH  13  14
ENDBRANCH   1  13
TORSDOF 20
ENDMDL
MODEL 5
REMARK VINA RESULT:    -3.135      1.784      4.639
REMARK INTER + INTRA:          -9.954
REMARK INTER:                  -7.159
REMARK INTRA:                  -2.796
REMARK UNBOUND:                -3.155
REMARK SMILES CCCCCCCCCCCCCCCCCCCCCC(=O)[O-]
REMARK SMILES IDX 12 1 11 2 10 3 9 4 8 5 7 6 6 7 5 8 4 9 3 10 2 11 1 12 13 13
REMARK SMILES IDX 14 14 15 15 16 16 17 17 18 18 19 19 20 20 21 21 22 22 23 23
REMARK SMILES IDX 24 24
REMARK H PARENT
REMARK Flexibility Score: inf
ROOT
ATOM      1  C   UNL     1    -102.751 -26.867 -11.079  1.00  0.00     0.000 C 
ENDROOT
BRANCH   1   2
ATOM      2  C   UNL     1    -102.432 -27.834 -12.236  1.00  0.00     0.000 C 
BRANCH   2   3
ATOM      3  C   UNL     1    -100.994 -27.737 -12.785  1.00  0.00     0.000 C 
BRANCH   3   4
ATOM      4  C   UNL     1    -100.268 -29.088 -12.946  1.00  0.00    -0.000 C 
BRANCH   4   5
ATOM      5  C   UNL     1    -101.188 -30.300 -13.189  1.00  0.00    -0.000 C 
BRANCH   5   6
ATOM      6  C   UNL     1    -100.948 -31.046 -14.516  1.00  0.00    -0.000 C 
BRANCH   6   7
ATOM      7  C   UNL     1    -100.672 -30.137 -15.731  1.00  0.00    -0.000 C 
BRANCH   7   8
ATOM      8  C   UNL     1    -101.917 -29.444 -16.317  1.00  0.00    -0.000 C 
BRANCH   8   9
ATOM      9  C   UNL     1    -101.828 -27.907 -16.413  1.00  0.00    -0.000 C 
BRANCH   9  10
ATOM     10  C   UNL     1    -103.059 -27.148 -15.885  1.00  0.00    -0.000 C 
BRANCH  10  11
ATOM     11  C   UNL     1    -104.207 -28.083 -15.480  1.00  0.00    -0.003 C 
ATOM     12  C   UNL     1    -105.498 -27.717 -16.209  1.00  0.00     0.004 C 
ENDBRANCH  10  11
ENDBRANCH   9  10
ENDBRANCH   8   9
ENDBRANCH   7   8
ENDBRANCH   6   7
ENDBRANCH   5   6
ENDBRANCH   4   5
ENDBRANCH   3   4
ENDBRANCH   2   3
ENDBRANCH   1   2
BRANCH   1  13
ATOM     13  C   UNL     1    -104.037 -26.035 -11.257  1.00  0.00     0.000 C 
BRANCH  13  14
ATOM     14  C   UNL     1    -104.390 -25.667 -12.710  1.00  0.00     0.000 C 
BRANCH  14  15
ATOM     15  C   UNL     1    -104.693 -24.171 -12.896  1.00  0.00     0.000 C 
BRANCH  15  16
ATOM     16  C   UNL     1    -104.809 -23.415 -11.562  1.00  0.00     0.000 C 
BRANCH  16  17
ATOM     17  C   UNL     1    -104.361 -21.939 -11.639  1.00  0.00     0.000 C 
BRANCH  17  18
ATOM     18  C   UNL     1    -103.623 -21.485 -10.367  1.00  0.00     0.000 C 
BRANCH  18  19
ATOM     19  C   UNL     1    -103.874 -22.412  -9.163  1.00  0.00     0.000 C 
BRANCH  19  20
ATOM     20  C   UNL     1    -102.611 -23.061  -8.562  1.00  0.00     0.006 C 
BRANCH  20  21
ATOM     21  C   UNL     1    -102.827 -24.472  -7.991  1.00  0.00     0.053 C 
BRANCH  21  22
ATOM     22  C   UNL     1    -102.863 -24.474  -6.494  1.00  0.00     0.041 C 
ATOM     23  O   UNL     1    -102.819 -23.388  -5.859  1.00  0.00    -0.550 OA
ATOM     24  O   UNL     1    -102.957 -25.674  -5.800  1.00  0.00    -0.550 OA
ENDBRANCH  21  22
ENDBRANCH  20  21
ENDBRANCH  19  20
ENDBRANCH  18  19
ENDBRANCH  17  18
ENDBRANCH  16  17
ENDBRANCH  15  16
ENDBRANCH  14  15
ENDBRANCH  13  14
ENDBRANCH   1  13
TORSDOF 20
ENDMDL
MODEL 6
REMARK VINA RESULT:    -3.132      2.890      6.354
REMARK INTER + INTRA:          -9.950
REMARK INTER:                  -5.841
REMARK INTRA:                  -4.109
REMARK UNBOUND:                -3.155
REMARK SMILES CCCCCCCCCCCCCCCCCCCCCC(=O)[O-]
REMARK SMILES IDX 12 1 11 2 10 3 9 4 8 5 7 6 6 7 5 8 4 9 3 10 2 11 1 12 13 13
REMARK SMILES IDX 14 14 15 15 16 16 17 17 18 18 19 19 20 20 21 21 22 22 23 23
REMARK SMILES IDX 24 24
REMARK H PARENT
REMARK Flexibility Score: inf
ROOT
ATOM      1  C   UNL     1    -104.304 -27.659 -13.602  1.00  0.00     0.000 C 
ENDROOT
BRANCH   1   2
ATOM      2  C   UNL     1    -104.373 -26.449 -14.554  1.00  0.00     0.000 C 
BRANCH   2   3
ATOM      3  C   UNL     1    -103.280 -26.415 -15.642  1.00  0.00     0.000 C 
BRANCH   3   4
ATOM      4  C   UNL     1    -102.017 -27.239 -15.319  1.00  0.00    -0.000 C 
BRANCH   4   5
ATOM      5  C   UNL     1    -101.645 -28.303 -16.370  1.00  0.00    -0.000 C 
BRANCH   5   6
ATOM      6  C   UNL     1    -102.459 -29.610 -16.291  1.00  0.00    -0.000 C 
BRANCH   6   7
ATOM      7  C   UNL     1    -102.009 -30.589 -15.189  1.00  0.00    -0.000 C 
BRANCH   7   8
ATOM      8  C   UNL     1    -103.072 -30.883 -14.110  1.00  0.00    -0.000 C 
BRANCH   8   9
ATOM      9  C   UNL     1    -102.570 -31.701 -12.902  1.00  0.00    -0.000 C 
BRANCH   9  10
ATOM     10  C   UNL     1    -101.238 -32.440 -13.123  1.00  0.00    -0.000 C 
BRANCH  10  11
ATOM     11  C   UNL     1    -100.406 -32.567 -11.839  1.00  0.00    -0.003 C 
ATOM     12  C   UNL     1    -101.264 -32.316 -10.601  1.00  0.00     0.004 C 
ENDBRANCH  10  11
ENDBRANCH   9  10
ENDBRANCH   8   9
ENDBRANCH   7   8
ENDBRANCH   6   7
ENDBRANCH   5   6
ENDBRANCH   4   5
ENDBRANCH   3   4
ENDBRANCH   2   3
ENDBRANCH   1   2
BRANCH   1  13
ATOM     13  C   UNL     1    -103.966 -27.322 -12.136  1.00  0.00     0.000 C 
BRANCH  13  14
ATOM     14  C   UNL     1    -102.883 -28.205 -11.488  1.00  0.00     0.000 C 
BRANCH  14  15
ATOM     15  C   UNL     1    -101.454 -27.730 -11.799  1.00  0.00     0.000 C 
BRANCH  15  16
ATOM     16  C   UNL     1    -100.489 -28.892 -12.092  1.00  0.00     0.000 C 
BRANCH  16  17
ATOM     17  C   UNL     1     -99.492 -28.603 -13.235  1.00  0.00     0.000 C 
BRANCH  17  18
ATOM     18  C   UNL     1     -98.633 -29.831 -13.586  1.00  0.00     0.000 C 
BRANCH  18  19
ATOM     19  C   UNL     1     -97.259 -29.822 -12.890  1.00  0.00     0.000 C 
BRANCH  19  20
ATOM     20  C   UNL     1     -97.159 -30.697 -11.624  1.00  0.00     0.006 C 
BRANCH  20  21
ATOM     21  C   UNL     1     -97.386 -29.942 -10.304  1.00  0.00     0.053 C 
BRANCH  21  22
ATOM     22  C   UNL     1     -98.199 -30.740  -9.333  1.00  0.00     0.041 C 
ATOM     23  O   UNL     1     -99.094 -30.180  -8.646  1.00  0.00    -0.550 OA
ATOM     24  O   UNL     1     -97.977 -32.105  -9.192  1.00  0.00    -0.550 OA
ENDBRANCH  21  22
ENDBRANCH  20  21
ENDBRANCH  19  20
ENDBRANCH  18  19
ENDBRANCH  17  18
ENDBRANCH  16  17
ENDBRANCH  15  16
ENDBRANCH  14  15
ENDBRANCH  13  14
ENDBRANCH   1  13
TORSDOF 20
ENDMDL
MODEL 7
REMARK VINA RESULT:    -3.107      2.810      6.936
REMARK INTER + INTRA:          -9.895
REMARK INTER:                  -7.527
REMARK INTRA:                  -2.368
REMARK UNBOUND:                -3.155
REMARK SMILES CCCCCCCCCCCCCCCCCCCCCC(=O)[O-]
REMARK SMILES IDX 12 1 11 2 10 3 9 4 8 5 7 6 6 7 5 8 4 9 3 10 2 11 1 12 13 13
REMARK SMILES IDX 14 14 15 15 16 16 17 17 18 18 19 19 20 20 21 21 22 22 23 23
REMARK SMILES IDX 24 24
REMARK H PARENT
REMARK Flexibility Score: inf
ROOT
ATOM      1  C   UNL     1    -103.674 -27.949 -16.109  1.00  0.00     0.000 C 
ENDROOT
BRANCH   1   2
ATOM      2  C   UNL     1    -104.464 -26.760 -16.692  1.00  0.00     0.000 C 
BRANCH   2   3
ATOM      3  C   UNL     1    -103.864 -25.372 -16.390  1.00  0.00     0.000 C 
BRANCH   3   4
ATOM      4  C   UNL     1    -104.635 -24.547 -15.340  1.00  0.00    -0.000 C 
BRANCH   4   5
ATOM      5  C   UNL     1    -105.987 -25.143 -14.902  1.00  0.00    -0.000 C 
BRANCH   5   6
ATOM      6  C   UNL     1    -106.099 -25.474 -13.401  1.00  0.00    -0.000 C 
BRANCH   6   7
ATOM      7  C   UNL     1    -104.767 -25.840 -12.716  1.00  0.00    -0.000 C 
BRANCH   7   8
ATOM      8  C   UNL     1    -104.288 -24.833 -11.651  1.00  0.00    -0.000 C 
BRANCH   8   9
ATOM      9  C   UNL     1    -105.220 -23.624 -11.426  1.00  0.00    -0.000 C 
BRANCH   9  10
ATOM     10  C   UNL     1    -104.650 -22.269 -11.881  1.00  0.00    -0.000 C 
BRANCH  10  11
ATOM     11  C   UNL     1    -103.840 -21.563 -10.784  1.00  0.00    -0.003 C 
ATOM     12  C   UNL     1    -104.577 -21.598  -9.448  1.00  0.00     0.004 C 
ENDBRANCH  10  11
ENDBRANCH   9  10
ENDBRANCH   8   9
ENDBRANCH   7   8
ENDBRANCH   6   7
ENDBRANCH   5   6
ENDBRANCH   4   5
ENDBRANCH   3   4
ENDBRANCH   2   3
ENDBRANCH   1   2
BRANCH   1  13
ATOM     13  C   UNL     1    -102.142 -27.776 -16.101  1.00  0.00     0.000 C 
BRANCH  13  14
ATOM     14  C   UNL     1    -101.528 -27.400 -14.739  1.00  0.00     0.000 C 
BRANCH  14  15
ATOM     15  C   UNL     1    -102.091 -28.229 -13.574  1.00  0.00     0.000 C 
BRANCH  15  16
ATOM     16  C   UNL     1    -101.361 -27.966 -12.246  1.00  0.00     0.000 C 
BRANCH  16  17
ATOM     17  C   UNL     1    -100.489 -29.148 -11.768  1.00  0.00     0.000 C 
BRANCH  17  18
ATOM     18  C   UNL     1    -100.354 -30.247 -12.838  1.00  0.00     0.000 C 
BRANCH  18  19
ATOM     19  C   UNL     1     -99.108 -30.072 -13.724  1.00  0.00     0.000 C 
BRANCH  19  20
ATOM     20  C   UNL     1     -97.951 -29.280 -13.081  1.00  0.00     0.006 C 
BRANCH  20  21
ATOM     21  C   UNL     1     -96.752 -30.137 -12.645  1.00  0.00     0.053 C 
BRANCH  21  22
ATOM     22  C   UNL     1     -96.357 -29.871 -11.226  1.00  0.00     0.041 C 
ATOM     23  O   UNL     1     -95.178 -29.524 -10.952  1.00  0.00    -0.550 OA
ATOM     24  O   UNL     1     -97.292 -29.995 -10.206  1.00  0.00    -0.550 OA
ENDBRANCH  21  22
ENDBRANCH  20  21
ENDBRANCH  19  20
ENDBRANCH  18  19
ENDBRANCH  17  18
ENDBRANCH  16  17
ENDBRANCH  15  16
ENDBRANCH  14  15
ENDBRANCH  13  14
ENDBRANCH   1  13
TORSDOF 20
ENDMDL
MODEL 8
REMARK VINA RESULT:    -3.103      2.573      6.109
REMARK INTER + INTRA:          -9.886
REMARK INTER:                  -6.981
REMARK INTRA:                  -2.904
REMARK UNBOUND:                -3.155
REMARK SMILES CCCCCCCCCCCCCCCCCCCCCC(=O)[O-]
REMARK SMILES IDX 12 1 11 2 10 3 9 4 8 5 7 6 6 7 5 8 4 9 3 10 2 11 1 12 13 13
REMARK SMILES IDX 14 14 15 15 16 16 17 17 18 18 19 19 20 20 21 21 22 22 23 23
REMARK SMILES IDX 24 24
REMARK H PARENT
REMARK Flexibility Score: inf
ROOT
ATOM      1  C   UNL     1    -103.491 -26.149 -16.753  1.00  0.00     0.000 C 
ENDROOT
BRANCH   1   2
ATOM      2  C   UNL     1    -104.690 -25.442 -16.091  1.00  0.00     0.000 C 
BRANCH   2   3
ATOM      3  C   UNL     1    -104.361 -24.695 -14.783  1.00  0.00     0.000 C 
BRANCH   3   4
ATOM      4  C   UNL     1    -105.003 -25.292 -13.515  1.00  0.00    -0.000 C 
BRANCH   4   5
ATOM      5  C   UNL     1    -104.674 -24.551 -12.204  1.00  0.00    -0.000 C 
BRANCH   5   6
ATOM      6  C   UNL     1    -103.911 -25.385 -11.156  1.00  0.00    -0.000 C 
BRANCH   6   7
ATOM      7  C   UNL     1    -104.667 -25.609  -9.831  1.00  0.00    -0.000 C 
BRANCH   7   8
ATOM      8  C   UNL     1    -104.005 -24.972  -8.593  1.00  0.00    -0.000 C 
BRANCH   8   9
ATOM      9  C   UNL     1    -102.997 -23.844  -8.896  1.00  0.00    -0.000 C 
BRANCH   9  10
ATOM     10  C   UNL     1    -103.575 -22.419  -8.830  1.00  0.00    -0.000 C 
BRANCH  10  11
ATOM     11  C   UNL     1    -104.003 -21.885 -10.205  1.00  0.00    -0.003 C 
ATOM     12  C   UNL     1    -102.983 -20.890 -10.750  1.00  0.00     0.004 C 
ENDBRANCH  10  11
ENDBRANCH   9  10
ENDBRANCH   8   9
ENDBRANCH   7   8
ENDBRANCH   6   7
ENDBRANCH   5   6
ENDBRANCH   4   5
ENDBRANCH   3   4
ENDBRANCH   2   3
ENDBRANCH   1   2
BRANCH   1  13
ATOM     13  C   UNL     1    -103.589 -27.687 -16.814  1.00  0.00     0.000 C 
BRANCH  13  14
ATOM     14  C   UNL     1    -102.567 -28.449 -15.950  1.00  0.00     0.000 C 
BRANCH  14  15
ATOM     15  C   UNL     1    -101.629 -27.517 -15.165  1.00  0.00     0.000 C 
BRANCH  15  16
ATOM     16  C   UNL     1    -101.923 -27.509 -13.655  1.00  0.00     0.000 C 
BRANCH  16  17
ATOM     17  C   UNL     1    -103.095 -28.425 -13.241  1.00  0.00     0.000 C 
BRANCH  17  18
ATOM     18  C   UNL     1    -102.991 -28.880 -11.774  1.00  0.00     0.000 C 
BRANCH  18  19
ATOM     19  C   UNL     1    -101.684 -28.431 -11.096  1.00  0.00     0.000 C 
BRANCH  19  20
ATOM     20  C   UNL     1    -100.922 -29.540 -10.342  1.00  0.00     0.006 C 
BRANCH  20  21
ATOM     21  C   UNL     1     -99.510 -29.825 -10.878  1.00  0.00     0.053 C 
BRANCH  21  22
ATOM     22  C   UNL     1     -99.471 -29.850 -12.375  1.00  0.00     0.041 C 
ATOM     23  O   UNL     1     -98.823 -28.974 -13.006  1.00  0.00    -0.550 OA
ATOM     24  O   UNL     1    -100.141 -30.847 -13.074  1.00  0.00    -0.550 OA
ENDBRANCH  21  22
ENDBRANCH  20  21
ENDBRANCH  19  20
ENDBRANCH  18  19
ENDBRANCH  17  18
ENDBRANCH  16  17
ENDBRANCH  15  16
ENDBRANCH  14  15
ENDBRANCH  13  14
ENDBRANCH   1  13
TORSDOF 20
ENDMDL
MODEL 9
REMARK VINA RESULT:    -3.081      2.037      4.100
REMARK INTER + INTRA:          -9.838
REMARK INTER:                  -6.905
REMARK INTRA:                  -2.933
REMARK UNBOUND:                -3.155
REMARK SMILES CCCCCCCCCCCCCCCCCCCCCC(=O)[O-]
REMARK SMILES IDX 12 1 11 2 10 3 9 4 8 5 7 6 6 7 5 8 4 9 3 10 2 11 1 12 13 13
REMARK SMILES IDX 14 14 15 15 16 16 17 17 18 18 19 19 20 20 21 21 22 22 23 23
REMARK SMILES IDX 24 24
REMARK H PARENT
REMARK Flexibility Score: inf
ROOT
ATOM      1  C   UNL     1    -105.478 -26.633 -15.265  1.00  0.00     0.000 C 
ENDROOT
BRANCH   1   2
ATOM      2  C   UNL     1    -104.844 -25.669 -16.286  1.00  0.00     0.000 C 
BRANCH   2   3
ATOM      3  C   UNL     1    -103.476 -26.116 -16.840  1.00  0.00     0.000 C 
BRANCH   3   4
ATOM      4  C   UNL     1    -103.206 -27.632 -16.756  1.00  0.00    -0.000 C 
BRANCH   4   5
ATOM      5  C   UNL     1    -101.908 -28.025 -16.022  1.00  0.00    -0.000 C 
BRANCH   5   6
ATOM      6  C   UNL     1    -101.633 -27.246 -14.721  1.00  0.00    -0.000 C 
BRANCH   6   7
ATOM      7  C   UNL     1    -101.770 -28.074 -13.427  1.00  0.00    -0.000 C 
BRANCH   7   8
ATOM      8  C   UNL     1    -103.110 -28.821 -13.276  1.00  0.00    -0.000 C 
BRANCH   8   9
ATOM      9  C   UNL     1    -103.480 -29.218 -11.832  1.00  0.00    -0.000 C 
BRANCH   9  10
ATOM     10  C   UNL     1    -102.494 -28.738 -10.751  1.00  0.00    -0.000 C 
BRANCH  10  11
ATOM     11  C   UNL     1    -103.129 -27.757  -9.757  1.00  0.00    -0.003 C 
ATOM     12  C   UNL     1    -103.103 -26.330 -10.299  1.00  0.00     0.004 C 
ENDBRANCH  10  11
ENDBRANCH   9  10
ENDBRANCH   8   9
ENDBRANCH   7   8
ENDBRANCH   6   7
ENDBRANCH   5   6
ENDBRANCH   4   5
ENDBRANCH   3   4
ENDBRANCH   2   3
ENDBRANCH   1   2
BRANCH   1  13
ATOM     13  C   UNL     1    -105.501 -26.124 -13.809  1.00  0.00     0.000 C 
BRANCH  13  14
ATOM     14  C   UNL     1    -104.441 -25.060 -13.465  1.00  0.00     0.000 C 
BRANCH  14  15
ATOM     15  C   UNL     1    -105.052 -23.697 -13.102  1.00  0.00     0.000 C 
BRANCH  15  16
ATOM     16  C   UNL     1    -104.768 -23.284 -11.648  1.00  0.00     0.000 C 
BRANCH  16  17
ATOM     17  C   UNL     1    -104.223 -21.846 -11.502  1.00  0.00     0.000 C 
BRANCH  17  18
ATOM     18  C   UNL     1    -103.776 -21.534 -10.062  1.00  0.00     0.000 C 
BRANCH  18  19
ATOM     19  C   UNL     1    -103.719 -22.784  -9.166  1.00  0.00     0.000 C 
BRANCH  19  20
ATOM     20  C   UNL     1    -102.348 -23.063  -8.516  1.00  0.00     0.006 C 
BRANCH  20  21
ATOM     21  C   UNL     1    -102.386 -24.055  -7.342  1.00  0.00     0.053 C 
BRANCH  21  22
ATOM     22  C   UNL     1    -103.368 -23.642  -6.289  1.00  0.00     0.041 C 
ATOM     23  O   UNL     1    -104.353 -24.379  -6.019  1.00  0.00    -0.550 OA
ATOM     24  O   UNL     1    -103.191 -22.449  -5.599  1.00  0.00    -0.550 OA
ENDBRANCH  21  22
ENDBRANCH  20  21
ENDBRANCH  19  20
ENDBRANCH  18  19
ENDBRANCH  17  18
ENDBRANCH  16  17
ENDBRANCH  15  16
ENDBRANCH  14  15
ENDBRANCH  13  14
ENDBRANCH   1  13
TORSDOF 20
ENDMDL
