MODEL 1
REMARK VINA RESULT:    -5.379      0.000      0.000
REMARK INTER + INTRA:          -6.722
REMARK INTER:                  -6.479
REMARK INTRA:                  -0.242
REMARK UNBOUND:                -0.242
REMARK SMILES O=c1c(O)c(-c2ccc(O)c(O)c2)oc2cc(O)cc(O)c12
REMARK SMILES IDX 5 1 3 2 2 3 1 4 22 5 20 6 19 7 17 8 16 9 15 10 14 11 6 12
REMARK SMILES IDX 7 13 8 14 9 15 13 16 11 17 10 18 12 20 4 22 21 24 18 26
REMARK H PARENT 10 19 12 21 4 23 21 25 18 27
REMARK Flexibility Score: inf
ROOT
ATOM      1  C   UNL     1       4.419  -3.152  34.019  1.00  0.00     0.180 A 
ATOM      2  C   UNL     1       5.005  -3.588  35.220  1.00  0.00     0.208 A 
ATOM      3  C   UNL     1       4.360  -4.585  35.970  1.00  0.00     0.238 A 
ATOM      4  O   UNL     1       4.862  -4.931  37.072  1.00  0.00    -0.285 OA
ATOM      5  C   UNL     1       3.147  -5.143  35.502  1.00  0.00     0.111 A 
ATOM      6  C   UNL     1       2.428  -6.186  36.161  1.00  0.00     0.134 A 
ATOM      7  C   UNL     1       1.172  -6.571  35.677  1.00  0.00     0.093 A 
ATOM      8  C   UNL     1       0.638  -6.000  34.523  1.00  0.00     0.123 A 
ATOM      9  C   UNL     1       1.359  -5.020  33.837  1.00  0.00     0.094 A 
ATOM     10  C   UNL     1       2.599  -4.589  34.316  1.00  0.00     0.146 A 
ATOM     11  O   UNL     1       3.248  -3.649  33.640  1.00  0.00    -0.452 OA
ENDROOT
BRANCH   1  12
ATOM     12  C   UNL     1       5.052  -2.124  33.161  1.00  0.00     0.025 A 
ATOM     13  C   UNL     1       4.435  -0.871  33.013  1.00  0.00     0.016 A 
ATOM     14  C   UNL     1       5.003   0.105  32.193  1.00  0.00     0.051 A 
ATOM     15  C   UNL     1       6.187  -0.157  31.496  1.00  0.00     0.157 A 
ATOM     16  C   UNL     1       6.232  -2.394  32.443  1.00  0.00     0.062 A 
ATOM     17  C   UNL     1       6.802  -1.414  31.617  1.00  0.00     0.158 A 
BRANCH  15  18
ATOM     18  O   UNL     1       6.732   0.838  30.687  1.00  0.00    -0.504 OA
ATOM     19  H   UNL     1       6.199   1.649  30.395  1.00  0.00     0.293 HD
ENDBRANCH  15  18
BRANCH  17  20
ATOM     20  O   UNL     1       7.975  -1.687  30.914  1.00  0.00    -0.504 OA
ATOM     21  H   UNL     1       8.150  -1.288  29.999  1.00  0.00     0.293 HD
ENDBRANCH  17  20
ENDBRANCH   1  12
BRANCH   2  22
ATOM     22  O   UNL     1       6.193  -3.007  35.675  1.00  0.00    -0.502 OA
ATOM     23  H   UNL     1       7.071  -3.512  35.700  1.00  0.00     0.293 HD
ENDBRANCH   2  22
BRANCH   6  24
ATOM     24  O   UNL     1       2.912  -6.888  37.269  1.00  0.00    -0.507 OA
ATOM     25  H   UNL     1       3.189  -6.465  38.142  1.00  0.00     0.293 HD
ENDBRANCH   6  24
BRANCH   8  26
ATOM     26  O   UNL     1      -0.608  -6.418  34.061  1.00  0.00    -0.508 OA
ATOM     27  H   UNL     1      -1.081  -7.219  34.463  1.00  0.00     0.293 HD
ENDBRANCH   8  26
TORSDOF 6
ENDMDL
MODEL 2
REMARK VINA RESULT:    -5.055      1.922      3.588
REMARK INTER + INTRA:          -6.332
REMARK INTER:                  -6.010
REMARK INTRA:                  -0.322
REMARK UNBOUND:                -0.242
REMARK SMILES O=c1c(O)c(-c2ccc(O)c(O)c2)oc2cc(O)cc(O)c12
REMARK SMILES IDX 5 1 3 2 2 3 1 4 22 5 20 6 19 7 17 8 16 9 15 10 14 11 6 12
REMARK SMILES IDX 7 13 8 14 9 15 13 16 11 17 10 18 12 20 4 22 21 24 18 26
REMARK H PARENT 10 19 12 21 4 23 21 25 18 27
REMARK Flexibility Score: inf
ROOT
ATOM      1  C   UNL     1       5.373  -2.562  33.443  1.00  0.00     0.180 A 
ATOM      2  C   UNL     1       3.998  -2.859  33.435  1.00  0.00     0.208 A 
ATOM      3  C   UNL     1       3.500  -3.799  34.351  1.00  0.00     0.238 A 
ATOM      4  O   UNL     1       2.278  -4.101  34.303  1.00  0.00    -0.285 OA
ATOM      5  C   UNL     1       4.378  -4.420  35.271  1.00  0.00     0.111 A 
ATOM      6  C   UNL     1       3.975  -5.358  36.269  1.00  0.00     0.134 A 
ATOM      7  C   UNL     1       4.948  -6.007  37.039  1.00  0.00     0.093 A 
ATOM      8  C   UNL     1       6.300  -5.705  36.895  1.00  0.00     0.123 A 
ATOM      9  C   UNL     1       6.701  -4.746  35.963  1.00  0.00     0.094 A 
ATOM     10  C   UNL     1       5.758  -4.108  35.155  1.00  0.00     0.146 A 
ATOM     11  O   UNL     1       6.181  -3.209  34.274  1.00  0.00    -0.452 OA
ENDROOT
BRANCH   1  12
ATOM     12  C   UNL     1       5.968  -1.563  32.525  1.00  0.00     0.025 A 
ATOM     13  C   UNL     1       6.408  -1.967  31.255  1.00  0.00     0.016 A 
ATOM     14  C   UNL     1       6.991  -1.047  30.382  1.00  0.00     0.051 A 
ATOM     15  C   UNL     1       7.158   0.287  30.768  1.00  0.00     0.157 A 
ATOM     16  C   UNL     1       6.155  -0.226  32.920  1.00  0.00     0.062 A 
ATOM     17  C   UNL     1       6.743   0.699  32.046  1.00  0.00     0.158 A 
BRANCH  15  18
ATOM     18  O   UNL     1       7.741   1.184  29.875  1.00  0.00    -0.504 OA
ATOM     19  H   UNL     1       8.065   0.899  28.958  1.00  0.00     0.293 HD
ENDBRANCH  15  18
BRANCH  17  20
ATOM     20  O   UNL     1       6.919   2.024  32.442  1.00  0.00    -0.504 OA
ATOM     21  H   UNL     1       7.582   2.634  31.976  1.00  0.00     0.293 HD
ENDBRANCH  17  20
ENDBRANCH   1  12
BRANCH   2  22
ATOM     22  O   UNL     1       3.152  -2.250  32.503  1.00  0.00    -0.502 OA
ATOM     23  H   UNL     1       3.033  -1.245  32.451  1.00  0.00     0.293 HD
ENDBRANCH   2  22
BRANCH   6  24
ATOM     24  O   UNL     1       2.642  -5.665  36.559  1.00  0.00    -0.507 OA
ATOM     25  H   UNL     1       2.291  -5.892  37.476  1.00  0.00     0.293 HD
ENDBRANCH   6  24
BRANCH   8  26
ATOM     26  O   UNL     1       7.240  -6.358  37.690  1.00  0.00    -0.508 OA
ATOM     27  H   UNL     1       7.993  -5.854  38.143  1.00  0.00     0.293 HD
ENDBRANCH   8  26
TORSDOF 6
ENDMDL
MODEL 3
REMARK VINA RESULT:    -5.026      1.370      6.725
REMARK INTER + INTRA:          -6.296
REMARK INTER:                  -6.494
REMARK INTRA:                   0.198
REMARK UNBOUND:                -0.242
REMARK SMILES O=c1c(O)c(-c2ccc(O)c(O)c2)oc2cc(O)cc(O)c12
REMARK SMILES IDX 5 1 3 2 2 3 1 4 22 5 20 6 19 7 17 8 16 9 15 10 14 11 6 12
REMARK SMILES IDX 7 13 8 14 9 15 13 16 11 17 10 18 12 20 4 22 21 24 18 26
REMARK H PARENT 10 19 12 21 4 23 21 25 18 27
REMARK Flexibility Score: inf
ROOT
ATOM      1  C   UNL     1       3.824  -3.770  34.040  1.00  0.00     0.180 A 
ATOM      2  C   UNL     1       5.155  -3.895  34.475  1.00  0.00     0.208 A 
ATOM      3  C   UNL     1       6.117  -2.995  33.991  1.00  0.00     0.238 A 
ATOM      4  O   UNL     1       7.317  -3.146  34.342  1.00  0.00    -0.285 OA
ATOM      5  C   UNL     1       5.735  -1.972  33.090  1.00  0.00     0.111 A 
ATOM      6  C   UNL     1       6.619  -0.981  32.567  1.00  0.00     0.134 A 
ATOM      7  C   UNL     1       6.160  -0.098  31.582  1.00  0.00     0.093 A 
ATOM      8  C   UNL     1       4.836  -0.126  31.150  1.00  0.00     0.123 A 
ATOM      9  C   UNL     1       3.947  -1.053  31.698  1.00  0.00     0.094 A 
ATOM     10  C   UNL     1       4.384  -1.970  32.656  1.00  0.00     0.146 A 
ATOM     11  O   UNL     1       3.509  -2.842  33.144  1.00  0.00    -0.452 OA
ENDROOT
BRANCH   1  12
ATOM     12  C   UNL     1       2.748  -4.666  34.525  1.00  0.00     0.025 A 
ATOM     13  C   UNL     1       2.756  -5.092  35.863  1.00  0.00     0.016 A 
ATOM     14  C   UNL     1       1.764  -5.953  36.337  1.00  0.00     0.051 A 
ATOM     15  C   UNL     1       0.759  -6.413  35.481  1.00  0.00     0.157 A 
ATOM     16  C   UNL     1       1.749  -5.146  33.660  1.00  0.00     0.062 A 
ATOM     17  C   UNL     1       0.753  -6.013  34.134  1.00  0.00     0.158 A 
BRANCH  15  18
ATOM     18  O   UNL     1      -0.219  -7.270  35.982  1.00  0.00    -0.504 OA
ATOM     19  H   UNL     1      -1.186  -6.985  36.082  1.00  0.00     0.293 HD
ENDBRANCH  15  18
BRANCH  17  20
ATOM     20  O   UNL     1      -0.238  -6.480  33.271  1.00  0.00    -0.504 OA
ATOM     21  H   UNL     1      -1.048  -5.916  33.040  1.00  0.00     0.293 HD
ENDBRANCH  17  20
ENDBRANCH   1  12
BRANCH   2  22
ATOM     22  O   UNL     1       5.515  -4.926  35.348  1.00  0.00    -0.502 OA
ATOM     23  H   UNL     1       4.860  -5.339  36.002  1.00  0.00     0.293 HD
ENDBRANCH   2  22
BRANCH   6  24
ATOM     24  O   UNL     1       7.938  -0.806  32.997  1.00  0.00    -0.507 OA
ATOM     25  H   UNL     1       8.588  -1.556  33.176  1.00  0.00     0.293 HD
ENDBRANCH   6  24
BRANCH   8  26
ATOM     26  O   UNL     1       4.409   0.779  30.179  1.00  0.00    -0.508 OA
ATOM     27  H   UNL     1       4.929   1.625  29.978  1.00  0.00     0.293 HD
ENDBRANCH   8  26
TORSDOF 6
ENDMDL
MODEL 4
REMARK VINA RESULT:    -5.004      1.556      7.138
REMARK INTER + INTRA:          -6.270
REMARK INTER:                  -6.014
REMARK INTRA:                  -0.256
REMARK UNBOUND:                -0.242
REMARK SMILES O=c1c(O)c(-c2ccc(O)c(O)c2)oc2cc(O)cc(O)c12
REMARK SMILES IDX 5 1 3 2 2 3 1 4 22 5 20 6 19 7 17 8 16 9 15 10 14 11 6 12
REMARK SMILES IDX 7 13 8 14 9 15 13 16 11 17 10 18 12 20 4 22 21 24 18 26
REMARK H PARENT 10 19 12 21 4 23 21 25 18 27
REMARK Flexibility Score: inf
ROOT
ATOM      1  C   UNL     1       4.541  -3.840  33.232  1.00  0.00     0.180 A 
ATOM      2  C   UNL     1       5.214  -4.567  32.233  1.00  0.00     0.208 A 
ATOM      3  C   UNL     1       6.114  -3.894  31.391  1.00  0.00     0.238 A 
ATOM      4  O   UNL     1       6.671  -4.539  30.465  1.00  0.00    -0.285 OA
ATOM      5  C   UNL     1       6.341  -2.508  31.567  1.00  0.00     0.111 A 
ATOM      6  C   UNL     1       7.260  -1.734  30.797  1.00  0.00     0.134 A 
ATOM      7  C   UNL     1       7.308  -0.345  30.971  1.00  0.00     0.093 A 
ATOM      8  C   UNL     1       6.520   0.289  31.930  1.00  0.00     0.123 A 
ATOM      9  C   UNL     1       5.660  -0.467  32.730  1.00  0.00     0.094 A 
ATOM     10  C   UNL     1       5.564  -1.849  32.555  1.00  0.00     0.146 A 
ATOM     11  O   UNL     1       4.727  -2.529  33.329  1.00  0.00    -0.452 OA
ENDROOT
BRANCH   1  12
ATOM     12  C   UNL     1       3.597  -4.485  34.174  1.00  0.00     0.025 A 
ATOM     13  C   UNL     1       4.011  -4.758  35.488  1.00  0.00     0.016 A 
ATOM     14  C   UNL     1       3.145  -5.384  36.387  1.00  0.00     0.051 A 
ATOM     15  C   UNL     1       1.860  -5.760  35.985  1.00  0.00     0.157 A 
ATOM     16  C   UNL     1       2.311  -4.882  33.766  1.00  0.00     0.062 A 
ATOM     17  C   UNL     1       1.441  -5.512  34.667  1.00  0.00     0.158 A 
BRANCH  15  18
ATOM     18  O   UNL     1       1.016  -6.381  36.905  1.00  0.00    -0.504 OA
ATOM     19  H   UNL     1       0.973  -6.095  37.876  1.00  0.00     0.293 HD
ENDBRANCH  15  18
BRANCH  17  20
ATOM     20  O   UNL     1       0.165  -5.897  34.256  1.00  0.00    -0.504 OA
ATOM     21  H   UNL     1      -0.007  -6.808  33.845  1.00  0.00     0.293 HD
ENDBRANCH  17  20
ENDBRANCH   1  12
BRANCH   2  22
ATOM     22  O   UNL     1       4.958  -5.930  32.063  1.00  0.00    -0.502 OA
ATOM     23  H   UNL     1       4.124  -6.274  31.601  1.00  0.00     0.293 HD
ENDBRANCH   2  22
BRANCH   6  24
ATOM     24  O   UNL     1       8.159  -2.279  29.876  1.00  0.00    -0.507 OA
ATOM     25  H   UNL     1       9.062  -2.661  30.112  1.00  0.00     0.293 HD
ENDBRANCH   6  24
BRANCH   8  26
ATOM     26  O   UNL     1       6.605   1.671  32.087  1.00  0.00    -0.508 OA
ATOM     27  H   UNL     1       7.495   2.135  32.226  1.00  0.00     0.293 HD
ENDBRANCH   8  26
TORSDOF 6
ENDMDL
MODEL 5
REMARK VINA RESULT:    -4.995      2.012      7.391
REMARK INTER + INTRA:          -6.260
REMARK INTER:                  -5.939
REMARK INTRA:                  -0.321
REMARK UNBOUND:                -0.242
REMARK SMILES O=c1c(O)c(-c2ccc(O)c(O)c2)oc2cc(O)cc(O)c12
REMARK SMILES IDX 5 1 3 2 2 3 1 4 22 5 20 6 19 7 17 8 16 9 15 10 14 11 6 12
REMARK SMILES IDX 7 13 8 14 9 15 13 16 11 17 10 18 12 20 4 22 21 24 18 26
REMARK H PARENT 10 19 12 21 4 23 21 25 18 27
REMARK Flexibility Score: inf
ROOT
ATOM      1  C   UNL     1       4.901  -2.944  33.294  1.00  0.00     0.180 A 
ATOM      2  C   UNL     1       4.243  -1.848  32.707  1.00  0.00     0.208 A 
ATOM      3  C   UNL     1       4.991  -0.712  32.358  1.00  0.00     0.238 A 
ATOM      4  O   UNL     1       4.387   0.286  31.884  1.00  0.00    -0.285 OA
ATOM      5  C   UNL     1       6.388  -0.691  32.586  1.00  0.00     0.111 A 
ATOM      6  C   UNL     1       7.249   0.392  32.235  1.00  0.00     0.134 A 
ATOM      7  C   UNL     1       8.593   0.358  32.626  1.00  0.00     0.093 A 
ATOM      8  C   UNL     1       9.122  -0.744  33.295  1.00  0.00     0.123 A 
ATOM      9  C   UNL     1       8.302  -1.835  33.591  1.00  0.00     0.094 A 
ATOM     10  C   UNL     1       6.948  -1.815  33.246  1.00  0.00     0.146 A 
ATOM     11  O   UNL     1       6.200  -2.868  33.555  1.00  0.00    -0.452 OA
ENDROOT
BRANCH   1  12
ATOM     12  C   UNL     1       4.184  -4.186  33.666  1.00  0.00     0.025 A 
ATOM     13  C   UNL     1       4.071  -5.225  32.728  1.00  0.00     0.016 A 
ATOM     14  C   UNL     1       3.382  -6.396  33.049  1.00  0.00     0.051 A 
ATOM     15  C   UNL     1       2.784  -6.543  34.305  1.00  0.00     0.157 A 
ATOM     16  C   UNL     1       3.565  -4.327  34.921  1.00  0.00     0.062 A 
ATOM     17  C   UNL     1       2.871  -5.501  35.244  1.00  0.00     0.158 A 
BRANCH  15  18
ATOM     18  O   UNL     1       2.105  -7.724  34.599  1.00  0.00    -0.504 OA
ATOM     19  H   UNL     1       2.149  -8.159  35.513  1.00  0.00     0.293 HD
ENDBRANCH  15  18
BRANCH  17  20
ATOM     20  O   UNL     1       2.264  -5.636  36.492  1.00  0.00    -0.504 OA
ATOM     21  H   UNL     1       2.715  -6.138  37.249  1.00  0.00     0.293 HD
ENDBRANCH  17  20
ENDBRANCH   1  12
BRANCH   2  22
ATOM     22  O   UNL     1       2.859  -1.882  32.512  1.00  0.00    -0.502 OA
ATOM     23  H   UNL     1       2.422  -2.478  31.819  1.00  0.00     0.293 HD
ENDBRANCH   2  22
BRANCH   6  24
ATOM     24  O   UNL     1       6.844   1.500  31.487  1.00  0.00    -0.507 OA
ATOM     25  H   UNL     1       7.450   2.044  30.891  1.00  0.00     0.293 HD
ENDBRANCH   6  24
BRANCH   8  26
ATOM     26  O   UNL     1      10.468  -0.751  33.654  1.00  0.00    -0.508 OA
ATOM     27  H   UNL     1      11.129  -0.099  33.247  1.00  0.00     0.293 HD
ENDBRANCH   8  26
TORSDOF 6
ENDMDL
MODEL 6
REMARK VINA RESULT:    -4.979      3.037      5.418
REMARK INTER + INTRA:          -6.240
REMARK INTER:                  -5.909
REMARK INTRA:                  -0.331
REMARK UNBOUND:                -0.242
REMARK SMILES O=c1c(O)c(-c2ccc(O)c(O)c2)oc2cc(O)cc(O)c12
REMARK SMILES IDX 5 1 3 2 2 3 1 4 22 5 20 6 19 7 17 8 16 9 15 10 14 11 6 12
REMARK SMILES IDX 7 13 8 14 9 15 13 16 11 17 10 18 12 20 4 22 21 24 18 26
REMARK H PARENT 10 19 12 21 4 23 21 25 18 27
REMARK Flexibility Score: inf
ROOT
ATOM      1  C   UNL     1       5.706  -4.558  36.566  1.00  0.00     0.180 A 
ATOM      2  C   UNL     1       5.504  -3.836  35.376  1.00  0.00     0.208 A 
ATOM      3  C   UNL     1       4.271  -3.947  34.714  1.00  0.00     0.238 A 
ATOM      4  O   UNL     1       4.116  -3.342  33.620  1.00  0.00    -0.285 OA
ATOM      5  C   UNL     1       3.251  -4.765  35.256  1.00  0.00     0.111 A 
ATOM      6  C   UNL     1       1.950  -4.920  34.689  1.00  0.00     0.134 A 
ATOM      7  C   UNL     1       1.066  -5.857  35.238  1.00  0.00     0.093 A 
ATOM      8  C   UNL     1       1.408  -6.594  36.369  1.00  0.00     0.123 A 
ATOM      9  C   UNL     1       2.656  -6.408  36.967  1.00  0.00     0.094 A 
ATOM     10  C   UNL     1       3.574  -5.508  36.421  1.00  0.00     0.146 A 
ATOM     11  O   UNL     1       4.754  -5.367  37.014  1.00  0.00    -0.452 OA
ENDROOT
BRANCH   1  12
ATOM     12  C   UNL     1       6.969  -4.472  37.335  1.00  0.00     0.025 A 
ATOM     13  C   UNL     1       7.959  -5.450  37.148  1.00  0.00     0.016 A 
ATOM     14  C   UNL     1       9.149  -5.400  37.877  1.00  0.00     0.051 A 
ATOM     15  C   UNL     1       9.363  -4.384  38.814  1.00  0.00     0.157 A 
ATOM     16  C   UNL     1       7.177  -3.463  38.292  1.00  0.00     0.062 A 
ATOM     17  C   UNL     1       8.370  -3.413  39.027  1.00  0.00     0.158 A 
BRANCH  15  18
ATOM     18  O   UNL     1      10.561  -4.359  39.526  1.00  0.00    -0.504 OA
ATOM     19  H   UNL     1      11.077  -5.203  39.744  1.00  0.00     0.293 HD
ENDBRANCH  15  18
BRANCH  17  20
ATOM     20  O   UNL     1       8.571  -2.405  39.969  1.00  0.00    -0.504 OA
ATOM     21  H   UNL     1       7.922  -2.257  40.734  1.00  0.00     0.293 HD
ENDBRANCH  17  20
ENDBRANCH   1  12
BRANCH   2  22
ATOM     22  O   UNL     1       6.532  -3.051  34.847  1.00  0.00    -0.502 OA
ATOM     23  H   UNL     1       6.582  -2.050  34.991  1.00  0.00     0.293 HD
ENDBRANCH   2  22
BRANCH   6  24
ATOM     24  O   UNL     1       1.472  -4.166  33.614  1.00  0.00    -0.507 OA
ATOM     25  H   UNL     1       0.518  -4.169  33.288  1.00  0.00     0.293 HD
ENDBRANCH   6  24
BRANCH   8  26
ATOM     26  O   UNL     1       0.497  -7.506  36.899  1.00  0.00    -0.508 OA
ATOM     27  H   UNL     1      -0.445  -7.588  36.533  1.00  0.00     0.293 HD
ENDBRANCH   8  26
TORSDOF 6
ENDMDL
MODEL 7
REMARK VINA RESULT:    -4.968     14.619     15.862
REMARK INTER + INTRA:          -6.227
REMARK INTER:                  -5.912
REMARK INTRA:                  -0.316
REMARK UNBOUND:                -0.242
REMARK SMILES O=c1c(O)c(-c2ccc(O)c(O)c2)oc2cc(O)cc(O)c12
REMARK SMILES IDX 5 1 3 2 2 3 1 4 22 5 20 6 19 7 17 8 16 9 15 10 14 11 6 12
REMARK SMILES IDX 7 13 8 14 9 15 13 16 11 17 10 18 12 20 4 22 21 24 18 26
REMARK H PARENT 10 19 12 21 4 23 21 25 18 27
REMARK Flexibility Score: inf
ROOT
ATOM      1  C   UNL     1      -3.825  -3.623  46.956  1.00  0.00     0.180 A 
ATOM      2  C   UNL     1      -4.856  -3.991  46.074  1.00  0.00     0.208 A 
ATOM      3  C   UNL     1      -5.250  -5.337  46.010  1.00  0.00     0.238 A 
ATOM      4  O   UNL     1      -6.135  -5.669  45.179  1.00  0.00    -0.285 OA
ATOM      5  C   UNL     1      -4.618  -6.296  46.839  1.00  0.00     0.111 A 
ATOM      6  C   UNL     1      -4.964  -7.680  46.885  1.00  0.00     0.134 A 
ATOM      7  C   UNL     1      -4.184  -8.560  47.646  1.00  0.00     0.093 A 
ATOM      8  C   UNL     1      -3.116  -8.099  48.412  1.00  0.00     0.123 A 
ATOM      9  C   UNL     1      -2.806  -6.738  48.421  1.00  0.00     0.094 A 
ATOM     10  C   UNL     1      -3.542  -5.840  47.644  1.00  0.00     0.146 A 
ATOM     11  O   UNL     1      -3.208  -4.556  47.672  1.00  0.00    -0.452 OA
ENDROOT
BRANCH   1  12
ATOM     12  C   UNL     1      -3.373  -2.219  47.098  1.00  0.00     0.025 A 
ATOM     13  C   UNL     1      -2.389  -1.719  46.230  1.00  0.00     0.016 A 
ATOM     14  C   UNL     1      -1.933  -0.406  46.360  1.00  0.00     0.051 A 
ATOM     15  C   UNL     1      -2.440   0.423  47.365  1.00  0.00     0.157 A 
ATOM     16  C   UNL     1      -3.867  -1.391  48.122  1.00  0.00     0.062 A 
ATOM     17  C   UNL     1      -3.408  -0.073  48.255  1.00  0.00     0.158 A 
BRANCH  15  18
ATOM     18  O   UNL     1      -1.968   1.730  47.469  1.00  0.00    -0.504 OA
ATOM     19  H   UNL     1      -1.719   2.280  46.655  1.00  0.00     0.293 HD
ENDBRANCH  15  18
BRANCH  17  20
ATOM     20  O   UNL     1      -3.907   0.744  49.269  1.00  0.00    -0.504 OA
ATOM     21  H   UNL     1      -3.430   0.838  50.158  1.00  0.00     0.293 HD
ENDBRANCH  17  20
ENDBRANCH   1  12
BRANCH   2  22
ATOM     22  O   UNL     1      -5.451  -3.032  45.249  1.00  0.00    -0.502 OA
ATOM     23  H   UNL     1      -5.492  -3.131  44.242  1.00  0.00     0.293 HD
ENDBRANCH   2  22
BRANCH   6  24
ATOM     24  O   UNL     1      -6.069  -8.231  46.229  1.00  0.00    -0.507 OA
ATOM     25  H   UNL     1      -7.003  -8.264  46.607  1.00  0.00     0.293 HD
ENDBRANCH   6  24
BRANCH   8  26
ATOM     26  O   UNL     1      -2.373  -9.002  49.170  1.00  0.00    -0.508 OA
ATOM     27  H   UNL     1      -2.539 -10.000  49.120  1.00  0.00     0.293 HD
ENDBRANCH   8  26
TORSDOF 6
ENDMDL
MODEL 8
REMARK VINA RESULT:    -4.951      2.113      2.847
REMARK INTER + INTRA:          -6.207
REMARK INTER:                  -5.935
REMARK INTRA:                  -0.272
REMARK UNBOUND:                -0.242
REMARK SMILES O=c1c(O)c(-c2ccc(O)c(O)c2)oc2cc(O)cc(O)c12
REMARK SMILES IDX 5 1 3 2 2 3 1 4 22 5 20 6 19 7 17 8 16 9 15 10 14 11 6 12
REMARK SMILES IDX 7 13 8 14 9 15 13 16 11 17 10 18 12 20 4 22 21 24 18 26
REMARK H PARENT 10 19 12 21 4 23 21 25 18 27
REMARK Flexibility Score: inf
ROOT
ATOM      1  C   UNL     1       5.260  -2.881  32.735  1.00  0.00     0.180 A 
ATOM      2  C   UNL     1       5.561  -3.959  31.884  1.00  0.00     0.208 A 
ATOM      3  C   UNL     1       4.908  -5.186  32.083  1.00  0.00     0.238 A 
ATOM      4  O   UNL     1       5.221  -6.163  31.353  1.00  0.00    -0.285 OA
ATOM      5  C   UNL     1       3.952  -5.316  33.120  1.00  0.00     0.111 A 
ATOM      6  C   UNL     1       3.203  -6.500  33.387  1.00  0.00     0.134 A 
ATOM      7  C   UNL     1       2.381  -6.556  34.519  1.00  0.00     0.093 A 
ATOM      8  C   UNL     1       2.230  -5.452  35.355  1.00  0.00     0.123 A 
ATOM      9  C   UNL     1       2.914  -4.268  35.071  1.00  0.00     0.094 A 
ATOM     10  C   UNL     1       3.769  -4.193  33.969  1.00  0.00     0.146 A 
ATOM     11  O   UNL     1       4.408  -3.053  33.739  1.00  0.00    -0.452 OA
ENDROOT
BRANCH   1  12
ATOM     12  C   UNL     1       5.889  -1.549  32.572  1.00  0.00     0.025 A 
ATOM     13  C   UNL     1       5.172  -0.520  31.940  1.00  0.00     0.016 A 
ATOM     14  C   UNL     1       5.752   0.736  31.756  1.00  0.00     0.051 A 
ATOM     15  C   UNL     1       7.060   0.981  32.186  1.00  0.00     0.157 A 
ATOM     16  C   UNL     1       7.211  -1.308  32.984  1.00  0.00     0.062 A 
ATOM     17  C   UNL     1       7.796  -0.047  32.799  1.00  0.00     0.158 A 
BRANCH  15  18
ATOM     18  O   UNL     1       7.613   2.246  31.991  1.00  0.00    -0.504 OA
ATOM     19  H   UNL     1       8.569   2.376  31.684  1.00  0.00     0.293 HD
ENDBRANCH  15  18
BRANCH  17  20
ATOM     20  O   UNL     1       9.106   0.186  33.216  1.00  0.00    -0.504 OA
ATOM     21  H   UNL     1       9.418   1.111  33.493  1.00  0.00     0.293 HD
ENDBRANCH  17  20
ENDBRANCH   1  12
BRANCH   2  22
ATOM     22  O   UNL     1       6.524  -3.816  30.881  1.00  0.00    -0.502 OA
ATOM     23  H   UNL     1       6.890  -2.913  30.604  1.00  0.00     0.293 HD
ENDBRANCH   2  22
BRANCH   6  24
ATOM     24  O   UNL     1       3.208  -7.630  32.563  1.00  0.00    -0.507 OA
ATOM     25  H   UNL     1       2.468  -7.880  31.927  1.00  0.00     0.293 HD
ENDBRANCH   6  24
BRANCH   8  26
ATOM     26  O   UNL     1       1.391  -5.537  36.465  1.00  0.00    -0.508 OA
ATOM     27  H   UNL     1       1.758  -5.519  37.409  1.00  0.00     0.293 HD
ENDBRANCH   8  26
TORSDOF 6
ENDMDL
