MODEL 1
REMARK VINA RESULT:    -2.689      0.000      0.000
REMARK INTER + INTRA:          -2.689
REMARK INTER:                  -2.689
REMARK INTRA:                   0.000
REMARK UNBOUND:                 0.000
REMARK SMILES CC1(C)C(=O)[C@]2(C)CC[C@H]1C2
REMARK SMILES IDX 1 1 2 2 10 3 9 4 8 5 6 6 11 7 4 8 5 9 7 10 3 11
REMARK H PARENT
REMARK Flexibility Score: inf
ROOT
ATOM      1  C   UNL     1     108.038 112.196 109.411  1.00  0.00     0.020 C 
ATOM      2  C   UNL     1     108.993 112.753 108.334  1.00  0.00     0.027 C 
ATOM      3  C   UNL     1     110.457 112.908 108.882  1.00  0.00     0.003 C 
ATOM      4  C   UNL     1     111.441 113.292 107.747  1.00  0.00     0.005 C 
ATOM      5  C   UNL     1     111.009 114.729 107.380  1.00  0.00     0.015 C 
ATOM      6  C   UNL     1     109.903 115.021 108.414  1.00  0.00     0.027 C 
ATOM      7  C   UNL     1     110.400 114.246 109.617  1.00  0.00     0.019 C 
ATOM      8  C   UNL     1     108.702 114.197 108.043  1.00  0.00     0.144 C 
ATOM      9  O   UNL     1     107.684 114.622 107.517  1.00  0.00    -0.298 OA
ATOM     10  C   UNL     1     109.626 116.504 108.676  1.00  0.00     0.020 C 
ATOM     11  C   UNL     1     108.879 111.886 107.060  1.00  0.00     0.020 C 
ENDROOT
TORSDOF 0
ENDMDL
MODEL 2
REMARK VINA RESULT:    -2.686     12.501     14.047
REMARK INTER + INTRA:          -2.686
REMARK INTER:                  -2.686
REMARK INTRA:                   0.000
REMARK UNBOUND:                 0.000
REMARK SMILES CC1(C)C(=O)[C@]2(C)CC[C@H]1C2
REMARK SMILES IDX 1 1 2 2 10 3 9 4 8 5 6 6 11 7 4 8 5 9 7 10 3 11
REMARK H PARENT
REMARK Flexibility Score: inf
ROOT
ATOM      1  C   UNL     1     123.958 119.795 109.454  1.00  0.00     0.020 C 
ATOM      2  C   UNL     1     123.029 119.233 108.357  1.00  0.00     0.027 C 
ATOM      3  C   UNL     1     121.553 119.075 108.872  1.00  0.00     0.003 C 
ATOM      4  C   UNL     1     120.596 118.687 107.715  1.00  0.00     0.005 C 
ATOM      5  C   UNL     1     121.041 117.250 107.361  1.00  0.00     0.015 C 
ATOM      6  C   UNL     1     122.123 116.963 108.421  1.00  0.00     0.027 C 
ATOM      7  C   UNL     1     121.598 117.739 109.611  1.00  0.00     0.019 C 
ATOM      8  C   UNL     1     123.330 117.790 108.075  1.00  0.00     0.144 C 
ATOM      9  O   UNL     1     124.362 117.367 107.573  1.00  0.00    -0.298 OA
ATOM     10  C   UNL     1     122.399 115.482 108.691  1.00  0.00     0.020 C 
ATOM     11  C   UNL     1     123.169 120.099 107.085  1.00  0.00     0.020 C 
ENDROOT
TORSDOF 0
ENDMDL
MODEL 3
REMARK VINA RESULT:    -2.684      8.288      9.858
REMARK INTER + INTRA:          -2.684
REMARK INTER:                  -2.684
REMARK INTRA:                   0.000
REMARK UNBOUND:                 0.000
REMARK SMILES CC1(C)C(=O)[C@]2(C)CC[C@H]1C2
REMARK SMILES IDX 1 1 2 2 10 3 9 4 8 5 6 6 11 7 4 8 5 9 7 10 3 11
REMARK H PARENT
REMARK Flexibility Score: inf
ROOT
ATOM      1  C   UNL     1     119.772 108.049 109.305  1.00  0.00     0.020 C 
ATOM      2  C   UNL     1     119.201 109.042 108.270  1.00  0.00     0.027 C 
ATOM      3  C   UNL     1     119.045 110.483 108.876  1.00  0.00     0.003 C 
ATOM      4  C   UNL     1     118.646 111.508 107.783  1.00  0.00     0.005 C 
ATOM      5  C   UNL     1     117.207 111.084 107.413  1.00  0.00     0.015 C 
ATOM      6  C   UNL     1     116.929 109.938 108.407  1.00  0.00     0.027 C 
ATOM      7  C   UNL     1     117.714 110.391 109.621  1.00  0.00     0.019 C 
ATOM      8  C   UNL     1     117.755 108.756 107.981  1.00  0.00     0.144 C 
ATOM      9  O   UNL     1     117.330 107.756 107.421  1.00  0.00    -0.298 OA
ATOM     10  C   UNL     1     115.451 109.644 108.671  1.00  0.00     0.020 C 
ATOM     11  C   UNL     1     120.057 108.981 106.986  1.00  0.00     0.020 C 
ENDROOT
TORSDOF 0
ENDMDL
MODEL 4
REMARK VINA RESULT:    -2.684      8.346      9.916
REMARK INTER + INTRA:          -2.684
REMARK INTER:                  -2.684
REMARK INTRA:                   0.000
REMARK UNBOUND:                 0.000
REMARK SMILES CC1(C)C(=O)[C@]2(C)CC[C@H]1C2
REMARK SMILES IDX 1 1 2 2 10 3 9 4 8 5 6 6 11 7 4 8 5 9 7 10 3 11
REMARK H PARENT
REMARK Flexibility Score: inf
ROOT
ATOM      1  C   UNL     1     112.205 123.961 109.293  1.00  0.00     0.020 C 
ATOM      2  C   UNL     1     112.795 122.974 108.263  1.00  0.00     0.027 C 
ATOM      3  C   UNL     1     112.952 121.532 108.866  1.00  0.00     0.003 C 
ATOM      4  C   UNL     1     113.370 120.512 107.775  1.00  0.00     0.005 C 
ATOM      5  C   UNL     1     114.811 120.946 107.425  1.00  0.00     0.015 C 
ATOM      6  C   UNL     1     115.070 122.091 108.425  1.00  0.00     0.027 C 
ATOM      7  C   UNL     1     114.273 121.629 109.628  1.00  0.00     0.019 C 
ATOM      8  C   UNL     1     114.243 123.269 107.993  1.00  0.00     0.144 C 
ATOM      9  O   UNL     1     114.669 124.273 107.441  1.00  0.00    -0.298 OA
ATOM     10  C   UNL     1     116.543 122.393 108.708  1.00  0.00     0.020 C 
ATOM     11  C   UNL     1     111.955 123.034 106.968  1.00  0.00     0.020 C 
ENDROOT
TORSDOF 0
ENDMDL
MODEL 5
REMARK VINA RESULT:    -2.619      7.811      9.872
REMARK INTER + INTRA:          -2.619
REMARK INTER:                  -2.619
REMARK INTRA:                   0.000
REMARK UNBOUND:                 0.000
REMARK SMILES CC1(C)C(=O)[C@]2(C)CC[C@H]1C2
REMARK SMILES IDX 1 1 2 2 10 3 9 4 8 5 6 6 11 7 4 8 5 9 7 10 3 11
REMARK H PARENT
REMARK Flexibility Score: inf
ROOT
ATOM      1  C   UNL     1     111.489 123.655 106.921  1.00  0.00     0.020 C 
ATOM      2  C   UNL     1     112.798 123.507 107.726  1.00  0.00     0.027 C 
ATOM      3  C   UNL     1     113.836 122.594 106.980  1.00  0.00     0.003 C 
ATOM      4  C   UNL     1     115.207 122.599 107.704  1.00  0.00     0.005 C 
ATOM      5  C   UNL     1     114.909 121.853 109.024  1.00  0.00     0.015 C 
ATOM      6  C   UNL     1     113.438 121.428 108.844  1.00  0.00     0.027 C 
ATOM      7  C   UNL     1     113.371 121.186 107.350  1.00  0.00     0.019 C 
ATOM      8  C   UNL     1     112.591 122.666 108.952  1.00  0.00     0.144 C 
ATOM      9  O   UNL     1     111.904 122.975 109.915  1.00  0.00    -0.298 OA
ATOM     10  C   UNL     1     112.987 120.247 109.707  1.00  0.00     0.020 C 
ATOM     11  C   UNL     1     113.331 124.911 108.087  1.00  0.00     0.020 C 
ENDROOT
TORSDOF 0
ENDMDL
MODEL 6
REMARK VINA RESULT:    -2.618      9.103     10.620
REMARK INTER + INTRA:          -2.618
REMARK INTER:                  -2.618
REMARK INTRA:                   0.000
REMARK UNBOUND:                 0.000
REMARK SMILES CC1(C)C(=O)[C@]2(C)CC[C@H]1C2
REMARK SMILES IDX 1 1 2 2 10 3 9 4 8 5 6 6 11 7 4 8 5 9 7 10 3 11
REMARK H PARENT
REMARK Flexibility Score: inf
ROOT
ATOM      1  C   UNL     1     120.594 108.251 106.977  1.00  0.00     0.020 C 
ATOM      2  C   UNL     1     119.278 108.431 107.765  1.00  0.00     0.027 C 
ATOM      3  C   UNL     1     118.257 109.337 106.987  1.00  0.00     0.003 C 
ATOM      4  C   UNL     1     116.878 109.361 107.697  1.00  0.00     0.005 C 
ATOM      5  C   UNL     1     117.170 110.134 109.002  1.00  0.00     0.015 C 
ATOM      6  C   UNL     1     118.648 110.540 108.830  1.00  0.00     0.027 C 
ATOM      7  C   UNL     1     118.733 110.748 107.331  1.00  0.00     0.019 C 
ATOM      8  C   UNL     1     119.481 109.297 108.974  1.00  0.00     0.144 C 
ATOM      9  O   UNL     1     120.155 109.002 109.950  1.00  0.00    -0.298 OA
ATOM     10  C   UNL     1     119.102 111.735 109.671  1.00  0.00     0.020 C 
ATOM     11  C   UNL     1     118.727 107.040 108.151  1.00  0.00     0.020 C 
ENDROOT
TORSDOF 0
ENDMDL
MODEL 7
REMARK VINA RESULT:    -2.609      1.566      2.664
REMARK INTER + INTRA:          -2.609
REMARK INTER:                  -2.609
REMARK INTRA:                   0.000
REMARK UNBOUND:                 0.000
REMARK SMILES CC1(C)C(=O)[C@]2(C)CC[C@H]1C2
REMARK SMILES IDX 1 1 2 2 10 3 9 4 8 5 6 6 11 7 4 8 5 9 7 10 3 11
REMARK H PARENT
REMARK Flexibility Score: inf
ROOT
ATOM      1  C   UNL     1     108.216 111.470 106.984  1.00  0.00     0.020 C 
ATOM      2  C   UNL     1     108.423 112.773 107.785  1.00  0.00     0.027 C 
ATOM      3  C   UNL     1     109.319 113.798 107.001  1.00  0.00     0.003 C 
ATOM      4  C   UNL     1     109.369 115.167 107.728  1.00  0.00     0.005 C 
ATOM      5  C   UNL     1     110.170 114.852 109.011  1.00  0.00     0.015 C 
ATOM      6  C   UNL     1     110.561 113.375 108.809  1.00  0.00     0.027 C 
ATOM      7  C   UNL     1     110.733 113.309 107.305  1.00  0.00     0.019 C 
ATOM      8  C   UNL     1     109.316 112.548 108.971  1.00  0.00     0.144 C 
ATOM      9  O   UNL     1     109.038 111.863 109.945  1.00  0.00    -0.298 OA
ATOM     10  C   UNL     1     111.772 112.901 109.615  1.00  0.00     0.020 C 
ATOM     11  C   UNL     1     107.046 113.329 108.211  1.00  0.00     0.020 C 
ENDROOT
TORSDOF 0
ENDMDL
MODEL 8
REMARK VINA RESULT:    -2.590     12.763     14.273
REMARK INTER + INTRA:          -2.590
REMARK INTER:                  -2.590
REMARK INTRA:                   0.000
REMARK UNBOUND:                 0.000
REMARK SMILES CC1(C)C(=O)[C@]2(C)CC[C@H]1C2
REMARK SMILES IDX 1 1 2 2 10 3 9 4 8 5 6 6 11 7 4 8 5 9 7 10 3 11
REMARK H PARENT
REMARK Flexibility Score: inf
ROOT
ATOM      1  C   UNL     1     123.807 120.563 107.011  1.00  0.00     0.020 C 
ATOM      2  C   UNL     1     123.604 119.216 107.736  1.00  0.00     0.027 C 
ATOM      3  C   UNL     1     122.654 118.261 106.927  1.00  0.00     0.003 C 
ATOM      4  C   UNL     1     122.602 116.850 107.568  1.00  0.00     0.005 C 
ATOM      5  C   UNL     1     121.862 117.098 108.901  1.00  0.00     0.015 C 
ATOM      6  C   UNL     1     121.496 118.593 108.809  1.00  0.00     0.027 C 
ATOM      7  C   UNL     1     121.264 118.758 107.321  1.00  0.00     0.019 C 
ATOM      8  C   UNL     1     122.765 119.383 108.970  1.00  0.00     0.144 C 
ATOM      9  O   UNL     1     123.097 119.999 109.972  1.00  0.00    -0.298 OA
ATOM     10  C   UNL     1     120.330 119.038 109.694  1.00  0.00     0.020 C 
ATOM     11  C   UNL     1     124.984 118.607 108.068  1.00  0.00     0.020 C 
ENDROOT
TORSDOF 0
ENDMDL
MODEL 9
REMARK VINA RESULT:    -2.571      8.118      9.774
REMARK INTER + INTRA:          -2.571
REMARK INTER:                  -2.571
REMARK INTRA:                   0.000
REMARK UNBOUND:                 0.000
REMARK SMILES CC1(C)C(=O)[C@]2(C)CC[C@H]1C2
REMARK SMILES IDX 1 1 2 2 10 3 9 4 8 5 6 6 11 7 4 8 5 9 7 10 3 11
REMARK H PARENT
REMARK Flexibility Score: inf
ROOT
ATOM      1  C   UNL     1     116.143 110.009 106.349  1.00  0.00     0.020 C 
ATOM      2  C   UNL     1     116.711 109.812 107.771  1.00  0.00     0.027 C 
ATOM      3  C   UNL     1     117.658 110.995 108.185  1.00  0.00     0.003 C 
ATOM      4  C   UNL     1     118.075 110.882 109.674  1.00  0.00     0.005 C 
ATOM      5  C   UNL     1     118.983 109.632 109.689  1.00  0.00     0.015 C 
ATOM      6  C   UNL     1     119.052 109.249 108.197  1.00  0.00     0.027 C 
ATOM      7  C   UNL     1     118.983 110.608 107.530  1.00  0.00     0.019 C 
ATOM      8  C   UNL     1     117.711 108.693 107.808  1.00  0.00     0.144 C 
ATOM      9  O   UNL     1     117.456 107.511 107.626  1.00  0.00    -0.298 OA
ATOM     10  C   UNL     1     120.257 108.396 107.794  1.00  0.00     0.020 C 
ATOM     11  C   UNL     1     115.543 109.560 108.750  1.00  0.00     0.020 C 
ENDROOT
TORSDOF 0
ENDMDL
