MODEL 1
REMARK VINA RESULT:    -4.975      0.000      0.000
REMARK INTER + INTRA:          -5.692
REMARK INTER:                  -5.412
REMARK INTRA:                  -0.280
REMARK UNBOUND:                -0.280
REMARK SMILES C[C@@H]1[C@H](C)CC[C@@]2(C(=O)[O-])CC[C@@]3(C)C(=CC[C@H]4[C@]5(C)CC[C@@H](O)C(C)(C)[C@H]5CC[C@@]43C)[C@@H]12
REMARK SMILES IDX 7 1 6 2 11 3 33 4 5 5 12 6 15 7 2 8 3 9 13 10 16 11 1 12
REMARK SMILES IDX 4 13 14 14 31 15 17 16 18 17 30 18 32 19 19 20 29 21 28 22
REMARK SMILES IDX 21 23 20 24 25 25 22 26 23 27 26 28 27 29 8 30 9 31 10 32
REMARK SMILES IDX 24 33
REMARK H PARENT 24 34
REMARK Flexibility Score: inf
ROOT
ATOM      1  C   UNL     1    -104.944  25.987 -40.823  1.00  0.00     0.017 C 
ATOM      2  C   UNL     1    -106.280  25.733 -41.584  1.00  0.00     0.014 C 
ATOM      3  C   UNL     1    -104.013  24.716 -40.947  1.00  0.00     0.014 C 
ATOM      4  C   UNL     1    -104.225  27.303 -41.326  1.00  0.00     0.030 C 
ATOM      5  C   UNL     1    -106.141  25.872 -43.100  1.00  0.00     0.004 C 
ATOM      6  C   UNL     1    -102.701  24.903 -41.732  1.00  0.00     0.013 C 
ATOM      7  C   UNL     1    -102.767  27.283 -40.854  1.00  0.00    -0.063 C 
ATOM      8  C   UNL     1    -104.332  27.622 -42.863  1.00  0.00    -0.003 C 
ATOM      9  C   UNL     1    -105.714  27.290 -43.491  1.00  0.00    -0.011 C 
ATOM     10  C   UNL     1    -101.828  26.152 -41.325  1.00  0.00    -0.006 C 
ATOM     11  C   UNL     1    -102.326  28.263 -40.033  1.00  0.00    -0.027 C 
ATOM     12  C   UNL     1    -103.933  29.089 -43.151  1.00  0.00     0.008 C 
ATOM     13  C   UNL     1    -106.820  28.316 -43.166  1.00  0.00     0.008 C 
ATOM     14  C   UNL     1    -101.114  26.686 -42.638  1.00  0.00     0.017 C 
ATOM     15  C   UNL     1    -100.742  25.822 -40.174  1.00  0.00    -0.020 C 
ATOM     16  C   UNL     1    -100.997  28.247 -39.309  1.00  0.00     0.032 C 
ATOM     17  C   UNL     1    -100.001  27.186 -39.843  1.00  0.00     0.006 C 
ATOM     18  C   UNL     1     -99.745  24.699 -40.651  1.00  0.00     0.008 C 
ATOM     19  C   UNL     1    -101.442  25.275 -38.889  1.00  0.00     0.012 C 
ATOM     20  C   UNL     1     -98.598  27.099 -39.088  1.00  0.00    -0.025 C 
ATOM     21  C   UNL     1     -98.405  24.663 -39.913  1.00  0.00     0.005 C 
ATOM     22  C   UNL     1     -97.728  26.058 -39.895  1.00  0.00     0.003 C 
ATOM     23  C   UNL     1     -97.915  28.502 -39.174  1.00  0.00     0.010 C 
ATOM     24  C   UNL     1     -98.751  26.734 -37.572  1.00  0.00     0.012 C 
ATOM     25  C   UNL     1     -96.176  26.039 -39.578  1.00  0.00    -0.006 C 
ATOM     26  C   UNL     1     -96.422  28.492 -38.818  1.00  0.00     0.033 C 
ATOM     27  C   UNL     1     -95.634  27.500 -39.680  1.00  0.00     0.120 C 
ATOM     28  C   UNL     1     -95.436  25.204 -40.665  1.00  0.00     0.014 C 
ATOM     29  C   UNL     1     -95.832  25.404 -38.205  1.00  0.00     0.014 C 
ENDROOT
BRANCH   1  30
ATOM     30  C   UNL     1    -105.351  26.185 -39.355  1.00  0.00     0.048 C 
ATOM     31  O   UNL     1    -105.098  25.296 -38.500  1.00  0.00    -0.550 OA
ATOM     32  O   UNL     1    -105.831  27.409 -38.893  1.00  0.00    -0.550 OA
ENDBRANCH   1  30
BRANCH  27  33
ATOM     33  O   UNL     1     -94.268  27.552 -39.324  1.00  0.00    -0.393 OA
ATOM     34  H   UNL     1     -93.898  26.651 -39.527  1.00  0.00     0.210 HD
ENDBRANCH  27  33
TORSDOF 2
ENDMDL
MODEL 2
REMARK VINA RESULT:    -4.882      1.660      8.250
REMARK INTER + INTRA:          -5.591
REMARK INTER:                  -5.347
REMARK INTRA:                  -0.244
REMARK UNBOUND:                -0.280
REMARK SMILES C[C@@H]1[C@H](C)CC[C@@]2(C(=O)[O-])CC[C@@]3(C)C(=CC[C@H]4[C@]5(C)CC[C@@H](O)C(C)(C)[C@H]5CC[C@@]43C)[C@@H]12
REMARK SMILES IDX 7 1 6 2 11 3 33 4 5 5 12 6 15 7 2 8 3 9 13 10 16 11 1 12
REMARK SMILES IDX 4 13 14 14 31 15 17 16 18 17 30 18 32 19 19 20 29 21 28 22
REMARK SMILES IDX 21 23 20 24 25 25 22 26 23 27 26 28 27 29 8 30 9 31 10 32
REMARK SMILES IDX 24 33
REMARK H PARENT 24 34
REMARK Flexibility Score: inf
ROOT
ATOM      1  C   UNL     1     -96.199  25.280 -39.089  1.00  0.00     0.017 C 
ATOM      2  C   UNL     1     -94.902  24.598 -38.556  1.00  0.00     0.014 C 
ATOM      3  C   UNL     1     -97.300  24.181 -39.367  1.00  0.00     0.014 C 
ATOM      4  C   UNL     1     -96.715  26.404 -38.104  1.00  0.00     0.030 C 
ATOM      5  C   UNL     1     -95.000  24.195 -37.085  1.00  0.00     0.004 C 
ATOM      6  C   UNL     1     -98.561  24.238 -38.484  1.00  0.00     0.013 C 
ATOM      7  C   UNL     1     -98.168  26.744 -38.456  1.00  0.00    -0.063 C 
ATOM      8  C   UNL     1     -96.543  26.127 -36.564  1.00  0.00    -0.003 C 
ATOM      9  C   UNL     1     -95.214  25.416 -36.187  1.00  0.00    -0.011 C 
ATOM     10  C   UNL     1     -99.252  25.650 -38.361  1.00  0.00    -0.006 C 
ATOM     11  C   UNL     1     -98.475  28.003 -38.843  1.00  0.00    -0.027 C 
ATOM     12  C   UNL     1     -96.724  27.428 -35.746  1.00  0.00     0.008 C 
ATOM     13  C   UNL     1     -93.978  26.339 -36.194  1.00  0.00     0.008 C 
ATOM     14  C   UNL     1     -99.865  25.758 -36.901  1.00  0.00     0.017 C 
ATOM     15  C   UNL     1    -100.389  25.902 -39.482  1.00  0.00    -0.020 C 
ATOM     16  C   UNL     1     -99.802  28.422 -39.438  1.00  0.00     0.032 C 
ATOM     17  C   UNL     1    -100.933  27.377 -39.256  1.00  0.00     0.006 C 
ATOM     18  C   UNL     1    -101.530  24.820 -39.375  1.00  0.00     0.008 C 
ATOM     19  C   UNL     1     -99.792  25.773 -40.920  1.00  0.00     0.012 C 
ATOM     20  C   UNL     1    -102.344  27.749 -39.900  1.00  0.00    -0.025 C 
ATOM     21  C   UNL     1    -102.871  25.227 -39.989  1.00  0.00     0.005 C 
ATOM     22  C   UNL     1    -103.342  26.608 -39.463  1.00  0.00     0.003 C 
ATOM     23  C   UNL     1    -102.818  29.102 -39.274  1.00  0.00     0.010 C 
ATOM     24  C   UNL     1    -102.265  27.944 -41.453  1.00  0.00     0.012 C 
ATOM     25  C   UNL     1    -104.885  26.905 -39.665  1.00  0.00    -0.006 C 
ATOM     26  C   UNL     1    -104.302  29.413 -39.513  1.00  0.00     0.033 C 
ATOM     27  C   UNL     1    -105.212  28.286 -39.014  1.00  0.00     0.120 C 
ATOM     28  C   UNL     1    -105.722  25.835 -38.903  1.00  0.00     0.014 C 
ATOM     29  C   UNL     1    -105.335  26.861 -41.150  1.00  0.00     0.014 C 
ENDROOT
BRANCH   1  30
ATOM     30  C   UNL     1     -95.787  25.943 -40.412  1.00  0.00     0.048 C 
ATOM     31  O   UNL     1     -95.987  25.353 -41.507  1.00  0.00    -0.550 OA
ATOM     32  O   UNL     1     -95.365  27.270 -40.459  1.00  0.00    -0.550 OA
ENDBRANCH   1  30
BRANCH  27  33
ATOM     33  O   UNL     1    -106.560  28.638 -39.240  1.00  0.00    -0.393 OA
ATOM     34  H   UNL     1    -107.040  27.784 -39.416  1.00  0.00     0.210 HD
ENDBRANCH  27  33
TORSDOF 2
ENDMDL
MODEL 3
REMARK VINA RESULT:    -4.695      6.504     10.165
REMARK INTER + INTRA:          -5.388
REMARK INTER:                  -5.135
REMARK INTRA:                  -0.253
REMARK UNBOUND:                -0.280
REMARK SMILES C[C@@H]1[C@H](C)CC[C@@]2(C(=O)[O-])CC[C@@]3(C)C(=CC[C@H]4[C@]5(C)CC[C@@H](O)C(C)(C)[C@H]5CC[C@@]43C)[C@@H]12
REMARK SMILES IDX 7 1 6 2 11 3 33 4 5 5 12 6 15 7 2 8 3 9 13 10 16 11 1 12
REMARK SMILES IDX 4 13 14 14 31 15 17 16 18 17 30 18 32 19 19 20 29 21 28 22
REMARK SMILES IDX 21 23 20 24 25 25 22 26 23 27 26 28 27 29 8 30 9 31 10 32
REMARK SMILES IDX 24 33
REMARK H PARENT 24 34
REMARK Flexibility Score: inf
ROOT
ATOM      1  C   UNL     1     -96.249  24.988 -37.805  1.00  0.00     0.017 C 
ATOM      2  C   UNL     1     -96.370  24.743 -39.339  1.00  0.00     0.014 C 
ATOM      3  C   UNL     1     -97.679  24.891 -37.138  1.00  0.00     0.014 C 
ATOM      4  C   UNL     1     -95.212  24.000 -37.134  1.00  0.00     0.030 C 
ATOM      5  C   UNL     1     -96.536  23.266 -39.698  1.00  0.00     0.004 C 
ATOM      6  C   UNL     1     -97.896  23.728 -36.151  1.00  0.00     0.013 C 
ATOM      7  C   UNL     1     -95.431  24.004 -35.617  1.00  0.00    -0.063 C 
ATOM      8  C   UNL     1     -95.161  22.535 -37.708  1.00  0.00    -0.003 C 
ATOM      9  C   UNL     1     -95.323  22.446 -39.250  1.00  0.00    -0.011 C 
ATOM     10  C   UNL     1     -96.789  23.551 -35.041  1.00  0.00    -0.006 C 
ATOM     11  C   UNL     1     -94.424  24.402 -34.807  1.00  0.00    -0.027 C 
ATOM     12  C   UNL     1     -93.876  21.806 -37.245  1.00  0.00     0.008 C 
ATOM     13  C   UNL     1     -94.060  22.837 -40.044  1.00  0.00     0.008 C 
ATOM     14  C   UNL     1     -96.651  21.999 -34.746  1.00  0.00     0.017 C 
ATOM     15  C   UNL     1     -97.112  24.368 -33.684  1.00  0.00    -0.020 C 
ATOM     16  C   UNL     1     -94.569  24.678 -33.326  1.00  0.00     0.032 C 
ATOM     17  C   UNL     1     -95.882  24.134 -32.708  1.00  0.00     0.006 C 
ATOM     18  C   UNL     1     -98.476  23.891 -33.055  1.00  0.00     0.008 C 
ATOM     19  C   UNL     1     -97.272  25.895 -33.978  1.00  0.00     0.012 C 
ATOM     20  C   UNL     1     -96.105  24.433 -31.157  1.00  0.00    -0.025 C 
ATOM     21  C   UNL     1     -98.639  24.181 -31.561  1.00  0.00     0.005 C 
ATOM     22  C   UNL     1     -97.423  23.668 -30.747  1.00  0.00     0.003 C 
ATOM     23  C   UNL     1     -94.901  23.821 -30.370  1.00  0.00     0.010 C 
ATOM     24  C   UNL     1     -96.153  25.966 -30.839  1.00  0.00     0.012 C 
ATOM     25  C   UNL     1     -97.688  23.501 -29.194  1.00  0.00    -0.006 C 
ATOM     26  C   UNL     1     -95.138  23.705 -28.858  1.00  0.00     0.033 C 
ATOM     27  C   UNL     1     -96.404  22.904 -28.536  1.00  0.00     0.120 C 
ATOM     28  C   UNL     1     -98.833  22.470 -28.972  1.00  0.00     0.014 C 
ATOM     29  C   UNL     1     -98.120  24.818 -28.493  1.00  0.00     0.014 C 
ENDROOT
BRANCH   1  30
ATOM     30  C   UNL     1     -95.714  26.421 -37.669  1.00  0.00     0.048 C 
ATOM     31  O   UNL     1     -94.617  26.742 -38.199  1.00  0.00    -0.550 OA
ATOM     32  O   UNL     1     -96.496  27.442 -37.133  1.00  0.00    -0.550 OA
ENDBRANCH   1  30
BRANCH  27  33
ATOM     33  O   UNL     1     -96.556  22.812 -27.135  1.00  0.00    -0.393 OA
ATOM     34  H   UNL     1     -96.542  23.749 -26.797  1.00  0.00     0.210 HD
ENDBRANCH  27  33
TORSDOF 2
ENDMDL
MODEL 4
REMARK VINA RESULT:    -4.669      2.084      2.919
REMARK INTER + INTRA:          -5.359
REMARK INTER:                  -5.114
REMARK INTRA:                  -0.245
REMARK UNBOUND:                -0.280
REMARK SMILES C[C@@H]1[C@H](C)CC[C@@]2(C(=O)[O-])CC[C@@]3(C)C(=CC[C@H]4[C@]5(C)CC[C@@H](O)C(C)(C)[C@H]5CC[C@@]43C)[C@@H]12
REMARK SMILES IDX 7 1 6 2 11 3 33 4 5 5 12 6 15 7 2 8 3 9 13 10 16 11 1 12
REMARK SMILES IDX 4 13 14 14 31 15 17 16 18 17 30 18 32 19 19 20 29 21 28 22
REMARK SMILES IDX 21 23 20 24 25 25 22 26 23 27 26 28 27 29 8 30 9 31 10 32
REMARK SMILES IDX 24 33
REMARK H PARENT 24 34
REMARK Flexibility Score: inf
ROOT
ATOM      1  C   UNL     1    -103.764  28.473 -38.754  1.00  0.00     0.017 C 
ATOM      2  C   UNL     1    -105.272  28.678 -39.090  1.00  0.00     0.014 C 
ATOM      3  C   UNL     1    -103.582  27.140 -37.925  1.00  0.00     0.014 C 
ATOM      4  C   UNL     1    -102.867  28.490 -40.057  1.00  0.00     0.030 C 
ATOM      5  C   UNL     1    -105.756  27.792 -40.238  1.00  0.00     0.004 C 
ATOM      6  C   UNL     1    -102.786  26.012 -38.609  1.00  0.00     0.013 C 
ATOM      7  C   UNL     1    -101.496  27.891 -39.724  1.00  0.00    -0.063 C 
ATOM      8  C   UNL     1    -103.486  27.837 -41.349  1.00  0.00    -0.003 C 
ATOM      9  C   UNL     1    -105.005  28.105 -41.535  1.00  0.00    -0.011 C 
ATOM     10  C   UNL     1    -101.400  26.430 -39.236  1.00  0.00    -0.006 C 
ATOM     11  C   UNL     1    -100.390  28.656 -39.869  1.00  0.00    -0.027 C 
ATOM     12  C   UNL     1    -102.693  28.254 -42.611  1.00  0.00     0.008 C 
ATOM     13  C   UNL     1    -105.341  29.520 -42.048  1.00  0.00     0.008 C 
ATOM     14  C   UNL     1    -101.173  25.543 -40.531  1.00  0.00     0.017 C 
ATOM     15  C   UNL     1    -100.163  26.273 -38.207  1.00  0.00    -0.020 C 
ATOM     16  C   UNL     1     -99.013  28.282 -39.363  1.00  0.00     0.032 C 
ATOM     17  C   UNL     1     -98.870  26.790 -38.969  1.00  0.00     0.006 C 
ATOM     18  C   UNL     1    -100.020  24.779 -37.728  1.00  0.00     0.008 C 
ATOM     19  C   UNL     1    -100.396  27.129 -36.921  1.00  0.00     0.012 C 
ATOM     20  C   UNL     1     -97.449  26.350 -38.391  1.00  0.00    -0.025 C 
ATOM     21  C   UNL     1     -98.636  24.396 -37.199  1.00  0.00     0.005 C 
ATOM     22  C   UNL     1     -97.517  24.785 -38.200  1.00  0.00     0.003 C 
ATOM     23  C   UNL     1     -96.366  26.681 -39.469  1.00  0.00     0.010 C 
ATOM     24  C   UNL     1     -97.068  27.119 -37.080  1.00  0.00     0.012 C 
ATOM     25  C   UNL     1     -96.137  24.041 -37.974  1.00  0.00    -0.006 C 
ATOM     26  C   UNL     1     -95.013  25.999 -39.223  1.00  0.00     0.033 C 
ATOM     27  C   UNL     1     -95.151  24.477 -39.104  1.00  0.00     0.120 C 
ATOM     28  C   UNL     1     -96.346  22.505 -38.124  1.00  0.00     0.014 C 
ATOM     29  C   UNL     1     -95.525  24.281 -36.568  1.00  0.00     0.014 C 
ENDROOT
BRANCH   1  30
ATOM     30  C   UNL     1    -103.381  29.678 -37.883  1.00  0.00     0.048 C 
ATOM     31  O   UNL     1    -103.628  30.849 -38.274  1.00  0.00    -0.550 OA
ATOM     32  O   UNL     1    -102.931  29.515 -36.574  1.00  0.00    -0.550 OA
ENDBRANCH   1  30
BRANCH  27  33
ATOM     33  O   UNL     1     -93.875  23.906 -38.902  1.00  0.00    -0.393 OA
ATOM     34  H   UNL     1     -93.776  23.204 -39.601  1.00  0.00     0.210 HD
ENDBRANCH  27  33
TORSDOF 2
ENDMDL
MODEL 5
REMARK VINA RESULT:    -4.603      2.237      7.982
REMARK INTER + INTRA:          -5.287
REMARK INTER:                  -5.011
REMARK INTRA:                  -0.275
REMARK UNBOUND:                -0.280
REMARK SMILES C[C@@H]1[C@H](C)CC[C@@]2(C(=O)[O-])CC[C@@]3(C)C(=CC[C@H]4[C@]5(C)CC[C@@H](O)C(C)(C)[C@H]5CC[C@@]43C)[C@@H]12
REMARK SMILES IDX 7 1 6 2 11 3 33 4 5 5 12 6 15 7 2 8 3 9 13 10 16 11 1 12
REMARK SMILES IDX 4 13 14 14 31 15 17 16 18 17 30 18 32 19 19 20 29 21 28 22
REMARK SMILES IDX 21 23 20 24 25 25 22 26 23 27 26 28 27 29 8 30 9 31 10 32
REMARK SMILES IDX 24 33
REMARK H PARENT 24 34
REMARK Flexibility Score: inf
ROOT
ATOM      1  C   UNL     1     -97.487  24.630 -37.475  1.00  0.00     0.017 C 
ATOM      2  C   UNL     1     -96.254  24.511 -36.529  1.00  0.00     0.014 C 
ATOM      3  C   UNL     1     -98.716  25.216 -36.672  1.00  0.00     0.014 C 
ATOM      4  C   UNL     1     -97.155  25.485 -38.764  1.00  0.00     0.030 C 
ATOM      5  C   UNL     1     -95.564  25.851 -36.275  1.00  0.00     0.004 C 
ATOM      6  C   UNL     1     -99.221  26.604 -37.112  1.00  0.00     0.013 C 
ATOM      7  C   UNL     1     -98.469  25.905 -39.432  1.00  0.00    -0.063 C 
ATOM      8  C   UNL     1     -96.187  26.711 -38.568  1.00  0.00    -0.003 C 
ATOM      9  C   UNL     1     -95.022  26.453 -37.574  1.00  0.00    -0.011 C 
ATOM     10  C   UNL     1     -99.471  26.787 -38.658  1.00  0.00    -0.006 C 
ATOM     11  C   UNL     1     -98.725  25.496 -40.696  1.00  0.00    -0.027 C 
ATOM     12  C   UNL     1     -95.651  27.213 -39.930  1.00  0.00     0.008 C 
ATOM     13  C   UNL     1     -93.875  25.596 -38.151  1.00  0.00     0.008 C 
ATOM     14  C   UNL     1     -99.117  28.289 -39.026  1.00  0.00     0.017 C 
ATOM     15  C   UNL     1    -100.982  26.427 -39.106  1.00  0.00    -0.020 C 
ATOM     16  C   UNL     1    -100.063  25.635 -41.391  1.00  0.00     0.032 C 
ATOM     17  C   UNL     1    -101.045  26.602 -40.682  1.00  0.00     0.006 C 
ATOM     18  C   UNL     1    -102.021  27.346 -38.358  1.00  0.00     0.008 C 
ATOM     19  C   UNL     1    -101.340  24.955 -38.723  1.00  0.00     0.012 C 
ATOM     20  C   UNL     1    -102.486  26.755 -41.350  1.00  0.00    -0.025 C 
ATOM     21  C   UNL     1    -103.383  27.479 -39.044  1.00  0.00     0.005 C 
ATOM     22  C   UNL     1    -103.232  27.880 -40.534  1.00  0.00     0.003 C 
ATOM     23  C   UNL     1    -102.286  27.246 -42.821  1.00  0.00     0.010 C 
ATOM     24  C   UNL     1    -103.272  25.401 -41.401  1.00  0.00     0.012 C 
ATOM     25  C   UNL     1    -104.541  28.481 -41.195  1.00  0.00    -0.006 C 
ATOM     26  C   UNL     1    -103.565  27.782 -43.478  1.00  0.00     0.033 C 
ATOM     27  C   UNL     1    -104.203  28.908 -42.659  1.00  0.00     0.120 C 
ATOM     28  C   UNL     1    -104.961  29.772 -40.431  1.00  0.00     0.014 C 
ATOM     29  C   UNL     1    -105.755  27.514 -41.156  1.00  0.00     0.014 C 
ENDROOT
BRANCH   1  30
ATOM     30  C   UNL     1     -97.796  23.191 -37.912  1.00  0.00     0.048 C 
ATOM     31  O   UNL     1     -98.894  22.656 -37.604  1.00  0.00    -0.550 OA
ATOM     32  O   UNL     1     -96.973  22.510 -38.807  1.00  0.00    -0.550 OA
ENDBRANCH   1  30
BRANCH  27  33
ATOM     33  O   UNL     1    -105.359  29.374 -43.323  1.00  0.00    -0.393 OA
ATOM     34  H   UNL     1    -105.415  28.855 -44.170  1.00  0.00     0.210 HD
ENDBRANCH  27  33
TORSDOF 2
ENDMDL
MODEL 6
REMARK VINA RESULT:    -4.591     11.655     14.037
REMARK INTER + INTRA:          -5.274
REMARK INTER:                  -4.997
REMARK INTRA:                  -0.277
REMARK UNBOUND:                -0.280
REMARK SMILES C[C@@H]1[C@H](C)CC[C@@]2(C(=O)[O-])CC[C@@]3(C)C(=CC[C@H]4[C@]5(C)CC[C@@H](O)C(C)(C)[C@H]5CC[C@@]43C)[C@@H]12
REMARK SMILES IDX 7 1 6 2 11 3 33 4 5 5 12 6 15 7 2 8 3 9 13 10 16 11 1 12
REMARK SMILES IDX 4 13 14 14 31 15 17 16 18 17 30 18 32 19 19 20 29 21 28 22
REMARK SMILES IDX 21 23 20 24 25 25 22 26 23 27 26 28 27 29 8 30 9 31 10 32
REMARK SMILES IDX 24 33
REMARK H PARENT 24 34
REMARK Flexibility Score: inf
ROOT
ATOM      1  C   UNL     1    -104.785  28.747 -26.604  1.00  0.00     0.017 C 
ATOM      2  C   UNL     1    -105.877  29.522 -25.807  1.00  0.00     0.014 C 
ATOM      3  C   UNL     1    -103.382  29.444 -26.396  1.00  0.00     0.014 C 
ATOM      4  C   UNL     1    -104.752  27.214 -26.212  1.00  0.00     0.030 C 
ATOM      5  C   UNL     1    -105.850  29.222 -24.308  1.00  0.00     0.004 C 
ATOM      6  C   UNL     1    -102.315  28.624 -25.646  1.00  0.00     0.013 C 
ATOM      7  C   UNL     1    -103.433  26.605 -26.701  1.00  0.00    -0.063 C 
ATOM      8  C   UNL     1    -105.026  26.866 -24.702  1.00  0.00    -0.003 C 
ATOM      9  C   UNL     1    -106.121  27.740 -24.032  1.00  0.00    -0.011 C 
ATOM     10  C   UNL     1    -102.094  27.149 -26.159  1.00  0.00    -0.006 C 
ATOM     11  C   UNL     1    -103.467  25.596 -27.600  1.00  0.00    -0.027 C 
ATOM     12  C   UNL     1    -105.342  25.360 -24.532  1.00  0.00     0.008 C 
ATOM     13  C   UNL     1    -107.564  27.355 -24.418  1.00  0.00     0.008 C 
ATOM     14  C   UNL     1    -101.729  26.254 -24.900  1.00  0.00     0.017 C 
ATOM     15  C   UNL     1    -100.952  27.034 -27.296  1.00  0.00    -0.020 C 
ATOM     16  C   UNL     1    -102.259  25.060 -28.340  1.00  0.00     0.032 C 
ATOM     17  C   UNL     1    -100.902  25.511 -27.741  1.00  0.00     0.006 C 
ATOM     18  C   UNL     1     -99.565  27.545 -26.750  1.00  0.00     0.008 C 
ATOM     19  C   UNL     1    -101.299  27.934 -28.526  1.00  0.00     0.012 C 
ATOM     20  C   UNL     1     -99.596  25.009 -28.506  1.00  0.00    -0.025 C 
ATOM     21  C   UNL     1     -98.338  27.023 -27.501  1.00  0.00     0.005 C 
ATOM     22  C   UNL     1     -98.367  25.478 -27.634  1.00  0.00     0.003 C 
ATOM     23  C   UNL     1     -99.625  23.446 -28.537  1.00  0.00     0.010 C 
ATOM     24  C   UNL     1     -99.534  25.514 -29.988  1.00  0.00     0.012 C 
ATOM     25  C   UNL     1     -96.968  24.815 -27.970  1.00  0.00    -0.006 C 
ATOM     26  C   UNL     1     -98.282  22.804 -28.911  1.00  0.00     0.033 C 
ATOM     27  C   UNL     1     -97.149  23.264 -27.988  1.00  0.00     0.120 C 
ATOM     28  C   UNL     1     -95.954  25.140 -26.834  1.00  0.00     0.014 C 
ATOM     29  C   UNL     1     -96.343  25.324 -29.297  1.00  0.00     0.014 C 
ENDROOT
BRANCH   1  30
ATOM     30  C   UNL     1    -105.205  28.864 -28.076  1.00  0.00     0.048 C 
ATOM     31  O   UNL     1    -104.529  29.563 -28.876  1.00  0.00    -0.550 OA
ATOM     32  O   UNL     1    -106.215  28.065 -28.609  1.00  0.00    -0.550 OA
ENDBRANCH   1  30
BRANCH  27  33
ATOM     33  O   UNL     1     -95.948  22.625 -28.366  1.00  0.00    -0.393 OA
ATOM     34  H   UNL     1     -95.745  21.974 -27.641  1.00  0.00     0.210 HD
ENDBRANCH  27  33
TORSDOF 2
ENDMDL
MODEL 7
REMARK VINA RESULT:    -4.579      2.500      3.982
REMARK INTER + INTRA:          -5.261
REMARK INTER:                  -4.981
REMARK INTRA:                  -0.281
REMARK UNBOUND:                -0.280
REMARK SMILES C[C@@H]1[C@H](C)CC[C@@]2(C(=O)[O-])CC[C@@]3(C)C(=CC[C@H]4[C@]5(C)CC[C@@H](O)C(C)(C)[C@H]5CC[C@@]43C)[C@@H]12
REMARK SMILES IDX 7 1 6 2 11 3 33 4 5 5 12 6 15 7 2 8 3 9 13 10 16 11 1 12
REMARK SMILES IDX 4 13 14 14 31 15 17 16 18 17 30 18 32 19 19 20 29 21 28 22
REMARK SMILES IDX 21 23 20 24 25 25 22 26 23 27 26 28 27 29 8 30 9 31 10 32
REMARK SMILES IDX 24 33
REMARK H PARENT 24 34
REMARK Flexibility Score: inf
ROOT
ATOM      1  C   UNL     1    -102.669  27.184 -42.374  1.00  0.00     0.017 C 
ATOM      2  C   UNL     1    -103.589  27.891 -43.415  1.00  0.00     0.014 C 
ATOM      3  C   UNL     1    -101.299  27.963 -42.262  1.00  0.00     0.014 C 
ATOM      4  C   UNL     1    -103.384  27.031 -40.971  1.00  0.00     0.030 C 
ATOM      5  C   UNL     1    -104.250  29.156 -42.868  1.00  0.00     0.004 C 
ATOM      6  C   UNL     1    -101.004  28.637 -40.909  1.00  0.00     0.013 C 
ATOM      7  C   UNL     1    -102.326  26.717 -39.907  1.00  0.00    -0.063 C 
ATOM      8  C   UNL     1    -104.321  28.213 -40.524  1.00  0.00    -0.003 C 
ATOM      9  C   UNL     1    -105.156  28.838 -41.675  1.00  0.00    -0.011 C 
ATOM     10  C   UNL     1    -101.196  27.731 -39.632  1.00  0.00    -0.006 C 
ATOM     11  C   UNL     1    -102.404  25.553 -39.224  1.00  0.00    -0.027 C 
ATOM     12  C   UNL     1    -105.234  27.780 -39.352  1.00  0.00     0.008 C 
ATOM     13  C   UNL     1    -106.372  27.992 -42.107  1.00  0.00     0.008 C 
ATOM     14  C   UNL     1    -101.712  28.663 -38.457  1.00  0.00     0.017 C 
ATOM     15  C   UNL     1     -99.849  26.951 -39.197  1.00  0.00    -0.020 C 
ATOM     16  C   UNL     1    -101.317  25.008 -38.322  1.00  0.00     0.032 C 
ATOM     17  C   UNL     1    -100.229  26.047 -37.949  1.00  0.00     0.006 C 
ATOM     18  C   UNL     1     -98.692  27.970 -38.869  1.00  0.00     0.008 C 
ATOM     19  C   UNL     1     -99.326  26.050 -40.362  1.00  0.00     0.012 C 
ATOM     20  C   UNL     1     -99.035  25.515 -37.033  1.00  0.00    -0.025 C 
ATOM     21  C   UNL     1     -97.579  27.424 -37.973  1.00  0.00     0.005 C 
ATOM     22  C   UNL     1     -98.151  26.776 -36.686  1.00  0.00     0.003 C 
ATOM     23  C   UNL     1     -99.654  24.953 -35.712  1.00  0.00     0.010 C 
ATOM     24  C   UNL     1     -98.226  24.357 -37.711  1.00  0.00     0.012 C 
ATOM     25  C   UNL     1     -97.106  26.602 -35.509  1.00  0.00    -0.006 C 
ATOM     26  C   UNL     1     -98.632  24.738 -34.587  1.00  0.00     0.033 C 
ATOM     27  C   UNL     1     -97.852  26.017 -34.268  1.00  0.00     0.120 C 
ATOM     28  C   UNL     1     -96.558  27.999 -35.092  1.00  0.00     0.014 C 
ATOM     29  C   UNL     1     -95.880  25.729 -35.892  1.00  0.00     0.014 C 
ENDROOT
BRANCH   1  30
ATOM     30  C   UNL     1    -102.419  25.782 -42.949  1.00  0.00     0.048 C 
ATOM     31  O   UNL     1    -101.290  25.480 -43.418  1.00  0.00    -0.550 OA
ATOM     32  O   UNL     1    -103.352  24.757 -42.798  1.00  0.00    -0.550 OA
ENDBRANCH   1  30
BRANCH  27  33
ATOM     33  O   UNL     1     -96.947  25.764 -33.214  1.00  0.00    -0.393 OA
ATOM     34  H   UNL     1     -97.465  25.271 -32.522  1.00  0.00     0.210 HD
ENDBRANCH  27  33
TORSDOF 2
ENDMDL
MODEL 8
REMARK VINA RESULT:    -4.556      6.219     10.700
REMARK INTER + INTRA:          -5.236
REMARK INTER:                  -4.966
REMARK INTRA:                  -0.269
REMARK UNBOUND:                -0.280
REMARK SMILES C[C@@H]1[C@H](C)CC[C@@]2(C(=O)[O-])CC[C@@]3(C)C(=CC[C@H]4[C@]5(C)CC[C@@H](O)C(C)(C)[C@H]5CC[C@@]43C)[C@@H]12
REMARK SMILES IDX 7 1 6 2 11 3 33 4 5 5 12 6 15 7 2 8 3 9 13 10 16 11 1 12
REMARK SMILES IDX 4 13 14 14 31 15 17 16 18 17 30 18 32 19 19 20 29 21 28 22
REMARK SMILES IDX 21 23 20 24 25 25 22 26 23 27 26 28 27 29 8 30 9 31 10 32
REMARK SMILES IDX 24 33
REMARK H PARENT 24 34
REMARK Flexibility Score: inf
ROOT
ATOM      1  C   UNL     1     -97.022  25.709 -29.851  1.00  0.00     0.017 C 
ATOM      2  C   UNL     1     -97.339  26.005 -28.354  1.00  0.00     0.014 C 
ATOM      3  C   UNL     1     -98.301  26.002 -30.732  1.00  0.00     0.014 C 
ATOM      4  C   UNL     1     -95.757  26.516 -30.352  1.00  0.00     0.030 C 
ATOM      5  C   UNL     1     -97.334  27.498 -28.026  1.00  0.00     0.004 C 
ATOM      6  C   UNL     1     -98.186  27.161 -31.741  1.00  0.00     0.013 C 
ATOM      7  C   UNL     1     -95.738  26.508 -31.884  1.00  0.00    -0.063 C 
ATOM      8  C   UNL     1     -95.574  27.970 -29.777  1.00  0.00    -0.003 C 
ATOM      9  C   UNL     1     -95.957  28.118 -28.279  1.00  0.00    -0.011 C 
ATOM     10  C   UNL     1     -96.908  27.145 -32.665  1.00  0.00    -0.006 C 
ATOM     11  C   UNL     1     -94.690  25.945 -32.528  1.00  0.00    -0.027 C 
ATOM     12  C   UNL     1     -94.139  28.488 -30.035  1.00  0.00     0.008 C 
ATOM     13  C   UNL     1     -94.904  27.562 -27.298  1.00  0.00     0.008 C 
ATOM     14  C   UNL     1     -96.493  28.652 -32.935  1.00  0.00     0.017 C 
ATOM     15  C   UNL     1     -97.137  26.353 -34.055  1.00  0.00    -0.020 C 
ATOM     16  C   UNL     1     -94.645  25.659 -34.014  1.00  0.00     0.032 C 
ATOM     17  C   UNL     1     -95.751  26.378 -34.828  1.00  0.00     0.006 C 
ATOM     18  C   UNL     1     -98.300  27.013 -34.889  1.00  0.00     0.008 C 
ATOM     19  C   UNL     1     -97.568  24.875 -33.790  1.00  0.00     0.012 C 
ATOM     20  C   UNL     1     -95.775  26.079 -36.395  1.00  0.00    -0.025 C 
ATOM     21  C   UNL     1     -98.273  26.715 -36.390  1.00  0.00     0.005 C 
ATOM     22  C   UNL     1     -96.883  27.022 -37.006  1.00  0.00     0.003 C 
ATOM     23  C   UNL     1     -94.385  26.487 -36.985  1.00  0.00     0.010 C 
ATOM     24  C   UNL     1     -96.004  24.563 -36.716  1.00  0.00     0.012 C 
ATOM     25  C   UNL     1     -96.878  27.190 -38.581  1.00  0.00    -0.006 C 
ATOM     26  C   UNL     1     -94.367  26.601 -38.516  1.00  0.00     0.033 C 
ATOM     27  C   UNL     1     -95.432  27.574 -39.031  1.00  0.00     0.120 C 
ATOM     28  C   UNL     1     -97.806  28.375 -38.979  1.00  0.00     0.014 C 
ATOM     29  C   UNL     1     -97.390  25.936 -39.340  1.00  0.00     0.014 C 
ENDROOT
BRANCH   1  30
ATOM     30  C   UNL     1     -96.695  24.209 -29.901  1.00  0.00     0.048 C 
ATOM     31  O   UNL     1     -97.549  23.386 -30.324  1.00  0.00    -0.550 OA
ATOM     32  O   UNL     1     -95.404  23.739 -29.668  1.00  0.00    -0.550 OA
ENDBRANCH   1  30
BRANCH  27  33
ATOM     33  O   UNL     1     -95.352  27.654 -40.439  1.00  0.00    -0.393 OA
ATOM     34  H   UNL     1     -95.668  28.567 -40.679  1.00  0.00     0.210 HD
ENDBRANCH  27  33
TORSDOF 2
ENDMDL
MODEL 9
REMARK VINA RESULT:    -4.412      4.486      8.169
REMARK INTER + INTRA:          -5.079
REMARK INTER:                  -4.846
REMARK INTRA:                  -0.233
REMARK UNBOUND:                -0.280
REMARK SMILES C[C@@H]1[C@H](C)CC[C@@]2(C(=O)[O-])CC[C@@]3(C)C(=CC[C@H]4[C@]5(C)CC[C@@H](O)C(C)(C)[C@H]5CC[C@@]43C)[C@@H]12
REMARK SMILES IDX 7 1 6 2 11 3 33 4 5 5 12 6 15 7 2 8 3 9 13 10 16 11 1 12
REMARK SMILES IDX 4 13 14 14 31 15 17 16 18 17 30 18 32 19 19 20 29 21 28 22
REMARK SMILES IDX 21 23 20 24 25 25 22 26 23 27 26 28 27 29 8 30 9 31 10 32
REMARK SMILES IDX 24 33
REMARK H PARENT 24 34
REMARK Flexibility Score: inf
ROOT
ATOM      1  C   UNL     1     -96.698  26.321 -38.759  1.00  0.00     0.017 C 
ATOM      2  C   UNL     1     -97.296  27.499 -37.933  1.00  0.00     0.014 C 
ATOM      3  C   UNL     1     -96.398  25.100 -37.801  1.00  0.00     0.014 C 
ATOM      4  C   UNL     1     -97.639  25.915 -39.964  1.00  0.00     0.030 C 
ATOM      5  C   UNL     1     -98.770  27.296 -37.582  1.00  0.00     0.004 C 
ATOM      6  C   UNL     1     -97.229  23.824 -38.039  1.00  0.00     0.013 C 
ATOM      7  C   UNL     1     -97.221  24.531 -40.475  1.00  0.00    -0.063 C 
ATOM      8  C   UNL     1     -99.189  25.993 -39.707  1.00  0.00    -0.003 C 
ATOM      9  C   UNL     1     -99.634  27.206 -38.844  1.00  0.00    -0.011 C 
ATOM     10  C   UNL     1     -97.295  23.314 -39.530  1.00  0.00    -0.006 C 
ATOM     11  C   UNL     1     -96.797  24.401 -41.753  1.00  0.00    -0.027 C 
ATOM     12  C   UNL     1     -99.973  25.948 -41.041  1.00  0.00     0.008 C 
ATOM     13  C   UNL     1     -99.658  28.549 -39.603  1.00  0.00     0.008 C 
ATOM     14  C   UNL     1     -98.727  22.666 -39.751  1.00  0.00     0.017 C 
ATOM     15  C   UNL     1     -96.125  22.261 -39.895  1.00  0.00    -0.020 C 
ATOM     16  C   UNL     1     -96.141  23.161 -42.321  1.00  0.00     0.032 C 
ATOM     17  C   UNL     1     -96.299  21.901 -41.432  1.00  0.00     0.006 C 
ATOM     18  C   UNL     1     -96.208  20.988 -38.969  1.00  0.00     0.008 C 
ATOM     19  C   UNL     1     -94.715  22.889 -39.655  1.00  0.00     0.012 C 
ATOM     20  C   UNL     1     -95.591  20.574 -41.963  1.00  0.00    -0.025 C 
ATOM     21  C   UNL     1     -95.532  19.734 -39.526  1.00  0.00     0.005 C 
ATOM     22  C   UNL     1     -96.011  19.423 -40.968  1.00  0.00     0.003 C 
ATOM     23  C   UNL     1     -96.169  20.252 -43.379  1.00  0.00     0.010 C 
ATOM     24  C   UNL     1     -94.039  20.734 -42.106  1.00  0.00     0.012 C 
ATOM     25  C   UNL     1     -95.740  17.938 -41.451  1.00  0.00    -0.006 C 
ATOM     26  C   UNL     1     -95.865  18.830 -43.869  1.00  0.00     0.033 C 
ATOM     27  C   UNL     1     -96.350  17.766 -42.879  1.00  0.00     0.120 C 
ATOM     28  C   UNL     1     -96.490  16.945 -40.515  1.00  0.00     0.014 C 
ATOM     29  C   UNL     1     -94.240  17.542 -41.427  1.00  0.00     0.014 C 
ENDROOT
BRANCH   1  30
ATOM     30  C   UNL     1     -95.380  26.862 -39.331  1.00  0.00     0.048 C 
ATOM     31  O   UNL     1     -95.383  27.572 -40.372  1.00  0.00    -0.550 OA
ATOM     32  O   UNL     1     -94.182  26.751 -38.628  1.00  0.00    -0.550 OA
ENDBRANCH   1  30
BRANCH  27  33
ATOM     33  O   UNL     1     -96.063  16.482 -43.393  1.00  0.00    -0.393 OA
ATOM     34  H   UNL     1     -96.410  16.477 -44.326  1.00  0.00     0.210 HD
ENDBRANCH  27  33
TORSDOF 2
ENDMDL
