MODEL 1
REMARK VINA RESULT:    64.795      0.000      0.000
REMARK INTER + INTRA:          99.933
REMARK INTER:                  93.205
REMARK INTRA:                   6.728
REMARK UNBOUND:                 6.728
REMARK SMILES O=c1c(O[C@H]2O[C@H](CO)[C@@H](O)[C@@H](O)[C@H]2O)c(-c2ccc(O)cc2)oc2cc(O)cc(O)c12
REMARK SMILES IDX 4 1 3 2 16 3 24 4 2 5 25 6 1 7 32 8 26 9 30 10 27 11 29 12
REMARK SMILES IDX 17 13 18 14 19 15 20 16 23 17 22 18 21 19 31 21 28 23 5 25
REMARK SMILES IDX 14 26 6 27 12 28 7 29 10 30 15 31 13 33 8 35 9 36 11 38
REMARK H PARENT 21 20 31 22 28 24 15 32 13 34 9 37 11 39
REMARK Flexibility Score: inf
ROOT
ATOM      1  O   UNL     1      -0.578  -0.792   2.028  1.00  0.00    -0.454 OA
ENDROOT
BRANCH   1   2
ATOM      2  C   UNL     1      -0.883   0.447   1.429  1.00  0.00     0.214 A 
ATOM      3  C   UNL     1       0.149   1.135   0.754  1.00  0.00     0.180 A 
ATOM      4  O   UNL     1      -0.101   2.300   0.165  1.00  0.00    -0.452 OA
ATOM      5  C   UNL     1      -2.173   1.031   1.449  1.00  0.00     0.239 A 
ATOM      6  C   UNL     1      -1.288   2.887   0.175  1.00  0.00     0.146 A 
ATOM      7  O   UNL     1      -3.131   0.442   2.015  1.00  0.00    -0.285 OA
ATOM      8  C   UNL     1      -2.387   2.275   0.819  1.00  0.00     0.111 A 
ATOM      9  C   UNL     1      -1.440   4.125  -0.458  1.00  0.00     0.094 A 
ATOM     10  C   UNL     1      -3.645   2.930   0.805  1.00  0.00     0.134 A 
ATOM     11  C   UNL     1      -2.679   4.771  -0.459  1.00  0.00     0.123 A 
ATOM     12  C   UNL     1      -3.773   4.173   0.164  1.00  0.00     0.093 A 
BRANCH   3  13
ATOM     13  C   UNL     1       1.530   0.600   0.656  1.00  0.00     0.021 A 
ATOM     14  C   UNL     1       2.162   0.112   1.813  1.00  0.00     0.016 A 
ATOM     15  C   UNL     1       3.453  -0.421   1.745  1.00  0.00     0.047 A 
ATOM     16  C   UNL     1       4.129  -0.478   0.524  1.00  0.00     0.115 A 
ATOM     17  C   UNL     1       2.202   0.500  -0.577  1.00  0.00     0.016 A 
ATOM     18  C   UNL     1       3.497  -0.023  -0.637  1.00  0.00     0.047 A 
BRANCH  16  19
ATOM     19  O   UNL     1       5.421  -0.995   0.475  1.00  0.00    -0.508 OA
ATOM     20  H   UNL     1       5.898  -1.156  -0.404  1.00  0.00     0.293 HD
ENDBRANCH  16  19
ENDBRANCH   3  13
BRANCH  10  21
ATOM     21  O   UNL     1      -4.759   2.359   1.418  1.00  0.00    -0.507 OA
ATOM     22  H   UNL     1      -5.005   2.569   2.378  1.00  0.00     0.293 HD
ENDBRANCH  10  21
BRANCH  11  23
ATOM     23  O   UNL     1      -2.834   6.011  -1.075  1.00  0.00    -0.508 OA
ATOM     24  H   UNL     1      -2.218   6.788  -0.862  1.00  0.00     0.293 HD
ENDBRANCH  11  23
ENDBRANCH   1   2
BRANCH   1  25
ATOM     25  C   UNL     1      -1.090  -2.080   1.669  1.00  0.00     0.339 C 
ATOM     26  C   UNL     1       0.044  -3.123   1.618  1.00  0.00     0.214 C 
ATOM     27  O   UNL     1      -1.795  -2.034   0.438  1.00  0.00    -0.332 OA
ATOM     28  C   UNL     1       0.992  -2.843   0.444  1.00  0.00     0.180 C 
ATOM     29  C   UNL     1      -0.956  -1.634  -0.635  1.00  0.00     0.179 C 
ATOM     30  C   UNL     1       0.179  -2.667  -0.852  1.00  0.00     0.177 C 
BRANCH  26  31
ATOM     31  O   UNL     1       0.768  -3.124   2.821  1.00  0.00    -0.384 OA
ATOM     32  H   UNL     1       0.551  -3.974   3.286  1.00  0.00     0.211 HD
ENDBRANCH  26  31
BRANCH  28  33
ATOM     33  O   UNL     1       1.750  -1.685   0.707  1.00  0.00    -0.387 OA
ATOM     34  H   UNL     1       2.263  -1.480  -0.118  1.00  0.00     0.211 HD
ENDBRANCH  28  33
BRANCH  29  35
ATOM     35  C   UNL     1      -1.832  -1.505  -1.889  1.00  0.00     0.191 C 
BRANCH  35  36
ATOM     36  O   UNL     1      -1.240  -2.175  -2.970  1.00  0.00    -0.394 OA
ATOM     37  H   UNL     1      -0.738  -2.947  -2.595  1.00  0.00     0.210 HD
ENDBRANCH  35  36
ENDBRANCH  29  35
BRANCH  30  38
ATOM     38  O   UNL     1       1.023  -2.250  -1.895  1.00  0.00    -0.387 OA
ATOM     39  H   UNL     1       0.988  -1.256  -1.910  1.00  0.00     0.211 HD
ENDBRANCH  30  38
ENDBRANCH   1  25
TORSDOF 11
ENDMDL
MODEL 2
REMARK VINA RESULT:    66.910      2.259      3.749
REMARK INTER + INTRA:         102.975
REMARK INTER:                  98.433
REMARK INTRA:                   4.541
REMARK UNBOUND:                 6.728
REMARK SMILES O=c1c(O[C@H]2O[C@H](CO)[C@@H](O)[C@@H](O)[C@H]2O)c(-c2ccc(O)cc2)oc2cc(O)cc(O)c12
REMARK SMILES IDX 4 1 3 2 16 3 24 4 2 5 25 6 1 7 32 8 26 9 30 10 27 11 29 12
REMARK SMILES IDX 17 13 18 14 19 15 20 16 23 17 22 18 21 19 31 21 28 23 5 25
REMARK SMILES IDX 14 26 6 27 12 28 7 29 10 30 15 31 13 33 8 35 9 36 11 38
REMARK H PARENT 21 20 31 22 28 24 15 32 13 34 9 37 11 39
REMARK Flexibility Score: inf
ROOT
ATOM      1  O   UNL     1       0.334   0.054  -0.988  1.00  0.00    -0.454 OA
ENDROOT
BRANCH   1   2
ATOM      2  C   UNL     1       0.720   1.409  -0.996  1.00  0.00     0.214 A 
ATOM      3  C   UNL     1       2.019   1.738  -0.553  1.00  0.00     0.180 A 
ATOM      4  O   UNL     1       2.426   3.003  -0.558  1.00  0.00    -0.452 OA
ATOM      5  C   UNL     1      -0.119   2.459  -1.443  1.00  0.00     0.239 A 
ATOM      6  C   UNL     1       1.668   4.015  -0.952  1.00  0.00     0.146 A 
ATOM      7  O   UNL     1      -1.276   2.213  -1.872  1.00  0.00    -0.285 OA
ATOM      8  C   UNL     1       0.353   3.789  -1.418  1.00  0.00     0.111 A 
ATOM      9  C   UNL     1       2.184   5.313  -0.897  1.00  0.00     0.094 A 
ATOM     10  C   UNL     1      -0.428   4.896  -1.837  1.00  0.00     0.134 A 
ATOM     11  C   UNL     1       1.407   6.402  -1.301  1.00  0.00     0.123 A 
ATOM     12  C   UNL     1       0.112   6.190  -1.772  1.00  0.00     0.093 A 
BRANCH   3  13
ATOM     13  C   UNL     1       2.983   0.709  -0.085  1.00  0.00     0.021 A 
ATOM     14  C   UNL     1       3.883   0.142  -1.005  1.00  0.00     0.016 A 
ATOM     15  C   UNL     1       4.818  -0.810  -0.586  1.00  0.00     0.047 A 
ATOM     16  C   UNL     1       4.871  -1.206   0.753  1.00  0.00     0.115 A 
ATOM     17  C   UNL     1       3.071   0.336   1.269  1.00  0.00     0.016 A 
ATOM     18  C   UNL     1       4.000  -0.625   1.680  1.00  0.00     0.047 A 
BRANCH  16  19
ATOM     19  O   UNL     1       5.795  -2.168   1.150  1.00  0.00    -0.508 OA
ATOM     20  H   UNL     1       5.726  -2.635   2.046  1.00  0.00     0.293 HD
ENDBRANCH  16  19
ENDBRANCH   3  13
BRANCH  10  21
ATOM     21  O   UNL     1      -1.726   4.720  -2.316  1.00  0.00    -0.507 OA
ATOM     22  H   UNL     1      -1.963   3.959  -2.941  1.00  0.00     0.293 HD
ENDBRANCH  10  21
BRANCH  11  23
ATOM     23  O   UNL     1       1.909   7.699  -1.235  1.00  0.00    -0.508 OA
ATOM     24  H   UNL     1       2.756   7.964  -1.726  1.00  0.00     0.293 HD
ENDBRANCH  11  23
ENDBRANCH   1   2
BRANCH   1  25
ATOM     25  C   UNL     1       1.178  -1.088  -0.801  1.00  0.00     0.339 C 
ATOM     26  C   UNL     1       0.552  -2.340  -1.448  1.00  0.00     0.214 C 
ATOM     27  O   UNL     1       1.453  -1.310   0.573  1.00  0.00    -0.332 OA
ATOM     28  C   UNL     1      -0.709  -2.776  -0.691  1.00  0.00     0.180 C 
ATOM     29  C   UNL     1       0.270  -1.573   1.313  1.00  0.00     0.179 C 
ATOM     30  C   UNL     1      -0.404  -2.876   0.816  1.00  0.00     0.177 C 
BRANCH  26  31
ATOM     31  O   UNL     1       0.236  -2.093  -2.794  1.00  0.00    -0.384 OA
ATOM     32  H   UNL     1      -0.550  -1.486  -2.798  1.00  0.00     0.211 HD
ENDBRANCH  26  31
BRANCH  28  33
ATOM     33  O   UNL     1      -1.747  -1.851  -0.919  1.00  0.00    -0.387 OA
ATOM     34  H   UNL     1      -1.384  -1.148  -1.519  1.00  0.00     0.211 HD
ENDBRANCH  28  33
BRANCH  29  35
ATOM     35  C   UNL     1       0.660  -1.684   2.793  1.00  0.00     0.191 C 
BRANCH  35  36
ATOM     36  O   UNL     1       2.038  -1.910   2.920  1.00  0.00    -0.394 OA
ATOM     37  H   UNL     1       2.202  -2.193   3.859  1.00  0.00     0.210 HD
ENDBRANCH  35  36
ENDBRANCH  29  35
BRANCH  30  38
ATOM     38  O   UNL     1      -1.591  -3.114   1.530  1.00  0.00    -0.387 OA
ATOM     39  H   UNL     1      -1.943  -3.988   1.213  1.00  0.00     0.211 HD
ENDBRANCH  30  38
ENDBRANCH   1  25
TORSDOF 11
ENDMDL
