MODEL 1
REMARK VINA RESULT:    -6.428      0.000      0.000
REMARK INTER + INTRA:          -9.763
REMARK INTER:                  -8.494
REMARK INTRA:                  -1.268
REMARK UNBOUND:                -1.268
REMARK SMILES CC[C@H](C=C[C@H](C)[C@@H]1CC[C@H]2[C@H]3CC=C4C[C@@H](O)CC[C@@]4(C)[C@H]3CC[C@]21C)C(C)C
REMARK SMILES IDX 6 1 7 2 5 3 4 4 3 5 2 6 1 7 28 8 29 9 30 10 8 11 9 12 26 13
REMARK SMILES IDX 10 14 11 15 25 16 27 17 12 18 24 19 23 20 13 21 21 22 14 23
REMARK SMILES IDX 15 24 20 25 22 26 16 27 19 28 17 29 18 30
REMARK H PARENT 18 31
REMARK Flexibility Score: inf
ROOT
ATOM      1  C   UNL     1     126.123 132.568 135.218  1.00  0.00     0.012 C 
ATOM      2  C   UNL     1     126.008 131.074 134.847  1.00  0.00     0.012 C 
ENDROOT
BRANCH   1   3
ATOM      3  C   UNL     1     126.111 133.456 133.990  1.00  0.00    -0.028 C 
ATOM      4  C   UNL     1     126.674 134.675 133.996  1.00  0.00    -0.027 C 
BRANCH   4   5
ATOM      5  C   UNL     1     126.672 135.566 132.772  1.00  0.00     0.014 C 
BRANCH   5   6
ATOM      6  C   UNL     1     125.451 136.516 132.864  1.00  0.00     0.004 C 
ATOM      7  C   UNL     1     124.201 135.994 132.155  1.00  0.00     0.004 C 
ENDBRANCH   5   6
BRANCH   5   8
ATOM      8  C   UNL     1     128.073 136.252 132.635  1.00  0.00    -0.011 C 
ATOM      9  C   UNL     1     128.013 137.774 132.834  1.00  0.00     0.008 C 
ATOM     10  C   UNL     1     129.162 135.632 133.525  1.00  0.00     0.008 C 
ENDBRANCH   5   8
ENDBRANCH   4   5
ENDBRANCH   1   3
BRANCH   1  11
ATOM     11  C   UNL     1     125.121 133.074 136.313  1.00  0.00     0.002 C 
ATOM     12  C   UNL     1     123.819 133.613 135.699  1.00  0.00     0.005 C 
ATOM     13  C   UNL     1     125.573 134.123 137.411  1.00  0.00    -0.026 C 
ATOM     14  C   UNL     1     123.761 135.099 135.985  1.00  0.00     0.005 C 
ATOM     15  C   UNL     1     124.617 135.351 137.230  1.00  0.00    -0.001 C 
ATOM     16  C   UNL     1     125.415 133.469 138.817  1.00  0.00     0.007 C 
ATOM     17  C   UNL     1     127.043 134.613 137.284  1.00  0.00     0.012 C 
ATOM     18  C   UNL     1     123.806 135.779 138.491  1.00  0.00     0.000 C 
ATOM     19  C   UNL     1     125.399 134.451 140.001  1.00  0.00     0.005 C 
ATOM     20  C   UNL     1     124.741 135.839 139.723  1.00  0.00     0.003 C 
ATOM     21  C   UNL     1     122.517 134.964 138.780  1.00  0.00     0.031 C 
ATOM     22  C   UNL     1     123.983 136.429 140.972  1.00  0.00    -0.008 C 
ATOM     23  C   UNL     1     122.038 135.027 140.214  1.00  0.00    -0.027 C 
ATOM     24  C   UNL     1     122.715 135.611 141.230  1.00  0.00    -0.065 C 
ATOM     25  C   UNL     1     124.923 136.433 142.226  1.00  0.00     0.014 C 
ATOM     26  C   UNL     1     123.558 137.899 140.698  1.00  0.00     0.016 C 
ATOM     27  C   UNL     1     122.051 135.692 142.590  1.00  0.00     0.063 C 
ATOM     28  C   UNL     1     124.185 136.620 143.561  1.00  0.00     0.033 C 
ATOM     29  C   UNL     1     123.071 135.582 143.731  1.00  0.00     0.118 C 
BRANCH  29  30
ATOM     30  O   UNL     1     123.624 134.290 143.770  1.00  0.00    -0.393 OA
ATOM     31  H   UNL     1     123.032 133.707 143.227  1.00  0.00     0.210 HD
ENDBRANCH  29  30
ENDBRANCH   1  11
TORSDOF 6
ENDMDL
MODEL 2
REMARK VINA RESULT:    -6.232      1.167      2.080
REMARK INTER + INTRA:          -9.504
REMARK INTER:                  -8.508
REMARK INTRA:                  -0.995
REMARK UNBOUND:                -1.268
REMARK SMILES CC[C@H](C=C[C@H](C)[C@@H]1CC[C@H]2[C@H]3CC=C4C[C@@H](O)CC[C@@]4(C)[C@H]3CC[C@]21C)C(C)C
REMARK SMILES IDX 6 1 7 2 5 3 4 4 3 5 2 6 1 7 28 8 29 9 30 10 8 11 9 12 26 13
REMARK SMILES IDX 10 14 11 15 25 16 27 17 12 18 24 19 23 20 13 21 21 22 14 23
REMARK SMILES IDX 15 24 20 25 22 26 16 27 19 28 17 29 18 30
REMARK H PARENT 18 31
REMARK Flexibility Score: inf
ROOT
ATOM      1  C   UNL     1     126.655 132.518 135.464  1.00  0.00     0.012 C 
ATOM      2  C   UNL     1     126.304 131.234 134.683  1.00  0.00     0.012 C 
ENDROOT
BRANCH   1   3
ATOM      3  C   UNL     1     127.329 133.548 134.580  1.00  0.00    -0.028 C 
ATOM      4  C   UNL     1     128.666 133.667 134.530  1.00  0.00    -0.027 C 
BRANCH   4   5
ATOM      5  C   UNL     1     129.348 134.690 133.645  1.00  0.00     0.014 C 
BRANCH   5   6
ATOM      6  C   UNL     1     130.531 133.995 132.922  1.00  0.00     0.004 C 
ATOM      7  C   UNL     1     131.301 133.006 133.798  1.00  0.00     0.004 C 
ENDBRANCH   5   6
BRANCH   5   8
ATOM      8  C   UNL     1     128.277 135.366 132.725  1.00  0.00    -0.011 C 
ATOM      9  C   UNL     1     128.269 136.898 132.848  1.00  0.00     0.008 C 
ATOM     10  C   UNL     1     128.359 134.941 131.251  1.00  0.00     0.008 C 
ENDBRANCH   5   8
ENDBRANCH   4   5
ENDBRANCH   1   3
BRANCH   1  11
ATOM     11  C   UNL     1     125.486 133.144 136.302  1.00  0.00     0.002 C 
ATOM     12  C   UNL     1     124.463 133.868 135.412  1.00  0.00     0.005 C 
ATOM     13  C   UNL     1     125.782 134.104 137.527  1.00  0.00    -0.026 C 
ATOM     14  C   UNL     1     124.532 135.344 135.747  1.00  0.00     0.005 C 
ATOM     15  C   UNL     1     125.073 135.455 137.175  1.00  0.00    -0.001 C 
ATOM     16  C   UNL     1     125.192 133.458 138.817  1.00  0.00     0.007 C 
ATOM     17  C   UNL     1     127.289 134.385 137.791  1.00  0.00     0.012 C 
ATOM     18  C   UNL     1     124.035 135.975 138.217  1.00  0.00     0.000 C 
ATOM     19  C   UNL     1     125.009 134.416 140.006  1.00  0.00     0.005 C 
ATOM     20  C   UNL     1     124.630 135.886 139.643  1.00  0.00     0.003 C 
ATOM     21  C   UNL     1     122.619 135.345 138.139  1.00  0.00     0.031 C 
ATOM     22  C   UNL     1     123.668 136.558 140.694  1.00  0.00    -0.008 C 
ATOM     23  C   UNL     1     121.809 135.454 139.412  1.00  0.00    -0.027 C 
ATOM     24  C   UNL     1     122.280 135.923 140.591  1.00  0.00    -0.065 C 
ATOM     25  C   UNL     1     124.256 136.412 142.140  1.00  0.00     0.014 C 
ATOM     26  C   UNL     1     123.523 138.077 140.395  1.00  0.00     0.016 C 
ATOM     27  C   UNL     1     121.312 136.076 141.747  1.00  0.00     0.063 C 
ATOM     28  C   UNL     1     123.237 136.682 143.258  1.00  0.00     0.033 C 
ATOM     29  C   UNL     1     121.989 135.808 143.098  1.00  0.00     0.118 C 
BRANCH  29  30
ATOM     30  O   UNL     1     122.339 134.451 143.209  1.00  0.00    -0.393 OA
ATOM     31  H   UNL     1     122.385 134.089 142.286  1.00  0.00     0.210 HD
ENDBRANCH  29  30
ENDBRANCH   1  11
TORSDOF 6
ENDMDL
MODEL 3
REMARK VINA RESULT:    -6.209      4.242      9.127
REMARK INTER + INTRA:          -9.473
REMARK INTER:                  -7.901
REMARK INTRA:                  -1.572
REMARK UNBOUND:                -1.268
REMARK SMILES CC[C@H](C=C[C@H](C)[C@@H]1CC[C@H]2[C@H]3CC=C4C[C@@H](O)CC[C@@]4(C)[C@H]3CC[C@]21C)C(C)C
REMARK SMILES IDX 6 1 7 2 5 3 4 4 3 5 2 6 1 7 28 8 29 9 30 10 8 11 9 12 26 13
REMARK SMILES IDX 10 14 11 15 25 16 27 17 12 18 24 19 23 20 13 21 21 22 14 23
REMARK SMILES IDX 15 24 20 25 22 26 16 27 19 28 17 29 18 30
REMARK H PARENT 18 31
REMARK Flexibility Score: inf
ROOT
ATOM      1  C   UNL     1     128.622 134.041 134.037  1.00  0.00     0.012 C 
ATOM      2  C   UNL     1     130.059 134.394 133.598  1.00  0.00     0.012 C 
ENDROOT
BRANCH   1   3
ATOM      3  C   UNL     1     128.337 134.500 135.453  1.00  0.00    -0.028 C 
ATOM      4  C   UNL     1     127.893 133.649 136.394  1.00  0.00    -0.027 C 
BRANCH   4   5
ATOM      5  C   UNL     1     127.612 134.098 137.813  1.00  0.00     0.014 C 
BRANCH   5   6
ATOM      6  C   UNL     1     128.883 134.794 138.363  1.00  0.00     0.004 C 
ATOM      7  C   UNL     1     129.387 134.217 139.685  1.00  0.00     0.004 C 
ENDBRANCH   5   6
BRANCH   5   8
ATOM      8  C   UNL     1     126.296 134.945 137.830  1.00  0.00    -0.011 C 
ATOM      9  C   UNL     1     125.093 134.188 137.246  1.00  0.00     0.008 C 
ATOM     10  C   UNL     1     125.949 135.534 139.206  1.00  0.00     0.008 C 
ENDBRANCH   5   8
ENDBRANCH   4   5
ENDBRANCH   1   3
BRANCH   1  11
ATOM     11  C   UNL     1     127.486 134.471 133.045  1.00  0.00     0.002 C 
ATOM     12  C   UNL     1     126.882 135.835 133.416  1.00  0.00     0.005 C 
ATOM     13  C   UNL     1     126.268 133.506 132.731  1.00  0.00    -0.026 C 
ATOM     14  C   UNL     1     125.444 135.599 133.829  1.00  0.00     0.005 C 
ATOM     15  C   UNL     1     124.988 134.304 133.152  1.00  0.00    -0.001 C 
ATOM     16  C   UNL     1     126.274 133.182 131.206  1.00  0.00     0.007 C 
ATOM     17  C   UNL     1     126.288 132.153 133.498  1.00  0.00     0.012 C 
ATOM     18  C   UNL     1     123.911 134.504 132.043  1.00  0.00     0.000 C 
ATOM     19  C   UNL     1     124.955 132.619 130.650  1.00  0.00     0.005 C 
ATOM     20  C   UNL     1     123.651 133.163 131.313  1.00  0.00     0.003 C 
ATOM     21  C   UNL     1     124.167 135.666 131.047  1.00  0.00     0.031 C 
ATOM     22  C   UNL     1     122.449 133.300 130.302  1.00  0.00    -0.008 C 
ATOM     23  C   UNL     1     123.438 135.538 129.726  1.00  0.00    -0.027 C 
ATOM     24  C   UNL     1     122.726 134.455 129.338  1.00  0.00    -0.065 C 
ATOM     25  C   UNL     1     122.233 131.953 129.531  1.00  0.00     0.014 C 
ATOM     26  C   UNL     1     121.135 133.620 131.070  1.00  0.00     0.016 C 
ATOM     27  C   UNL     1     121.959 134.524 128.033  1.00  0.00     0.063 C 
ATOM     28  C   UNL     1     121.361 132.086 128.273  1.00  0.00     0.033 C 
ATOM     29  C   UNL     1     121.908 133.162 127.328  1.00  0.00     0.118 C 
BRANCH  29  30
ATOM     30  O   UNL     1     123.187 132.795 126.877  1.00  0.00    -0.393 OA
ATOM     31  H   UNL     1     123.068 132.012 126.279  1.00  0.00     0.210 HD
ENDBRANCH  29  30
ENDBRANCH   1  11
TORSDOF 6
ENDMDL
MODEL 4
REMARK VINA RESULT:    -6.172      2.523      4.136
REMARK INTER + INTRA:          -9.425
REMARK INTER:                  -8.337
REMARK INTRA:                  -1.088
REMARK UNBOUND:                -1.268
REMARK SMILES CC[C@H](C=C[C@H](C)[C@@H]1CC[C@H]2[C@H]3CC=C4C[C@@H](O)CC[C@@]4(C)[C@H]3CC[C@]21C)C(C)C
REMARK SMILES IDX 6 1 7 2 5 3 4 4 3 5 2 6 1 7 28 8 29 9 30 10 8 11 9 12 26 13
REMARK SMILES IDX 10 14 11 15 25 16 27 17 12 18 24 19 23 20 13 21 21 22 14 23
REMARK SMILES IDX 15 24 20 25 22 26 16 27 19 28 17 29 18 30
REMARK H PARENT 18 31
REMARK Flexibility Score: inf
ROOT
ATOM      1  C   UNL     1     126.226 133.199 135.482  1.00  0.00     0.012 C 
ATOM      2  C   UNL     1     125.777 133.343 134.012  1.00  0.00     0.012 C 
ENDROOT
BRANCH   1   3
ATOM      3  C   UNL     1     127.726 133.013 135.596  1.00  0.00    -0.028 C 
ATOM      4  C   UNL     1     128.462 132.567 134.565  1.00  0.00    -0.027 C 
BRANCH   4   5
ATOM      5  C   UNL     1     129.962 132.385 134.669  1.00  0.00     0.014 C 
BRANCH   5   6
ATOM      6  C   UNL     1     130.294 130.904 134.352  1.00  0.00     0.004 C 
ATOM      7  C   UNL     1     129.084 130.071 133.931  1.00  0.00     0.004 C 
ENDBRANCH   5   6
BRANCH   5   8
ATOM      8  C   UNL     1     130.672 133.460 133.779  1.00  0.00    -0.011 C 
ATOM      9  C   UNL     1     131.712 132.850 132.826  1.00  0.00     0.008 C 
ATOM     10  C   UNL     1     129.704 134.374 133.012  1.00  0.00     0.008 C 
ENDBRANCH   5   8
ENDBRANCH   4   5
ENDBRANCH   1   3
BRANCH   1  11
ATOM     11  C   UNL     1     125.699 134.303 136.463  1.00  0.00     0.002 C 
ATOM     12  C   UNL     1     126.753 134.695 137.510  1.00  0.00     0.005 C 
ATOM     13  C   UNL     1     124.332 134.116 137.244  1.00  0.00    -0.026 C 
ATOM     14  C   UNL     1     126.235 134.261 138.865  1.00  0.00     0.005 C 
ATOM     15  C   UNL     1     124.708 134.196 138.762  1.00  0.00    -0.001 C 
ATOM     16  C   UNL     1     123.362 135.262 136.826  1.00  0.00     0.007 C 
ATOM     17  C   UNL     1     123.606 132.766 136.980  1.00  0.00     0.012 C 
ATOM     18  C   UNL     1     123.962 135.282 139.596  1.00  0.00     0.000 C 
ATOM     19  C   UNL     1     122.171 135.491 137.772  1.00  0.00     0.005 C 
ATOM     20  C   UNL     1     122.446 135.234 139.287  1.00  0.00     0.003 C 
ATOM     21  C   UNL     1     124.529 136.723 139.498  1.00  0.00     0.031 C 
ATOM     22  C   UNL     1     121.650 136.206 140.237  1.00  0.00    -0.008 C 
ATOM     23  C   UNL     1     123.546 137.814 139.865  1.00  0.00    -0.027 C 
ATOM     24  C   UNL     1     122.233 137.617 140.125  1.00  0.00    -0.065 C 
ATOM     25  C   UNL     1     120.124 136.190 139.877  1.00  0.00     0.014 C 
ATOM     26  C   UNL     1     121.790 135.746 141.716  1.00  0.00     0.016 C 
ATOM     27  C   UNL     1     121.402 138.796 140.589  1.00  0.00     0.063 C 
ATOM     28  C   UNL     1     119.330 137.364 140.468  1.00  0.00     0.033 C 
ATOM     29  C   UNL     1     119.955 138.709 140.084  1.00  0.00     0.118 C 
BRANCH  29  30
ATOM     30  O   UNL     1     119.913 138.874 138.689  1.00  0.00    -0.393 OA
ATOM     31  H   UNL     1     119.016 138.571 138.391  1.00  0.00     0.210 HD
ENDBRANCH  29  30
ENDBRANCH   1  11
TORSDOF 6
ENDMDL
MODEL 5
REMARK VINA RESULT:    -6.152      2.999      8.307
REMARK INTER + INTRA:          -9.398
REMARK INTER:                  -8.165
REMARK INTRA:                  -1.233
REMARK UNBOUND:                -1.268
REMARK SMILES CC[C@H](C=C[C@H](C)[C@@H]1CC[C@H]2[C@H]3CC=C4C[C@@H](O)CC[C@@]4(C)[C@H]3CC[C@]21C)C(C)C
REMARK SMILES IDX 6 1 7 2 5 3 4 4 3 5 2 6 1 7 28 8 29 9 30 10 8 11 9 12 26 13
REMARK SMILES IDX 10 14 11 15 25 16 27 17 12 18 24 19 23 20 13 21 21 22 14 23
REMARK SMILES IDX 15 24 20 25 22 26 16 27 19 28 17 29 18 30
REMARK H PARENT 18 31
REMARK Flexibility Score: inf
ROOT
ATOM      1  C   UNL     1     123.673 135.629 139.874  1.00  0.00     0.012 C 
ATOM      2  C   UNL     1     124.221 136.623 140.919  1.00  0.00     0.012 C 
ENDROOT
BRANCH   1   3
ATOM      3  C   UNL     1     122.171 135.751 139.714  1.00  0.00    -0.028 C 
ATOM      4  C   UNL     1     121.471 136.707 140.345  1.00  0.00    -0.027 C 
BRANCH   4   5
ATOM      5  C   UNL     1     119.970 136.840 140.186  1.00  0.00     0.014 C 
BRANCH   5   6
ATOM      6  C   UNL     1     119.329 136.829 141.597  1.00  0.00     0.004 C 
ATOM      7  C   UNL     1     120.339 136.916 142.741  1.00  0.00     0.004 C 
ENDBRANCH   5   6
BRANCH   5   8
ATOM      8  C   UNL     1     119.659 138.089 139.294  1.00  0.00    -0.011 C 
ATOM      9  C   UNL     1     118.362 138.804 139.703  1.00  0.00     0.008 C 
ATOM     10  C   UNL     1     120.820 139.089 139.191  1.00  0.00     0.008 C 
ENDBRANCH   5   8
ENDBRANCH   4   5
ENDBRANCH   1   3
BRANCH   1  11
ATOM     11  C   UNL     1     124.409 135.626 138.489  1.00  0.00     0.002 C 
ATOM     12  C   UNL     1     123.440 135.869 137.321  1.00  0.00     0.005 C 
ATOM     13  C   UNL     1     125.342 134.418 138.062  1.00  0.00    -0.026 C 
ATOM     14  C   UNL     1     123.401 134.603 136.491  1.00  0.00     0.005 C 
ATOM     15  C   UNL     1     124.719 133.863 136.736  1.00  0.00    -0.001 C 
ATOM     16  C   UNL     1     126.786 134.960 137.842  1.00  0.00     0.007 C 
ATOM     17  C   UNL     1     125.428 133.259 139.095  1.00  0.00     0.012 C 
ATOM     18  C   UNL     1     125.669 133.819 135.500  1.00  0.00     0.000 C 
ATOM     19  C   UNL     1     127.716 134.042 137.031  1.00  0.00     0.005 C 
ATOM     20  C   UNL     1     127.031 133.205 135.905  1.00  0.00     0.003 C 
ATOM     21  C   UNL     1     125.842 135.153 134.726  1.00  0.00     0.031 C 
ATOM     22  C   UNL     1     127.949 132.995 134.641  1.00  0.00    -0.008 C 
ATOM     23  C   UNL     1     127.101 135.240 133.891  1.00  0.00    -0.027 C 
ATOM     24  C   UNL     1     128.096 134.323 133.895  1.00  0.00    -0.065 C 
ATOM     25  C   UNL     1     129.344 132.425 135.071  1.00  0.00     0.014 C 
ATOM     26  C   UNL     1     127.299 131.969 133.670  1.00  0.00     0.016 C 
ATOM     27  C   UNL     1     129.242 134.495 132.918  1.00  0.00     0.063 C 
ATOM     28  C   UNL     1     130.428 132.545 133.989  1.00  0.00     0.033 C 
ATOM     29  C   UNL     1     130.569 133.991 133.500  1.00  0.00     0.118 C 
BRANCH  29  30
ATOM     30  O   UNL     1     130.984 134.815 134.560  1.00  0.00    -0.393 OA
ATOM     31  H   UNL     1     131.643 135.456 134.185  1.00  0.00     0.210 HD
ENDBRANCH  29  30
ENDBRANCH   1  11
TORSDOF 6
ENDMDL
MODEL 6
REMARK VINA RESULT:    -6.105      4.147      6.943
REMARK INTER + INTRA:          -9.336
REMARK INTER:                  -7.879
REMARK INTRA:                  -1.458
REMARK UNBOUND:                -1.268
REMARK SMILES CC[C@H](C=C[C@H](C)[C@@H]1CC[C@H]2[C@H]3CC=C4C[C@@H](O)CC[C@@]4(C)[C@H]3CC[C@]21C)C(C)C
REMARK SMILES IDX 6 1 7 2 5 3 4 4 3 5 2 6 1 7 28 8 29 9 30 10 8 11 9 12 26 13
REMARK SMILES IDX 10 14 11 15 25 16 27 17 12 18 24 19 23 20 13 21 21 22 14 23
REMARK SMILES IDX 15 24 20 25 22 26 16 27 19 28 17 29 18 30
REMARK H PARENT 18 31
REMARK Flexibility Score: inf
ROOT
ATOM      1  C   UNL     1     124.162 136.507 141.854  1.00  0.00     0.012 C 
ATOM      2  C   UNL     1     124.608 136.689 143.320  1.00  0.00     0.012 C 
ENDROOT
BRANCH   1   3
ATOM      3  C   UNL     1     124.870 135.344 141.190  1.00  0.00    -0.028 C 
ATOM      4  C   UNL     1     125.604 135.509 140.077  1.00  0.00    -0.027 C 
BRANCH   4   5
ATOM      5  C   UNL     1     126.321 134.353 139.410  1.00  0.00     0.014 C 
BRANCH   5   6
ATOM      6  C   UNL     1     125.291 133.571 138.555  1.00  0.00     0.004 C 
ATOM      7  C   UNL     1     124.289 134.461 137.818  1.00  0.00     0.004 C 
ENDBRANCH   5   6
BRANCH   5   8
ATOM      8  C   UNL     1     127.577 134.899 138.652  1.00  0.00    -0.011 C 
ATOM      9  C   UNL     1     128.761 135.183 139.590  1.00  0.00     0.008 C 
ATOM     10  C   UNL     1     128.022 134.026 137.468  1.00  0.00     0.008 C 
ENDBRANCH   5   8
ENDBRANCH   4   5
ENDBRANCH   1   3
BRANCH   1  11
ATOM     11  C   UNL     1     122.612 136.457 141.619  1.00  0.00     0.002 C 
ATOM     12  C   UNL     1     122.053 135.032 141.759  1.00  0.00     0.005 C 
ATOM     13  C   UNL     1     121.965 137.071 140.309  1.00  0.00    -0.026 C 
ATOM     14  C   UNL     1     121.549 134.604 140.397  1.00  0.00     0.005 C 
ATOM     15  C   UNL     1     121.218 135.880 139.618  1.00  0.00    -0.001 C 
ATOM     16  C   UNL     1     120.983 138.207 140.727  1.00  0.00     0.007 C 
ATOM     17  C   UNL     1     122.980 137.677 139.298  1.00  0.00     0.012 C 
ATOM     18  C   UNL     1     119.696 136.091 139.349  1.00  0.00     0.000 C 
ATOM     19  C   UNL     1     119.965 138.624 139.651  1.00  0.00     0.005 C 
ATOM     20  C   UNL     1     119.462 137.483 138.713  1.00  0.00     0.003 C 
ATOM     21  C   UNL     1     118.750 135.837 140.552  1.00  0.00     0.031 C 
ATOM     22  C   UNL     1     117.957 137.654 138.278  1.00  0.00    -0.008 C 
ATOM     23  C   UNL     1     117.400 136.513 140.448  1.00  0.00    -0.027 C 
ATOM     24  C   UNL     1     117.048 137.391 139.480  1.00  0.00    -0.065 C 
ATOM     25  C   UNL     1     117.722 139.087 137.687  1.00  0.00     0.014 C 
ATOM     26  C   UNL     1     117.598 136.623 137.171  1.00  0.00     0.016 C 
ATOM     27  C   UNL     1     115.620 137.898 139.448  1.00  0.00     0.063 C 
ATOM     28  C   UNL     1     116.242 139.488 137.592  1.00  0.00     0.033 C 
ATOM     29  C   UNL     1     115.539 139.345 138.947  1.00  0.00     0.118 C 
BRANCH  29  30
ATOM     30  O   UNL     1     116.120 140.221 139.880  1.00  0.00    -0.393 OA
ATOM     31  H   UNL     1     116.424 139.665 140.645  1.00  0.00     0.210 HD
ENDBRANCH  29  30
ENDBRANCH   1  11
TORSDOF 6
ENDMDL
MODEL 7
REMARK VINA RESULT:    -5.995      4.024      9.247
REMARK INTER + INTRA:          -9.191
REMARK INTER:                  -7.897
REMARK INTRA:                  -1.294
REMARK UNBOUND:                -1.268
REMARK SMILES CC[C@H](C=C[C@H](C)[C@@H]1CC[C@H]2[C@H]3CC=C4C[C@@H](O)CC[C@@]4(C)[C@H]3CC[C@]21C)C(C)C
REMARK SMILES IDX 6 1 7 2 5 3 4 4 3 5 2 6 1 7 28 8 29 9 30 10 8 11 9 12 26 13
REMARK SMILES IDX 10 14 11 15 25 16 27 17 12 18 24 19 23 20 13 21 21 22 14 23
REMARK SMILES IDX 15 24 20 25 22 26 16 27 19 28 17 29 18 30
REMARK H PARENT 18 31
REMARK Flexibility Score: inf
ROOT
ATOM      1  C   UNL     1     124.982 132.162 136.272  1.00  0.00     0.012 C 
ATOM      2  C   UNL     1     124.795 130.646 136.489  1.00  0.00     0.012 C 
ENDROOT
BRANCH   1   3
ATOM      3  C   UNL     1     125.951 132.759 137.273  1.00  0.00    -0.028 C 
ATOM      4  C   UNL     1     125.545 133.621 138.220  1.00  0.00    -0.027 C 
BRANCH   4   5
ATOM      5  C   UNL     1     126.506 134.217 139.228  1.00  0.00     0.014 C 
BRANCH   5   6
ATOM      6  C   UNL     1     127.905 134.310 138.569  1.00  0.00     0.004 C 
ATOM      7  C   UNL     1     128.903 135.173 139.343  1.00  0.00     0.004 C 
ENDBRANCH   5   6
BRANCH   5   8
ATOM      8  C   UNL     1     125.908 135.557 139.775  1.00  0.00    -0.011 C 
ATOM      9  C   UNL     1     125.054 136.296 138.733  1.00  0.00     0.008 C 
ATOM     10  C   UNL     1     125.139 135.405 141.096  1.00  0.00     0.008 C 
ENDBRANCH   5   8
ENDBRANCH   4   5
ENDBRANCH   1   3
BRANCH   1  11
ATOM     11  C   UNL     1     125.317 132.601 134.804  1.00  0.00     0.002 C 
ATOM     12  C   UNL     1     126.495 133.587 134.751  1.00  0.00     0.005 C 
ATOM     13  C   UNL     1     124.194 133.183 133.849  1.00  0.00    -0.026 C 
ATOM     14  C   UNL     1     125.956 134.914 134.259  1.00  0.00     0.005 C 
ATOM     15  C   UNL     1     124.691 134.614 133.450  1.00  0.00    -0.001 C 
ATOM     16  C   UNL     1     124.063 132.248 132.609  1.00  0.00     0.007 C 
ATOM     17  C   UNL     1     122.784 133.307 134.494  1.00  0.00     0.012 C 
ATOM     18  C   UNL     1     124.826 134.889 131.921  1.00  0.00     0.000 C 
ATOM     19  C   UNL     1     123.344 132.862 131.396  1.00  0.00     0.005 C 
ATOM     20  C   UNL     1     123.560 134.393 131.182  1.00  0.00     0.003 C 
ATOM     21  C   UNL     1     126.128 134.375 131.249  1.00  0.00     0.031 C 
ATOM     22  C   UNL     1     123.599 134.809 129.662  1.00  0.00    -0.008 C 
ATOM     23  C   UNL     1     126.032 134.182 129.752  1.00  0.00    -0.027 C 
ATOM     24  C   UNL     1     124.894 134.295 129.029  1.00  0.00    -0.065 C 
ATOM     25  C   UNL     1     122.338 134.253 128.914  1.00  0.00     0.014 C 
ATOM     26  C   UNL     1     123.582 136.358 129.529  1.00  0.00     0.016 C 
ATOM     27  C   UNL     1     124.981 134.183 127.520  1.00  0.00     0.063 C 
ATOM     28  C   UNL     1     122.464 134.266 127.383  1.00  0.00     0.033 C 
ATOM     29  C   UNL     1     123.727 133.531 126.922  1.00  0.00     0.118 C 
BRANCH  29  30
ATOM     30  O   UNL     1     123.654 132.178 127.295  1.00  0.00    -0.393 OA
ATOM     31  H   UNL     1     123.968 132.121 128.235  1.00  0.00     0.210 HD
ENDBRANCH  29  30
ENDBRANCH   1  11
TORSDOF 6
ENDMDL
MODEL 8
REMARK VINA RESULT:    -5.955      3.088      8.356
REMARK INTER + INTRA:          -9.138
REMARK INTER:                  -7.449
REMARK INTRA:                  -1.689
REMARK UNBOUND:                -1.268
REMARK SMILES CC[C@H](C=C[C@H](C)[C@@H]1CC[C@H]2[C@H]3CC=C4C[C@@H](O)CC[C@@]4(C)[C@H]3CC[C@]21C)C(C)C
REMARK SMILES IDX 6 1 7 2 5 3 4 4 3 5 2 6 1 7 28 8 29 9 30 10 8 11 9 12 26 13
REMARK SMILES IDX 10 14 11 15 25 16 27 17 12 18 24 19 23 20 13 21 21 22 14 23
REMARK SMILES IDX 15 24 20 25 22 26 16 27 19 28 17 29 18 30
REMARK H PARENT 18 31
REMARK Flexibility Score: inf
ROOT
ATOM      1  C   UNL     1     126.675 134.604 139.213  1.00  0.00     0.012 C 
ATOM      2  C   UNL     1     128.163 134.839 139.550  1.00  0.00     0.012 C 
ENDROOT
BRANCH   1   3
ATOM      3  C   UNL     1     125.758 135.246 140.235  1.00  0.00    -0.028 C 
ATOM      4  C   UNL     1     124.626 134.649 140.640  1.00  0.00    -0.027 C 
BRANCH   4   5
ATOM      5  C   UNL     1     123.707 135.280 141.666  1.00  0.00     0.014 C 
BRANCH   5   6
ATOM      6  C   UNL     1     124.515 136.346 142.450  1.00  0.00     0.004 C 
ATOM      7  C   UNL     1     123.999 136.601 143.866  1.00  0.00     0.004 C 
ENDBRANCH   5   6
BRANCH   5   8
ATOM      8  C   UNL     1     122.410 135.784 140.949  1.00  0.00    -0.011 C 
ATOM      9  C   UNL     1     122.572 137.187 140.342  1.00  0.00     0.008 C 
ATOM     10  C   UNL     1     121.850 134.804 139.907  1.00  0.00     0.008 C 
ENDBRANCH   5   8
ENDBRANCH   4   5
ENDBRANCH   1   3
BRANCH   1  11
ATOM     11  C   UNL     1     126.248 134.955 137.745  1.00  0.00     0.002 C 
ATOM     12  C   UNL     1     125.355 136.205 137.688  1.00  0.00     0.005 C 
ATOM     13  C   UNL     1     125.571 133.870 136.810  1.00  0.00    -0.026 C 
ATOM     14  C   UNL     1     123.985 135.764 137.215  1.00  0.00     0.005 C 
ATOM     15  C   UNL     1     124.179 134.471 136.419  1.00  0.00    -0.001 C 
ATOM     16  C   UNL     1     126.480 133.653 135.563  1.00  0.00     0.007 C 
ATOM     17  C   UNL     1     125.346 132.481 137.474  1.00  0.00     0.012 C 
ATOM     18  C   UNL     1     123.899 134.609 134.891  1.00  0.00     0.000 C 
ATOM     19  C   UNL     1     125.800 132.969 134.365  1.00  0.00     0.005 C 
ATOM     20  C   UNL     1     124.287 133.300 134.163  1.00  0.00     0.003 C 
ATOM     21  C   UNL     1     124.504 135.859 134.199  1.00  0.00     0.031 C 
ATOM     22  C   UNL     1     123.860 133.354 132.647  1.00  0.00    -0.008 C 
ATOM     23  C   UNL     1     124.673 135.732 132.700  1.00  0.00    -0.027 C 
ATOM     24  C   UNL     1     124.465 134.597 131.992  1.00  0.00    -0.065 C 
ATOM     25  C   UNL     1     124.309 132.045 131.909  1.00  0.00     0.014 C 
ATOM     26  C   UNL     1     122.313 133.454 132.529  1.00  0.00     0.016 C 
ATOM     27  C   UNL     1     124.567 134.658 130.482  1.00  0.00     0.063 C 
ATOM     28  C   UNL     1     124.289 132.154 130.377  1.00  0.00     0.033 C 
ATOM     29  C   UNL     1     125.115 133.352 129.893  1.00  0.00     0.118 C 
BRANCH  29  30
ATOM     30  O   UNL     1     126.462 133.179 130.254  1.00  0.00    -0.393 OA
ATOM     31  H   UNL     1     126.905 132.715 129.496  1.00  0.00     0.210 HD
ENDBRANCH  29  30
ENDBRANCH   1  11
TORSDOF 6
ENDMDL
MODEL 9
REMARK VINA RESULT:    -5.936      1.862      2.890
REMARK INTER + INTRA:          -9.113
REMARK INTER:                  -7.632
REMARK INTRA:                  -1.481
REMARK UNBOUND:                -1.268
REMARK SMILES CC[C@H](C=C[C@H](C)[C@@H]1CC[C@H]2[C@H]3CC=C4C[C@@H](O)CC[C@@]4(C)[C@H]3CC[C@]21C)C(C)C
REMARK SMILES IDX 6 1 7 2 5 3 4 4 3 5 2 6 1 7 28 8 29 9 30 10 8 11 9 12 26 13
REMARK SMILES IDX 10 14 11 15 25 16 27 17 12 18 24 19 23 20 13 21 21 22 14 23
REMARK SMILES IDX 15 24 20 25 22 26 16 27 19 28 17 29 18 30
REMARK H PARENT 18 31
REMARK Flexibility Score: inf
ROOT
ATOM      1  C   UNL     1     124.357 133.553 134.487  1.00  0.00     0.012 C 
ATOM      2  C   UNL     1     123.299 133.039 133.488  1.00  0.00     0.012 C 
ENDROOT
BRANCH   1   3
ATOM      3  C   UNL     1     125.601 134.055 133.782  1.00  0.00    -0.028 C 
ATOM      4  C   UNL     1     126.832 133.725 134.206  1.00  0.00    -0.027 C 
BRANCH   4   5
ATOM      5  C   UNL     1     128.081 134.217 133.503  1.00  0.00     0.014 C 
BRANCH   5   6
ATOM      6  C   UNL     1     127.659 135.261 132.438  1.00  0.00     0.004 C 
ATOM      7  C   UNL     1     127.975 136.706 132.823  1.00  0.00     0.004 C 
ENDBRANCH   5   6
BRANCH   5   8
ATOM      8  C   UNL     1     129.114 134.700 134.575  1.00  0.00    -0.011 C 
ATOM      9  C   UNL     1     128.761 134.231 135.996  1.00  0.00     0.008 C 
ATOM     10  C   UNL     1     130.573 134.356 134.238  1.00  0.00     0.008 C 
ENDBRANCH   5   8
ENDBRANCH   4   5
ENDBRANCH   1   3
BRANCH   1  11
ATOM     11  C   UNL     1     123.838 134.577 135.556  1.00  0.00     0.002 C 
ATOM     12  C   UNL     1     124.657 135.878 135.551  1.00  0.00     0.005 C 
ATOM     13  C   UNL     1     123.664 134.156 137.074  1.00  0.00    -0.026 C 
ATOM     14  C   UNL     1     125.386 135.963 136.876  1.00  0.00     0.005 C 
ATOM     15  C   UNL     1     124.589 135.128 137.882  1.00  0.00    -0.001 C 
ATOM     16  C   UNL     1     122.164 134.323 137.465  1.00  0.00     0.007 C 
ATOM     17  C   UNL     1     124.073 132.692 137.399  1.00  0.00     0.012 C 
ATOM     18  C   UNL     1     123.893 135.963 139.001  1.00  0.00     0.000 C 
ATOM     19  C   UNL     1     121.882 134.370 138.977  1.00  0.00     0.005 C 
ATOM     20  C   UNL     1     122.983 135.046 139.853  1.00  0.00     0.003 C 
ATOM     21  C   UNL     1     123.151 137.243 138.533  1.00  0.00     0.031 C 
ATOM     22  C   UNL     1     122.399 135.829 141.090  1.00  0.00    -0.008 C 
ATOM     23  C   UNL     1     122.089 137.742 139.488  1.00  0.00    -0.027 C 
ATOM     24  C   UNL     1     121.680 137.088 140.600  1.00  0.00    -0.065 C 
ATOM     25  C   UNL     1     121.436 134.906 141.913  1.00  0.00     0.014 C 
ATOM     26  C   UNL     1     123.550 136.273 142.036  1.00  0.00     0.016 C 
ATOM     27  C   UNL     1     120.686 137.771 141.517  1.00  0.00     0.063 C 
ATOM     28  C   UNL     1     120.530 135.665 142.894  1.00  0.00     0.033 C 
ATOM     29  C   UNL     1     119.737 136.766 142.182  1.00  0.00     0.118 C 
BRANCH  29  30
ATOM     30  O   UNL     1     118.881 136.194 141.225  1.00  0.00    -0.393 OA
ATOM     31  H   UNL     1     119.410 136.091 140.391  1.00  0.00     0.210 HD
ENDBRANCH  29  30
ENDBRANCH   1  11
TORSDOF 6
ENDMDL
