MODEL 1
REMARK VINA RESULT:    -5.693      0.000      0.000
REMARK INTER + INTRA:         -12.209
REMARK INTER:                 -10.685
REMARK INTRA:                  -1.524
REMARK UNBOUND:                -1.524
REMARK SMILES CCCCCCCCC=CCCCCCCCC(=O)[O-]
REMARK SMILES IDX 10 1 9 2 11 3 12 4 13 5 14 6 15 7 16 8 17 9 18 10 19 11
REMARK SMILES IDX 20 12 8 13 7 14 6 15 5 16 4 17 3 18 2 19 1 20
REMARK H PARENT
REMARK Flexibility Score: inf
ROOT
ATOM      1  C   UNL     1     -28.390  58.834   3.748  1.00  0.00    -0.031 C 
ATOM      2  C   UNL     1     -27.110  58.977   3.356  1.00  0.00    -0.031 C 
ENDROOT
BRANCH   1   3
ATOM      3  C   UNL     1     -28.852  58.001   4.921  1.00  0.00     0.027 C 
BRANCH   3   4
ATOM      4  C   UNL     1     -30.373  57.776   4.899  1.00  0.00     0.004 C 
BRANCH   4   5
ATOM      5  C   UNL     1     -30.926  57.398   3.511  1.00  0.00     0.000 C 
BRANCH   5   6
ATOM      6  C   UNL     1     -30.391  56.077   2.925  1.00  0.00     0.000 C 
BRANCH   6   7
ATOM      7  C   UNL     1     -30.086  56.108   1.417  1.00  0.00     0.000 C 
BRANCH   7   8
ATOM      8  C   UNL     1     -28.583  55.999   1.108  1.00  0.00     0.006 C 
BRANCH   8   9
ATOM      9  C   UNL     1     -28.054  57.234   0.367  1.00  0.00     0.053 C 
BRANCH   9  10
ATOM     10  C   UNL     1     -26.744  56.956  -0.306  1.00  0.00     0.041 C 
ATOM     11  O   UNL     1     -25.705  56.773   0.381  1.00  0.00    -0.550 OA
ATOM     12  O   UNL     1     -26.665  56.934  -1.692  1.00  0.00    -0.550 OA
ENDBRANCH   9  10
ENDBRANCH   8   9
ENDBRANCH   7   8
ENDBRANCH   6   7
ENDBRANCH   5   6
ENDBRANCH   4   5
ENDBRANCH   3   4
ENDBRANCH   1   3
BRANCH   2  13
ATOM     13  C   UNL     1     -25.925  58.305   4.005  1.00  0.00     0.027 C 
BRANCH  13  14
ATOM     14  C   UNL     1     -24.675  58.330   3.111  1.00  0.00     0.004 C 
BRANCH  14  15
ATOM     15  C   UNL     1     -23.455  57.710   3.807  1.00  0.00     0.000 C 
BRANCH  15  16
ATOM     16  C   UNL     1     -23.869  56.959   5.078  1.00  0.00     0.000 C 
BRANCH  16  17
ATOM     17  C   UNL     1     -22.652  56.672   5.969  1.00  0.00    -0.000 C 
BRANCH  17  18
ATOM     18  C   UNL     1     -21.353  57.302   5.432  1.00  0.00    -0.000 C 
BRANCH  18  19
ATOM     19  C   UNL     1     -20.584  58.166   6.448  1.00  0.00    -0.003 C 
ATOM     20  C   UNL     1     -21.027  57.928   7.891  1.00  0.00     0.004 C 
ENDBRANCH  18  19
ENDBRANCH  17  18
ENDBRANCH  16  17
ENDBRANCH  15  16
ENDBRANCH  14  15
ENDBRANCH  13  14
ENDBRANCH   2  13
TORSDOF 15
ENDMDL
MODEL 2
REMARK VINA RESULT:    -5.561      7.023      9.755
REMARK INTER + INTRA:         -11.963
REMARK INTER:                 -11.050
REMARK INTRA:                  -0.912
REMARK UNBOUND:                -1.524
REMARK SMILES CCCCCCCCC=CCCCCCCCC(=O)[O-]
REMARK SMILES IDX 10 1 9 2 11 3 12 4 13 5 14 6 15 7 16 8 17 9 18 10 19 11
REMARK SMILES IDX 20 12 8 13 7 14 6 15 5 16 4 17 3 18 2 19 1 20
REMARK H PARENT
REMARK Flexibility Score: inf
ROOT
ATOM      1  C   UNL     1     -18.651  59.896   0.812  1.00  0.00    -0.031 C 
ATOM      2  C   UNL     1     -19.904  59.825   1.298  1.00  0.00    -0.031 C 
ENDROOT
BRANCH   1   3
ATOM      3  C   UNL     1     -18.231  60.708  -0.391  1.00  0.00     0.027 C 
BRANCH   3   4
ATOM      4  C   UNL     1     -16.710  60.939  -0.423  1.00  0.00     0.004 C 
BRANCH   4   5
ATOM      5  C   UNL     1     -16.097  60.858  -1.835  1.00  0.00     0.000 C 
BRANCH   5   6
ATOM      6  C   UNL     1     -16.991  60.203  -2.906  1.00  0.00     0.000 C 
BRANCH   6   7
ATOM      7  C   UNL     1     -16.325  60.002  -4.278  1.00  0.00     0.000 C 
BRANCH   7   8
ATOM      8  C   UNL     1     -17.131  59.074  -5.204  1.00  0.00     0.006 C 
BRANCH   8   9
ATOM      9  C   UNL     1     -18.294  58.393  -4.471  1.00  0.00     0.053 C 
BRANCH   9  10
ATOM     10  C   UNL     1     -18.716  57.131  -5.159  1.00  0.00     0.041 C 
ATOM     11  O   UNL     1     -19.245  57.177  -6.301  1.00  0.00    -0.550 OA
ATOM     12  O   UNL     1     -18.558  55.906  -4.523  1.00  0.00    -0.550 OA
ENDBRANCH   9  10
ENDBRANCH   8   9
ENDBRANCH   7   8
ENDBRANCH   6   7
ENDBRANCH   5   6
ENDBRANCH   4   5
ENDBRANCH   3   4
ENDBRANCH   1   3
BRANCH   2  13
ATOM     13  C   UNL     1     -21.105  60.520   0.705  1.00  0.00     0.027 C 
BRANCH  13  14
ATOM     14  C   UNL     1     -22.276  60.614   1.695  1.00  0.00     0.004 C 
BRANCH  14  15
ATOM     15  C   UNL     1     -22.236  59.496   2.746  1.00  0.00     0.000 C 
BRANCH  15  16
ATOM     16  C   UNL     1     -23.527  58.670   2.722  1.00  0.00     0.000 C 
BRANCH  16  17
ATOM     17  C   UNL     1     -23.560  57.665   3.881  1.00  0.00    -0.000 C 
BRANCH  17  18
ATOM     18  C   UNL     1     -22.191  57.488   4.562  1.00  0.00    -0.000 C 
BRANCH  18  19
ATOM     19  C   UNL     1     -22.245  56.894   5.980  1.00  0.00    -0.003 C 
ATOM     20  C   UNL     1     -23.585  56.235   6.303  1.00  0.00     0.004 C 
ENDBRANCH  18  19
ENDBRANCH  17  18
ENDBRANCH  16  17
ENDBRANCH  15  16
ENDBRANCH  14  15
ENDBRANCH  13  14
ENDBRANCH   2  13
TORSDOF 15
ENDMDL
MODEL 3
REMARK VINA RESULT:    -5.485      3.164      7.183
REMARK INTER + INTRA:         -11.820
REMARK INTER:                 -10.769
REMARK INTRA:                  -1.051
REMARK UNBOUND:                -1.524
REMARK SMILES CCCCCCCCC=CCCCCCCCC(=O)[O-]
REMARK SMILES IDX 10 1 9 2 11 3 12 4 13 5 14 6 15 7 16 8 17 9 18 10 19 11
REMARK SMILES IDX 20 12 8 13 7 14 6 15 5 16 4 17 3 18 2 19 1 20
REMARK H PARENT
REMARK Flexibility Score: inf
ROOT
ATOM      1  C   UNL     1     -27.049  56.921  -0.438  1.00  0.00    -0.031 C 
ATOM      2  C   UNL     1     -28.148  57.333  -1.098  1.00  0.00    -0.031 C 
ENDROOT
BRANCH   1   3
ATOM      3  C   UNL     1     -26.823  57.066   1.049  1.00  0.00     0.027 C 
BRANCH   3   4
ATOM      4  C   UNL     1     -25.332  57.239   1.386  1.00  0.00     0.004 C 
BRANCH   4   5
ATOM      5  C   UNL     1     -25.075  58.009   2.695  1.00  0.00     0.000 C 
BRANCH   5   6
ATOM      6  C   UNL     1     -23.615  58.003   3.189  1.00  0.00     0.000 C 
BRANCH   6   7
ATOM      7  C   UNL     1     -22.847  59.318   2.972  1.00  0.00     0.000 C 
BRANCH   7   8
ATOM      8  C   UNL     1     -22.789  59.741   1.494  1.00  0.00     0.006 C 
BRANCH   8   9
ATOM      9  C   UNL     1     -21.733  60.826   1.245  1.00  0.00     0.053 C 
BRANCH   9  10
ATOM     10  C   UNL     1     -20.402  60.231   0.899  1.00  0.00     0.041 C 
ATOM     11  O   UNL     1     -19.672  59.743   1.801  1.00  0.00    -0.550 OA
ATOM     12  O   UNL     1     -19.952  60.249  -0.415  1.00  0.00    -0.550 OA
ENDBRANCH   9  10
ENDBRANCH   8   9
ENDBRANCH   7   8
ENDBRANCH   6   7
ENDBRANCH   5   6
ENDBRANCH   4   5
ENDBRANCH   3   4
ENDBRANCH   1   3
BRANCH   2  13
ATOM     13  C   UNL     1     -29.325  58.036  -0.467  1.00  0.00     0.027 C 
BRANCH  13  14
ATOM     14  C   UNL     1     -30.479  57.073  -0.144  1.00  0.00     0.004 C 
BRANCH  14  15
ATOM     15  C   UNL     1     -30.997  57.253   1.290  1.00  0.00     0.000 C 
BRANCH  15  16
ATOM     16  C   UNL     1     -30.166  56.432   2.283  1.00  0.00     0.000 C 
BRANCH  16  17
ATOM     17  C   UNL     1     -29.574  57.329   3.379  1.00  0.00    -0.000 C 
BRANCH  17  18
ATOM     18  C   UNL     1     -30.581  57.653   4.498  1.00  0.00    -0.000 C 
BRANCH  18  19
ATOM     19  C   UNL     1     -29.984  58.381   5.716  1.00  0.00    -0.003 C 
ATOM     20  C   UNL     1     -30.947  58.454   6.900  1.00  0.00     0.004 C 
ENDBRANCH  18  19
ENDBRANCH  17  18
ENDBRANCH  16  17
ENDBRANCH  15  16
ENDBRANCH  14  15
ENDBRANCH  13  14
ENDBRANCH   2  13
TORSDOF 15
ENDMDL
MODEL 4
REMARK VINA RESULT:    -5.480      2.548      3.447
REMARK INTER + INTRA:         -11.811
REMARK INTER:                 -10.568
REMARK INTRA:                  -1.242
REMARK UNBOUND:                -1.524
REMARK SMILES CCCCCCCCC=CCCCCCCCC(=O)[O-]
REMARK SMILES IDX 10 1 9 2 11 3 12 4 13 5 14 6 15 7 16 8 17 9 18 10 19 11
REMARK SMILES IDX 20 12 8 13 7 14 6 15 5 16 4 17 3 18 2 19 1 20
REMARK H PARENT
REMARK Flexibility Score: inf
ROOT
ATOM      1  C   UNL     1     -28.229  58.746   3.505  1.00  0.00    -0.031 C 
ATOM      2  C   UNL     1     -26.930  58.740   3.151  1.00  0.00    -0.031 C 
ENDROOT
BRANCH   1   3
ATOM      3  C   UNL     1     -28.769  58.273   4.835  1.00  0.00     0.027 C 
BRANCH   3   4
ATOM      4  C   UNL     1     -30.210  57.748   4.712  1.00  0.00     0.004 C 
BRANCH   4   5
ATOM      5  C   UNL     1     -30.630  57.418   3.266  1.00  0.00     0.000 C 
BRANCH   5   6
ATOM      6  C   UNL     1     -30.214  56.023   2.760  1.00  0.00     0.000 C 
BRANCH   6   7
ATOM      7  C   UNL     1     -29.875  55.947   1.261  1.00  0.00     0.000 C 
BRANCH   7   8
ATOM      8  C   UNL     1     -28.367  56.067   0.980  1.00  0.00     0.006 C 
BRANCH   8   9
ATOM      9  C   UNL     1     -28.052  57.192  -0.014  1.00  0.00     0.053 C 
BRANCH   9  10
ATOM     10  C   UNL     1     -29.283  57.958  -0.389  1.00  0.00     0.041 C 
ATOM     11  O   UNL     1     -30.004  57.572  -1.348  1.00  0.00    -0.550 OA
ATOM     12  O   UNL     1     -29.616  59.119   0.296  1.00  0.00    -0.550 OA
ENDBRANCH   9  10
ENDBRANCH   8   9
ENDBRANCH   7   8
ENDBRANCH   6   7
ENDBRANCH   5   6
ENDBRANCH   4   5
ENDBRANCH   3   4
ENDBRANCH   1   3
BRANCH   2  13
ATOM     13  C   UNL     1     -25.800  58.231   4.011  1.00  0.00     0.027 C 
BRANCH  13  14
ATOM     14  C   UNL     1     -24.546  57.891   3.191  1.00  0.00     0.004 C 
BRANCH  14  15
ATOM     15  C   UNL     1     -23.759  59.147   2.789  1.00  0.00     0.000 C 
BRANCH  15  16
ATOM     16  C   UNL     1     -22.293  59.041   3.222  1.00  0.00     0.000 C 
BRANCH  16  17
ATOM     17  C   UNL     1     -21.399  59.953   2.370  1.00  0.00    -0.000 C 
BRANCH  17  18
ATOM     18  C   UNL     1     -22.101  60.461   1.097  1.00  0.00    -0.000 C 
BRANCH  18  19
ATOM     19  C   UNL     1     -21.181  61.180   0.094  1.00  0.00    -0.003 C 
ATOM     20  C   UNL     1     -19.834  60.483  -0.089  1.00  0.00     0.004 C 
ENDBRANCH  18  19
ENDBRANCH  17  18
ENDBRANCH  16  17
ENDBRANCH  15  16
ENDBRANCH  14  15
ENDBRANCH  13  14
ENDBRANCH   2  13
TORSDOF 15
ENDMDL
MODEL 5
REMARK VINA RESULT:    -5.445      3.295      5.060
REMARK INTER + INTRA:         -11.744
REMARK INTER:                 -10.489
REMARK INTRA:                  -1.255
REMARK UNBOUND:                -1.524
REMARK SMILES CCCCCCCCC=CCCCCCCCC(=O)[O-]
REMARK SMILES IDX 10 1 9 2 11 3 12 4 13 5 14 6 15 7 16 8 17 9 18 10 19 11
REMARK SMILES IDX 20 12 8 13 7 14 6 15 5 16 4 17 3 18 2 19 1 20
REMARK H PARENT
REMARK Flexibility Score: inf
ROOT
ATOM      1  C   UNL     1     -27.164  56.674   0.431  1.00  0.00    -0.031 C 
ATOM      2  C   UNL     1     -26.289  56.702   1.453  1.00  0.00    -0.031 C 
ENDROOT
BRANCH   1   3
ATOM      3  C   UNL     1     -26.912  57.247  -0.944  1.00  0.00     0.027 C 
BRANCH   3   4
ATOM      4  C   UNL     1     -28.224  57.576  -1.676  1.00  0.00     0.004 C 
BRANCH   4   5
ATOM      5  C   UNL     1     -29.488  57.312  -0.835  1.00  0.00     0.000 C 
BRANCH   5   6
ATOM      6  C   UNL     1     -30.006  58.517  -0.026  1.00  0.00     0.000 C 
BRANCH   6   7
ATOM      7  C   UNL     1     -30.841  58.160   1.216  1.00  0.00     0.000 C 
BRANCH   7   8
ATOM      8  C   UNL     1     -30.083  57.263   2.210  1.00  0.00     0.006 C 
BRANCH   8   9
ATOM      9  C   UNL     1     -29.267  58.080   3.220  1.00  0.00     0.053 C 
BRANCH   9  10
ATOM     10  C   UNL     1     -29.817  57.950   4.608  1.00  0.00     0.041 C 
ATOM     11  O   UNL     1     -31.047  57.749   4.787  1.00  0.00    -0.550 OA
ATOM     12  O   UNL     1     -28.976  58.088   5.705  1.00  0.00    -0.550 OA
ENDBRANCH   9  10
ENDBRANCH   8   9
ENDBRANCH   7   8
ENDBRANCH   6   7
ENDBRANCH   5   6
ENDBRANCH   4   5
ENDBRANCH   3   4
ENDBRANCH   1   3
BRANCH   2  13
ATOM     13  C   UNL     1     -24.920  57.336   1.406  1.00  0.00     0.027 C 
BRANCH  13  14
ATOM     14  C   UNL     1     -24.455  57.831   2.784  1.00  0.00     0.004 C 
BRANCH  14  15
ATOM     15  C   UNL     1     -23.751  59.193   2.702  1.00  0.00     0.000 C 
BRANCH  15  16
ATOM     16  C   UNL     1     -22.274  59.074   3.098  1.00  0.00     0.000 C 
BRANCH  16  17
ATOM     17  C   UNL     1     -21.427  60.143   2.392  1.00  0.00    -0.000 C 
BRANCH  17  18
ATOM     18  C   UNL     1     -22.104  60.708   1.131  1.00  0.00    -0.000 C 
BRANCH  18  19
ATOM     19  C   UNL     1     -21.207  60.756  -0.119  1.00  0.00    -0.003 C 
ATOM     20  C   UNL     1     -19.751  60.397   0.175  1.00  0.00     0.004 C 
ENDBRANCH  18  19
ENDBRANCH  17  18
ENDBRANCH  16  17
ENDBRANCH  15  16
ENDBRANCH  14  15
ENDBRANCH  13  14
ENDBRANCH   2  13
TORSDOF 15
ENDMDL
MODEL 6
REMARK VINA RESULT:    -5.425      3.294      4.132
REMARK INTER + INTRA:         -11.707
REMARK INTER:                 -10.704
REMARK INTRA:                  -1.002
REMARK UNBOUND:                -1.524
REMARK SMILES CCCCCCCCC=CCCCCCCCC(=O)[O-]
REMARK SMILES IDX 10 1 9 2 11 3 12 4 13 5 14 6 15 7 16 8 17 9 18 10 19 11
REMARK SMILES IDX 20 12 8 13 7 14 6 15 5 16 4 17 3 18 2 19 1 20
REMARK H PARENT
REMARK Flexibility Score: inf
ROOT
ATOM      1  C   UNL     1     -26.207  57.988   2.521  1.00  0.00    -0.031 C 
ATOM      2  C   UNL     1     -24.912  57.685   2.313  1.00  0.00    -0.031 C 
ENDROOT
BRANCH   1   3
ATOM      3  C   UNL     1     -26.738  58.768   3.701  1.00  0.00     0.027 C 
BRANCH   3   4
ATOM      4  C   UNL     1     -28.213  58.438   3.987  1.00  0.00     0.004 C 
BRANCH   4   5
ATOM      5  C   UNL     1     -29.084  58.330   2.719  1.00  0.00     0.000 C 
BRANCH   5   6
ATOM      6  C   UNL     1     -29.744  56.958   2.486  1.00  0.00     0.000 C 
BRANCH   6   7
ATOM      7  C   UNL     1     -30.334  56.747   1.081  1.00  0.00     0.000 C 
BRANCH   7   8
ATOM      8  C   UNL     1     -30.089  57.942   0.143  1.00  0.00     0.006 C 
BRANCH   8   9
ATOM      9  C   UNL     1     -28.932  57.684  -0.830  1.00  0.00     0.053 C 
BRANCH   9  10
ATOM     10  C   UNL     1     -29.326  57.973  -2.246  1.00  0.00     0.041 C 
ATOM     11  O   UNL     1     -29.154  59.122  -2.731  1.00  0.00    -0.550 OA
ATOM     12  O   UNL     1     -29.918  56.982  -3.020  1.00  0.00    -0.550 OA
ENDBRANCH   9  10
ENDBRANCH   8   9
ENDBRANCH   7   8
ENDBRANCH   6   7
ENDBRANCH   5   6
ENDBRANCH   4   5
ENDBRANCH   3   4
ENDBRANCH   1   3
BRANCH   2  13
ATOM     13  C   UNL     1     -23.777  58.048   3.239  1.00  0.00     0.027 C 
BRANCH  13  14
ATOM     14  C   UNL     1     -23.261  59.476   3.003  1.00  0.00     0.004 C 
BRANCH  14  15
ATOM     15  C   UNL     1     -22.741  59.672   1.572  1.00  0.00     0.000 C 
BRANCH  15  16
ATOM     16  C   UNL     1     -21.374  60.367   1.573  1.00  0.00     0.000 C 
BRANCH  16  17
ATOM     17  C   UNL     1     -20.921  60.693   0.143  1.00  0.00    -0.000 C 
BRANCH  17  18
ATOM     18  C   UNL     1     -19.441  60.353  -0.110  1.00  0.00    -0.000 C 
BRANCH  18  19
ATOM     19  C   UNL     1     -18.786  59.471   0.968  1.00  0.00    -0.003 C 
ATOM     20  C   UNL     1     -17.324  59.145   0.668  1.00  0.00     0.004 C 
ENDBRANCH  18  19
ENDBRANCH  17  18
ENDBRANCH  16  17
ENDBRANCH  15  16
ENDBRANCH  14  15
ENDBRANCH  13  14
ENDBRANCH   2  13
TORSDOF 15
ENDMDL
MODEL 7
REMARK VINA RESULT:    -5.414      2.268      3.832
REMARK INTER + INTRA:         -11.687
REMARK INTER:                 -10.674
REMARK INTRA:                  -1.013
REMARK UNBOUND:                -1.524
REMARK SMILES CCCCCCCCC=CCCCCCCCC(=O)[O-]
REMARK SMILES IDX 10 1 9 2 11 3 12 4 13 5 14 6 15 7 16 8 17 9 18 10 19 11
REMARK SMILES IDX 20 12 8 13 7 14 6 15 5 16 4 17 3 18 2 19 1 20
REMARK H PARENT
REMARK Flexibility Score: inf
ROOT
ATOM      1  C   UNL     1     -26.509  56.604   0.289  1.00  0.00    -0.031 C 
ATOM      2  C   UNL     1     -25.368  56.914   0.933  1.00  0.00    -0.031 C 
ENDROOT
BRANCH   1   3
ATOM      3  C   UNL     1     -27.896  56.998   0.739  1.00  0.00     0.027 C 
BRANCH   3   4
ATOM      4  C   UNL     1     -28.667  57.738  -0.367  1.00  0.00     0.004 C 
BRANCH   4   5
ATOM      5  C   UNL     1     -30.190  57.500  -0.330  1.00  0.00     0.000 C 
BRANCH   5   6
ATOM      6  C   UNL     1     -30.679  56.527   0.760  1.00  0.00     0.000 C 
BRANCH   6   7
ATOM      7  C   UNL     1     -31.115  57.188   2.078  1.00  0.00     0.000 C 
BRANCH   7   8
ATOM      8  C   UNL     1     -30.601  56.443   3.322  1.00  0.00     0.006 C 
BRANCH   8   9
ATOM      9  C   UNL     1     -30.885  57.215   4.617  1.00  0.00     0.053 C 
BRANCH   9  10
ATOM     10  C   UNL     1     -29.697  58.015   5.055  1.00  0.00     0.041 C 
ATOM     11  O   UNL     1     -28.830  58.374   4.216  1.00  0.00    -0.550 OA
ATOM     12  O   UNL     1     -29.528  58.333   6.397  1.00  0.00    -0.550 OA
ENDBRANCH   9  10
ENDBRANCH   8   9
ENDBRANCH   7   8
ENDBRANCH   6   7
ENDBRANCH   5   6
ENDBRANCH   4   5
ENDBRANCH   3   4
ENDBRANCH   1   3
BRANCH   2  13
ATOM     13  C   UNL     1     -25.286  57.683   2.229  1.00  0.00     0.027 C 
BRANCH  13  14
ATOM     14  C   UNL     1     -24.029  58.562   2.311  1.00  0.00     0.004 C 
BRANCH  14  15
ATOM     15  C   UNL     1     -23.160  58.215   3.528  1.00  0.00     0.000 C 
BRANCH  15  16
ATOM     16  C   UNL     1     -23.969  57.452   4.583  1.00  0.00     0.000 C 
BRANCH  16  17
ATOM     17  C   UNL     1     -23.061  56.545   5.425  1.00  0.00    -0.000 C 
BRANCH  17  18
ATOM     18  C   UNL     1     -21.668  57.153   5.670  1.00  0.00    -0.000 C 
BRANCH  18  19
ATOM     19  C   UNL     1     -21.424  57.658   7.104  1.00  0.00    -0.003 C 
ATOM     20  C   UNL     1     -22.107  56.796   8.165  1.00  0.00     0.004 C 
ENDBRANCH  18  19
ENDBRANCH  17  18
ENDBRANCH  16  17
ENDBRANCH  15  16
ENDBRANCH  14  15
ENDBRANCH  13  14
ENDBRANCH   2  13
TORSDOF 15
ENDMDL
MODEL 8
REMARK VINA RESULT:    -5.283      8.483     11.142
REMARK INTER + INTRA:         -11.439
REMARK INTER:                  -9.759
REMARK INTRA:                  -1.681
REMARK UNBOUND:                -1.524
REMARK SMILES CCCCCCCCC=CCCCCCCCC(=O)[O-]
REMARK SMILES IDX 10 1 9 2 11 3 12 4 13 5 14 6 15 7 16 8 17 9 18 10 19 11
REMARK SMILES IDX 20 12 8 13 7 14 6 15 5 16 4 17 3 18 2 19 1 20
REMARK H PARENT
REMARK Flexibility Score: inf
ROOT
ATOM      1  C   UNL     1     -16.999  59.854  -3.414  1.00  0.00    -0.031 C 
ATOM      2  C   UNL     1     -16.684  60.418  -2.233  1.00  0.00    -0.031 C 
ENDROOT
BRANCH   1   3
ATOM      3  C   UNL     1     -16.340  60.176  -4.735  1.00  0.00     0.027 C 
BRANCH   3   4
ATOM      4  C   UNL     1     -16.499  59.029  -5.747  1.00  0.00     0.004 C 
BRANCH   4   5
ATOM      5  C   UNL     1     -17.926  58.891  -6.313  1.00  0.00     0.000 C 
BRANCH   5   6
ATOM      6  C   UNL     1     -18.508  57.465  -6.298  1.00  0.00     0.000 C 
BRANCH   6   7
ATOM      7  C   UNL     1     -18.553  56.793  -4.915  1.00  0.00     0.000 C 
BRANCH   7   8
ATOM      8  C   UNL     1     -19.721  57.289  -4.045  1.00  0.00     0.006 C 
BRANCH   8   9
ATOM      9  C   UNL     1     -21.020  56.525  -4.331  1.00  0.00     0.053 C 
BRANCH   9  10
ATOM     10  C   UNL     1     -22.002  57.368  -5.087  1.00  0.00     0.041 C 
ATOM     11  O   UNL     1     -22.723  56.853  -5.981  1.00  0.00    -0.550 OA
ATOM     12  O   UNL     1     -22.093  58.730  -4.829  1.00  0.00    -0.550 OA
ENDBRANCH   9  10
ENDBRANCH   8   9
ENDBRANCH   7   8
ENDBRANCH   6   7
ENDBRANCH   5   6
ENDBRANCH   4   5
ENDBRANCH   3   4
ENDBRANCH   1   3
BRANCH   2  13
ATOM     13  C   UNL     1     -15.639  61.489  -2.036  1.00  0.00     0.027 C 
BRANCH  13  14
ATOM     14  C   UNL     1     -15.671  62.086  -0.621  1.00  0.00     0.004 C 
BRANCH  14  15
ATOM     15  C   UNL     1     -15.451  61.020   0.461  1.00  0.00     0.000 C 
BRANCH  15  16
ATOM     16  C   UNL     1     -16.707  60.842   1.323  1.00  0.00     0.000 C 
BRANCH  16  17
ATOM     17  C   UNL     1     -17.151  59.373   1.352  1.00  0.00    -0.000 C 
BRANCH  17  18
ATOM     18  C   UNL     1     -18.469  59.129   0.594  1.00  0.00    -0.000 C 
BRANCH  18  19
ATOM     19  C   UNL     1     -19.314  60.391   0.344  1.00  0.00    -0.003 C 
ATOM     20  C   UNL     1     -20.702  60.317   0.979  1.00  0.00     0.004 C 
ENDBRANCH  18  19
ENDBRANCH  17  18
ENDBRANCH  16  17
ENDBRANCH  15  16
ENDBRANCH  14  15
ENDBRANCH  13  14
ENDBRANCH   2  13
TORSDOF 15
ENDMDL
MODEL 9
REMARK VINA RESULT:    -5.239      5.486      8.906
REMARK INTER + INTRA:         -11.358
REMARK INTER:                 -10.654
REMARK INTRA:                  -0.703
REMARK UNBOUND:                -1.524
REMARK SMILES CCCCCCCCC=CCCCCCCCC(=O)[O-]
REMARK SMILES IDX 10 1 9 2 11 3 12 4 13 5 14 6 15 7 16 8 17 9 18 10 19 11
REMARK SMILES IDX 20 12 8 13 7 14 6 15 5 16 4 17 3 18 2 19 1 20
REMARK H PARENT
REMARK Flexibility Score: inf
ROOT
ATOM      1  C   UNL     1     -21.233  57.626   7.263  1.00  0.00    -0.031 C 
ATOM      2  C   UNL     1     -21.457  57.553   5.938  1.00  0.00    -0.031 C 
ENDROOT
BRANCH   1   3
ATOM      3  C   UNL     1     -21.854  56.721   8.301  1.00  0.00     0.027 C 
BRANCH   3   4
ATOM      4  C   UNL     1     -21.473  57.144   9.730  1.00  0.00     0.004 C 
BRANCH   4   5
ATOM      5  C   UNL     1     -22.488  58.099  10.387  1.00  0.00     0.000 C 
BRANCH   5   6
ATOM      6  C   UNL     1     -22.654  57.940  11.911  1.00  0.00     0.000 C 
BRANCH   6   7
ATOM      7  C   UNL     1     -24.036  58.330  12.462  1.00  0.00     0.000 C 
BRANCH   7   8
ATOM      8  C   UNL     1     -25.091  58.518  11.357  1.00  0.00     0.006 C 
BRANCH   8   9
ATOM      9  C   UNL     1     -25.700  59.926  11.373  1.00  0.00     0.053 C 
BRANCH   9  10
ATOM     10  C   UNL     1     -27.095  59.930  10.827  1.00  0.00     0.041 C 
ATOM     11  O   UNL     1     -27.398  60.684   9.866  1.00  0.00    -0.550 OA
ATOM     12  O   UNL     1     -28.071  59.126  11.405  1.00  0.00    -0.550 OA
ENDBRANCH   9  10
ENDBRANCH   8   9
ENDBRANCH   7   8
ENDBRANCH   6   7
ENDBRANCH   5   6
ENDBRANCH   4   5
ENDBRANCH   3   4
ENDBRANCH   1   3
BRANCH   2  13
ATOM     13  C   UNL     1     -22.391  56.574   5.270  1.00  0.00     0.027 C 
BRANCH  13  14
ATOM     14  C   UNL     1     -23.726  57.218   4.867  1.00  0.00     0.004 C 
BRANCH  14  15
ATOM     15  C   UNL     1     -23.738  57.650   3.393  1.00  0.00     0.000 C 
BRANCH  15  16
ATOM     16  C   UNL     1     -23.123  59.044   3.223  1.00  0.00     0.000 C 
BRANCH  16  17
ATOM     17  C   UNL     1     -23.022  59.423   1.739  1.00  0.00    -0.000 C 
BRANCH  17  18
ATOM     18  C   UNL     1     -21.848  60.374   1.442  1.00  0.00    -0.000 C 
BRANCH  18  19
ATOM     19  C   UNL     1     -22.025  61.250   0.188  1.00  0.00    -0.003 C 
ATOM     20  C   UNL     1     -21.381  62.628   0.325  1.00  0.00     0.004 C 
ENDBRANCH  18  19
ENDBRANCH  17  18
ENDBRANCH  16  17
ENDBRANCH  15  16
ENDBRANCH  14  15
ENDBRANCH  13  14
ENDBRANCH   2  13
TORSDOF 15
ENDMDL
