MODEL 1
REMARK VINA RESULT:    -6.547      0.000      0.000
REMARK INTER + INTRA:          -8.159
REMARK INTER:                  -7.886
REMARK INTRA:                  -0.273
REMARK UNBOUND:                -0.273
REMARK SMILES O=c1c(O)c(-c2ccc(O)c(O)c2)oc2cc(O)cc(O)c12
REMARK SMILES IDX 5 1 3 2 2 3 1 4 22 5 20 6 19 7 17 8 16 9 15 10 14 11 6 12
REMARK SMILES IDX 7 13 8 14 9 15 13 16 11 17 10 18 12 20 4 22 21 24 18 26
REMARK H PARENT 10 19 12 21 4 23 21 25 18 27
REMARK Flexibility Score: inf
ROOT
ATOM      1  C   UNL     1      12.604 -23.973  22.199  1.00  0.00     0.180 A 
ATOM      2  C   UNL     1      11.224 -24.169  22.016  1.00  0.00     0.208 A 
ATOM      3  C   UNL     1      10.365 -24.029  23.119  1.00  0.00     0.238 A 
ATOM      4  O   UNL     1       9.141 -24.278  22.964  1.00  0.00    -0.285 OA
ATOM      5  C   UNL     1      10.888 -23.641  24.376  1.00  0.00     0.111 A 
ATOM      6  C   UNL     1      10.105 -23.425  25.550  1.00  0.00     0.134 A 
ATOM      7  C   UNL     1      10.744 -23.146  26.765  1.00  0.00     0.093 A 
ATOM      8  C   UNL     1      12.130 -23.012  26.836  1.00  0.00     0.123 A 
ATOM      9  C   UNL     1      12.901 -23.166  25.683  1.00  0.00     0.094 A 
ATOM     10  C   UNL     1      12.296 -23.483  24.465  1.00  0.00     0.146 A 
ATOM     11  O   UNL     1      13.068 -23.642  23.397  1.00  0.00    -0.452 OA
ENDROOT
BRANCH   1  12
ATOM     12  C   UNL     1      13.573 -24.117  21.089  1.00  0.00     0.025 A 
ATOM     13  C   UNL     1      14.188 -22.973  20.556  1.00  0.00     0.016 A 
ATOM     14  C   UNL     1      15.121 -23.086  19.523  1.00  0.00     0.051 A 
ATOM     15  C   UNL     1      15.467 -24.346  19.019  1.00  0.00     0.157 A 
ATOM     16  C   UNL     1      13.939 -25.382  20.594  1.00  0.00     0.062 A 
ATOM     17  C   UNL     1      14.876 -25.499  19.561  1.00  0.00     0.158 A 
BRANCH  15  18
ATOM     18  O   UNL     1      16.398 -24.456  17.986  1.00  0.00    -0.504 OA
ATOM     19  H   UNL     1      16.128 -24.352  17.015  1.00  0.00     0.293 HD
ENDBRANCH  15  18
BRANCH  17  20
ATOM     20  O   UNL     1      15.210 -26.769  19.091  1.00  0.00    -0.504 OA
ATOM     21  H   UNL     1      15.135 -27.017  18.112  1.00  0.00     0.293 HD
ENDBRANCH  17  20
ENDBRANCH   1  12
BRANCH   2  22
ATOM     22  O   UNL     1      10.718 -24.477  20.750  1.00  0.00    -0.502 OA
ATOM     23  H   UNL     1       9.955 -23.960  20.329  1.00  0.00     0.293 HD
ENDBRANCH   2  22
BRANCH   6  24
ATOM     24  O   UNL     1       8.708 -23.447  25.575  1.00  0.00    -0.507 OA
ATOM     25  H   UNL     1       8.128 -24.012  24.973  1.00  0.00     0.293 HD
ENDBRANCH   6  24
BRANCH   8  26
ATOM     26  O   UNL     1      12.729 -22.717  28.058  1.00  0.00    -0.508 OA
ATOM     27  H   UNL     1      12.207 -22.753  28.927  1.00  0.00     0.293 HD
ENDBRANCH   8  26
TORSDOF 6
ENDMDL
MODEL 2
REMARK VINA RESULT:    -5.774      1.365      3.000
REMARK INTER + INTRA:          -7.229
REMARK INTER:                  -6.973
REMARK INTRA:                  -0.256
REMARK UNBOUND:                -0.273
REMARK SMILES O=c1c(O)c(-c2ccc(O)c(O)c2)oc2cc(O)cc(O)c12
REMARK SMILES IDX 5 1 3 2 2 3 1 4 22 5 20 6 19 7 17 8 16 9 15 10 14 11 6 12
REMARK SMILES IDX 7 13 8 14 9 15 13 16 11 17 10 18 12 20 4 22 21 24 18 26
REMARK H PARENT 10 19 12 21 4 23 21 25 18 27
REMARK Flexibility Score: inf
ROOT
ATOM      1  C   UNL     1      13.163 -23.893  21.844  1.00  0.00     0.180 A 
ATOM      2  C   UNL     1      13.619 -23.425  23.088  1.00  0.00     0.208 A 
ATOM      3  C   UNL     1      12.692 -23.233  24.125  1.00  0.00     0.238 A 
ATOM      4  O   UNL     1      13.095 -22.743  25.212  1.00  0.00    -0.285 OA
ATOM      5  C   UNL     1      11.330 -23.563  23.922  1.00  0.00     0.111 A 
ATOM      6  C   UNL     1      10.310 -23.452  24.917  1.00  0.00     0.134 A 
ATOM      7  C   UNL     1       8.977 -23.708  24.571  1.00  0.00     0.093 A 
ATOM      8  C   UNL     1       8.634 -24.132  23.287  1.00  0.00     0.123 A 
ATOM      9  C   UNL     1       9.630 -24.297  22.324  1.00  0.00     0.094 A 
ATOM     10  C   UNL     1      10.963 -24.013  22.627  1.00  0.00     0.146 A 
ATOM     11  O   UNL     1      11.875 -24.163  21.674  1.00  0.00    -0.452 OA
ENDROOT
BRANCH   1  12
ATOM     12  C   UNL     1      14.079 -24.106  20.699  1.00  0.00     0.025 A 
ATOM     13  C   UNL     1      14.592 -22.996  20.011  1.00  0.00     0.016 A 
ATOM     14  C   UNL     1      15.474 -23.172  18.941  1.00  0.00     0.051 A 
ATOM     15  C   UNL     1      15.869 -24.459  18.556  1.00  0.00     0.157 A 
ATOM     16  C   UNL     1      14.494 -25.396  20.323  1.00  0.00     0.062 A 
ATOM     17  C   UNL     1      15.379 -25.576  19.253  1.00  0.00     0.158 A 
BRANCH  15  18
ATOM     18  O   UNL     1      16.748 -24.633  17.487  1.00  0.00    -0.504 OA
ATOM     19  H   UNL     1      16.482 -24.396  16.538  1.00  0.00     0.293 HD
ENDBRANCH  15  18
BRANCH  17  20
ATOM     20  O   UNL     1      15.764 -26.870  18.904  1.00  0.00    -0.504 OA
ATOM     21  H   UNL     1      16.074 -27.543  19.594  1.00  0.00     0.293 HD
ENDBRANCH  17  20
ENDBRANCH   1  12
BRANCH   2  22
ATOM     22  O   UNL     1      14.980 -23.177  23.292  1.00  0.00    -0.502 OA
ATOM     23  H   UNL     1      15.646 -23.917  23.478  1.00  0.00     0.293 HD
ENDBRANCH   2  22
BRANCH   6  24
ATOM     24  O   UNL     1      10.552 -23.122  26.253  1.00  0.00    -0.507 OA
ATOM     25  H   UNL     1      10.988 -23.732  26.929  1.00  0.00     0.293 HD
ENDBRANCH   6  24
BRANCH   8  26
ATOM     26  O   UNL     1       7.300 -24.393  22.984  1.00  0.00    -0.508 OA
ATOM     27  H   UNL     1       6.962 -24.381  22.028  1.00  0.00     0.293 HD
ENDBRANCH   8  26
TORSDOF 6
ENDMDL
MODEL 3
REMARK VINA RESULT:    -5.695      5.380      7.585
REMARK INTER + INTRA:          -7.134
REMARK INTER:                  -6.998
REMARK INTRA:                  -0.135
REMARK UNBOUND:                -0.273
REMARK SMILES O=c1c(O)c(-c2ccc(O)c(O)c2)oc2cc(O)cc(O)c12
REMARK SMILES IDX 5 1 3 2 2 3 1 4 22 5 20 6 19 7 17 8 16 9 15 10 14 11 6 12
REMARK SMILES IDX 7 13 8 14 9 15 13 16 11 17 10 18 12 20 4 22 21 24 18 26
REMARK H PARENT 10 19 12 21 4 23 21 25 18 27
REMARK Flexibility Score: inf
ROOT
ATOM      1  C   UNL     1      16.764 -26.650  22.766  1.00  0.00     0.180 A 
ATOM      2  C   UNL     1      18.072 -26.354  23.189  1.00  0.00     0.208 A 
ATOM      3  C   UNL     1      18.788 -27.320  23.914  1.00  0.00     0.238 A 
ATOM      4  O   UNL     1      19.929 -27.020  24.354  1.00  0.00    -0.285 OA
ATOM      5  C   UNL     1      18.211 -28.589  24.159  1.00  0.00     0.111 A 
ATOM      6  C   UNL     1      18.863 -29.660  24.844  1.00  0.00     0.134 A 
ATOM      7  C   UNL     1      18.154 -30.836  25.120  1.00  0.00     0.093 A 
ATOM      8  C   UNL     1      16.841 -31.006  24.683  1.00  0.00     0.123 A 
ATOM      9  C   UNL     1      16.213 -29.988  23.965  1.00  0.00     0.094 A 
ATOM     10  C   UNL     1      16.880 -28.788  23.707  1.00  0.00     0.146 A 
ATOM     11  O   UNL     1      16.238 -27.838  23.039  1.00  0.00    -0.452 OA
ENDROOT
BRANCH   1  12
ATOM     12  C   UNL     1      15.941 -25.678  22.010  1.00  0.00     0.025 A 
ATOM     13  C   UNL     1      15.429 -26.038  20.754  1.00  0.00     0.016 A 
ATOM     14  C   UNL     1      14.633 -25.145  20.032  1.00  0.00     0.051 A 
ATOM     15  C   UNL     1      14.323 -23.887  20.563  1.00  0.00     0.157 A 
ATOM     16  C   UNL     1      15.610 -24.422  22.550  1.00  0.00     0.062 A 
ATOM     17  C   UNL     1      14.811 -23.526  21.830  1.00  0.00     0.158 A 
BRANCH  15  18
ATOM     18  O   UNL     1      13.529 -22.997  19.840  1.00  0.00    -0.504 OA
ATOM     19  H   UNL     1      13.881 -22.094  19.542  1.00  0.00     0.293 HD
ENDBRANCH  15  18
BRANCH  17  20
ATOM     20  O   UNL     1      14.508 -22.287  22.393  1.00  0.00    -0.504 OA
ATOM     21  H   UNL     1      15.219 -21.696  22.806  1.00  0.00     0.293 HD
ENDBRANCH  17  20
ENDBRANCH   1  12
BRANCH   2  22
ATOM     22  O   UNL     1      18.652 -25.123  22.871  1.00  0.00    -0.502 OA
ATOM     23  H   UNL     1      19.215 -24.599  23.532  1.00  0.00     0.293 HD
ENDBRANCH   2  22
BRANCH   6  24
ATOM     24  O   UNL     1      20.200 -29.632  25.248  1.00  0.00    -0.507 OA
ATOM     25  H   UNL     1      20.533 -29.891  26.164  1.00  0.00     0.293 HD
ENDBRANCH   6  24
BRANCH   8  26
ATOM     26  O   UNL     1      16.173 -32.196  24.962  1.00  0.00    -0.508 OA
ATOM     27  H   UNL     1      16.482 -33.081  24.575  1.00  0.00     0.293 HD
ENDBRANCH   8  26
TORSDOF 6
ENDMDL
MODEL 4
REMARK VINA RESULT:    -5.493     11.766     13.310
REMARK INTER + INTRA:          -6.889
REMARK INTER:                  -6.567
REMARK INTRA:                  -0.322
REMARK UNBOUND:                -0.273
REMARK SMILES O=c1c(O)c(-c2ccc(O)c(O)c2)oc2cc(O)cc(O)c12
REMARK SMILES IDX 5 1 3 2 2 3 1 4 22 5 20 6 19 7 17 8 16 9 15 10 14 11 6 12
REMARK SMILES IDX 7 13 8 14 9 15 13 16 11 17 10 18 12 20 4 22 21 24 18 26
REMARK H PARENT 10 19 12 21 4 23 21 25 18 27
REMARK Flexibility Score: inf
ROOT
ATOM      1  C   UNL     1      21.627 -29.106  30.003  1.00  0.00     0.180 A 
ATOM      2  C   UNL     1      22.259 -29.769  31.069  1.00  0.00     0.208 A 
ATOM      3  C   UNL     1      21.573 -30.801  31.731  1.00  0.00     0.238 A 
ATOM      4  O   UNL     1      22.114 -31.339  32.732  1.00  0.00    -0.285 OA
ATOM      5  C   UNL     1      20.289 -31.194  31.283  1.00  0.00     0.111 A 
ATOM      6  C   UNL     1      19.521 -32.257  31.850  1.00  0.00     0.134 A 
ATOM      7  C   UNL     1      18.218 -32.487  31.393  1.00  0.00     0.093 A 
ATOM      8  C   UNL     1      17.677 -31.738  30.348  1.00  0.00     0.123 A 
ATOM      9  C   UNL     1      18.439 -30.733  29.751  1.00  0.00     0.094 A 
ATOM     10  C   UNL     1      19.728 -30.454  30.210  1.00  0.00     0.146 A 
ATOM     11  O   UNL     1      20.410 -29.476  29.627  1.00  0.00    -0.452 OA
ENDROOT
BRANCH   1  12
ATOM     12  C   UNL     1      22.281 -27.999  29.266  1.00  0.00     0.025 A 
ATOM     13  C   UNL     1      22.117 -26.680  29.716  1.00  0.00     0.016 A 
ATOM     14  C   UNL     1      22.741 -25.622  29.050  1.00  0.00     0.051 A 
ATOM     15  C   UNL     1      23.551 -25.870  27.934  1.00  0.00     0.157 A 
ATOM     16  C   UNL     1      23.112 -28.246  28.158  1.00  0.00     0.062 A 
ATOM     17  C   UNL     1      23.740 -27.189  27.490  1.00  0.00     0.158 A 
BRANCH  15  18
ATOM     18  O   UNL     1      24.171 -24.812  27.270  1.00  0.00    -0.504 OA
ATOM     19  H   UNL     1      24.019 -24.644  26.282  1.00  0.00     0.293 HD
ENDBRANCH  15  18
BRANCH  17  20
ATOM     20  O   UNL     1      24.552 -27.470  26.392  1.00  0.00    -0.504 OA
ATOM     21  H   UNL     1      24.678 -28.413  26.044  1.00  0.00     0.293 HD
ENDBRANCH  17  20
ENDBRANCH   1  12
BRANCH   2  22
ATOM     22  O   UNL     1      23.558 -29.417  31.447  1.00  0.00    -0.502 OA
ATOM     23  H   UNL     1      24.097 -29.958  32.113  1.00  0.00     0.293 HD
ENDBRANCH   2  22
BRANCH   6  24
ATOM     24  O   UNL     1      19.995 -33.125  32.837  1.00  0.00    -0.507 OA
ATOM     25  H   UNL     1      19.881 -34.127  32.829  1.00  0.00     0.293 HD
ENDBRANCH   6  24
BRANCH   8  26
ATOM     26  O   UNL     1      16.383 -32.006  29.909  1.00  0.00    -0.508 OA
ATOM     27  H   UNL     1      15.761 -31.264  29.606  1.00  0.00     0.293 HD
ENDBRANCH   8  26
TORSDOF 6
ENDMDL
MODEL 5
REMARK VINA RESULT:    -5.474     10.613     12.607
REMARK INTER + INTRA:          -6.867
REMARK INTER:                  -6.680
REMARK INTRA:                  -0.187
REMARK UNBOUND:                -0.273
REMARK SMILES O=c1c(O)c(-c2ccc(O)c(O)c2)oc2cc(O)cc(O)c12
REMARK SMILES IDX 5 1 3 2 2 3 1 4 22 5 20 6 19 7 17 8 16 9 15 10 14 11 6 12
REMARK SMILES IDX 7 13 8 14 9 15 13 16 11 17 10 18 12 20 4 22 21 24 18 26
REMARK H PARENT 10 19 12 21 4 23 21 25 18 27
REMARK Flexibility Score: inf
ROOT
ATOM      1  C   UNL     1      20.357 -29.273  28.468  1.00  0.00     0.180 A 
ATOM      2  C   UNL     1      19.742 -29.296  27.204  1.00  0.00     0.208 A 
ATOM      3  C   UNL     1      20.156 -28.374  26.229  1.00  0.00     0.238 A 
ATOM      4  O   UNL     1      19.551 -28.351  25.126  1.00  0.00    -0.285 OA
ATOM      5  C   UNL     1      21.216 -27.479  26.510  1.00  0.00     0.111 A 
ATOM      6  C   UNL     1      21.748 -26.532  25.582  1.00  0.00     0.134 A 
ATOM      7  C   UNL     1      22.727 -25.625  26.005  1.00  0.00     0.093 A 
ATOM      8  C   UNL     1      23.239 -25.670  27.301  1.00  0.00     0.123 A 
ATOM      9  C   UNL     1      22.766 -26.626  28.200  1.00  0.00     0.094 A 
ATOM     10  C   UNL     1      21.763 -27.520  27.819  1.00  0.00     0.146 A 
ATOM     11  O   UNL     1      21.326 -28.400  28.712  1.00  0.00    -0.452 OA
ENDROOT
BRANCH   1  12
ATOM     12  C   UNL     1      19.966 -30.204  29.552  1.00  0.00     0.025 A 
ATOM     13  C   UNL     1      18.689 -30.097  30.125  1.00  0.00     0.016 A 
ATOM     14  C   UNL     1      18.289 -30.977  31.134  1.00  0.00     0.051 A 
ATOM     15  C   UNL     1      19.154 -31.988  31.571  1.00  0.00     0.157 A 
ATOM     16  C   UNL     1      20.823 -31.234  29.979  1.00  0.00     0.062 A 
ATOM     17  C   UNL     1      20.425 -32.119  30.988  1.00  0.00     0.158 A 
BRANCH  15  18
ATOM     18  O   UNL     1      18.753 -32.865  32.580  1.00  0.00    -0.504 OA
ATOM     19  H   UNL     1      19.198 -33.766  32.706  1.00  0.00     0.293 HD
ENDBRANCH  15  18
BRANCH  17  20
ATOM     20  O   UNL     1      21.303 -33.124  31.391  1.00  0.00    -0.504 OA
ATOM     21  H   UNL     1      22.230 -32.919  31.743  1.00  0.00     0.293 HD
ENDBRANCH  17  20
ENDBRANCH   1  12
BRANCH   2  22
ATOM     22  O   UNL     1      18.750 -30.239  26.921  1.00  0.00    -0.502 OA
ATOM     23  H   UNL     1      18.724 -30.757  26.051  1.00  0.00     0.293 HD
ENDBRANCH   2  22
BRANCH   6  24
ATOM     24  O   UNL     1      21.373 -26.458  24.238  1.00  0.00    -0.507 OA
ATOM     25  H   UNL     1      21.683 -25.750  23.589  1.00  0.00     0.293 HD
ENDBRANCH   6  24
BRANCH   8  26
ATOM     26  O   UNL     1      24.224 -24.762  27.682  1.00  0.00    -0.508 OA
ATOM     27  H   UNL     1      25.176 -25.059  27.867  1.00  0.00     0.293 HD
ENDBRANCH   8  26
TORSDOF 6
ENDMDL
MODEL 6
REMARK VINA RESULT:    -5.377     10.546     12.686
REMARK INTER + INTRA:          -6.750
REMARK INTER:                  -6.458
REMARK INTRA:                  -0.292
REMARK UNBOUND:                -0.273
REMARK SMILES O=c1c(O)c(-c2ccc(O)c(O)c2)oc2cc(O)cc(O)c12
REMARK SMILES IDX 5 1 3 2 2 3 1 4 22 5 20 6 19 7 17 8 16 9 15 10 14 11 6 12
REMARK SMILES IDX 7 13 8 14 9 15 13 16 11 17 10 18 12 20 4 22 21 24 18 26
REMARK H PARENT 10 19 12 21 4 23 21 25 18 27
REMARK Flexibility Score: inf
ROOT
ATOM      1  C   UNL     1      22.019 -27.899  28.070  1.00  0.00     0.180 A 
ATOM      2  C   UNL     1      22.593 -26.895  27.270  1.00  0.00     0.208 A 
ATOM      3  C   UNL     1      21.933 -26.500  26.095  1.00  0.00     0.238 A 
ATOM      4  O   UNL     1      22.489 -25.655  25.347  1.00  0.00    -0.285 OA
ATOM      5  C   UNL     1      20.682 -27.074  25.763  1.00  0.00     0.111 A 
ATOM      6  C   UNL     1      19.903 -26.717  24.620  1.00  0.00     0.134 A 
ATOM      7  C   UNL     1      18.730 -27.427  24.335  1.00  0.00     0.093 A 
ATOM      8  C   UNL     1      18.274 -28.435  25.183  1.00  0.00     0.123 A 
ATOM      9  C   UNL     1      18.998 -28.755  26.331  1.00  0.00     0.094 A 
ATOM     10  C   UNL     1      20.192 -28.091  26.623  1.00  0.00     0.146 A 
ATOM     11  O   UNL     1      20.861 -28.441  27.715  1.00  0.00    -0.452 OA
ENDROOT
BRANCH   1  12
ATOM     12  C   UNL     1      22.662 -28.378  29.315  1.00  0.00     0.025 A 
ATOM     13  C   UNL     1      23.727 -29.289  29.235  1.00  0.00     0.016 A 
ATOM     14  C   UNL     1      24.363 -29.739  30.395  1.00  0.00     0.051 A 
ATOM     15  C   UNL     1      23.955 -29.271  31.650  1.00  0.00     0.157 A 
ATOM     16  C   UNL     1      22.269 -27.895  30.576  1.00  0.00     0.062 A 
ATOM     17  C   UNL     1      22.906 -28.341  31.740  1.00  0.00     0.158 A 
BRANCH  15  18
ATOM     18  O   UNL     1      24.590 -29.722  32.807  1.00  0.00    -0.504 OA
ATOM     19  H   UNL     1      25.543 -29.457  33.027  1.00  0.00     0.293 HD
ENDBRANCH  15  18
BRANCH  17  20
ATOM     20  O   UNL     1      22.486 -27.845  32.974  1.00  0.00    -0.504 OA
ATOM     21  H   UNL     1      23.024 -27.984  33.820  1.00  0.00     0.293 HD
ENDBRANCH  17  20
ENDBRANCH   1  12
BRANCH   2  22
ATOM     22  O   UNL     1      23.791 -26.288  27.656  1.00  0.00    -0.502 OA
ATOM     23  H   UNL     1      23.965 -25.298  27.529  1.00  0.00     0.293 HD
ENDBRANCH   2  22
BRANCH   6  24
ATOM     24  O   UNL     1      20.219 -25.666  23.754  1.00  0.00    -0.507 OA
ATOM     25  H   UNL     1      20.796 -25.749  22.930  1.00  0.00     0.293 HD
ENDBRANCH   6  24
BRANCH   8  26
ATOM     26  O   UNL     1      17.094 -29.109  24.876  1.00  0.00    -0.508 OA
ATOM     27  H   UNL     1      16.961 -29.564  23.979  1.00  0.00     0.293 HD
ENDBRANCH   8  26
TORSDOF 6
ENDMDL
MODEL 7
REMARK VINA RESULT:    -5.164      8.861     10.419
REMARK INTER + INTRA:          -6.493
REMARK INTER:                  -6.180
REMARK INTRA:                  -0.313
REMARK UNBOUND:                -0.273
REMARK SMILES O=c1c(O)c(-c2ccc(O)c(O)c2)oc2cc(O)cc(O)c12
REMARK SMILES IDX 5 1 3 2 2 3 1 4 22 5 20 6 19 7 17 8 16 9 15 10 14 11 6 12
REMARK SMILES IDX 7 13 8 14 9 15 13 16 11 17 10 18 12 20 4 22 21 24 18 26
REMARK H PARENT 10 19 12 21 4 23 21 25 18 27
REMARK Flexibility Score: inf
ROOT
ATOM      1  C   UNL     1      19.985 -28.081  25.730  1.00  0.00     0.180 A 
ATOM      2  C   UNL     1      20.701 -27.079  25.052  1.00  0.00     0.208 A 
ATOM      3  C   UNL     1      21.646 -26.319  25.762  1.00  0.00     0.238 A 
ATOM      4  O   UNL     1      22.228 -25.375  25.168  1.00  0.00    -0.285 OA
ATOM      5  C   UNL     1      21.903 -26.608  27.124  1.00  0.00     0.111 A 
ATOM      6  C   UNL     1      22.871 -25.933  27.928  1.00  0.00     0.134 A 
ATOM      7  C   UNL     1      22.965 -26.233  29.293  1.00  0.00     0.093 A 
ATOM      8  C   UNL     1      22.173 -27.225  29.869  1.00  0.00     0.123 A 
ATOM      9  C   UNL     1      21.263 -27.929  29.080  1.00  0.00     0.094 A 
ATOM     10  C   UNL     1      21.119 -27.627  27.724  1.00  0.00     0.146 A 
ATOM     11  O   UNL     1      20.226 -28.307  27.015  1.00  0.00    -0.452 OA
ENDROOT
BRANCH   1  12
ATOM     12  C   UNL     1      18.963 -28.913  25.054  1.00  0.00     0.025 A 
ATOM     13  C   UNL     1      19.364 -30.054  24.341  1.00  0.00     0.016 A 
ATOM     14  C   UNL     1      18.417 -30.866  23.713  1.00  0.00     0.051 A 
ATOM     15  C   UNL     1      17.053 -30.559  23.803  1.00  0.00     0.157 A 
ATOM     16  C   UNL     1      17.592 -28.620  25.159  1.00  0.00     0.062 A 
ATOM     17  C   UNL     1      16.639 -29.432  24.533  1.00  0.00     0.158 A 
BRANCH  15  18
ATOM     18  O   UNL     1      16.109 -31.369  23.173  1.00  0.00    -0.504 OA
ATOM     19  H   UNL     1      15.258 -30.985  22.779  1.00  0.00     0.293 HD
ENDBRANCH  15  18
BRANCH  17  20
ATOM     20  O   UNL     1      15.289 -29.107  24.653  1.00  0.00    -0.504 OA
ATOM     21  H   UNL     1      14.976 -28.291  25.165  1.00  0.00     0.293 HD
ENDBRANCH  17  20
ENDBRANCH   1  12
BRANCH   2  22
ATOM     22  O   UNL     1      20.487 -26.860  23.689  1.00  0.00    -0.502 OA
ATOM     23  H   UNL     1      19.588 -26.573  23.318  1.00  0.00     0.293 HD
ENDBRANCH   2  22
BRANCH   6  24
ATOM     24  O   UNL     1      23.775 -24.986  27.437  1.00  0.00    -0.507 OA
ATOM     25  H   UNL     1      24.077 -24.919  26.477  1.00  0.00     0.293 HD
ENDBRANCH   6  24
BRANCH   8  26
ATOM     26  O   UNL     1      22.305 -27.508  31.227  1.00  0.00    -0.508 OA
ATOM     27  H   UNL     1      22.959 -28.207  31.561  1.00  0.00     0.293 HD
ENDBRANCH   8  26
TORSDOF 6
ENDMDL
MODEL 8
REMARK VINA RESULT:    -5.113      8.090      9.768
REMARK INTER + INTRA:          -6.432
REMARK INTER:                  -6.228
REMARK INTRA:                  -0.204
REMARK UNBOUND:                -0.273
REMARK SMILES O=c1c(O)c(-c2ccc(O)c(O)c2)oc2cc(O)cc(O)c12
REMARK SMILES IDX 5 1 3 2 2 3 1 4 22 5 20 6 19 7 17 8 16 9 15 10 14 11 6 12
REMARK SMILES IDX 7 13 8 14 9 15 13 16 11 17 10 18 12 20 4 22 21 24 18 26
REMARK H PARENT 10 19 12 21 4 23 21 25 18 27
REMARK Flexibility Score: inf
ROOT
ATOM      1  C   UNL     1      19.804 -27.624  25.079  1.00  0.00     0.180 A 
ATOM      2  C   UNL     1      19.110 -26.851  24.133  1.00  0.00     0.208 A 
ATOM      3  C   UNL     1      17.972 -27.393  23.513  1.00  0.00     0.238 A 
ATOM      4  O   UNL     1      17.400 -26.725  22.613  1.00  0.00    -0.285 OA
ATOM      5  C   UNL     1      17.511 -28.678  23.887  1.00  0.00     0.111 A 
ATOM      6  C   UNL     1      16.343 -29.308  23.358  1.00  0.00     0.134 A 
ATOM      7  C   UNL     1      16.043 -30.626  23.725  1.00  0.00     0.093 A 
ATOM      8  C   UNL     1      16.829 -31.314  24.649  1.00  0.00     0.123 A 
ATOM      9  C   UNL     1      17.940 -30.688  25.214  1.00  0.00     0.094 A 
ATOM     10  C   UNL     1      18.288 -29.388  24.839  1.00  0.00     0.146 A 
ATOM     11  O   UNL     1      19.366 -28.839  25.385  1.00  0.00    -0.452 OA
ENDROOT
BRANCH   1  12
ATOM     12  C   UNL     1      21.020 -27.127  25.764  1.00  0.00     0.025 A 
ATOM     13  C   UNL     1      22.202 -26.948  25.028  1.00  0.00     0.016 A 
ATOM     14  C   UNL     1      23.355 -26.460  25.647  1.00  0.00     0.051 A 
ATOM     15  C   UNL     1      23.339 -26.127  27.007  1.00  0.00     0.157 A 
ATOM     16  C   UNL     1      21.002 -26.772  27.124  1.00  0.00     0.062 A 
ATOM     17  C   UNL     1      22.155 -26.280  27.748  1.00  0.00     0.158 A 
BRANCH  15  18
ATOM     18  O   UNL     1      24.491 -25.642  27.624  1.00  0.00    -0.504 OA
ATOM     19  H   UNL     1      25.084 -26.241  28.187  1.00  0.00     0.293 HD
ENDBRANCH  15  18
BRANCH  17  20
ATOM     20  O   UNL     1      22.102 -25.944  29.100  1.00  0.00    -0.504 OA
ATOM     21  H   UNL     1      21.224 -25.790  29.582  1.00  0.00     0.293 HD
ENDBRANCH  17  20
ENDBRANCH   1  12
BRANCH   2  22
ATOM     22  O   UNL     1      19.538 -25.554  23.833  1.00  0.00    -0.502 OA
ATOM     23  H   UNL     1      19.167 -25.026  23.052  1.00  0.00     0.293 HD
ENDBRANCH   2  22
BRANCH   6  24
ATOM     24  O   UNL     1      15.438 -28.682  22.496  1.00  0.00    -0.507 OA
ATOM     25  H   UNL     1      14.585 -29.097  22.154  1.00  0.00     0.293 HD
ENDBRANCH   6  24
BRANCH   8  26
ATOM     26  O   UNL     1      16.490 -32.617  25.003  1.00  0.00    -0.508 OA
ATOM     27  H   UNL     1      16.331 -32.880  25.970  1.00  0.00     0.293 HD
ENDBRANCH   8  26
TORSDOF 6
ENDMDL
MODEL 9
REMARK VINA RESULT:    -5.003      8.326     10.180
REMARK INTER + INTRA:          -6.299
REMARK INTER:                  -6.172
REMARK INTRA:                  -0.127
REMARK UNBOUND:                -0.273
REMARK SMILES O=c1c(O)c(-c2ccc(O)c(O)c2)oc2cc(O)cc(O)c12
REMARK SMILES IDX 5 1 3 2 2 3 1 4 22 5 20 6 19 7 17 8 16 9 15 10 14 11 6 12
REMARK SMILES IDX 7 13 8 14 9 15 13 16 11 17 10 18 12 20 4 22 21 24 18 26
REMARK H PARENT 10 19 12 21 4 23 21 25 18 27
REMARK Flexibility Score: inf
ROOT
ATOM      1  C   UNL     1      19.912 -28.131  25.779  1.00  0.00     0.180 A 
ATOM      2  C   UNL     1      19.733 -29.463  26.193  1.00  0.00     0.208 A 
ATOM      3  C   UNL     1      18.678 -30.210  25.643  1.00  0.00     0.238 A 
ATOM      4  O   UNL     1      18.478 -31.376  26.072  1.00  0.00    -0.285 OA
ATOM      5  C   UNL     1      17.851 -29.635  24.648  1.00  0.00     0.111 A 
ATOM      6  C   UNL     1      16.780 -30.314  23.990  1.00  0.00     0.134 A 
ATOM      7  C   UNL     1      15.962 -29.611  23.097  1.00  0.00     0.093 A 
ATOM      8  C   UNL     1      16.212 -28.274  22.790  1.00  0.00     0.123 A 
ATOM      9  C   UNL     1      17.288 -27.616  23.385  1.00  0.00     0.094 A 
ATOM     10  C   UNL     1      18.100 -28.279  24.309  1.00  0.00     0.146 A 
ATOM     11  O   UNL     1      19.100 -27.610  24.868  1.00  0.00    -0.452 OA
ENDROOT
BRANCH   1  12
ATOM     12  C   UNL     1      20.993 -27.276  26.324  1.00  0.00     0.025 A 
ATOM     13  C   UNL     1      21.910 -26.681  25.444  1.00  0.00     0.016 A 
ATOM     14  C   UNL     1      22.925 -25.854  25.932  1.00  0.00     0.051 A 
ATOM     15  C   UNL     1      23.026 -25.596  27.305  1.00  0.00     0.157 A 
ATOM     16  C   UNL     1      21.085 -26.998  27.699  1.00  0.00     0.062 A 
ATOM     17  C   UNL     1      22.098 -26.168  28.192  1.00  0.00     0.158 A 
BRANCH  15  18
ATOM     18  O   UNL     1      24.041 -24.772  27.791  1.00  0.00    -0.504 OA
ATOM     19  H   UNL     1      23.881 -23.789  27.981  1.00  0.00     0.293 HD
ENDBRANCH  15  18
BRANCH  17  20
ATOM     20  O   UNL     1      22.163 -25.919  29.562  1.00  0.00    -0.504 OA
ATOM     21  H   UNL     1      23.037 -25.942  30.072  1.00  0.00     0.293 HD
ENDBRANCH  17  20
ENDBRANCH   1  12
BRANCH   2  22
ATOM     22  O   UNL     1      20.607 -30.036  27.120  1.00  0.00    -0.502 OA
ATOM     23  H   UNL     1      20.666 -29.720  28.081  1.00  0.00     0.293 HD
ENDBRANCH   2  22
BRANCH   6  24
ATOM     24  O   UNL     1      16.496 -31.672  24.154  1.00  0.00    -0.507 OA
ATOM     25  H   UNL     1      16.876 -32.416  23.588  1.00  0.00     0.293 HD
ENDBRANCH   6  24
BRANCH   8  26
ATOM     26  O   UNL     1      15.387 -27.612  21.884  1.00  0.00    -0.508 OA
ATOM     27  H   UNL     1      15.415 -27.819  20.892  1.00  0.00     0.293 HD
ENDBRANCH   8  26
TORSDOF 6
ENDMDL
