MODEL 1
REMARK VINA RESULT:    28.749      0.000      0.000
REMARK INTER + INTRA:          71.709
REMARK INTER:                  72.446
REMARK INTRA:                  -0.737
REMARK UNBOUND:                -0.737
REMARK SMILES CCCCCCCCCCCCCCCCCCCCCCCCCCCC(=O)[O-]
REMARK SMILES IDX 15 1 16 2 17 3 18 4 19 5 20 6 21 7 22 8 23 9 24 10 25 11
REMARK SMILES IDX 26 12 27 13 28 14 29 15 30 16 14 17 13 18 12 19 11 20 10 21
REMARK SMILES IDX 9 22 8 23 7 24 6 25 5 26 4 27 3 28 2 29 1 30
REMARK H PARENT
REMARK Flexibility Score: inf
ROOT
ATOM      1  C   UNL     1      -9.927 -16.628  18.529  1.00  0.00     0.000 C 
ENDROOT
BRANCH   1   2
ATOM      2  C   UNL     1      -9.673 -15.395  17.648  1.00  0.00     0.000 C 
BRANCH   2   3
ATOM      3  C   UNL     1      -8.507 -14.530  18.157  1.00  0.00     0.000 C 
BRANCH   3   4
ATOM      4  C   UNL     1      -8.869 -13.560  19.303  1.00  0.00     0.000 C 
BRANCH   4   5
ATOM      5  C   UNL     1      -8.405 -13.995  20.704  1.00  0.00     0.000 C 
BRANCH   5   6
ATOM      6  C   UNL     1      -8.191 -12.846  21.709  1.00  0.00     0.000 C 
BRANCH   6   7
ATOM      7  C   UNL     1      -7.047 -13.098  22.716  1.00  0.00     0.000 C 
BRANCH   7   8
ATOM      8  C   UNL     1      -7.038 -12.080  23.871  1.00  0.00     0.000 C 
BRANCH   8   9
ATOM      9  C   UNL     1      -6.537 -12.691  25.191  1.00  0.00     0.000 C 
BRANCH   9  10
ATOM     10  C   UNL     1      -5.621 -13.907  24.962  1.00  0.00     0.000 C 
BRANCH  10  11
ATOM     11  C   UNL     1      -4.980 -14.418  26.263  1.00  0.00     0.000 C 
BRANCH  11  12
ATOM     12  C   UNL     1      -5.029 -15.951  26.381  1.00  0.00     0.006 C 
BRANCH  12  13
ATOM     13  C   UNL     1      -4.229 -16.645  25.270  1.00  0.00     0.053 C 
BRANCH  13  14
ATOM     14  C   UNL     1      -5.027 -17.720  24.595  1.00  0.00     0.041 C 
ATOM     15  O   UNL     1      -4.663 -18.170  23.474  1.00  0.00    -0.550 OA
ATOM     16  O   UNL     1      -6.149 -18.250  25.220  1.00  0.00    -0.550 OA
ENDBRANCH  13  14
ENDBRANCH  12  13
ENDBRANCH  11  12
ENDBRANCH  10  11
ENDBRANCH   9  10
ENDBRANCH   8   9
ENDBRANCH   7   8
ENDBRANCH   6   7
ENDBRANCH   5   6
ENDBRANCH   4   5
ENDBRANCH   3   4
ENDBRANCH   2   3
ENDBRANCH   1   2
BRANCH   1  17
ATOM     17  C   UNL     1      -9.601 -17.949  17.806  1.00  0.00     0.000 C 
BRANCH  17  18
ATOM     18  C   UNL     1      -8.227 -17.979  17.103  1.00  0.00     0.000 C 
BRANCH  18  19
ATOM     19  C   UNL     1      -7.867 -19.317  16.425  1.00  0.00     0.000 C 
BRANCH  19  20
ATOM     20  C   UNL     1      -6.359 -19.608  16.331  1.00  0.00     0.000 C 
BRANCH  20  21
ATOM     21  C   UNL     1      -5.898 -19.872  14.887  1.00  0.00     0.000 C 
BRANCH  21  22
ATOM     22  C   UNL     1      -7.029 -19.687  13.864  1.00  0.00    -0.000 C 
BRANCH  22  23
ATOM     23  C   UNL     1      -8.135 -20.748  14.011  1.00  0.00    -0.000 C 
BRANCH  23  24
ATOM     24  C   UNL     1      -9.439 -20.341  13.305  1.00  0.00    -0.000 C 
BRANCH  24  25
ATOM     25  C   UNL     1     -10.536 -21.411  13.430  1.00  0.00    -0.000 C 
BRANCH  25  26
ATOM     26  C   UNL     1     -11.414 -21.521  12.170  1.00  0.00    -0.000 C 
BRANCH  26  27
ATOM     27  C   UNL     1     -10.881 -22.481  11.090  1.00  0.00    -0.000 C 
BRANCH  27  28
ATOM     28  C   UNL     1      -9.900 -23.524  11.644  1.00  0.00    -0.000 C 
BRANCH  28  29
ATOM     29  C   UNL     1      -8.994 -24.069  10.533  1.00  0.00    -0.003 C 
ATOM     30  C   UNL     1      -8.979 -25.594  10.534  1.00  0.00     0.004 C 
ENDBRANCH  28  29
ENDBRANCH  27  28
ENDBRANCH  26  27
ENDBRANCH  25  26
ENDBRANCH  24  25
ENDBRANCH  23  24
ENDBRANCH  22  23
ENDBRANCH  21  22
ENDBRANCH  20  21
ENDBRANCH  19  20
ENDBRANCH  18  19
ENDBRANCH  17  18
ENDBRANCH   1  17
TORSDOF 26
ENDMDL
MODEL 2
REMARK VINA RESULT:    28.914      1.559      3.022
REMARK INTER + INTRA:          72.125
REMARK INTER:                  73.002
REMARK INTRA:                  -0.877
REMARK UNBOUND:                -0.737
REMARK SMILES CCCCCCCCCCCCCCCCCCCCCCCCCCCC(=O)[O-]
REMARK SMILES IDX 15 1 16 2 17 3 18 4 19 5 20 6 21 7 22 8 23 9 24 10 25 11
REMARK SMILES IDX 26 12 27 13 28 14 29 15 30 16 14 17 13 18 12 19 11 20 10 21
REMARK SMILES IDX 9 22 8 23 7 24 6 25 5 26 4 27 3 28 2 29 1 30
REMARK H PARENT
REMARK Flexibility Score: inf
ROOT
ATOM      1  C   UNL     1      -8.206 -14.368  17.974  1.00  0.00     0.000 C 
ENDROOT
BRANCH   1   2
ATOM      2  C   UNL     1      -8.970 -13.692  19.124  1.00  0.00     0.000 C 
BRANCH   2   3
ATOM      3  C   UNL     1      -8.402 -14.050  20.508  1.00  0.00     0.000 C 
BRANCH   3   4
ATOM      4  C   UNL     1      -8.854 -13.123  21.657  1.00  0.00     0.000 C 
BRANCH   4   5
ATOM      5  C   UNL     1      -7.846 -12.030  22.054  1.00  0.00     0.000 C 
BRANCH   5   6
ATOM      6  C   UNL     1      -6.718 -12.492  22.999  1.00  0.00     0.000 C 
BRANCH   6   7
ATOM      7  C   UNL     1      -6.743 -11.812  24.386  1.00  0.00     0.000 C 
BRANCH   7   8
ATOM      8  C   UNL     1      -6.441 -12.792  25.534  1.00  0.00     0.000 C 
BRANCH   8   9
ATOM      9  C   UNL     1      -5.524 -13.947  25.096  1.00  0.00     0.000 C 
BRANCH   9  10
ATOM     10  C   UNL     1      -4.977 -14.746  26.292  1.00  0.00     0.000 C 
BRANCH  10  11
ATOM     11  C   UNL     1      -4.458 -16.136  25.888  1.00  0.00     0.000 C 
BRANCH  11  12
ATOM     12  C   UNL     1      -5.283 -17.275  26.511  1.00  0.00     0.006 C 
BRANCH  12  13
ATOM     13  C   UNL     1      -5.330 -18.519  25.612  1.00  0.00     0.053 C 
BRANCH  13  14
ATOM     14  C   UNL     1      -5.350 -18.155  24.158  1.00  0.00     0.041 C 
ATOM     15  O   UNL     1      -4.365 -17.561  23.640  1.00  0.00    -0.550 OA
ATOM     16  O   UNL     1      -6.438 -18.504  23.368  1.00  0.00    -0.550 OA
ENDBRANCH  13  14
ENDBRANCH  12  13
ENDBRANCH  11  12
ENDBRANCH  10  11
ENDBRANCH   9  10
ENDBRANCH   8   9
ENDBRANCH   7   8
ENDBRANCH   6   7
ENDBRANCH   5   6
ENDBRANCH   4   5
ENDBRANCH   3   4
ENDBRANCH   2   3
ENDBRANCH   1   2
BRANCH   1  17
ATOM     17  C   UNL     1      -9.105 -15.289  17.128  1.00  0.00     0.000 C 
BRANCH  17  18
ATOM     18  C   UNL     1     -10.137 -16.104  17.936  1.00  0.00     0.000 C 
BRANCH  18  19
ATOM     19  C   UNL     1      -9.705 -17.542  18.289  1.00  0.00     0.000 C 
BRANCH  19  20
ATOM     20  C   UNL     1      -9.610 -18.502  17.089  1.00  0.00     0.000 C 
BRANCH  20  21
ATOM     21  C   UNL     1      -8.479 -19.532  17.246  1.00  0.00     0.000 C 
BRANCH  21  22
ATOM     22  C   UNL     1      -7.085 -18.910  17.063  1.00  0.00    -0.000 C 
BRANCH  22  23
ATOM     23  C   UNL     1      -6.752 -18.636  15.586  1.00  0.00    -0.000 C 
BRANCH  23  24
ATOM     24  C   UNL     1      -5.545 -19.451  15.093  1.00  0.00    -0.000 C 
BRANCH  24  25
ATOM     25  C   UNL     1      -5.897 -20.371  13.911  1.00  0.00    -0.000 C 
BRANCH  25  26
ATOM     26  C   UNL     1      -7.322 -20.945  14.002  1.00  0.00    -0.000 C 
BRANCH  26  27
ATOM     27  C   UNL     1      -8.442 -19.971  13.589  1.00  0.00    -0.000 C 
BRANCH  27  28
ATOM     28  C   UNL     1      -9.833 -20.420  14.059  1.00  0.00    -0.000 C 
BRANCH  28  29
ATOM     29  C   UNL     1     -10.419 -21.472  13.110  1.00  0.00    -0.003 C 
ATOM     30  C   UNL     1     -11.576 -22.220  13.764  1.00  0.00     0.004 C 
ENDBRANCH  28  29
ENDBRANCH  27  28
ENDBRANCH  26  27
ENDBRANCH  25  26
ENDBRANCH  24  25
ENDBRANCH  23  24
ENDBRANCH  22  23
ENDBRANCH  21  22
ENDBRANCH  20  21
ENDBRANCH  19  20
ENDBRANCH  18  19
ENDBRANCH  17  18
ENDBRANCH   1  17
TORSDOF 26
ENDMDL
MODEL 3
REMARK VINA RESULT:    28.953      1.043      2.248
REMARK INTER + INTRA:          72.225
REMARK INTER:                  73.617
REMARK INTRA:                  -1.392
REMARK UNBOUND:                -0.737
REMARK SMILES CCCCCCCCCCCCCCCCCCCCCCCCCCCC(=O)[O-]
REMARK SMILES IDX 15 1 16 2 17 3 18 4 19 5 20 6 21 7 22 8 23 9 24 10 25 11
REMARK SMILES IDX 26 12 27 13 28 14 29 15 30 16 14 17 13 18 12 19 11 20 10 21
REMARK SMILES IDX 9 22 8 23 7 24 6 25 5 26 4 27 3 28 2 29 1 30
REMARK H PARENT
REMARK Flexibility Score: inf
ROOT
ATOM      1  C   UNL     1      -9.676 -13.449  18.179  1.00  0.00     0.000 C 
ENDROOT
BRANCH   1   2
ATOM      2  C   UNL     1      -8.542 -13.779  19.163  1.00  0.00     0.000 C 
BRANCH   2   3
ATOM      3  C   UNL     1      -9.009 -13.792  20.629  1.00  0.00     0.000 C 
BRANCH   3   4
ATOM      4  C   UNL     1      -8.471 -12.631  21.493  1.00  0.00     0.000 C 
BRANCH   4   5
ATOM      5  C   UNL     1      -7.190 -12.943  22.287  1.00  0.00     0.000 C 
BRANCH   5   6
ATOM      6  C   UNL     1      -6.823 -11.909  23.370  1.00  0.00     0.000 C 
BRANCH   6   7
ATOM      7  C   UNL     1      -6.797 -12.483  24.804  1.00  0.00     0.000 C 
BRANCH   7   8
ATOM      8  C   UNL     1      -5.817 -13.661  24.953  1.00  0.00     0.000 C 
BRANCH   8   9
ATOM      9  C   UNL     1      -5.586 -14.052  26.423  1.00  0.00     0.000 C 
BRANCH   9  10
ATOM     10  C   UNL     1      -4.334 -14.927  26.607  1.00  0.00     0.000 C 
BRANCH  10  11
ATOM     11  C   UNL     1      -4.349 -16.177  25.711  1.00  0.00     0.000 C 
BRANCH  11  12
ATOM     12  C   UNL     1      -5.504 -17.133  26.054  1.00  0.00     0.006 C 
BRANCH  12  13
ATOM     13  C   UNL     1      -5.401 -18.465  25.298  1.00  0.00     0.053 C 
BRANCH  13  14
ATOM     14  C   UNL     1      -5.523 -18.276  23.815  1.00  0.00     0.041 C 
ATOM     15  O   UNL     1      -4.540 -17.852  23.148  1.00  0.00    -0.550 OA
ATOM     16  O   UNL     1      -6.708 -18.601  23.167  1.00  0.00    -0.550 OA
ENDBRANCH  13  14
ENDBRANCH  12  13
ENDBRANCH  11  12
ENDBRANCH  10  11
ENDBRANCH   9  10
ENDBRANCH   8   9
ENDBRANCH   7   8
ENDBRANCH   6   7
ENDBRANCH   5   6
ENDBRANCH   4   5
ENDBRANCH   3   4
ENDBRANCH   2   3
ENDBRANCH   1   2
BRANCH   1  17
ATOM     17  C   UNL     1      -9.871 -14.544  17.114  1.00  0.00     0.000 C 
BRANCH  17  18
ATOM     18  C   UNL     1      -8.990 -15.796  17.305  1.00  0.00     0.000 C 
BRANCH  18  19
ATOM     19  C   UNL     1      -9.669 -16.970  18.040  1.00  0.00     0.000 C 
BRANCH  19  20
ATOM     20  C   UNL     1      -9.599 -18.321  17.305  1.00  0.00     0.000 C 
BRANCH  20  21
ATOM     21  C   UNL     1      -8.153 -18.761  17.016  1.00  0.00     0.000 C 
BRANCH  21  22
ATOM     22  C   UNL     1      -8.082 -19.939  16.031  1.00  0.00    -0.000 C 
BRANCH  22  23
ATOM     23  C   UNL     1      -7.846 -19.481  14.581  1.00  0.00    -0.000 C 
BRANCH  23  24
ATOM     24  C   UNL     1      -8.838 -20.117  13.594  1.00  0.00    -0.000 C 
BRANCH  24  25
ATOM     25  C   UNL     1     -10.111 -20.633  14.287  1.00  0.00    -0.000 C 
BRANCH  25  26
ATOM     26  C   UNL     1     -10.575 -21.999  13.748  1.00  0.00    -0.000 C 
BRANCH  26  27
ATOM     27  C   UNL     1      -9.937 -22.420  12.411  1.00  0.00    -0.000 C 
BRANCH  27  28
ATOM     28  C   UNL     1     -10.067 -23.923  12.130  1.00  0.00    -0.000 C 
BRANCH  28  29
ATOM     29  C   UNL     1      -9.082 -24.365  11.040  1.00  0.00    -0.003 C 
ATOM     30  C   UNL     1      -8.327 -23.171  10.465  1.00  0.00     0.004 C 
ENDBRANCH  28  29
ENDBRANCH  27  28
ENDBRANCH  26  27
ENDBRANCH  25  26
ENDBRANCH  24  25
ENDBRANCH  23  24
ENDBRANCH  22  23
ENDBRANCH  21  22
ENDBRANCH  20  21
ENDBRANCH  19  20
ENDBRANCH  18  19
ENDBRANCH  17  18
ENDBRANCH   1  17
TORSDOF 26
ENDMDL
MODEL 4
REMARK VINA RESULT:    28.957      4.339     12.636
REMARK INTER + INTRA:          72.234
REMARK INTER:                  73.128
REMARK INTRA:                  -0.894
REMARK UNBOUND:                -0.737
REMARK SMILES CCCCCCCCCCCCCCCCCCCCCCCCCCCC(=O)[O-]
REMARK SMILES IDX 15 1 16 2 17 3 18 4 19 5 20 6 21 7 22 8 23 9 24 10 25 11
REMARK SMILES IDX 26 12 27 13 28 14 29 15 30 16 14 17 13 18 12 19 11 20 10 21
REMARK SMILES IDX 9 22 8 23 7 24 6 25 5 26 4 27 3 28 2 29 1 30
REMARK H PARENT
REMARK Flexibility Score: inf
ROOT
ATOM      1  C   UNL     1      -9.751 -14.447  17.293  1.00  0.00     0.000 C 
ENDROOT
BRANCH   1   2
ATOM      2  C   UNL     1      -9.396 -15.931  17.102  1.00  0.00     0.000 C 
BRANCH   2   3
ATOM      3  C   UNL     1      -9.622 -16.766  18.374  1.00  0.00     0.000 C 
BRANCH   3   4
ATOM      4  C   UNL     1     -10.153 -18.195  18.128  1.00  0.00     0.000 C 
BRANCH   4   5
ATOM      5  C   UNL     1      -9.843 -18.781  16.740  1.00  0.00     0.000 C 
BRANCH   5   6
ATOM      6  C   UNL     1      -8.438 -19.400  16.590  1.00  0.00     0.000 C 
BRANCH   6   7
ATOM      7  C   UNL     1      -7.756 -19.088  15.240  1.00  0.00     0.000 C 
BRANCH   7   8
ATOM      8  C   UNL     1      -7.996 -20.184  14.186  1.00  0.00     0.000 C 
BRANCH   8   9
ATOM      9  C   UNL     1      -9.249 -19.918  13.334  1.00  0.00     0.000 C 
BRANCH   9  10
ATOM     10  C   UNL     1     -10.433 -20.814  13.739  1.00  0.00     0.000 C 
BRANCH  10  11
ATOM     11  C   UNL     1     -10.180 -22.301  13.441  1.00  0.00     0.000 C 
BRANCH  11  12
ATOM     12  C   UNL     1      -9.800 -22.550  11.971  1.00  0.00     0.006 C 
BRANCH  12  13
ATOM     13  C   UNL     1      -8.884 -23.771  11.806  1.00  0.00     0.053 C 
BRANCH  13  14
ATOM     14  C   UNL     1      -9.086 -24.445  10.483  1.00  0.00     0.041 C 
ATOM     15  O   UNL     1      -8.948 -23.793   9.412  1.00  0.00    -0.550 OA
ATOM     16  O   UNL     1      -9.391 -25.799  10.431  1.00  0.00    -0.550 OA
ENDBRANCH  13  14
ENDBRANCH  12  13
ENDBRANCH  11  12
ENDBRANCH  10  11
ENDBRANCH   9  10
ENDBRANCH   8   9
ENDBRANCH   7   8
ENDBRANCH   6   7
ENDBRANCH   5   6
ENDBRANCH   4   5
ENDBRANCH   3   4
ENDBRANCH   2   3
ENDBRANCH   1   2
BRANCH   1  17
ATOM     17  C   UNL     1      -8.808 -13.737  18.282  1.00  0.00     0.000 C 
BRANCH  17  18
ATOM     18  C   UNL     1      -8.804 -14.327  19.708  1.00  0.00     0.000 C 
BRANCH  18  19
ATOM     19  C   UNL     1      -8.853 -13.287  20.847  1.00  0.00     0.000 C 
BRANCH  19  20
ATOM     20  C   UNL     1      -7.763 -13.452  21.921  1.00  0.00     0.000 C 
BRANCH  20  21
ATOM     21  C   UNL     1      -7.538 -12.168  22.737  1.00  0.00     0.000 C 
BRANCH  21  22
ATOM     22  C   UNL     1      -6.240 -12.212  23.559  1.00  0.00    -0.000 C 
BRANCH  22  23
ATOM     23  C   UNL     1      -6.500 -12.153  25.075  1.00  0.00    -0.000 C 
BRANCH  23  24
ATOM     24  C   UNL     1      -6.468 -13.543  25.731  1.00  0.00    -0.000 C 
BRANCH  24  25
ATOM     25  C   UNL     1      -5.049 -14.132  25.797  1.00  0.00    -0.000 C 
BRANCH  25  26
ATOM     26  C   UNL     1      -4.869 -15.135  26.951  1.00  0.00    -0.000 C 
BRANCH  26  27
ATOM     27  C   UNL     1      -4.780 -16.611  26.520  1.00  0.00    -0.000 C 
BRANCH  27  28
ATOM     28  C   UNL     1      -5.469 -16.887  25.177  1.00  0.00    -0.000 C 
BRANCH  28  29
ATOM     29  C   UNL     1      -5.081 -18.269  24.636  1.00  0.00    -0.003 C 
ATOM     30  C   UNL     1      -5.998 -18.690  23.493  1.00  0.00     0.004 C 
ENDBRANCH  28  29
ENDBRANCH  27  28
ENDBRANCH  26  27
ENDBRANCH  25  26
ENDBRANCH  24  25
ENDBRANCH  23  24
ENDBRANCH  22  23
ENDBRANCH  21  22
ENDBRANCH  20  21
ENDBRANCH  19  20
ENDBRANCH  18  19
ENDBRANCH  17  18
ENDBRANCH   1  17
TORSDOF 26
ENDMDL
MODEL 5
REMARK VINA RESULT:    29.188      4.685      5.691
REMARK INTER + INTRA:          72.816
REMARK INTER:                  74.153
REMARK INTRA:                  -1.337
REMARK UNBOUND:                -0.737
REMARK SMILES CCCCCCCCCCCCCCCCCCCCCCCCCCCC(=O)[O-]
REMARK SMILES IDX 15 1 16 2 17 3 18 4 19 5 20 6 21 7 22 8 23 9 24 10 25 11
REMARK SMILES IDX 26 12 27 13 28 14 29 15 30 16 14 17 13 18 12 19 11 20 10 21
REMARK SMILES IDX 9 22 8 23 7 24 6 25 5 26 4 27 3 28 2 29 1 30
REMARK H PARENT
REMARK Flexibility Score: inf
ROOT
ATOM      1  C   UNL     1      -8.292 -14.703  18.341  1.00  0.00     0.000 C 
ENDROOT
BRANCH   1   2
ATOM      2  C   UNL     1      -8.919 -14.249  19.669  1.00  0.00     0.000 C 
BRANCH   2   3
ATOM      3  C   UNL     1      -8.082 -13.176  20.387  1.00  0.00     0.000 C 
BRANCH   3   4
ATOM      4  C   UNL     1      -8.665 -12.688  21.731  1.00  0.00     0.000 C 
BRANCH   4   5
ATOM      5  C   UNL     1      -7.767 -12.920  22.959  1.00  0.00     0.000 C 
BRANCH   5   6
ATOM      6  C   UNL     1      -6.889 -11.719  23.364  1.00  0.00     0.000 C 
BRANCH   6   7
ATOM      7  C   UNL     1      -6.065 -11.949  24.650  1.00  0.00     0.000 C 
BRANCH   7   8
ATOM      8  C   UNL     1      -6.052 -13.425  25.091  1.00  0.00     0.000 C 
BRANCH   8   9
ATOM      9  C   UNL     1      -4.857 -13.757  26.001  1.00  0.00     0.000 C 
BRANCH   9  10
ATOM     10  C   UNL     1      -4.475 -15.246  25.946  1.00  0.00     0.000 C 
BRANCH  10  11
ATOM     11  C   UNL     1      -5.259 -16.097  26.958  1.00  0.00     0.000 C 
BRANCH  11  12
ATOM     12  C   UNL     1      -6.135 -17.163  26.277  1.00  0.00     0.006 C 
BRANCH  12  13
ATOM     13  C   UNL     1      -5.297 -18.266  25.615  1.00  0.00     0.053 C 
BRANCH  13  14
ATOM     14  C   UNL     1      -5.348 -18.184  24.119  1.00  0.00     0.041 C 
ATOM     15  O   UNL     1      -4.442 -17.575  23.487  1.00  0.00    -0.550 OA
ATOM     16  O   UNL     1      -6.374 -18.809  23.421  1.00  0.00    -0.550 OA
ENDBRANCH  13  14
ENDBRANCH  12  13
ENDBRANCH  11  12
ENDBRANCH  10  11
ENDBRANCH   9  10
ENDBRANCH   8   9
ENDBRANCH   7   8
ENDBRANCH   6   7
ENDBRANCH   5   6
ENDBRANCH   4   5
ENDBRANCH   3   4
ENDBRANCH   2   3
ENDBRANCH   1   2
BRANCH   1  17
ATOM     17  C   UNL     1      -9.349 -15.090  17.289  1.00  0.00     0.000 C 
BRANCH  17  18
ATOM     18  C   UNL     1     -10.438 -14.024  17.045  1.00  0.00     0.000 C 
BRANCH  18  19
ATOM     19  C   UNL     1     -10.625 -13.604  15.573  1.00  0.00     0.000 C 
BRANCH  19  20
ATOM     20  C   UNL     1      -9.328 -13.208  14.844  1.00  0.00     0.000 C 
BRANCH  20  21
ATOM     21  C   UNL     1      -9.595 -12.441  13.538  1.00  0.00     0.000 C 
BRANCH  21  22
ATOM     22  C   UNL     1      -9.089 -13.194  12.298  1.00  0.00    -0.000 C 
BRANCH  22  23
ATOM     23  C   UNL     1     -10.190 -13.399  11.243  1.00  0.00    -0.000 C 
BRANCH  23  24
ATOM     24  C   UNL     1     -11.058 -12.145  11.047  1.00  0.00    -0.000 C 
BRANCH  24  25
ATOM     25  C   UNL     1     -12.556 -12.477  10.929  1.00  0.00    -0.000 C 
BRANCH  25  26
ATOM     26  C   UNL     1     -12.815 -13.890  10.376  1.00  0.00    -0.000 C 
BRANCH  26  27
ATOM     27  C   UNL     1     -12.681 -14.023   8.847  1.00  0.00    -0.000 C 
BRANCH  27  28
ATOM     28  C   UNL     1     -13.713 -14.981   8.235  1.00  0.00    -0.000 C 
BRANCH  28  29
ATOM     29  C   UNL     1     -13.206 -16.428   8.274  1.00  0.00    -0.003 C 
ATOM     30  C   UNL     1     -12.858 -16.927   6.875  1.00  0.00     0.004 C 
ENDBRANCH  28  29
ENDBRANCH  27  28
ENDBRANCH  26  27
ENDBRANCH  25  26
ENDBRANCH  24  25
ENDBRANCH  23  24
ENDBRANCH  22  23
ENDBRANCH  21  22
ENDBRANCH  20  21
ENDBRANCH  19  20
ENDBRANCH  18  19
ENDBRANCH  17  18
ENDBRANCH   1  17
TORSDOF 26
ENDMDL
MODEL 6
REMARK VINA RESULT:    29.310      4.980      7.135
REMARK INTER + INTRA:          73.124
REMARK INTER:                  73.355
REMARK INTRA:                  -0.231
REMARK UNBOUND:                -0.737
REMARK SMILES CCCCCCCCCCCCCCCCCCCCCCCCCCCC(=O)[O-]
REMARK SMILES IDX 15 1 16 2 17 3 18 4 19 5 20 6 21 7 22 8 23 9 24 10 25 11
REMARK SMILES IDX 26 12 27 13 28 14 29 15 30 16 14 17 13 18 12 19 11 20 10 21
REMARK SMILES IDX 9 22 8 23 7 24 6 25 5 26 4 27 3 28 2 29 1 30
REMARK H PARENT
REMARK Flexibility Score: inf
ROOT
ATOM      1  C   UNL     1      -9.004 -13.559  19.199  1.00  0.00     0.000 C 
ENDROOT
BRANCH   1   2
ATOM      2  C   UNL     1      -8.826 -13.907  20.686  1.00  0.00     0.000 C 
BRANCH   2   3
ATOM      3  C   UNL     1      -8.217 -12.751  21.499  1.00  0.00     0.000 C 
BRANCH   3   4
ATOM      4  C   UNL     1      -7.263 -13.185  22.633  1.00  0.00     0.000 C 
BRANCH   4   5
ATOM      5  C   UNL     1      -6.506 -12.040  23.329  1.00  0.00     0.000 C 
BRANCH   5   6
ATOM      6  C   UNL     1      -6.879 -11.812  24.807  1.00  0.00     0.000 C 
BRANCH   6   7
ATOM      7  C   UNL     1      -6.580 -13.020  25.723  1.00  0.00     0.000 C 
BRANCH   7   8
ATOM      8  C   UNL     1      -5.341 -13.814  25.272  1.00  0.00     0.000 C 
BRANCH   8   9
ATOM      9  C   UNL     1      -4.685 -14.589  26.428  1.00  0.00     0.000 C 
BRANCH   9  10
ATOM     10  C   UNL     1      -5.325 -15.971  26.644  1.00  0.00     0.000 C 
BRANCH  10  11
ATOM     11  C   UNL     1      -4.648 -17.074  25.815  1.00  0.00     0.000 C 
BRANCH  11  12
ATOM     12  C   UNL     1      -5.379 -18.424  25.921  1.00  0.00     0.006 C 
BRANCH  12  13
ATOM     13  C   UNL     1      -5.914 -18.903  24.565  1.00  0.00     0.053 C 
BRANCH  13  14
ATOM     14  C   UNL     1      -5.406 -18.060  23.434  1.00  0.00     0.041 C 
ATOM     15  O   UNL     1      -6.196 -17.666  22.533  1.00  0.00    -0.550 OA
ATOM     16  O   UNL     1      -4.071 -17.680  23.394  1.00  0.00    -0.550 OA
ENDBRANCH  13  14
ENDBRANCH  12  13
ENDBRANCH  11  12
ENDBRANCH  10  11
ENDBRANCH   9  10
ENDBRANCH   8   9
ENDBRANCH   7   8
ENDBRANCH   6   7
ENDBRANCH   5   6
ENDBRANCH   4   5
ENDBRANCH   3   4
ENDBRANCH   2   3
ENDBRANCH   1   2
BRANCH   1  17
ATOM     17  C   UNL     1      -8.727 -14.760  18.275  1.00  0.00     0.000 C 
BRANCH  17  18
ATOM     18  C   UNL     1      -9.780 -14.980  17.168  1.00  0.00     0.000 C 
BRANCH  18  19
ATOM     19  C   UNL     1     -10.423 -13.693  16.611  1.00  0.00     0.000 C 
BRANCH  19  20
ATOM     20  C   UNL     1     -11.942 -13.779  16.375  1.00  0.00     0.000 C 
BRANCH  20  21
ATOM     21  C   UNL     1     -12.294 -14.172  14.930  1.00  0.00     0.000 C 
BRANCH  21  22
ATOM     22  C   UNL     1     -11.052 -14.521  14.095  1.00  0.00    -0.000 C 
BRANCH  22  23
ATOM     23  C   UNL     1     -11.335 -14.501  12.582  1.00  0.00    -0.000 C 
BRANCH  23  24
ATOM     24  C   UNL     1     -10.666 -13.312  11.874  1.00  0.00    -0.000 C 
BRANCH  24  25
ATOM     25  C   UNL     1      -9.441 -12.782  12.640  1.00  0.00    -0.000 C 
BRANCH  25  26
ATOM     26  C   UNL     1      -9.778 -11.597  13.562  1.00  0.00    -0.000 C 
BRANCH  26  27
ATOM     27  C   UNL     1      -8.864 -10.368  13.399  1.00  0.00    -0.000 C 
BRANCH  27  28
ATOM     28  C   UNL     1      -9.642  -9.072  13.127  1.00  0.00    -0.000 C 
BRANCH  28  29
ATOM     29  C   UNL     1     -11.151  -9.341  13.073  1.00  0.00    -0.003 C 
ATOM     30  C   UNL     1     -11.591  -9.723  11.663  1.00  0.00     0.004 C 
ENDBRANCH  28  29
ENDBRANCH  27  28
ENDBRANCH  26  27
ENDBRANCH  25  26
ENDBRANCH  24  25
ENDBRANCH  23  24
ENDBRANCH  22  23
ENDBRANCH  21  22
ENDBRANCH  20  21
ENDBRANCH  19  20
ENDBRANCH  18  19
ENDBRANCH  17  18
ENDBRANCH   1  17
TORSDOF 26
ENDMDL
MODEL 7
REMARK VINA RESULT:    29.539      6.225     12.141
REMARK INTER + INTRA:          73.701
REMARK INTER:                  74.131
REMARK INTRA:                  -0.430
REMARK UNBOUND:                -0.737
REMARK SMILES CCCCCCCCCCCCCCCCCCCCCCCCCCCC(=O)[O-]
REMARK SMILES IDX 15 1 16 2 17 3 18 4 19 5 20 6 21 7 22 8 23 9 24 10 25 11
REMARK SMILES IDX 26 12 27 13 28 14 29 15 30 16 14 17 13 18 12 19 11 20 10 21
REMARK SMILES IDX 9 22 8 23 7 24 6 25 5 26 4 27 3 28 2 29 1 30
REMARK H PARENT
REMARK Flexibility Score: inf
ROOT
ATOM      1  C   UNL     1      -9.070 -15.265  19.311  1.00  0.00     0.000 C 
ENDROOT
BRANCH   1   2
ATOM      2  C   UNL     1      -9.540 -15.275  17.848  1.00  0.00     0.000 C 
BRANCH   2   3
ATOM      3  C   UNL     1      -9.429 -13.895  17.177  1.00  0.00     0.000 C 
BRANCH   3   4
ATOM      4  C   UNL     1     -10.753 -13.105  17.091  1.00  0.00     0.000 C 
BRANCH   4   5
ATOM      5  C   UNL     1     -11.749 -13.607  16.031  1.00  0.00     0.000 C 
BRANCH   5   6
ATOM      6  C   UNL     1     -11.108 -14.189  14.755  1.00  0.00     0.000 C 
BRANCH   6   7
ATOM      7  C   UNL     1     -12.102 -14.937  13.839  1.00  0.00     0.000 C 
BRANCH   7   8
ATOM      8  C   UNL     1     -11.787 -14.749  12.343  1.00  0.00     0.000 C 
BRANCH   8   9
ATOM      9  C   UNL     1     -10.891 -13.528  12.079  1.00  0.00     0.000 C 
BRANCH   9  10
ATOM     10  C   UNL     1      -9.402 -13.905  11.975  1.00  0.00     0.000 C 
BRANCH  10  11
ATOM     11  C   UNL     1      -8.530 -13.158  12.997  1.00  0.00     0.000 C 
BRANCH  11  12
ATOM     12  C   UNL     1      -8.642 -11.630  12.862  1.00  0.00     0.006 C 
BRANCH  12  13
ATOM     13  C   UNL     1     -10.054 -11.119  13.184  1.00  0.00     0.053 C 
BRANCH  13  14
ATOM     14  C   UNL     1     -10.103  -9.623  13.257  1.00  0.00     0.041 C 
ATOM     15  O   UNL     1     -11.036  -9.050  13.883  1.00  0.00    -0.550 OA
ATOM     16  O   UNL     1      -9.102  -8.863  12.665  1.00  0.00    -0.550 OA
ENDBRANCH  13  14
ENDBRANCH  12  13
ENDBRANCH  11  12
ENDBRANCH  10  11
ENDBRANCH   9  10
ENDBRANCH   8   9
ENDBRANCH   7   8
ENDBRANCH   6   7
ENDBRANCH   5   6
ENDBRANCH   4   5
ENDBRANCH   3   4
ENDBRANCH   2   3
ENDBRANCH   1   2
BRANCH   1  17
ATOM     17  C   UNL     1      -8.253 -14.008  19.661  1.00  0.00     0.000 C 
BRANCH  17  18
ATOM     18  C   UNL     1      -8.816 -13.176  20.833  1.00  0.00     0.000 C 
BRANCH  18  19
ATOM     19  C   UNL     1      -7.990 -13.234  22.134  1.00  0.00     0.000 C 
BRANCH  19  20
ATOM     20  C   UNL     1      -7.196 -11.954  22.453  1.00  0.00     0.000 C 
BRANCH  20  21
ATOM     21  C   UNL     1      -6.245 -12.132  23.649  1.00  0.00     0.000 C 
BRANCH  21  22
ATOM     22  C   UNL     1      -6.972 -12.612  24.914  1.00  0.00    -0.000 C 
BRANCH  22  23
ATOM     23  C   UNL     1      -6.000 -13.092  26.006  1.00  0.00    -0.000 C 
BRANCH  23  24
ATOM     24  C   UNL     1      -5.075 -14.218  25.517  1.00  0.00    -0.000 C 
BRANCH  24  25
ATOM     25  C   UNL     1      -5.095 -15.444  26.446  1.00  0.00    -0.000 C 
BRANCH  25  26
ATOM     26  C   UNL     1      -4.644 -16.737  25.743  1.00  0.00    -0.000 C 
BRANCH  26  27
ATOM     27  C   UNL     1      -5.493 -17.981  26.064  1.00  0.00    -0.000 C 
BRANCH  27  28
ATOM     28  C   UNL     1      -5.561 -18.979  24.900  1.00  0.00    -0.000 C 
BRANCH  28  29
ATOM     29  C   UNL     1      -5.997 -18.283  23.605  1.00  0.00    -0.003 C 
ATOM     30  C   UNL     1      -4.794 -17.748  22.835  1.00  0.00     0.004 C 
ENDBRANCH  28  29
ENDBRANCH  27  28
ENDBRANCH  26  27
ENDBRANCH  25  26
ENDBRANCH  24  25
ENDBRANCH  23  24
ENDBRANCH  22  23
ENDBRANCH  21  22
ENDBRANCH  20  21
ENDBRANCH  19  20
ENDBRANCH  18  19
ENDBRANCH  17  18
ENDBRANCH   1  17
TORSDOF 26
ENDMDL
MODEL 8
REMARK VINA RESULT:    29.633      4.882     13.299
REMARK INTER + INTRA:          73.936
REMARK INTER:                  74.200
REMARK INTRA:                  -0.264
REMARK UNBOUND:                -0.737
REMARK SMILES CCCCCCCCCCCCCCCCCCCCCCCCCCCC(=O)[O-]
REMARK SMILES IDX 15 1 16 2 17 3 18 4 19 5 20 6 21 7 22 8 23 9 24 10 25 11
REMARK SMILES IDX 26 12 27 13 28 14 29 15 30 16 14 17 13 18 12 19 11 20 10 21
REMARK SMILES IDX 9 22 8 23 7 24 6 25 5 26 4 27 3 28 2 29 1 30
REMARK H PARENT
REMARK Flexibility Score: inf
ROOT
ATOM      1  C   UNL     1      -8.771 -12.962  21.223  1.00  0.00     0.000 C 
ENDROOT
BRANCH   1   2
ATOM      2  C   UNL     1      -8.585 -13.942  20.053  1.00  0.00     0.000 C 
BRANCH   2   3
ATOM      3  C   UNL     1      -8.723 -13.262  18.679  1.00  0.00     0.000 C 
BRANCH   3   4
ATOM      4  C   UNL     1      -8.841 -14.230  17.483  1.00  0.00     0.000 C 
BRANCH   4   5
ATOM      5  C   UNL     1      -9.976 -15.264  17.583  1.00  0.00     0.000 C 
BRANCH   5   6
ATOM      6  C   UNL     1      -9.610 -16.686  17.113  1.00  0.00     0.000 C 
BRANCH   6   7
ATOM      7  C   UNL     1     -10.044 -17.801  18.090  1.00  0.00     0.000 C 
BRANCH   7   8
ATOM      8  C   UNL     1      -9.248 -19.104  17.895  1.00  0.00     0.000 C 
BRANCH   8   9
ATOM      9  C   UNL     1      -8.718 -19.261  16.460  1.00  0.00     0.000 C 
BRANCH   9  10
ATOM     10  C   UNL     1      -7.187 -19.125  16.382  1.00  0.00     0.000 C 
BRANCH  10  11
ATOM     11  C   UNL     1      -6.600 -19.756  15.109  1.00  0.00     0.000 C 
BRANCH  11  12
ATOM     12  C   UNL     1      -7.540 -19.622  13.899  1.00  0.00     0.006 C 
BRANCH  12  13
ATOM     13  C   UNL     1      -8.898 -20.297  14.139  1.00  0.00     0.053 C 
BRANCH  13  14
ATOM     14  C   UNL     1      -9.862 -20.026  13.023  1.00  0.00     0.041 C 
ATOM     15  O   UNL     1     -10.807 -20.830  12.794  1.00  0.00    -0.550 OA
ATOM     16  O   UNL     1      -9.738 -18.872  12.261  1.00  0.00    -0.550 OA
ENDBRANCH  13  14
ENDBRANCH  12  13
ENDBRANCH  11  12
ENDBRANCH  10  11
ENDBRANCH   9  10
ENDBRANCH   8   9
ENDBRANCH   7   8
ENDBRANCH   6   7
ENDBRANCH   5   6
ENDBRANCH   4   5
ENDBRANCH   3   4
ENDBRANCH   2   3
ENDBRANCH   1   2
BRANCH   1  17
ATOM     17  C   UNL     1      -7.737 -13.177  22.344  1.00  0.00     0.000 C 
BRANCH  17  18
ATOM     18  C   UNL     1      -6.987 -11.902  22.784  1.00  0.00     0.000 C 
BRANCH  18  19
ATOM     19  C   UNL     1      -6.199 -12.028  24.104  1.00  0.00     0.000 C 
BRANCH  19  20
ATOM     20  C   UNL     1      -6.573 -10.996  25.182  1.00  0.00     0.000 C 
BRANCH  20  21
ATOM     21  C   UNL     1      -6.149  -9.566  24.803  1.00  0.00     0.000 C 
BRANCH  21  22
ATOM     22  C   UNL     1      -4.777  -9.186  25.382  1.00  0.00    -0.000 C 
BRANCH  22  23
ATOM     23  C   UNL     1      -3.744  -8.863  24.288  1.00  0.00    -0.000 C 
BRANCH  23  24
ATOM     24  C   UNL     1      -2.405  -8.379  24.866  1.00  0.00    -0.000 C 
BRANCH  24  25
ATOM     25  C   UNL     1      -1.423  -7.918  23.776  1.00  0.00    -0.000 C 
BRANCH  25  26
ATOM     26  C   UNL     1      -1.055  -9.039  22.787  1.00  0.00    -0.000 C 
BRANCH  26  27
ATOM     27  C   UNL     1      -1.353  -8.724  21.309  1.00  0.00    -0.000 C 
BRANCH  27  28
ATOM     28  C   UNL     1      -1.736  -7.257  21.072  1.00  0.00    -0.000 C 
BRANCH  28  29
ATOM     29  C   UNL     1      -3.244  -7.115  20.836  1.00  0.00    -0.003 C 
ATOM     30  C   UNL     1      -3.579  -7.199  19.350  1.00  0.00     0.004 C 
ENDBRANCH  28  29
ENDBRANCH  27  28
ENDBRANCH  26  27
ENDBRANCH  25  26
ENDBRANCH  24  25
ENDBRANCH  23  24
ENDBRANCH  22  23
ENDBRANCH  21  22
ENDBRANCH  20  21
ENDBRANCH  19  20
ENDBRANCH  18  19
ENDBRANCH  17  18
ENDBRANCH   1  17
TORSDOF 26
ENDMDL
MODEL 9
REMARK VINA RESULT:    29.850      2.470      4.719
REMARK INTER + INTRA:          74.483
REMARK INTER:                  74.220
REMARK INTRA:                   0.263
REMARK UNBOUND:                -0.737
REMARK SMILES CCCCCCCCCCCCCCCCCCCCCCCCCCCC(=O)[O-]
REMARK SMILES IDX 15 1 16 2 17 3 18 4 19 5 20 6 21 7 22 8 23 9 24 10 25 11
REMARK SMILES IDX 26 12 27 13 28 14 29 15 30 16 14 17 13 18 12 19 11 20 10 21
REMARK SMILES IDX 9 22 8 23 7 24 6 25 5 26 4 27 3 28 2 29 1 30
REMARK H PARENT
REMARK Flexibility Score: inf
ROOT
ATOM      1  C   UNL     1      -8.572 -14.261  20.785  1.00  0.00     0.000 C 
ENDROOT
BRANCH   1   2
ATOM      2  C   UNL     1      -8.451 -12.917  21.520  1.00  0.00     0.000 C 
BRANCH   2   3
ATOM      3  C   UNL     1      -7.218 -12.850  22.439  1.00  0.00     0.000 C 
BRANCH   3   4
ATOM      4  C   UNL     1      -7.207 -11.663  23.427  1.00  0.00     0.000 C 
BRANCH   4   5
ATOM      5  C   UNL     1      -6.150 -11.748  24.543  1.00  0.00     0.000 C 
BRANCH   5   6
ATOM      6  C   UNL     1      -6.342 -12.909  25.539  1.00  0.00     0.000 C 
BRANCH   6   7
ATOM      7  C   UNL     1      -5.369 -14.088  25.324  1.00  0.00     0.000 C 
BRANCH   7   8
ATOM      8  C   UNL     1      -4.787 -14.627  26.644  1.00  0.00     0.000 C 
BRANCH   8   9
ATOM      9  C   UNL     1      -5.282 -16.047  26.969  1.00  0.00     0.000 C 
BRANCH   9  10
ATOM     10  C   UNL     1      -4.601 -17.118  26.099  1.00  0.00     0.000 C 
BRANCH  10  11
ATOM     11  C   UNL     1      -5.267 -18.497  26.228  1.00  0.00     0.000 C 
BRANCH  11  12
ATOM     12  C   UNL     1      -6.429 -18.684  25.236  1.00  0.00     0.006 C 
BRANCH  12  13
ATOM     13  C   UNL     1      -5.939 -19.061  23.831  1.00  0.00     0.053 C 
BRANCH  13  14
ATOM     14  C   UNL     1      -5.240 -17.919  23.158  1.00  0.00     0.041 C 
ATOM     15  O   UNL     1      -5.906 -17.040  22.546  1.00  0.00    -0.550 OA
ATOM     16  O   UNL     1      -3.858 -17.804  23.237  1.00  0.00    -0.550 OA
ENDBRANCH  13  14
ENDBRANCH  12  13
ENDBRANCH  11  12
ENDBRANCH  10  11
ENDBRANCH   9  10
ENDBRANCH   8   9
ENDBRANCH   7   8
ENDBRANCH   6   7
ENDBRANCH   5   6
ENDBRANCH   4   5
ENDBRANCH   3   4
ENDBRANCH   2   3
ENDBRANCH   1   2
BRANCH   1  17
ATOM     17  C   UNL     1      -9.524 -14.190  19.576  1.00  0.00     0.000 C 
BRANCH  17  18
ATOM     18  C   UNL     1      -8.920 -13.537  18.315  1.00  0.00     0.000 C 
BRANCH  18  19
ATOM     19  C   UNL     1      -7.993 -14.449  17.485  1.00  0.00     0.000 C 
BRANCH  19  20
ATOM     20  C   UNL     1      -8.688 -15.660  16.838  1.00  0.00     0.000 C 
BRANCH  20  21
ATOM     21  C   UNL     1      -9.939 -16.106  17.614  1.00  0.00     0.000 C 
BRANCH  21  22
ATOM     22  C   UNL     1      -9.704 -17.393  18.421  1.00  0.00    -0.000 C 
BRANCH  22  23
ATOM     23  C   UNL     1      -9.959 -18.664  17.591  1.00  0.00    -0.000 C 
BRANCH  23  24
ATOM     24  C   UNL     1      -8.911 -18.864  16.485  1.00  0.00    -0.000 C 
BRANCH  24  25
ATOM     25  C   UNL     1      -7.752 -19.774  16.927  1.00  0.00    -0.000 C 
BRANCH  25  26
ATOM     26  C   UNL     1      -6.368 -19.184  16.600  1.00  0.00    -0.000 C 
BRANCH  26  27
ATOM     27  C   UNL     1      -5.710 -19.741  15.324  1.00  0.00    -0.000 C 
BRANCH  27  28
ATOM     28  C   UNL     1      -6.662 -20.604  14.485  1.00  0.00    -0.000 C 
BRANCH  28  29
ATOM     29  C   UNL     1      -7.576 -19.729  13.618  1.00  0.00    -0.003 C 
ATOM     30  C   UNL     1      -6.795 -18.590  12.971  1.00  0.00     0.004 C 
ENDBRANCH  28  29
ENDBRANCH  27  28
ENDBRANCH  26  27
ENDBRANCH  25  26
ENDBRANCH  24  25
ENDBRANCH  23  24
ENDBRANCH  22  23
ENDBRANCH  21  22
ENDBRANCH  20  21
ENDBRANCH  19  20
ENDBRANCH  18  19
ENDBRANCH  17  18
ENDBRANCH   1  17
TORSDOF 26
ENDMDL
