MODEL 1
REMARK VINA RESULT:    -4.620      0.000      0.000
REMARK INTER + INTRA:          -7.684
REMARK INTER:                  -6.645
REMARK INTRA:                  -1.038
REMARK UNBOUND:                -1.038
REMARK SMILES O=c1cc(-c2ccc(O)c(O)c2)oc2cc(O[C@H]3O[C@H](CO)[C@@H](O)[C@@H](O)[C@@H]3O)cc(O)c12
REMARK SMILES IDX 17 1 16 2 4 3 3 4 13 5 2 6 14 7 1 8 32 9 15 10 30 11 29 12
REMARK SMILES IDX 5 13 6 14 7 15 8 16 12 17 10 18 9 19 11 21 31 23 18 25 27 26
REMARK SMILES IDX 19 27 25 28 20 29 23 30 28 31 26 33 21 35 22 36 24 38
REMARK H PARENT 9 20 11 22 31 24 28 32 26 34 22 37 24 39
REMARK Flexibility Score: inf
ROOT
ATOM      1  O   UNL     1      -2.624   9.996 -10.159  1.00  0.00    -0.462 OA
ENDROOT
BRANCH   1   2
ATOM      2  C   UNL     1      -1.543  10.827  -9.819  1.00  0.00     0.130 A 
ATOM      3  C   UNL     1       0.428  13.582  -6.460  1.00  0.00     0.138 A 
ATOM      4  C   UNL     1       1.519  13.910  -7.280  1.00  0.00     0.100 A 
ATOM      5  O   UNL     1      -0.523  12.776  -6.928  1.00  0.00    -0.456 OA
ATOM      6  C   UNL     1       1.597  13.374  -8.567  1.00  0.00     0.197 A 
ATOM      7  C   UNL     1      -0.494  12.242  -8.145  1.00  0.00     0.146 A 
ATOM      8  O   UNL     1       2.580  13.676  -9.296  1.00  0.00    -0.289 OA
ATOM      9  C   UNL     1       0.578  12.516  -9.026  1.00  0.00     0.107 A 
ATOM     10  C   UNL     1      -1.537  11.403  -8.547  1.00  0.00     0.094 A 
ATOM     11  C   UNL     1       0.580  11.930 -10.312  1.00  0.00     0.134 A 
ATOM     12  C   UNL     1      -0.476  11.090 -10.698  1.00  0.00     0.093 A 
BRANCH   3  13
ATOM     13  C   UNL     1       0.291  14.122  -5.084  1.00  0.00     0.021 A 
ATOM     14  C   UNL     1       0.935  15.310  -4.689  1.00  0.00     0.016 A 
ATOM     15  C   UNL     1       0.797  15.789  -3.383  1.00  0.00     0.051 A 
ATOM     16  C   UNL     1       0.024  15.092  -2.450  1.00  0.00     0.157 A 
ATOM     17  C   UNL     1      -0.474  13.417  -4.137  1.00  0.00     0.062 A 
ATOM     18  C   UNL     1      -0.613  13.899  -2.827  1.00  0.00     0.158 A 
BRANCH  16  19
ATOM     19  O   UNL     1      -0.096  15.597  -1.156  1.00  0.00    -0.504 OA
ATOM     20  H   UNL     1       0.681  16.033  -0.674  1.00  0.00     0.293 HD
ENDBRANCH  16  19
BRANCH  18  21
ATOM     21  O   UNL     1      -1.382  13.196  -1.900  1.00  0.00    -0.504 OA
ATOM     22  H   UNL     1      -1.108  13.126  -0.927  1.00  0.00     0.293 HD
ENDBRANCH  18  21
ENDBRANCH   3  13
BRANCH  11  23
ATOM     23  O   UNL     1       1.621  12.175 -11.209  1.00  0.00    -0.507 OA
ATOM     24  H   UNL     1       1.455  12.287 -12.202  1.00  0.00     0.293 HD
ENDBRANCH  11  23
ENDBRANCH   1   2
BRANCH   1  25
ATOM     25  C   UNL     1      -2.533   8.668 -10.688  1.00  0.00     0.339 C 
ATOM     26  C   UNL     1      -3.926   8.019 -10.854  1.00  0.00     0.214 C 
ATOM     27  O   UNL     1      -1.696   7.866  -9.871  1.00  0.00    -0.332 OA
ATOM     28  C   UNL     1      -4.564   7.748  -9.477  1.00  0.00     0.180 C 
ATOM     29  C   UNL     1      -2.208   7.735  -8.553  1.00  0.00     0.179 C 
ATOM     30  C   UNL     1      -3.570   7.000  -8.569  1.00  0.00     0.177 C 
BRANCH  26  31
ATOM     31  O   UNL     1      -3.784   6.815 -11.564  1.00  0.00    -0.384 OA
ATOM     32  H   UNL     1      -4.179   6.099 -11.000  1.00  0.00     0.211 HD
ENDBRANCH  26  31
BRANCH  28  33
ATOM     33  O   UNL     1      -4.945   8.957  -8.870  1.00  0.00    -0.387 OA
ATOM     34  H   UNL     1      -4.114   9.475  -8.713  1.00  0.00     0.211 HD
ENDBRANCH  28  33
BRANCH  29  35
ATOM     35  C   UNL     1      -1.169   6.969  -7.721  1.00  0.00     0.191 C 
BRANCH  35  36
ATOM     36  O   UNL     1      -1.261   7.328  -6.370  1.00  0.00    -0.394 OA
ATOM     37  H   UNL     1      -1.061   6.504  -5.852  1.00  0.00     0.210 HD
ENDBRANCH  35  36
ENDBRANCH  29  35
BRANCH  30  38
ATOM     38  O   UNL     1      -4.091   6.914  -7.266  1.00  0.00    -0.387 OA
ATOM     39  H   UNL     1      -3.350   6.605  -6.683  1.00  0.00     0.211 HD
ENDBRANCH  30  38
ENDBRANCH   1  25
TORSDOF 11
ENDMDL
MODEL 2
REMARK VINA RESULT:    -4.434      3.327      6.679
REMARK INTER + INTRA:          -7.416
REMARK INTER:                  -6.563
REMARK INTRA:                  -0.853
REMARK UNBOUND:                -1.038
REMARK SMILES O=c1cc(-c2ccc(O)c(O)c2)oc2cc(O[C@H]3O[C@H](CO)[C@@H](O)[C@@H](O)[C@@H]3O)cc(O)c12
REMARK SMILES IDX 17 1 16 2 4 3 3 4 13 5 2 6 14 7 1 8 32 9 15 10 30 11 29 12
REMARK SMILES IDX 5 13 6 14 7 15 8 16 12 17 10 18 9 19 11 21 31 23 18 25 27 26
REMARK SMILES IDX 19 27 25 28 20 29 23 30 28 31 26 33 21 35 22 36 24 38
REMARK H PARENT 9 20 11 22 31 24 28 32 26 34 22 37 24 39
REMARK Flexibility Score: inf
ROOT
ATOM      1  O   UNL     1       3.103   7.889  -6.799  1.00  0.00    -0.462 OA
ENDROOT
BRANCH   1   2
ATOM      2  C   UNL     1       2.643   9.209  -6.943  1.00  0.00     0.130 A 
ATOM      3  C   UNL     1      -0.469  12.102  -9.111  1.00  0.00     0.138 A 
ATOM      4  C   UNL     1       0.036  13.238  -8.459  1.00  0.00     0.100 A 
ATOM      5  O   UNL     1       0.076  10.911  -8.868  1.00  0.00    -0.456 OA
ATOM      6  C   UNL     1       1.091  13.099  -7.556  1.00  0.00     0.197 A 
ATOM      7  C   UNL     1       1.081  10.729  -8.018  1.00  0.00     0.146 A 
ATOM      8  O   UNL     1       1.539  14.126  -6.976  1.00  0.00    -0.289 OA
ATOM      9  C   UNL     1       1.637  11.823  -7.314  1.00  0.00     0.107 A 
ATOM     10  C   UNL     1       1.585   9.440  -7.825  1.00  0.00     0.094 A 
ATOM     11  C   UNL     1       2.704  11.593  -6.416  1.00  0.00     0.134 A 
ATOM     12  C   UNL     1       3.196  10.292  -6.235  1.00  0.00     0.093 A 
BRANCH   3  13
ATOM     13  C   UNL     1      -1.589  12.188 -10.082  1.00  0.00     0.021 A 
ATOM     14  C   UNL     1      -1.926  13.400 -10.716  1.00  0.00     0.016 A 
ATOM     15  C   UNL     1      -2.992  13.454 -11.618  1.00  0.00     0.051 A 
ATOM     16  C   UNL     1      -3.742  12.309 -11.898  1.00  0.00     0.157 A 
ATOM     17  C   UNL     1      -2.356  11.042 -10.357  1.00  0.00     0.062 A 
ATOM     18  C   UNL     1      -3.426  11.097 -11.263  1.00  0.00     0.158 A 
BRANCH  16  19
ATOM     19  O   UNL     1      -4.799  12.395 -12.804  1.00  0.00    -0.504 OA
ATOM     20  H   UNL     1      -5.712  12.005 -12.604  1.00  0.00     0.293 HD
ENDBRANCH  16  19
BRANCH  18  21
ATOM     21  O   UNL     1      -4.173   9.951 -11.534  1.00  0.00    -0.504 OA
ATOM     22  H   UNL     1      -3.806   9.023 -11.357  1.00  0.00     0.293 HD
ENDBRANCH  18  21
ENDBRANCH   3  13
BRANCH  11  23
ATOM     23  O   UNL     1       3.276  12.647  -5.701  1.00  0.00    -0.507 OA
ATOM     24  H   UNL     1       3.598  13.491  -6.162  1.00  0.00     0.293 HD
ENDBRANCH  11  23
ENDBRANCH   1   2
BRANCH   1  25
ATOM     25  C   UNL     1       2.817   7.010  -5.705  1.00  0.00     0.339 C 
ATOM     26  C   UNL     1       3.583   5.674  -5.825  1.00  0.00     0.214 C 
ATOM     27  O   UNL     1       1.420   6.785  -5.604  1.00  0.00    -0.332 OA
ATOM     28  C   UNL     1       3.052   4.850  -7.015  1.00  0.00     0.180 C 
ATOM     29  C   UNL     1       0.899   6.157  -6.767  1.00  0.00     0.179 C 
ATOM     30  C   UNL     1       1.518   4.749  -6.948  1.00  0.00     0.177 C 
BRANCH  26  31
ATOM     31  O   UNL     1       3.425   4.951  -4.631  1.00  0.00    -0.384 OA
ATOM     32  H   UNL     1       4.314   4.929  -4.187  1.00  0.00     0.211 HD
ENDBRANCH  26  31
BRANCH  28  33
ATOM     33  O   UNL     1       3.437   5.445  -8.229  1.00  0.00    -0.387 OA
ATOM     34  H   UNL     1       2.800   6.187  -8.400  1.00  0.00     0.211 HD
ENDBRANCH  28  33
BRANCH  29  35
ATOM     35  C   UNL     1      -0.627   6.080  -6.613  1.00  0.00     0.191 C 
BRANCH  35  36
ATOM     36  O   UNL     1      -1.152   7.339  -6.294  1.00  0.00    -0.394 OA
ATOM     37  H   UNL     1      -1.551   7.249  -5.389  1.00  0.00     0.210 HD
ENDBRANCH  35  36
ENDBRANCH  29  35
BRANCH  30  38
ATOM     38  O   UNL     1       1.030   4.152  -8.123  1.00  0.00    -0.387 OA
ATOM     39  H   UNL     1       0.432   3.412  -7.841  1.00  0.00     0.211 HD
ENDBRANCH  30  38
ENDBRANCH   1  25
TORSDOF 11
ENDMDL
MODEL 3
REMARK VINA RESULT:    -4.412      2.612      4.961
REMARK INTER + INTRA:          -7.384
REMARK INTER:                  -6.467
REMARK INTRA:                  -0.918
REMARK UNBOUND:                -1.038
REMARK SMILES O=c1cc(-c2ccc(O)c(O)c2)oc2cc(O[C@H]3O[C@H](CO)[C@@H](O)[C@@H](O)[C@@H]3O)cc(O)c12
REMARK SMILES IDX 17 1 16 2 4 3 3 4 13 5 2 6 14 7 1 8 32 9 15 10 30 11 29 12
REMARK SMILES IDX 5 13 6 14 7 15 8 16 12 17 10 18 9 19 11 21 31 23 18 25 27 26
REMARK SMILES IDX 19 27 25 28 20 29 23 30 28 31 26 33 21 35 22 36 24 38
REMARK H PARENT 9 20 11 22 31 24 28 32 26 34 22 37 24 39
REMARK Flexibility Score: inf
ROOT
ATOM      1  O   UNL     1       0.441  13.307  -8.289  1.00  0.00    -0.462 OA
ENDROOT
BRANCH   1   2
ATOM      2  C   UNL     1       0.830  13.188  -6.944  1.00  0.00     0.130 A 
ATOM      3  C   UNL     1      -0.589  13.286  -2.391  1.00  0.00     0.138 A 
ATOM      4  C   UNL     1       0.710  13.044  -1.915  1.00  0.00     0.100 A 
ATOM      5  O   UNL     1      -0.799  13.372  -3.703  1.00  0.00    -0.456 OA
ATOM      6  C   UNL     1       1.756  12.883  -2.825  1.00  0.00     0.197 A 
ATOM      7  C   UNL     1       0.164  13.227  -4.608  1.00  0.00     0.146 A 
ATOM      8  O   UNL     1       2.919  12.666  -2.388  1.00  0.00    -0.289 OA
ATOM      9  C   UNL     1       1.495  12.970  -4.207  1.00  0.00     0.107 A 
ATOM     10  C   UNL     1      -0.155  13.331  -5.964  1.00  0.00     0.094 A 
ATOM     11  C   UNL     1       2.495  12.818  -5.195  1.00  0.00     0.134 A 
ATOM     12  C   UNL     1       2.156  12.925  -6.552  1.00  0.00     0.093 A 
BRANCH   3  13
ATOM     13  C   UNL     1      -1.740  13.467  -1.471  1.00  0.00     0.021 A 
ATOM     14  C   UNL     1      -2.623  14.556  -1.596  1.00  0.00     0.016 A 
ATOM     15  C   UNL     1      -3.692  14.707  -0.709  1.00  0.00     0.051 A 
ATOM     16  C   UNL     1      -3.895  13.782   0.320  1.00  0.00     0.157 A 
ATOM     17  C   UNL     1      -1.941  12.547  -0.425  1.00  0.00     0.062 A 
ATOM     18  C   UNL     1      -3.014  12.699   0.465  1.00  0.00     0.158 A 
BRANCH  16  19
ATOM     19  O   UNL     1      -4.971  13.959   1.188  1.00  0.00    -0.504 OA
ATOM     20  H   UNL     1      -5.005  14.720   1.856  1.00  0.00     0.293 HD
ENDBRANCH  16  19
BRANCH  18  21
ATOM     21  O   UNL     1      -3.207  11.775   1.492  1.00  0.00    -0.504 OA
ATOM     22  H   UNL     1      -2.428  11.307   1.939  1.00  0.00     0.293 HD
ENDBRANCH  18  21
ENDBRANCH   3  13
BRANCH  11  23
ATOM     23  O   UNL     1       3.819  12.560  -4.839  1.00  0.00    -0.507 OA
ATOM     24  H   UNL     1       4.256  13.015  -4.045  1.00  0.00     0.293 HD
ENDBRANCH  11  23
ENDBRANCH   1   2
BRANCH   1  25
ATOM     25  C   UNL     1       0.908  12.500  -9.377  1.00  0.00     0.339 C 
ATOM     26  C   UNL     1       0.226  12.882 -10.710  1.00  0.00     0.214 C 
ATOM     27  O   UNL     1       0.720  11.124  -9.089  1.00  0.00    -0.332 OA
ATOM     28  C   UNL     1      -1.269  12.505 -10.680  1.00  0.00     0.180 C 
ATOM     29  C   UNL     1      -0.652  10.801  -8.913  1.00  0.00     0.179 C 
ATOM     30  C   UNL     1      -1.440  11.045 -10.224  1.00  0.00     0.177 C 
BRANCH  26  31
ATOM     31  O   UNL     1       0.871  12.207 -11.760  1.00  0.00    -0.384 OA
ATOM     32  H   UNL     1       1.039  12.878 -12.473  1.00  0.00     0.211 HD
ENDBRANCH  26  31
BRANCH  28  33
ATOM     33  O   UNL     1      -1.970  13.360  -9.811  1.00  0.00    -0.387 OA
ATOM     34  H   UNL     1      -1.547  13.271  -8.917  1.00  0.00     0.211 HD
ENDBRANCH  28  33
BRANCH  29  35
ATOM     35  C   UNL     1      -0.735   9.331  -8.477  1.00  0.00     0.191 C 
BRANCH  35  36
ATOM     36  O   UNL     1      -1.751   9.158  -7.527  1.00  0.00    -0.394 OA
ATOM     37  H   UNL     1      -2.343   9.951  -7.610  1.00  0.00     0.210 HD
ENDBRANCH  35  36
ENDBRANCH  29  35
BRANCH  30  38
ATOM     38  O   UNL     1      -2.803  10.765 -10.030  1.00  0.00    -0.387 OA
ATOM     39  H   UNL     1      -3.114  10.285 -10.840  1.00  0.00     0.211 HD
ENDBRANCH  30  38
ENDBRANCH   1  25
TORSDOF 11
ENDMDL
MODEL 4
REMARK VINA RESULT:    -4.337      3.033      6.460
REMARK INTER + INTRA:          -7.277
REMARK INTER:                  -6.403
REMARK INTRA:                  -0.873
REMARK UNBOUND:                -1.038
REMARK SMILES O=c1cc(-c2ccc(O)c(O)c2)oc2cc(O[C@H]3O[C@H](CO)[C@@H](O)[C@@H](O)[C@@H]3O)cc(O)c12
REMARK SMILES IDX 17 1 16 2 4 3 3 4 13 5 2 6 14 7 1 8 32 9 15 10 30 11 29 12
REMARK SMILES IDX 5 13 6 14 7 15 8 16 12 17 10 18 9 19 11 21 31 23 18 25 27 26
REMARK SMILES IDX 19 27 25 28 20 29 23 30 28 31 26 33 21 35 22 36 24 38
REMARK H PARENT 9 20 11 22 31 24 28 32 26 34 22 37 24 39
REMARK Flexibility Score: inf
ROOT
ATOM      1  O   UNL     1       1.635  13.168  -6.692  1.00  0.00    -0.462 OA
ENDROOT
BRANCH   1   2
ATOM      2  C   UNL     1       1.551  12.935  -5.308  1.00  0.00     0.130 A 
ATOM      3  C   UNL     1      -1.154  13.271  -1.394  1.00  0.00     0.138 A 
ATOM      4  C   UNL     1      -0.152  12.723  -0.578  1.00  0.00     0.100 A 
ATOM      5  O   UNL     1      -0.923  13.430  -2.696  1.00  0.00    -0.456 OA
ATOM      6  C   UNL     1       1.064  12.340  -1.146  1.00  0.00     0.197 A 
ATOM      7  C   UNL     1       0.218  13.082  -3.283  1.00  0.00     0.146 A 
ATOM      8  O   UNL     1       1.958  11.850  -0.404  1.00  0.00    -0.289 OA
ATOM      9  C   UNL     1       1.271  12.513  -2.529  1.00  0.00     0.107 A 
ATOM     10  C   UNL     1       0.367  13.285  -4.657  1.00  0.00     0.094 A 
ATOM     11  C   UNL     1       2.470  12.152  -3.185  1.00  0.00     0.134 A 
ATOM     12  C   UNL     1       2.600  12.362  -4.566  1.00  0.00     0.093 A 
BRANCH   3  13
ATOM     13  C   UNL     1      -2.466  13.697  -0.845  1.00  0.00     0.021 A 
ATOM     14  C   UNL     1      -3.113  12.970   0.172  1.00  0.00     0.016 A 
ATOM     15  C   UNL     1      -4.353  13.389   0.662  1.00  0.00     0.051 A 
ATOM     16  C   UNL     1      -4.971  14.531   0.144  1.00  0.00     0.157 A 
ATOM     17  C   UNL     1      -3.099  14.838  -1.373  1.00  0.00     0.062 A 
ATOM     18  C   UNL     1      -4.344  15.258  -0.880  1.00  0.00     0.158 A 
BRANCH  16  19
ATOM     19  O   UNL     1      -6.208  14.924   0.655  1.00  0.00    -0.504 OA
ATOM     20  H   UNL     1      -6.736  15.690   0.256  1.00  0.00     0.293 HD
ENDBRANCH  16  19
BRANCH  18  21
ATOM     21  O   UNL     1      -4.956  16.396  -1.405  1.00  0.00    -0.504 OA
ATOM     22  H   UNL     1      -5.926  16.389  -1.700  1.00  0.00     0.293 HD
ENDBRANCH  18  21
ENDBRANCH   3  13
BRANCH  11  23
ATOM     23  O   UNL     1       3.530  11.585  -2.475  1.00  0.00    -0.507 OA
ATOM     24  H   UNL     1       4.322  12.139  -2.167  1.00  0.00     0.293 HD
ENDBRANCH  11  23
ENDBRANCH   1   2
BRANCH   1  25
ATOM     25  C   UNL     1       1.892  12.183  -7.700  1.00  0.00     0.339 C 
ATOM     26  C   UNL     1       2.378  12.824  -9.018  1.00  0.00     0.214 C 
ATOM     27  O   UNL     1       0.737  11.388  -7.920  1.00  0.00    -0.332 OA
ATOM     28  C   UNL     1       1.245  13.635  -9.677  1.00  0.00     0.180 C 
ATOM     29  C   UNL     1      -0.358  12.162  -8.387  1.00  0.00     0.179 C 
ATOM     30  C   UNL     1      -0.034  12.784  -9.768  1.00  0.00     0.177 C 
BRANCH  26  31
ATOM     31  O   UNL     1       2.808  11.806  -9.886  1.00  0.00    -0.384 OA
ATOM     32  H   UNL     1       2.104  11.701 -10.579  1.00  0.00     0.211 HD
ENDBRANCH  26  31
BRANCH  28  33
ATOM     33  O   UNL     1       0.988  14.803  -8.937  1.00  0.00    -0.387 OA
ATOM     34  H   UNL     1       1.813  15.353  -8.972  1.00  0.00     0.211 HD
ENDBRANCH  28  33
BRANCH  29  35
ATOM     35  C   UNL     1      -1.584  11.240  -8.465  1.00  0.00     0.191 C 
BRANCH  35  36
ATOM     36  O   UNL     1      -1.615  10.372  -7.365  1.00  0.00    -0.394 OA
ATOM     37  H   UNL     1      -0.983  10.750  -6.699  1.00  0.00     0.210 HD
ENDBRANCH  35  36
ENDBRANCH  29  35
BRANCH  30  38
ATOM     38  O   UNL     1      -1.105  13.583 -10.204  1.00  0.00    -0.387 OA
ATOM     39  H   UNL     1      -1.415  13.200 -11.065  1.00  0.00     0.211 HD
ENDBRANCH  30  38
ENDBRANCH   1  25
TORSDOF 11
ENDMDL
MODEL 5
REMARK VINA RESULT:    -4.301      5.524      9.787
REMARK INTER + INTRA:          -7.225
REMARK INTER:                  -6.184
REMARK INTRA:                  -1.041
REMARK UNBOUND:                -1.038
REMARK SMILES O=c1cc(-c2ccc(O)c(O)c2)oc2cc(O[C@H]3O[C@H](CO)[C@@H](O)[C@@H](O)[C@@H]3O)cc(O)c12
REMARK SMILES IDX 17 1 16 2 4 3 3 4 13 5 2 6 14 7 1 8 32 9 15 10 30 11 29 12
REMARK SMILES IDX 5 13 6 14 7 15 8 16 12 17 10 18 9 19 11 21 31 23 18 25 27 26
REMARK SMILES IDX 19 27 25 28 20 29 23 30 28 31 26 33 21 35 22 36 24 38
REMARK H PARENT 9 20 11 22 31 24 28 32 26 34 22 37 24 39
REMARK Flexibility Score: inf
ROOT
ATOM      1  O   UNL     1      -2.750   9.451   1.758  1.00  0.00    -0.462 OA
ENDROOT
BRANCH   1   2
ATOM      2  C   UNL     1      -2.734  10.811   1.405  1.00  0.00     0.130 A 
ATOM      3  C   UNL     1      -1.243  14.066  -1.746  1.00  0.00     0.138 A 
ATOM      4  C   UNL     1      -1.837  15.120  -1.034  1.00  0.00     0.100 A 
ATOM      5  O   UNL     1      -1.345  12.823  -1.281  1.00  0.00    -0.456 OA
ATOM      6  C   UNL     1      -2.538  14.846   0.141  1.00  0.00     0.197 A 
ATOM      7  C   UNL     1      -2.001  12.512  -0.168  1.00  0.00     0.146 A 
ATOM      8  O   UNL     1      -3.068  15.799   0.774  1.00  0.00    -0.289 OA
ATOM      9  C   UNL     1      -2.636  13.517   0.599  1.00  0.00     0.107 A 
ATOM     10  C   UNL     1      -2.057  11.176   0.240  1.00  0.00     0.094 A 
ATOM     11  C   UNL     1      -3.327  13.151   1.776  1.00  0.00     0.134 A 
ATOM     12  C   UNL     1      -3.374  11.805   2.169  1.00  0.00     0.093 A 
BRANCH   3  13
ATOM     13  C   UNL     1      -0.483  14.298  -3.001  1.00  0.00     0.021 A 
ATOM     14  C   UNL     1       0.255  15.478  -3.211  1.00  0.00     0.016 A 
ATOM     15  C   UNL     1       0.951  15.674  -4.407  1.00  0.00     0.051 A 
ATOM     16  C   UNL     1       0.918  14.704  -5.413  1.00  0.00     0.157 A 
ATOM     17  C   UNL     1      -0.525  13.332  -4.023  1.00  0.00     0.062 A 
ATOM     18  C   UNL     1       0.175  13.529  -5.223  1.00  0.00     0.158 A 
BRANCH  16  19
ATOM     19  O   UNL     1       1.624  14.928  -6.595  1.00  0.00    -0.504 OA
ATOM     20  H   UNL     1       2.105  14.183  -7.084  1.00  0.00     0.293 HD
ENDBRANCH  16  19
BRANCH  18  21
ATOM     21  O   UNL     1       0.134  12.559  -6.224  1.00  0.00    -0.504 OA
ATOM     22  H   UNL     1      -0.574  12.574  -6.949  1.00  0.00     0.293 HD
ENDBRANCH  18  21
ENDBRANCH   3  13
BRANCH  11  23
ATOM     23  O   UNL     1      -3.969  14.115   2.557  1.00  0.00    -0.507 OA
ATOM     24  H   UNL     1      -4.099  13.991   3.555  1.00  0.00     0.293 HD
ENDBRANCH  11  23
ENDBRANCH   1   2
BRANCH   1  25
ATOM     25  C   UNL     1      -2.156   8.876   2.927  1.00  0.00     0.339 C 
ATOM     26  C   UNL     1      -0.627   8.719   2.778  1.00  0.00     0.214 C 
ATOM     27  O   UNL     1      -2.765   7.630   3.229  1.00  0.00    -0.332 OA
ATOM     28  C   UNL     1      -0.292   7.650   1.719  1.00  0.00     0.180 C 
ATOM     29  C   UNL     1      -2.585   6.685   2.184  1.00  0.00     0.179 C 
ATOM     30  C   UNL     1      -1.083   6.359   1.998  1.00  0.00     0.177 C 
BRANCH  26  31
ATOM     31  O   UNL     1      -0.085   8.350   4.021  1.00  0.00    -0.384 OA
ATOM     32  H   UNL     1      -0.846   8.266   4.654  1.00  0.00     0.211 HD
ENDBRANCH  26  31
BRANCH  28  33
ATOM     33  O   UNL     1      -0.600   8.127   0.432  1.00  0.00    -0.387 OA
ATOM     34  H   UNL     1       0.145   8.725   0.161  1.00  0.00     0.211 HD
ENDBRANCH  28  33
BRANCH  29  35
ATOM     35  C   UNL     1      -3.388   5.427   2.546  1.00  0.00     0.191 C 
BRANCH  35  36
ATOM     36  O   UNL     1      -3.778   4.743   1.387  1.00  0.00    -0.394 OA
ATOM     37  H   UNL     1      -4.211   5.418   0.802  1.00  0.00     0.210 HD
ENDBRANCH  35  36
ENDBRANCH  29  35
BRANCH  30  38
ATOM     38  O   UNL     1      -0.909   5.457   0.935  1.00  0.00    -0.387 OA
ATOM     39  H   UNL     1      -0.839   6.001   0.107  1.00  0.00     0.211 HD
ENDBRANCH  30  38
ENDBRANCH   1  25
TORSDOF 11
ENDMDL
MODEL 6
REMARK VINA RESULT:    -4.245      3.593      8.533
REMARK INTER + INTRA:          -7.145
REMARK INTER:                  -6.096
REMARK INTRA:                  -1.050
REMARK UNBOUND:                -1.038
REMARK SMILES O=c1cc(-c2ccc(O)c(O)c2)oc2cc(O[C@H]3O[C@H](CO)[C@@H](O)[C@@H](O)[C@@H]3O)cc(O)c12
REMARK SMILES IDX 17 1 16 2 4 3 3 4 13 5 2 6 14 7 1 8 32 9 15 10 30 11 29 12
REMARK SMILES IDX 5 13 6 14 7 15 8 16 12 17 10 18 9 19 11 21 31 23 18 25 27 26
REMARK SMILES IDX 19 27 25 28 20 29 23 30 28 31 26 33 21 35 22 36 24 38
REMARK H PARENT 9 20 11 22 31 24 28 32 26 34 22 37 24 39
REMARK Flexibility Score: inf
ROOT
ATOM      1  O   UNL     1       1.334  14.234  -8.859  1.00  0.00    -0.462 OA
ENDROOT
BRANCH   1   2
ATOM      2  C   UNL     1       0.321  13.302  -9.141  1.00  0.00     0.130 A 
ATOM      3  C   UNL     1      -1.228   8.833  -8.527  1.00  0.00     0.138 A 
ATOM      4  C   UNL     1      -2.377   9.058  -9.302  1.00  0.00     0.100 A 
ATOM      5  O   UNL     1      -0.355   9.823  -8.349  1.00  0.00    -0.456 OA
ATOM      6  C   UNL     1      -2.592  10.318  -9.862  1.00  0.00     0.197 A 
ATOM      7  C   UNL     1      -0.516  11.039  -8.862  1.00  0.00     0.146 A 
ATOM      8  O   UNL     1      -3.626  10.509 -10.558  1.00  0.00    -0.289 OA
ATOM      9  C   UNL     1      -1.653  11.346  -9.644  1.00  0.00     0.107 A 
ATOM     10  C   UNL     1       0.454  12.015  -8.617  1.00  0.00     0.094 A 
ATOM     11  C   UNL     1      -1.794  12.649 -10.172  1.00  0.00     0.134 A 
ATOM     12  C   UNL     1      -0.811  13.616  -9.915  1.00  0.00     0.093 A 
BRANCH   3  13
ATOM     13  C   UNL     1      -0.945   7.513  -7.908  1.00  0.00     0.021 A 
ATOM     14  C   UNL     1      -1.605   6.343  -8.330  1.00  0.00     0.016 A 
ATOM     15  C   UNL     1      -1.326   5.116  -7.722  1.00  0.00     0.051 A 
ATOM     16  C   UNL     1      -0.395   5.034  -6.683  1.00  0.00     0.157 A 
ATOM     17  C   UNL     1      -0.020   7.428  -6.852  1.00  0.00     0.062 A 
ATOM     18  C   UNL     1       0.260   6.196  -6.243  1.00  0.00     0.158 A 
BRANCH  16  19
ATOM     19  O   UNL     1      -0.138   3.796  -6.097  1.00  0.00    -0.504 OA
ATOM     20  H   UNL     1      -0.253   2.926  -6.604  1.00  0.00     0.293 HD
ENDBRANCH  16  19
BRANCH  18  21
ATOM     21  O   UNL     1       1.187   6.124  -5.204  1.00  0.00    -0.504 OA
ATOM     22  H   UNL     1       1.125   6.730  -4.394  1.00  0.00     0.293 HD
ENDBRANCH  18  21
ENDBRANCH   3  13
BRANCH  11  23
ATOM     23  O   UNL     1      -2.904  12.991 -10.947  1.00  0.00    -0.507 OA
ATOM     24  H   UNL     1      -3.617  13.626 -10.607  1.00  0.00     0.293 HD
ENDBRANCH  11  23
ENDBRANCH   1   2
BRANCH   1  25
ATOM     25  C   UNL     1       2.734  14.061  -9.107  1.00  0.00     0.339 C 
ATOM     26  C   UNL     1       3.594  15.008  -8.240  1.00  0.00     0.214 C 
ATOM     27  O   UNL     1       3.018  14.239 -10.485  1.00  0.00    -0.332 OA
ATOM     28  C   UNL     1       3.394  16.473  -8.678  1.00  0.00     0.180 C 
ATOM     29  C   UNL     1       2.694  15.550 -10.928  1.00  0.00     0.179 C 
ATOM     30  C   UNL     1       3.569  16.601 -10.201  1.00  0.00     0.177 C 
BRANCH  26  31
ATOM     31  O   UNL     1       4.944  14.646  -8.374  1.00  0.00    -0.384 OA
ATOM     32  H   UNL     1       5.483  15.420  -8.064  1.00  0.00     0.211 HD
ENDBRANCH  26  31
BRANCH  28  33
ATOM     33  O   UNL     1       2.114  16.921  -8.307  1.00  0.00    -0.387 OA
ATOM     34  H   UNL     1       2.158  17.152  -7.343  1.00  0.00     0.211 HD
ENDBRANCH  28  33
BRANCH  29  35
ATOM     35  C   UNL     1       2.911  15.597 -12.447  1.00  0.00     0.191 C 
BRANCH  35  36
ATOM     36  O   UNL     1       4.172  16.131 -12.747  1.00  0.00    -0.394 OA
ATOM     37  H   UNL     1       4.443  15.726 -13.612  1.00  0.00     0.210 HD
ENDBRANCH  35  36
ENDBRANCH  29  35
BRANCH  30  38
ATOM     38  O   UNL     1       3.213  17.896 -10.613  1.00  0.00    -0.387 OA
ATOM     39  H   UNL     1       3.546  18.519  -9.916  1.00  0.00     0.211 HD
ENDBRANCH  30  38
ENDBRANCH   1  25
TORSDOF 11
ENDMDL
MODEL 7
REMARK VINA RESULT:    -4.238      3.674      6.814
REMARK INTER + INTRA:          -7.134
REMARK INTER:                  -6.275
REMARK INTRA:                  -0.860
REMARK UNBOUND:                -1.038
REMARK SMILES O=c1cc(-c2ccc(O)c(O)c2)oc2cc(O[C@H]3O[C@H](CO)[C@@H](O)[C@@H](O)[C@@H]3O)cc(O)c12
REMARK SMILES IDX 17 1 16 2 4 3 3 4 13 5 2 6 14 7 1 8 32 9 15 10 30 11 29 12
REMARK SMILES IDX 5 13 6 14 7 15 8 16 12 17 10 18 9 19 11 21 31 23 18 25 27 26
REMARK SMILES IDX 19 27 25 28 20 29 23 30 28 31 26 33 21 35 22 36 24 38
REMARK H PARENT 9 20 11 22 31 24 28 32 26 34 22 37 24 39
REMARK Flexibility Score: inf
ROOT
ATOM      1  O   UNL     1       3.469   7.634  -6.250  1.00  0.00    -0.462 OA
ENDROOT
BRANCH   1   2
ATOM      2  C   UNL     1       3.158   9.005  -6.239  1.00  0.00     0.130 A 
ATOM      3  C   UNL     1       0.821  12.551  -8.409  1.00  0.00     0.138 A 
ATOM      4  C   UNL     1       1.267  13.501  -7.476  1.00  0.00     0.100 A 
ATOM      5  O   UNL     1       1.203  11.282  -8.284  1.00  0.00    -0.456 OA
ATOM      6  C   UNL     1       2.092  13.096  -6.425  1.00  0.00     0.197 A 
ATOM      7  C   UNL     1       1.988  10.849  -7.302  1.00  0.00     0.146 A 
ATOM      8  O   UNL     1       2.489  13.957  -5.593  1.00  0.00    -0.289 OA
ATOM      9  C   UNL     1       2.469  11.743  -6.318  1.00  0.00     0.107 A 
ATOM     10  C   UNL     1       2.334   9.496  -7.253  1.00  0.00     0.094 A 
ATOM     11  C   UNL     1       3.299  11.250  -5.286  1.00  0.00     0.134 A 
ATOM     12  C   UNL     1       3.635   9.888  -5.252  1.00  0.00     0.093 A 
BRANCH   3  13
ATOM     13  C   UNL     1      -0.057  12.923  -9.547  1.00  0.00     0.021 A 
ATOM     14  C   UNL     1      -1.421  12.576  -9.573  1.00  0.00     0.016 A 
ATOM     15  C   UNL     1      -2.221  12.930 -10.662  1.00  0.00     0.051 A 
ATOM     16  C   UNL     1      -1.677  13.628 -11.745  1.00  0.00     0.157 A 
ATOM     17  C   UNL     1       0.489  13.613 -10.645  1.00  0.00     0.062 A 
ATOM     18  C   UNL     1      -0.315  13.968 -11.739  1.00  0.00     0.158 A 
BRANCH  16  19
ATOM     19  O   UNL     1      -2.501  13.968 -12.817  1.00  0.00    -0.504 OA
ATOM     20  H   UNL     1      -2.912  14.889 -12.909  1.00  0.00     0.293 HD
ENDBRANCH  16  19
BRANCH  18  21
ATOM     21  O   UNL     1       0.236  14.660 -12.817  1.00  0.00    -0.504 OA
ATOM     22  H   UNL     1      -0.325  15.271 -13.399  1.00  0.00     0.293 HD
ENDBRANCH  18  21
ENDBRANCH   3  13
BRANCH  11  23
ATOM     23  O   UNL     1       3.791  12.101  -4.295  1.00  0.00    -0.507 OA
ATOM     24  H   UNL     1       3.432  13.041  -4.173  1.00  0.00     0.293 HD
ENDBRANCH  11  23
ENDBRANCH   1   2
BRANCH   1  25
ATOM     25  C   UNL     1       3.074   6.672  -5.266  1.00  0.00     0.339 C 
ATOM     26  C   UNL     1       3.793   5.318  -5.465  1.00  0.00     0.214 C 
ATOM     27  O   UNL     1       1.665   6.502  -5.277  1.00  0.00    -0.332 OA
ATOM     28  C   UNL     1       3.311   4.635  -6.760  1.00  0.00     0.180 C 
ATOM     29  C   UNL     1       1.200   6.010  -6.526  1.00  0.00     0.179 C 
ATOM     30  C   UNL     1       1.773   4.599  -6.801  1.00  0.00     0.177 C 
BRANCH  26  31
ATOM     31  O   UNL     1       3.525   4.495  -4.358  1.00  0.00    -0.384 OA
ATOM     32  H   UNL     1       3.327   3.589  -4.714  1.00  0.00     0.211 HD
ENDBRANCH  26  31
BRANCH  28  33
ATOM     33  O   UNL     1       3.801   5.322  -7.884  1.00  0.00    -0.387 OA
ATOM     34  H   UNL     1       3.476   6.257  -7.815  1.00  0.00     0.211 HD
ENDBRANCH  28  33
BRANCH  29  35
ATOM     35  C   UNL     1      -0.335   5.990  -6.478  1.00  0.00     0.191 C 
BRANCH  35  36
ATOM     36  O   UNL     1      -0.833   7.261  -6.161  1.00  0.00    -0.394 OA
ATOM     37  H   UNL     1      -1.514   7.121  -5.453  1.00  0.00     0.210 HD
ENDBRANCH  35  36
ENDBRANCH  29  35
BRANCH  30  38
ATOM     38  O   UNL     1       1.343   4.137  -8.057  1.00  0.00    -0.387 OA
ATOM     39  H   UNL     1       0.461   4.558  -8.230  1.00  0.00     0.211 HD
ENDBRANCH  30  38
ENDBRANCH   1  25
TORSDOF 11
ENDMDL
MODEL 8
REMARK VINA RESULT:    -4.230      2.595      5.585
REMARK INTER + INTRA:          -7.123
REMARK INTER:                  -6.094
REMARK INTRA:                  -1.029
REMARK UNBOUND:                -1.038
REMARK SMILES O=c1cc(-c2ccc(O)c(O)c2)oc2cc(O[C@H]3O[C@H](CO)[C@@H](O)[C@@H](O)[C@@H]3O)cc(O)c12
REMARK SMILES IDX 17 1 16 2 4 3 3 4 13 5 2 6 14 7 1 8 32 9 15 10 30 11 29 12
REMARK SMILES IDX 5 13 6 14 7 15 8 16 12 17 10 18 9 19 11 21 31 23 18 25 27 26
REMARK SMILES IDX 19 27 25 28 20 29 23 30 28 31 26 33 21 35 22 36 24 38
REMARK H PARENT 9 20 11 22 31 24 28 32 26 34 22 37 24 39
REMARK Flexibility Score: inf
ROOT
ATOM      1  O   UNL     1       0.871  12.757  -7.372  1.00  0.00    -0.462 OA
ENDROOT
BRANCH   1   2
ATOM      2  C   UNL     1       0.806  13.575  -6.231  1.00  0.00     0.130 A 
ATOM      3  C   UNL     1      -1.225  14.276  -1.973  1.00  0.00     0.138 A 
ATOM      4  C   UNL     1      -0.488  15.449  -1.744  1.00  0.00     0.100 A 
ATOM      5  O   UNL     1      -1.051  13.606  -3.110  1.00  0.00    -0.456 OA
ATOM      6  C   UNL     1       0.424  15.886  -2.706  1.00  0.00     0.197 A 
ATOM      7  C   UNL     1      -0.195  13.982  -4.056  1.00  0.00     0.146 A 
ATOM      8  O   UNL     1       1.080  16.942  -2.492  1.00  0.00    -0.289 OA
ATOM      9  C   UNL     1       0.590  15.146  -3.894  1.00  0.00     0.107 A 
ATOM     10  C   UNL     1      -0.080  13.211  -5.215  1.00  0.00     0.094 A 
ATOM     11  C   UNL     1       1.492  15.516  -4.917  1.00  0.00     0.134 A 
ATOM     12  C   UNL     1       1.596  14.729  -6.074  1.00  0.00     0.093 A 
BRANCH   3  13
ATOM     13  C   UNL     1      -2.210  13.764  -0.987  1.00  0.00     0.021 A 
ATOM     14  C   UNL     1      -3.388  14.474  -0.682  1.00  0.00     0.016 A 
ATOM     15  C   UNL     1      -4.292  13.973   0.258  1.00  0.00     0.051 A 
ATOM     16  C   UNL     1      -4.037  12.765   0.914  1.00  0.00     0.157 A 
ATOM     17  C   UNL     1      -1.952  12.557  -0.314  1.00  0.00     0.062 A 
ATOM     18  C   UNL     1      -2.860  12.054   0.630  1.00  0.00     0.158 A 
BRANCH  16  19
ATOM     19  O   UNL     1      -4.959  12.291   1.846  1.00  0.00    -0.504 OA
ATOM     20  H   UNL     1      -5.502  12.914   2.431  1.00  0.00     0.293 HD
ENDBRANCH  16  19
BRANCH  18  21
ATOM     21  O   UNL     1      -2.597  10.851   1.283  1.00  0.00    -0.504 OA
ATOM     22  H   UNL     1      -2.683  10.763   2.289  1.00  0.00     0.293 HD
ENDBRANCH  18  21
ENDBRANCH   3  13
BRANCH  11  23
ATOM     23  O   UNL     1       2.287  16.657  -4.792  1.00  0.00    -0.507 OA
ATOM     24  H   UNL     1       2.208  17.435  -5.438  1.00  0.00     0.293 HD
ENDBRANCH  11  23
ENDBRANCH   1   2
BRANCH   1  25
ATOM     25  C   UNL     1       0.393  13.092  -8.680  1.00  0.00     0.339 C 
ATOM     26  C   UNL     1      -1.133  12.887  -8.804  1.00  0.00     0.214 C 
ATOM     27  O   UNL     1       1.086  12.344  -9.666  1.00  0.00    -0.332 OA
ATOM     28  C   UNL     1      -1.486  11.388  -8.734  1.00  0.00     0.180 C 
ATOM     29  C   UNL     1       0.881  10.947  -9.513  1.00  0.00     0.179 C 
ATOM     30  C   UNL     1      -0.612  10.590  -9.718  1.00  0.00     0.177 C 
BRANCH  26  31
ATOM     31  O   UNL     1      -1.566  13.426 -10.028  1.00  0.00    -0.384 OA
ATOM     32  H   UNL     1      -1.926  12.672 -10.564  1.00  0.00     0.211 HD
ENDBRANCH  26  31
BRANCH  28  33
ATOM     33  O   UNL     1      -1.296  10.904  -7.428  1.00  0.00    -0.387 OA
ATOM     34  H   UNL     1      -1.127   9.928  -7.505  1.00  0.00     0.211 HD
ENDBRANCH  28  33
BRANCH  29  35
ATOM     35  C   UNL     1       1.772  10.228 -10.536  1.00  0.00     0.191 C 
BRANCH  35  36
ATOM     36  O   UNL     1       1.044   9.925 -11.694  1.00  0.00    -0.394 OA
ATOM     37  H   UNL     1       0.306   9.326 -11.406  1.00  0.00     0.210 HD
ENDBRANCH  35  36
ENDBRANCH  29  35
BRANCH  30  38
ATOM     38  O   UNL     1      -0.813   9.213  -9.522  1.00  0.00    -0.387 OA
ATOM     39  H   UNL     1      -1.049   8.830 -10.406  1.00  0.00     0.211 HD
ENDBRANCH  30  38
ENDBRANCH   1  25
TORSDOF 11
ENDMDL
