MODEL 1
REMARK VINA RESULT:    -3.425      0.000      0.000
REMARK INTER + INTRA:          -5.613
REMARK INTER:                  -5.427
REMARK INTRA:                  -0.186
REMARK UNBOUND:                -0.186
REMARK SMILES CCCCCCCCCCCC(=O)[O-]
REMARK SMILES IDX 7 1 8 2 9 3 10 4 11 5 12 6 13 7 14 8 6 9 5 10 4 11 3 12 2 13
REMARK SMILES IDX 1 14
REMARK H PARENT
REMARK Flexibility Score: inf
ROOT
ATOM      1  C   UNL     1       2.998   2.962   9.911  1.00  0.00     0.000 C 
ENDROOT
BRANCH   1   2
ATOM      2  C   UNL     1       4.500   3.221  10.120  1.00  0.00     0.000 C 
BRANCH   2   3
ATOM      3  C   UNL     1       5.053   4.473   9.409  1.00  0.00     0.000 C 
BRANCH   3   4
ATOM      4  C   UNL     1       6.588   4.583   9.381  1.00  0.00     0.006 C 
BRANCH   4   5
ATOM      5  C   UNL     1       7.100   5.913   9.945  1.00  0.00     0.053 C 
BRANCH   5   6
ATOM      6  C   UNL     1       8.018   6.577   8.967  1.00  0.00     0.041 C 
ATOM      7  O   UNL     1       9.210   6.824   9.284  1.00  0.00    -0.550 OA
ATOM      8  O   UNL     1       7.569   6.877   7.687  1.00  0.00    -0.550 OA
ENDBRANCH   5   6
ENDBRANCH   4   5
ENDBRANCH   3   4
ENDBRANCH   2   3
ENDBRANCH   1   2
BRANCH   1   9
ATOM      9  C   UNL     1       2.657   1.468   9.808  1.00  0.00     0.000 C 
BRANCH   9  10
ATOM     10  C   UNL     1       1.170   1.222  10.104  1.00  0.00    -0.000 C 
BRANCH  10  11
ATOM     11  C   UNL     1       0.800  -0.269  10.078  1.00  0.00    -0.000 C 
BRANCH  11  12
ATOM     12  C   UNL     1      -0.721  -0.501  10.125  1.00  0.00    -0.000 C 
BRANCH  12  13
ATOM     13  C   UNL     1      -1.093  -1.987  10.007  1.00  0.00    -0.003 C 
ATOM     14  C   UNL     1      -2.551  -2.200   9.603  1.00  0.00     0.004 C 
ENDBRANCH  12  13
ENDBRANCH  11  12
ENDBRANCH  10  11
ENDBRANCH   9  10
ENDBRANCH   1   9
TORSDOF 10
ENDMDL
MODEL 2
REMARK VINA RESULT:    -3.313      9.259     14.043
REMARK INTER + INTRA:          -5.437
REMARK INTER:                  -5.268
REMARK INTRA:                  -0.169
REMARK UNBOUND:                -0.186
REMARK SMILES CCCCCCCCCCCC(=O)[O-]
REMARK SMILES IDX 7 1 8 2 9 3 10 4 11 5 12 6 13 7 14 8 6 9 5 10 4 11 3 12 2 13
REMARK SMILES IDX 1 14
REMARK H PARENT
REMARK Flexibility Score: inf
ROOT
ATOM      1  C   UNL     1      -3.672  -3.946   9.526  1.00  0.00     0.000 C 
ENDROOT
BRANCH   1   2
ATOM      2  C   UNL     1      -5.087  -4.441   9.873  1.00  0.00     0.000 C 
BRANCH   2   3
ATOM      3  C   UNL     1      -5.391  -5.895   9.457  1.00  0.00     0.000 C 
BRANCH   3   4
ATOM      4  C   UNL     1      -6.778  -6.416   9.873  1.00  0.00     0.006 C 
BRANCH   4   5
ATOM      5  C   UNL     1      -7.889  -5.987   8.907  1.00  0.00     0.053 C 
BRANCH   5   6
ATOM      6  C   UNL     1      -9.210  -6.530   9.355  1.00  0.00     0.041 C 
ATOM      7  O   UNL     1     -10.125  -5.747   9.721  1.00  0.00    -0.550 OA
ATOM      8  O   UNL     1      -9.447  -7.898   9.322  1.00  0.00    -0.550 OA
ENDBRANCH   5   6
ENDBRANCH   4   5
ENDBRANCH   3   4
ENDBRANCH   2   3
ENDBRANCH   1   2
BRANCH   1   9
ATOM      9  C   UNL     1      -3.358  -2.567  10.125  1.00  0.00     0.000 C 
BRANCH   9  10
ATOM     10  C   UNL     1      -1.872  -2.219   9.953  1.00  0.00    -0.000 C 
BRANCH  10  11
ATOM     11  C   UNL     1      -1.602  -0.709  10.046  1.00  0.00    -0.000 C 
BRANCH  11  12
ATOM     12  C   UNL     1      -0.100  -0.381  10.123  1.00  0.00    -0.000 C 
BRANCH  12  13
ATOM     13  C   UNL     1       0.177   1.126  10.030  1.00  0.00    -0.003 C 
ATOM     14  C   UNL     1       1.670   1.455  10.055  1.00  0.00     0.004 C 
ENDBRANCH  12  13
ENDBRANCH  11  12
ENDBRANCH  10  11
ENDBRANCH   9  10
ENDBRANCH   1   9
TORSDOF 10
ENDMDL
MODEL 3
REMARK VINA RESULT:    -3.280     21.737     22.680
REMARK INTER + INTRA:          -5.384
REMARK INTER:                  -4.575
REMARK INTRA:                  -0.808
REMARK UNBOUND:                -0.186
REMARK SMILES CCCCCCCCCCCC(=O)[O-]
REMARK SMILES IDX 7 1 8 2 9 3 10 4 11 5 12 6 13 7 14 8 6 9 5 10 4 11 3 12 2 13
REMARK SMILES IDX 1 14
REMARK H PARENT
REMARK Flexibility Score: inf
ROOT
ATOM      1  C   UNL     1      -7.593   5.829  -8.352  1.00  0.00     0.000 C 
ENDROOT
BRANCH   1   2
ATOM      2  C   UNL     1      -6.321   6.685  -8.232  1.00  0.00     0.000 C 
BRANCH   2   3
ATOM      3  C   UNL     1      -5.804   7.278  -9.560  1.00  0.00     0.000 C 
BRANCH   3   4
ATOM      4  C   UNL     1      -4.477   6.684 -10.066  1.00  0.00     0.006 C 
BRANCH   4   5
ATOM      5  C   UNL     1      -3.914   5.604  -9.135  1.00  0.00     0.053 C 
BRANCH   5   6
ATOM      6  C   UNL     1      -4.040   4.253  -9.766  1.00  0.00     0.041 C 
ATOM      7  O   UNL     1      -3.019   3.536  -9.937  1.00  0.00    -0.550 OA
ATOM      8  O   UNL     1      -5.291   3.764 -10.119  1.00  0.00    -0.550 OA
ENDBRANCH   5   6
ENDBRANCH   4   5
ENDBRANCH   3   4
ENDBRANCH   2   3
ENDBRANCH   1   2
BRANCH   1   9
ATOM      9  C   UNL     1      -8.194   5.846  -9.766  1.00  0.00     0.000 C 
BRANCH   9  10
ATOM     10  C   UNL     1      -9.712   6.069  -9.715  1.00  0.00    -0.000 C 
BRANCH  10  11
ATOM     11  C   UNL     1     -10.100   7.546  -9.880  1.00  0.00    -0.000 C 
BRANCH  11  12
ATOM     12  C   UNL     1      -9.368   8.464  -8.884  1.00  0.00    -0.000 C 
BRANCH  12  13
ATOM     13  C   UNL     1      -9.088   9.857  -9.466  1.00  0.00    -0.003 C 
ATOM     14  C   UNL     1      -7.596  10.123  -9.668  1.00  0.00     0.004 C 
ENDBRANCH  12  13
ENDBRANCH  11  12
ENDBRANCH  10  11
ENDBRANCH   9  10
ENDBRANCH   1   9
TORSDOF 10
ENDMDL
MODEL 4
REMARK VINA RESULT:    -3.220     21.359     22.488
REMARK INTER + INTRA:          -5.288
REMARK INTER:                  -4.764
REMARK INTRA:                  -0.524
REMARK UNBOUND:                -0.186
REMARK SMILES CCCCCCCCCCCC(=O)[O-]
REMARK SMILES IDX 7 1 8 2 9 3 10 4 11 5 12 6 13 7 14 8 6 9 5 10 4 11 3 12 2 13
REMARK SMILES IDX 1 14
REMARK H PARENT
REMARK Flexibility Score: inf
ROOT
ATOM      1  C   UNL     1      -7.167   6.068  -7.789  1.00  0.00     0.000 C 
ENDROOT
BRANCH   1   2
ATOM      2  C   UNL     1      -7.448   4.725  -8.486  1.00  0.00     0.000 C 
BRANCH   2   3
ATOM      3  C   UNL     1      -6.854   4.587  -9.903  1.00  0.00     0.000 C 
BRANCH   3   4
ATOM      4  C   UNL     1      -5.837   3.445 -10.076  1.00  0.00     0.006 C 
BRANCH   4   5
ATOM      5  C   UNL     1      -4.404   3.867  -9.735  1.00  0.00     0.053 C 
BRANCH   5   6
ATOM      6  C   UNL     1      -3.454   2.737  -9.982  1.00  0.00     0.041 C 
ATOM      7  O   UNL     1      -2.224   2.963 -10.125  1.00  0.00    -0.550 OA
ATOM      8  O   UNL     1      -3.920   1.429 -10.003  1.00  0.00    -0.550 OA
ENDBRANCH   5   6
ENDBRANCH   4   5
ENDBRANCH   3   4
ENDBRANCH   2   3
ENDBRANCH   1   2
BRANCH   1   9
ATOM      9  C   UNL     1      -6.151   6.934  -8.548  1.00  0.00     0.000 C 
BRANCH   9  10
ATOM     10  C   UNL     1      -6.844   7.770  -9.634  1.00  0.00    -0.000 C 
BRANCH  10  11
ATOM     11  C   UNL     1      -7.346   9.124  -9.109  1.00  0.00    -0.000 C 
BRANCH  11  12
ATOM     12  C   UNL     1      -8.820   9.387  -9.467  1.00  0.00    -0.000 C 
BRANCH  12  13
ATOM     13  C   UNL     1      -9.750   8.260  -8.992  1.00  0.00    -0.003 C 
ATOM     14  C   UNL     1     -10.097   7.273 -10.107  1.00  0.00     0.004 C 
ENDBRANCH  12  13
ENDBRANCH  11  12
ENDBRANCH  10  11
ENDBRANCH   9  10
ENDBRANCH   1   9
TORSDOF 10
ENDMDL
MODEL 5
REMARK VINA RESULT:    -3.186     20.957     21.452
REMARK INTER + INTRA:          -5.234
REMARK INTER:                  -4.928
REMARK INTRA:                  -0.306
REMARK UNBOUND:                -0.186
REMARK SMILES CCCCCCCCCCCC(=O)[O-]
REMARK SMILES IDX 7 1 8 2 9 3 10 4 11 5 12 6 13 7 14 8 6 9 5 10 4 11 3 12 2 13
REMARK SMILES IDX 1 14
REMARK H PARENT
REMARK Flexibility Score: inf
ROOT
ATOM      1  C   UNL     1       4.963  -3.539  -9.467  1.00  0.00     0.000 C 
ENDROOT
BRANCH   1   2
ATOM      2  C   UNL     1       5.762  -4.727 -10.031  1.00  0.00     0.000 C 
BRANCH   2   3
ATOM      3  C   UNL     1       7.252  -4.761  -9.632  1.00  0.00     0.000 C 
BRANCH   3   4
ATOM      4  C   UNL     1       7.673  -5.976  -8.787  1.00  0.00     0.006 C 
BRANCH   4   5
ATOM      5  C   UNL     1       6.497  -6.897  -8.440  1.00  0.00     0.053 C 
BRANCH   5   6
ATOM      6  C   UNL     1       6.683  -8.242  -9.069  1.00  0.00     0.041 C 
ATOM      7  O   UNL     1       5.682  -8.934  -9.391  1.00  0.00    -0.550 OA
ATOM      8  O   UNL     1       7.961  -8.709  -9.346  1.00  0.00    -0.550 OA
ENDBRANCH   5   6
ENDBRANCH   4   5
ENDBRANCH   3   4
ENDBRANCH   2   3
ENDBRANCH   1   2
BRANCH   1   9
ATOM      9  C   UNL     1       3.533  -3.462 -10.023  1.00  0.00     0.000 C 
BRANCH   9  10
ATOM     10  C   UNL     1       3.037  -2.009 -10.063  1.00  0.00    -0.000 C 
BRANCH  10  11
ATOM     11  C   UNL     1       1.505  -1.908 -10.125  1.00  0.00    -0.000 C 
BRANCH  11  12
ATOM     12  C   UNL     1       1.004  -0.456 -10.021  1.00  0.00    -0.000 C 
BRANCH  12  13
ATOM     13  C   UNL     1      -0.528  -0.359 -10.060  1.00  0.00    -0.003 C 
ATOM     14  C   UNL     1      -1.029   1.085 -10.016  1.00  0.00     0.004 C 
ENDBRANCH  12  13
ENDBRANCH  11  12
ENDBRANCH  10  11
ENDBRANCH   9  10
ENDBRANCH   1   9
TORSDOF 10
ENDMDL
MODEL 6
REMARK VINA RESULT:    -3.090     21.085     22.269
REMARK INTER + INTRA:          -5.083
REMARK INTER:                  -4.376
REMARK INTRA:                  -0.707
REMARK UNBOUND:                -0.186
REMARK SMILES CCCCCCCCCCCC(=O)[O-]
REMARK SMILES IDX 7 1 8 2 9 3 10 4 11 5 12 6 13 7 14 8 6 9 5 10 4 11 3 12 2 13
REMARK SMILES IDX 1 14
REMARK H PARENT
REMARK Flexibility Score: inf
ROOT
ATOM      1  C   UNL     1      -7.234   6.092  -7.432  1.00  0.00     0.000 C 
ENDROOT
BRANCH   1   2
ATOM      2  C   UNL     1      -6.474   5.695  -8.709  1.00  0.00     0.000 C 
BRANCH   2   3
ATOM      3  C   UNL     1      -6.456   4.183  -9.016  1.00  0.00     0.000 C 
BRANCH   3   4
ATOM      4  C   UNL     1      -5.479   3.754 -10.125  1.00  0.00     0.006 C 
BRANCH   4   5
ATOM      5  C   UNL     1      -4.015   3.778  -9.671  1.00  0.00     0.053 C 
BRANCH   5   6
ATOM      6  C   UNL     1      -3.406   2.417  -9.799  1.00  0.00     0.041 C 
ATOM      7  O   UNL     1      -4.120   1.431 -10.117  1.00  0.00    -0.550 OA
ATOM      8  O   UNL     1      -2.040   2.247  -9.615  1.00  0.00    -0.550 OA
ENDBRANCH   5   6
ENDBRANCH   4   5
ENDBRANCH   3   4
ENDBRANCH   2   3
ENDBRANCH   1   2
BRANCH   1   9
ATOM      9  C   UNL     1      -7.691   7.559  -7.440  1.00  0.00     0.000 C 
BRANCH   9  10
ATOM     10  C   UNL     1      -8.518   7.868  -8.697  1.00  0.00    -0.000 C 
BRANCH  10  11
ATOM     11  C   UNL     1      -7.739   8.697  -9.730  1.00  0.00    -0.000 C 
BRANCH  11  12
ATOM     12  C   UNL     1      -6.762   9.690  -9.075  1.00  0.00    -0.000 C 
BRANCH  12  13
ATOM     13  C   UNL     1      -5.464   9.855  -9.880  1.00  0.00    -0.003 C 
ATOM     14  C   UNL     1      -4.525   8.657  -9.737  1.00  0.00     0.004 C 
ENDBRANCH  12  13
ENDBRANCH  11  12
ENDBRANCH  10  11
ENDBRANCH   9  10
ENDBRANCH   1   9
TORSDOF 10
ENDMDL
MODEL 7
REMARK VINA RESULT:    -3.086      8.096     12.650
REMARK INTER + INTRA:          -5.076
REMARK INTER:                  -4.911
REMARK INTRA:                  -0.165
REMARK UNBOUND:                -0.186
REMARK SMILES CCCCCCCCCCCC(=O)[O-]
REMARK SMILES IDX 7 1 8 2 9 3 10 4 11 5 12 6 13 7 14 8 6 9 5 10 4 11 3 12 2 13
REMARK SMILES IDX 1 14
REMARK H PARENT
REMARK Flexibility Score: inf
ROOT
ATOM      1  C   UNL     1      -2.120  -2.541   9.525  1.00  0.00     0.000 C 
ENDROOT
BRANCH   1   2
ATOM      2  C   UNL     1      -3.614  -2.818   9.769  1.00  0.00     0.000 C 
BRANCH   2   3
ATOM      3  C   UNL     1      -3.961  -4.286  10.096  1.00  0.00     0.000 C 
BRANCH   3   4
ATOM      4  C   UNL     1      -5.321  -4.769   9.562  1.00  0.00     0.006 C 
BRANCH   4   5
ATOM      5  C   UNL     1      -5.581  -6.252   9.850  1.00  0.00     0.053 C 
BRANCH   5   6
ATOM      6  C   UNL     1      -6.611  -6.794   8.909  1.00  0.00     0.041 C 
ATOM      7  O   UNL     1      -6.815  -8.034   8.840  1.00  0.00    -0.550 OA
ATOM      8  O   UNL     1      -7.380  -5.926   8.144  1.00  0.00    -0.550 OA
ENDBRANCH   5   6
ENDBRANCH   4   5
ENDBRANCH   3   4
ENDBRANCH   2   3
ENDBRANCH   1   2
BRANCH   1   9
ATOM      9  C   UNL     1      -1.687  -1.146  10.000  1.00  0.00     0.000 C 
BRANCH   9  10
ATOM     10  C   UNL     1      -0.181  -0.934   9.780  1.00  0.00    -0.000 C 
BRANCH  10  11
ATOM     11  C   UNL     1       0.273   0.493  10.124  1.00  0.00    -0.000 C 
BRANCH  11  12
ATOM     12  C   UNL     1       1.793   0.682   9.973  1.00  0.00    -0.000 C 
BRANCH  12  13
ATOM     13  C   UNL     1       2.157   2.027   9.328  1.00  0.00    -0.003 C 
ATOM     14  C   UNL     1       3.254   2.770  10.091  1.00  0.00     0.004 C 
ENDBRANCH  12  13
ENDBRANCH  11  12
ENDBRANCH  10  11
ENDBRANCH   9  10
ENDBRANCH   1   9
TORSDOF 10
ENDMDL
