MODEL 1
REMARK VINA RESULT:    -5.322      0.000      0.000
REMARK INTER + INTRA:         -20.348
REMARK INTER:                 -14.034
REMARK INTRA:                  -6.314
REMARK UNBOUND:                -6.314
REMARK SMILES CCCCCCCCCCCCCCCCCCCCCCCCCCCCCC(=O)[O-]
REMARK SMILES IDX 16 1 17 2 18 3 19 4 20 5 21 6 22 7 23 8 24 9 25 10 26 11
REMARK SMILES IDX 27 12 28 13 29 14 30 15 31 16 32 17 15 18 14 19 13 20 12 21
REMARK SMILES IDX 11 22 10 23 9 24 8 25 7 26 6 27 5 28 4 29 3 30 2 31 1 32
REMARK H PARENT
REMARK Flexibility Score: inf
ROOT
ATOM      1  C   UNL     1     116.306 175.647 127.074  1.00  0.00     0.000 C 
ENDROOT
BRANCH   1   2
ATOM      2  C   UNL     1     116.089 176.019 128.553  1.00  0.00     0.000 C 
BRANCH   2   3
ATOM      3  C   UNL     1     117.246 175.637 129.494  1.00  0.00     0.000 C 
BRANCH   3   4
ATOM      4  C   UNL     1     118.328 176.720 129.678  1.00  0.00     0.000 C 
BRANCH   4   5
ATOM      5  C   UNL     1     119.361 176.389 130.778  1.00  0.00     0.000 C 
BRANCH   5   6
ATOM      6  C   UNL     1     120.763 176.929 130.452  1.00  0.00     0.000 C 
BRANCH   6   7
ATOM      7  C   UNL     1     120.749 177.883 129.237  1.00  0.00     0.000 C 
BRANCH   7   8
ATOM      8  C   UNL     1     121.791 177.517 128.171  1.00  0.00     0.000 C 
BRANCH   8   9
ATOM      9  C   UNL     1     122.045 178.663 127.174  1.00  0.00     0.000 C 
BRANCH   9  10
ATOM     10  C   UNL     1     122.875 178.191 125.970  1.00  0.00     0.000 C 
BRANCH  10  11
ATOM     11  C   UNL     1     122.999 176.654 125.913  1.00  0.00     0.000 C 
BRANCH  11  12
ATOM     12  C   UNL     1     123.586 176.155 124.581  1.00  0.00     0.000 C 
BRANCH  12  13
ATOM     13  C   UNL     1     122.839 176.687 123.343  1.00  0.00     0.006 C 
BRANCH  13  14
ATOM     14  C   UNL     1     123.673 176.573 122.060  1.00  0.00     0.053 C 
BRANCH  14  15
ATOM     15  C   UNL     1     122.941 177.181 120.906  1.00  0.00     0.041 C 
ATOM     16  O   UNL     1     123.563 177.505 119.859  1.00  0.00    -0.550 OA
ATOM     17  O   UNL     1     121.577 177.430 121.000  1.00  0.00    -0.550 OA
ENDBRANCH  14  15
ENDBRANCH  13  14
ENDBRANCH  12  13
ENDBRANCH  11  12
ENDBRANCH  10  11
ENDBRANCH   9  10
ENDBRANCH   8   9
ENDBRANCH   7   8
ENDBRANCH   6   7
ENDBRANCH   5   6
ENDBRANCH   4   5
ENDBRANCH   3   4
ENDBRANCH   2   3
ENDBRANCH   1   2
BRANCH   1  18
ATOM     18  C   UNL     1     115.937 176.791 126.115  1.00  0.00     0.000 C 
BRANCH  18  19
ATOM     19  C   UNL     1     115.869 178.162 126.814  1.00  0.00     0.000 C 
BRANCH  19  20
ATOM     20  C   UNL     1     116.917 179.194 126.348  1.00  0.00     0.000 C 
BRANCH  20  21
ATOM     21  C   UNL     1     118.385 178.723 126.405  1.00  0.00     0.000 C 
BRANCH  21  22
ATOM     22  C   UNL     1     119.073 178.604 125.032  1.00  0.00     0.000 C 
BRANCH  22  23
ATOM     23  C   UNL     1     119.369 177.148 124.609  1.00  0.00     0.000 C 
BRANCH  23  24
ATOM     24  C   UNL     1     119.458 176.166 125.793  1.00  0.00    -0.000 C 
BRANCH  24  25
ATOM     25  C   UNL     1     119.782 174.715 125.402  1.00  0.00    -0.000 C 
BRANCH  25  26
ATOM     26  C   UNL     1     120.707 174.020 126.412  1.00  0.00    -0.000 C 
BRANCH  26  27
ATOM     27  C   UNL     1     120.216 174.242 127.848  1.00  0.00    -0.000 C 
BRANCH  27  28
ATOM     28  C   UNL     1     119.915 172.904 128.539  1.00  0.00    -0.000 C 
BRANCH  28  29
ATOM     29  C   UNL     1     118.440 172.491 128.404  1.00  0.00    -0.000 C 
BRANCH  29  30
ATOM     30  C   UNL     1     118.272 171.100 127.767  1.00  0.00    -0.000 C 
BRANCH  30  31
ATOM     31  C   UNL     1     117.960 171.176 126.264  1.00  0.00    -0.003 C 
ATOM     32  C   UNL     1     116.822 172.146 125.946  1.00  0.00     0.004 C 
ENDBRANCH  30  31
ENDBRANCH  29  30
ENDBRANCH  28  29
ENDBRANCH  27  28
ENDBRANCH  26  27
ENDBRANCH  25  26
ENDBRANCH  24  25
ENDBRANCH  23  24
ENDBRANCH  22  23
ENDBRANCH  21  22
ENDBRANCH  20  21
ENDBRANCH  19  20
ENDBRANCH  18  19
ENDBRANCH   1  18
TORSDOF 28
ENDMDL
MODEL 2
REMARK VINA RESULT:    -5.111      1.119      3.144
REMARK INTER + INTRA:         -19.791
REMARK INTER:                 -15.018
REMARK INTRA:                  -4.773
REMARK UNBOUND:                -6.314
REMARK SMILES CCCCCCCCCCCCCCCCCCCCCCCCCCCCCC(=O)[O-]
REMARK SMILES IDX 16 1 17 2 18 3 19 4 20 5 21 6 22 7 23 8 24 9 25 10 26 11
REMARK SMILES IDX 27 12 28 13 29 14 30 15 31 16 32 17 15 18 14 19 13 20 12 21
REMARK SMILES IDX 11 22 10 23 9 24 8 25 7 26 6 27 5 28 4 29 3 30 2 31 1 32
REMARK H PARENT
REMARK Flexibility Score: inf
ROOT
ATOM      1  C   UNL     1     117.531 175.238 130.765  1.00  0.00     0.000 C 
ENDROOT
BRANCH   1   2
ATOM      2  C   UNL     1     119.001 175.480 130.373  1.00  0.00     0.000 C 
BRANCH   2   3
ATOM      3  C   UNL     1     119.637 176.740 130.989  1.00  0.00     0.000 C 
BRANCH   3   4
ATOM      4  C   UNL     1     119.888 177.899 130.004  1.00  0.00     0.000 C 
BRANCH   4   5
ATOM      5  C   UNL     1     120.636 177.475 128.721  1.00  0.00     0.000 C 
BRANCH   5   6
ATOM      6  C   UNL     1     121.834 178.386 128.409  1.00  0.00     0.000 C 
BRANCH   6   7
ATOM      7  C   UNL     1     122.103 178.493 126.892  1.00  0.00     0.000 C 
BRANCH   7   8
ATOM      8  C   UNL     1     122.774 177.242 126.308  1.00  0.00     0.000 C 
BRANCH   8   9
ATOM      9  C   UNL     1     123.782 177.577 125.193  1.00  0.00     0.000 C 
BRANCH   9  10
ATOM     10  C   UNL     1     123.476 176.803 123.903  1.00  0.00     0.000 C 
BRANCH  10  11
ATOM     11  C   UNL     1     124.006 175.354 123.951  1.00  0.00     0.000 C 
BRANCH  11  12
ATOM     12  C   UNL     1     125.066 175.075 122.870  1.00  0.00     0.000 C 
BRANCH  12  13
ATOM     13  C   UNL     1     124.582 175.381 121.440  1.00  0.00     0.006 C 
BRANCH  13  14
ATOM     14  C   UNL     1     125.115 176.720 120.914  1.00  0.00     0.053 C 
BRANCH  14  15
ATOM     15  C   UNL     1     124.088 177.390 120.058  1.00  0.00     0.041 C 
ATOM     16  O   UNL     1     122.914 177.551 120.484  1.00  0.00    -0.550 OA
ATOM     17  O   UNL     1     124.415 177.800 118.770  1.00  0.00    -0.550 OA
ENDBRANCH  14  15
ENDBRANCH  13  14
ENDBRANCH  12  13
ENDBRANCH  11  12
ENDBRANCH  10  11
ENDBRANCH   9  10
ENDBRANCH   8   9
ENDBRANCH   7   8
ENDBRANCH   6   7
ENDBRANCH   5   6
ENDBRANCH   4   5
ENDBRANCH   3   4
ENDBRANCH   2   3
ENDBRANCH   1   2
BRANCH   1  18
ATOM     18  C   UNL     1     116.590 175.216 129.550  1.00  0.00     0.000 C 
BRANCH  18  19
ATOM     19  C   UNL     1     116.876 176.351 128.548  1.00  0.00     0.000 C 
BRANCH  19  20
ATOM     20  C   UNL     1     115.966 176.379 127.304  1.00  0.00     0.000 C 
BRANCH  20  21
ATOM     21  C   UNL     1     115.103 177.648 127.139  1.00  0.00     0.000 C 
BRANCH  21  22
ATOM     22  C   UNL     1     115.590 178.616 126.044  1.00  0.00     0.000 C 
BRANCH  22  23
ATOM     23  C   UNL     1     116.646 179.631 126.536  1.00  0.00     0.000 C 
BRANCH  23  24
ATOM     24  C   UNL     1     118.094 179.116 126.433  1.00  0.00    -0.000 C 
BRANCH  24  25
ATOM     25  C   UNL     1     118.557 178.787 125.004  1.00  0.00    -0.000 C 
BRANCH  25  26
ATOM     26  C   UNL     1     118.523 177.282 124.700  1.00  0.00    -0.000 C 
BRANCH  26  27
ATOM     27  C   UNL     1     119.913 176.771 124.303  1.00  0.00    -0.000 C 
BRANCH  27  28
ATOM     28  C   UNL     1     120.182 175.383 124.903  1.00  0.00    -0.000 C 
BRANCH  28  29
ATOM     29  C   UNL     1     119.451 175.168 126.238  1.00  0.00    -0.000 C 
BRANCH  29  30
ATOM     30  C   UNL     1     120.084 174.049 127.083  1.00  0.00    -0.000 C 
BRANCH  30  31
ATOM     31  C   UNL     1     119.110 172.888 127.345  1.00  0.00    -0.003 C 
ATOM     32  C   UNL     1     117.745 173.106 126.694  1.00  0.00     0.004 C 
ENDBRANCH  30  31
ENDBRANCH  29  30
ENDBRANCH  28  29
ENDBRANCH  27  28
ENDBRANCH  26  27
ENDBRANCH  25  26
ENDBRANCH  24  25
ENDBRANCH  23  24
ENDBRANCH  22  23
ENDBRANCH  21  22
ENDBRANCH  20  21
ENDBRANCH  19  20
ENDBRANCH  18  19
ENDBRANCH   1  18
TORSDOF 28
ENDMDL
MODEL 3
REMARK VINA RESULT:    -5.111      1.532      4.811
REMARK INTER + INTRA:         -19.790
REMARK INTER:                 -15.085
REMARK INTRA:                  -4.705
REMARK UNBOUND:                -6.314
REMARK SMILES CCCCCCCCCCCCCCCCCCCCCCCCCCCCCC(=O)[O-]
REMARK SMILES IDX 16 1 17 2 18 3 19 4 20 5 21 6 22 7 23 8 24 9 25 10 26 11
REMARK SMILES IDX 27 12 28 13 29 14 30 15 31 16 32 17 15 18 14 19 13 20 12 21
REMARK SMILES IDX 11 22 10 23 9 24 8 25 7 26 6 27 5 28 4 29 3 30 2 31 1 32
REMARK H PARENT
REMARK Flexibility Score: inf
ROOT
ATOM      1  C   UNL     1     117.497 172.054 129.484  1.00  0.00     0.000 C 
ENDROOT
BRANCH   1   2
ATOM      2  C   UNL     1     117.384 172.163 127.952  1.00  0.00     0.000 C 
BRANCH   2   3
ATOM      3  C   UNL     1     118.474 171.411 127.166  1.00  0.00     0.000 C 
BRANCH   3   4
ATOM      4  C   UNL     1     119.351 172.291 126.254  1.00  0.00     0.000 C 
BRANCH   4   5
ATOM      5  C   UNL     1     120.380 173.152 127.020  1.00  0.00     0.000 C 
BRANCH   5   6
ATOM      6  C   UNL     1     120.002 174.642 127.041  1.00  0.00     0.000 C 
BRANCH   6   7
ATOM      7  C   UNL     1     119.947 175.247 125.622  1.00  0.00     0.000 C 
BRANCH   7   8
ATOM      8  C   UNL     1     121.299 175.208 124.896  1.00  0.00     0.000 C 
BRANCH   8   9
ATOM      9  C   UNL     1     121.819 176.613 124.537  1.00  0.00     0.000 C 
BRANCH   9  10
ATOM     10  C   UNL     1     121.570 176.947 123.059  1.00  0.00     0.000 C 
BRANCH  10  11
ATOM     11  C   UNL     1     122.866 176.899 122.222  1.00  0.00     0.000 C 
BRANCH  11  12
ATOM     12  C   UNL     1     122.594 176.854 120.708  1.00  0.00     0.000 C 
BRANCH  12  13
ATOM     13  C   UNL     1     123.870 176.947 119.851  1.00  0.00     0.006 C 
BRANCH  13  14
ATOM     14  C   UNL     1     124.062 178.338 119.230  1.00  0.00     0.053 C 
BRANCH  14  15
ATOM     15  C   UNL     1     124.294 178.225 117.757  1.00  0.00     0.041 C 
ATOM     16  O   UNL     1     125.460 178.067 117.309  1.00  0.00    -0.550 OA
ATOM     17  O   UNL     1     123.227 178.336 116.874  1.00  0.00    -0.550 OA
ENDBRANCH  14  15
ENDBRANCH  13  14
ENDBRANCH  12  13
ENDBRANCH  11  12
ENDBRANCH  10  11
ENDBRANCH   9  10
ENDBRANCH   8   9
ENDBRANCH   7   8
ENDBRANCH   6   7
ENDBRANCH   5   6
ENDBRANCH   4   5
ENDBRANCH   3   4
ENDBRANCH   2   3
ENDBRANCH   1   2
BRANCH   1  18
ATOM     18  C   UNL     1     117.892 173.384 130.146  1.00  0.00     0.000 C 
BRANCH  18  19
ATOM     19  C   UNL     1     117.161 174.596 129.539  1.00  0.00     0.000 C 
BRANCH  19  20
ATOM     20  C   UNL     1     117.900 175.945 129.666  1.00  0.00     0.000 C 
BRANCH  20  21
ATOM     21  C   UNL     1     118.897 176.049 130.839  1.00  0.00     0.000 C 
BRANCH  21  22
ATOM     22  C   UNL     1     120.361 176.274 130.418  1.00  0.00     0.000 C 
BRANCH  22  23
ATOM     23  C   UNL     1     120.664 177.723 129.975  1.00  0.00     0.000 C 
BRANCH  23  24
ATOM     24  C   UNL     1     121.768 177.825 128.905  1.00  0.00    -0.000 C 
BRANCH  24  25
ATOM     25  C   UNL     1     121.318 178.450 127.575  1.00  0.00    -0.000 C 
BRANCH  25  26
ATOM     26  C   UNL     1     119.803 178.338 127.348  1.00  0.00    -0.000 C 
BRANCH  26  27
ATOM     27  C   UNL     1     119.397 179.001 126.026  1.00  0.00    -0.000 C 
BRANCH  27  28
ATOM     28  C   UNL     1     117.868 179.071 125.891  1.00  0.00    -0.000 C 
BRANCH  28  29
ATOM     29  C   UNL     1     117.148 178.768 127.215  1.00  0.00    -0.000 C 
BRANCH  29  30
ATOM     30  C   UNL     1     115.965 177.799 127.035  1.00  0.00    -0.000 C 
BRANCH  30  31
ATOM     31  C   UNL     1     116.158 176.853 125.839  1.00  0.00    -0.003 C 
ATOM     32  C   UNL     1     116.295 175.390 126.261  1.00  0.00     0.004 C 
ENDBRANCH  30  31
ENDBRANCH  29  30
ENDBRANCH  28  29
ENDBRANCH  27  28
ENDBRANCH  26  27
ENDBRANCH  25  26
ENDBRANCH  24  25
ENDBRANCH  23  24
ENDBRANCH  22  23
ENDBRANCH  21  22
ENDBRANCH  20  21
ENDBRANCH  19  20
ENDBRANCH  18  19
ENDBRANCH   1  18
TORSDOF 28
ENDMDL
MODEL 4
REMARK VINA RESULT:    -5.093      1.684      4.710
REMARK INTER + INTRA:         -19.744
REMARK INTER:                 -14.538
REMARK INTRA:                  -5.205
REMARK UNBOUND:                -6.314
REMARK SMILES CCCCCCCCCCCCCCCCCCCCCCCCCCCCCC(=O)[O-]
REMARK SMILES IDX 16 1 17 2 18 3 19 4 20 5 21 6 22 7 23 8 24 9 25 10 26 11
REMARK SMILES IDX 27 12 28 13 29 14 30 15 31 16 32 17 15 18 14 19 13 20 12 21
REMARK SMILES IDX 11 22 10 23 9 24 8 25 7 26 6 27 5 28 4 29 3 30 2 31 1 32
REMARK H PARENT
REMARK Flexibility Score: inf
ROOT
ATOM      1  C   UNL     1     117.950 178.238 124.342  1.00  0.00     0.000 C 
ENDROOT
BRANCH   1   2
ATOM      2  C   UNL     1     118.614 177.874 123.002  1.00  0.00     0.000 C 
BRANCH   2   3
ATOM      3  C   UNL     1     120.089 178.297 122.872  1.00  0.00     0.000 C 
BRANCH   3   4
ATOM      4  C   UNL     1     121.115 177.155 123.010  1.00  0.00     0.000 C 
BRANCH   4   5
ATOM      5  C   UNL     1     120.911 176.282 124.267  1.00  0.00     0.000 C 
BRANCH   5   6
ATOM      6  C   UNL     1     122.239 175.892 124.936  1.00  0.00     0.000 C 
BRANCH   6   7
ATOM      7  C   UNL     1     123.088 177.128 125.305  1.00  0.00     0.000 C 
BRANCH   7   8
ATOM      8  C   UNL     1     124.442 177.167 124.583  1.00  0.00     0.000 C 
BRANCH   8   9
ATOM      9  C   UNL     1     124.639 175.975 123.627  1.00  0.00     0.000 C 
BRANCH   9  10
ATOM     10  C   UNL     1     124.625 176.421 122.157  1.00  0.00     0.000 C 
BRANCH  10  11
ATOM     11  C   UNL     1     125.085 177.884 121.986  1.00  0.00     0.000 C 
BRANCH  11  12
ATOM     12  C   UNL     1     125.357 178.253 120.517  1.00  0.00     0.000 C 
BRANCH  12  13
ATOM     13  C   UNL     1     124.080 178.564 119.715  1.00  0.00     0.006 C 
BRANCH  13  14
ATOM     14  C   UNL     1     124.068 177.881 118.340  1.00  0.00     0.053 C 
BRANCH  14  15
ATOM     15  C   UNL     1     123.061 176.776 118.314  1.00  0.00     0.041 C 
ATOM     16  O   UNL     1     122.432 176.466 119.361  1.00  0.00    -0.550 OA
ATOM     17  O   UNL     1     122.847 176.057 117.145  1.00  0.00    -0.550 OA
ENDBRANCH  14  15
ENDBRANCH  13  14
ENDBRANCH  12  13
ENDBRANCH  11  12
ENDBRANCH  10  11
ENDBRANCH   9  10
ENDBRANCH   8   9
ENDBRANCH   7   8
ENDBRANCH   6   7
ENDBRANCH   5   6
ENDBRANCH   4   5
ENDBRANCH   3   4
ENDBRANCH   2   3
ENDBRANCH   1   2
BRANCH   1  18
ATOM     18  C   UNL     1     118.784 179.233 125.166  1.00  0.00     0.000 C 
BRANCH  18  19
ATOM     19  C   UNL     1     118.897 178.836 126.650  1.00  0.00     0.000 C 
BRANCH  19  20
ATOM     20  C   UNL     1     120.333 178.616 127.168  1.00  0.00     0.000 C 
BRANCH  20  21
ATOM     21  C   UNL     1     120.478 177.590 128.311  1.00  0.00     0.000 C 
BRANCH  21  22
ATOM     22  C   UNL     1     119.313 177.585 129.319  1.00  0.00     0.000 C 
BRANCH  22  23
ATOM     23  C   UNL     1     119.445 176.504 130.416  1.00  0.00     0.000 C 
BRANCH  23  24
ATOM     24  C   UNL     1     120.136 175.214 129.932  1.00  0.00    -0.000 C 
BRANCH  24  25
ATOM     25  C   UNL     1     119.209 174.220 129.215  1.00  0.00    -0.000 C 
BRANCH  25  26
ATOM     26  C   UNL     1     119.835 173.636 127.940  1.00  0.00    -0.000 C 
BRANCH  26  27
ATOM     27  C   UNL     1     118.865 173.737 126.757  1.00  0.00    -0.000 C 
BRANCH  27  28
ATOM     28  C   UNL     1     118.464 175.197 126.497  1.00  0.00    -0.000 C 
BRANCH  28  29
ATOM     29  C   UNL     1     116.940 175.396 126.493  1.00  0.00    -0.000 C 
BRANCH  29  30
ATOM     30  C   UNL     1     116.399 175.841 127.864  1.00  0.00    -0.000 C 
BRANCH  30  31
ATOM     31  C   UNL     1     115.550 177.120 127.774  1.00  0.00    -0.003 C 
ATOM     32  C   UNL     1     115.058 177.402 126.355  1.00  0.00     0.004 C 
ENDBRANCH  30  31
ENDBRANCH  29  30
ENDBRANCH  28  29
ENDBRANCH  27  28
ENDBRANCH  26  27
ENDBRANCH  25  26
ENDBRANCH  24  25
ENDBRANCH  23  24
ENDBRANCH  22  23
ENDBRANCH  21  22
ENDBRANCH  20  21
ENDBRANCH  19  20
ENDBRANCH  18  19
ENDBRANCH   1  18
TORSDOF 28
ENDMDL
MODEL 5
REMARK VINA RESULT:    -5.077      3.149      7.121
REMARK INTER + INTRA:         -19.701
REMARK INTER:                 -14.949
REMARK INTRA:                  -4.752
REMARK UNBOUND:                -6.314
REMARK SMILES CCCCCCCCCCCCCCCCCCCCCCCCCCCCCC(=O)[O-]
REMARK SMILES IDX 16 1 17 2 18 3 19 4 20 5 21 6 22 7 23 8 24 9 25 10 26 11
REMARK SMILES IDX 27 12 28 13 29 14 30 15 31 16 32 17 15 18 14 19 13 20 12 21
REMARK SMILES IDX 11 22 10 23 9 24 8 25 7 26 6 27 5 28 4 29 3 30 2 31 1 32
REMARK H PARENT
REMARK Flexibility Score: inf
ROOT
ATOM      1  C   UNL     1     118.030 178.771 126.272  1.00  0.00     0.000 C 
ENDROOT
BRANCH   1   2
ATOM      2  C   UNL     1     118.663 178.536 127.656  1.00  0.00     0.000 C 
BRANCH   2   3
ATOM      3  C   UNL     1     120.101 177.983 127.626  1.00  0.00     0.000 C 
BRANCH   3   4
ATOM      4  C   UNL     1     120.654 177.520 128.988  1.00  0.00     0.000 C 
BRANCH   4   5
ATOM      5  C   UNL     1     119.820 177.999 130.196  1.00  0.00     0.000 C 
BRANCH   5   6
ATOM      6  C   UNL     1     119.410 176.844 131.124  1.00  0.00     0.000 C 
BRANCH   6   7
ATOM      7  C   UNL     1     118.805 175.658 130.342  1.00  0.00     0.000 C 
BRANCH   7   8
ATOM      8  C   UNL     1     117.397 175.275 130.821  1.00  0.00     0.000 C 
BRANCH   8   9
ATOM      9  C   UNL     1     116.366 175.260 129.677  1.00  0.00     0.000 C 
BRANCH   9  10
ATOM     10  C   UNL     1     116.868 176.042 128.453  1.00  0.00     0.000 C 
BRANCH  10  11
ATOM     11  C   UNL     1     116.905 175.171 127.180  1.00  0.00     0.000 C 
BRANCH  11  12
ATOM     12  C   UNL     1     118.337 174.811 126.748  1.00  0.00     0.000 C 
BRANCH  12  13
ATOM     13  C   UNL     1     118.520 173.321 126.405  1.00  0.00     0.006 C 
BRANCH  13  14
ATOM     14  C   UNL     1     117.288 172.479 126.766  1.00  0.00     0.053 C 
BRANCH  14  15
ATOM     15  C   UNL     1     117.586 171.590 127.931  1.00  0.00     0.041 C 
ATOM     16  O   UNL     1     117.474 170.340 127.821  1.00  0.00    -0.550 OA
ATOM     17  O   UNL     1     117.946 172.143 129.154  1.00  0.00    -0.550 OA
ENDBRANCH  14  15
ENDBRANCH  13  14
ENDBRANCH  12  13
ENDBRANCH  11  12
ENDBRANCH  10  11
ENDBRANCH   9  10
ENDBRANCH   8   9
ENDBRANCH   7   8
ENDBRANCH   6   7
ENDBRANCH   5   6
ENDBRANCH   4   5
ENDBRANCH   3   4
ENDBRANCH   2   3
ENDBRANCH   1   2
BRANCH   1  18
ATOM     18  C   UNL     1     119.079 178.983 125.168  1.00  0.00     0.000 C 
BRANCH  18  19
ATOM     19  C   UNL     1     119.163 177.800 124.185  1.00  0.00     0.000 C 
BRANCH  19  20
ATOM     20  C   UNL     1     120.576 177.222 123.965  1.00  0.00     0.000 C 
BRANCH  20  21
ATOM     21  C   UNL     1     120.756 175.739 124.353  1.00  0.00     0.000 C 
BRANCH  21  22
ATOM     22  C   UNL     1     122.064 175.429 125.106  1.00  0.00     0.000 C 
BRANCH  22  23
ATOM     23  C   UNL     1     122.911 176.682 125.422  1.00  0.00     0.000 C 
BRANCH  23  24
ATOM     24  C   UNL     1     124.160 176.824 124.532  1.00  0.00    -0.000 C 
BRANCH  24  25
ATOM     25  C   UNL     1     124.461 175.604 123.647  1.00  0.00    -0.000 C 
BRANCH  25  26
ATOM     26  C   UNL     1     124.294 175.898 122.149  1.00  0.00    -0.000 C 
BRANCH  26  27
ATOM     27  C   UNL     1     123.968 177.378 121.915  1.00  0.00    -0.000 C 
BRANCH  27  28
ATOM     28  C   UNL     1     122.926 177.543 120.799  1.00  0.00    -0.000 C 
BRANCH  28  29
ATOM     29  C   UNL     1     122.557 176.205 120.138  1.00  0.00    -0.000 C 
BRANCH  29  30
ATOM     30  C   UNL     1     122.666 176.254 118.604  1.00  0.00    -0.000 C 
BRANCH  30  31
ATOM     31  C   UNL     1     123.965 176.925 118.129  1.00  0.00    -0.003 C 
ATOM     32  C   UNL     1     123.711 178.094 117.178  1.00  0.00     0.004 C 
ENDBRANCH  30  31
ENDBRANCH  29  30
ENDBRANCH  28  29
ENDBRANCH  27  28
ENDBRANCH  26  27
ENDBRANCH  25  26
ENDBRANCH  24  25
ENDBRANCH  23  24
ENDBRANCH  22  23
ENDBRANCH  21  22
ENDBRANCH  20  21
ENDBRANCH  19  20
ENDBRANCH  18  19
ENDBRANCH   1  18
TORSDOF 28
ENDMDL
MODEL 6
REMARK VINA RESULT:    -5.055      2.070      5.073
REMARK INTER + INTRA:         -19.643
REMARK INTER:                 -15.098
REMARK INTRA:                  -4.545
REMARK UNBOUND:                -6.314
REMARK SMILES CCCCCCCCCCCCCCCCCCCCCCCCCCCCCC(=O)[O-]
REMARK SMILES IDX 16 1 17 2 18 3 19 4 20 5 21 6 22 7 23 8 24 9 25 10 26 11
REMARK SMILES IDX 27 12 28 13 29 14 30 15 31 16 32 17 15 18 14 19 13 20 12 21
REMARK SMILES IDX 11 22 10 23 9 24 8 25 7 26 6 27 5 28 4 29 3 30 2 31 1 32
REMARK H PARENT
REMARK Flexibility Score: inf
ROOT
ATOM      1  C   UNL     1     120.012 176.386 129.713  1.00  0.00     0.000 C 
ENDROOT
BRANCH   1   2
ATOM      2  C   UNL     1     120.129 177.797 129.106  1.00  0.00     0.000 C 
BRANCH   2   3
ATOM      3  C   UNL     1     121.570 178.318 128.949  1.00  0.00     0.000 C 
BRANCH   3   4
ATOM      4  C   UNL     1     122.021 178.575 127.498  1.00  0.00     0.000 C 
BRANCH   4   5
ATOM      5  C   UNL     1     122.231 177.287 126.672  1.00  0.00     0.000 C 
BRANCH   5   6
ATOM      6  C   UNL     1     123.159 177.505 125.466  1.00  0.00     0.000 C 
BRANCH   6   7
ATOM      7  C   UNL     1     123.026 176.377 124.420  1.00  0.00     0.000 C 
BRANCH   7   8
ATOM      8  C   UNL     1     123.489 176.796 123.018  1.00  0.00     0.000 C 
BRANCH   8   9
ATOM      9  C   UNL     1     122.340 176.803 121.992  1.00  0.00     0.000 C 
BRANCH   9  10
ATOM     10  C   UNL     1     122.854 176.552 120.566  1.00  0.00     0.000 C 
BRANCH  10  11
ATOM     11  C   UNL     1     123.496 177.811 119.947  1.00  0.00     0.000 C 
BRANCH  11  12
ATOM     12  C   UNL     1     125.008 177.649 119.707  1.00  0.00     0.000 C 
BRANCH  12  13
ATOM     13  C   UNL     1     125.510 176.206 119.903  1.00  0.00     0.006 C 
BRANCH  13  14
ATOM     14  C   UNL     1     126.598 176.104 120.981  1.00  0.00     0.053 C 
BRANCH  14  15
ATOM     15  C   UNL     1     127.156 174.717 121.029  1.00  0.00     0.041 C 
ATOM     16  O   UNL     1     126.968 173.992 122.042  1.00  0.00    -0.550 OA
ATOM     17  O   UNL     1     127.922 174.238 119.973  1.00  0.00    -0.550 OA
ENDBRANCH  14  15
ENDBRANCH  13  14
ENDBRANCH  12  13
ENDBRANCH  11  12
ENDBRANCH  10  11
ENDBRANCH   9  10
ENDBRANCH   8   9
ENDBRANCH   7   8
ENDBRANCH   6   7
ENDBRANCH   5   6
ENDBRANCH   4   5
ENDBRANCH   3   4
ENDBRANCH   2   3
ENDBRANCH   1   2
BRANCH   1  18
ATOM     18  C   UNL     1     119.198 176.369 131.018  1.00  0.00     0.000 C 
BRANCH  18  19
ATOM     19  C   UNL     1     117.900 175.548 130.903  1.00  0.00     0.000 C 
BRANCH  19  20
ATOM     20  C   UNL     1     117.419 175.269 129.464  1.00  0.00     0.000 C 
BRANCH  20  21
ATOM     21  C   UNL     1     116.167 176.053 129.018  1.00  0.00     0.000 C 
BRANCH  21  22
ATOM     22  C   UNL     1     115.989 176.161 127.491  1.00  0.00     0.000 C 
BRANCH  22  23
ATOM     23  C   UNL     1     115.772 177.607 126.991  1.00  0.00     0.000 C 
BRANCH  23  24
ATOM     24  C   UNL     1     116.894 178.578 127.406  1.00  0.00    -0.000 C 
BRANCH  24  25
ATOM     25  C   UNL     1     117.375 179.518 126.288  1.00  0.00    -0.000 C 
BRANCH  25  26
ATOM     26  C   UNL     1     118.693 179.056 125.650  1.00  0.00    -0.000 C 
BRANCH  26  27
ATOM     27  C   UNL     1     118.428 178.150 124.441  1.00  0.00    -0.000 C 
BRANCH  27  28
ATOM     28  C   UNL     1     119.226 176.842 124.548  1.00  0.00    -0.000 C 
BRANCH  28  29
ATOM     29  C   UNL     1     119.219 176.265 125.973  1.00  0.00    -0.000 C 
BRANCH  29  30
ATOM     30  C   UNL     1     119.092 174.731 125.989  1.00  0.00    -0.000 C 
BRANCH  30  31
ATOM     31  C   UNL     1     120.089 174.068 126.953  1.00  0.00    -0.003 C 
ATOM     32  C   UNL     1     121.282 173.445 126.230  1.00  0.00     0.004 C 
ENDBRANCH  30  31
ENDBRANCH  29  30
ENDBRANCH  28  29
ENDBRANCH  27  28
ENDBRANCH  26  27
ENDBRANCH  25  26
ENDBRANCH  24  25
ENDBRANCH  23  24
ENDBRANCH  22  23
ENDBRANCH  21  22
ENDBRANCH  20  21
ENDBRANCH  19  20
ENDBRANCH  18  19
ENDBRANCH   1  18
TORSDOF 28
ENDMDL
MODEL 7
REMARK VINA RESULT:    -5.046      1.488      4.872
REMARK INTER + INTRA:         -19.619
REMARK INTER:                 -14.574
REMARK INTRA:                  -5.045
REMARK UNBOUND:                -6.314
REMARK SMILES CCCCCCCCCCCCCCCCCCCCCCCCCCCCCC(=O)[O-]
REMARK SMILES IDX 16 1 17 2 18 3 19 4 20 5 21 6 22 7 23 8 24 9 25 10 26 11
REMARK SMILES IDX 27 12 28 13 29 14 30 15 31 16 32 17 15 18 14 19 13 20 12 21
REMARK SMILES IDX 11 22 10 23 9 24 8 25 7 26 6 27 5 28 4 29 3 30 2 31 1 32
REMARK H PARENT
REMARK Flexibility Score: inf
ROOT
ATOM      1  C   UNL     1     118.255 176.052 130.538  1.00  0.00     0.000 C 
ENDROOT
BRANCH   1   2
ATOM      2  C   UNL     1     119.737 175.729 130.272  1.00  0.00     0.000 C 
BRANCH   2   3
ATOM      3  C   UNL     1     120.657 176.957 130.147  1.00  0.00     0.000 C 
BRANCH   3   4
ATOM      4  C   UNL     1     120.450 177.807 128.877  1.00  0.00     0.000 C 
BRANCH   4   5
ATOM      5  C   UNL     1     121.742 178.040 128.065  1.00  0.00     0.000 C 
BRANCH   5   6
ATOM      6  C   UNL     1     121.549 177.778 126.562  1.00  0.00     0.000 C 
BRANCH   6   7
ATOM      7  C   UNL     1     122.850 177.292 125.887  1.00  0.00     0.000 C 
BRANCH   7   8
ATOM      8  C   UNL     1     122.675 175.976 125.116  1.00  0.00     0.000 C 
BRANCH   8   9
ATOM      9  C   UNL     1     121.554 176.052 124.062  1.00  0.00     0.000 C 
BRANCH   9  10
ATOM     10  C   UNL     1     121.914 177.015 122.922  1.00  0.00     0.000 C 
BRANCH  10  11
ATOM     11  C   UNL     1     122.989 176.431 121.981  1.00  0.00     0.000 C 
BRANCH  11  12
ATOM     12  C   UNL     1     122.667 176.665 120.494  1.00  0.00     0.000 C 
BRANCH  12  13
ATOM     13  C   UNL     1     123.433 177.852 119.879  1.00  0.00     0.006 C 
BRANCH  13  14
ATOM     14  C   UNL     1     124.852 177.993 120.446  1.00  0.00     0.053 C 
BRANCH  14  15
ATOM     15  C   UNL     1     125.864 177.547 119.439  1.00  0.00     0.041 C 
ATOM     16  O   UNL     1     125.520 177.336 118.245  1.00  0.00    -0.550 OA
ATOM     17  O   UNL     1     127.180 177.323 119.826  1.00  0.00    -0.550 OA
ENDBRANCH  14  15
ENDBRANCH  13  14
ENDBRANCH  12  13
ENDBRANCH  11  12
ENDBRANCH  10  11
ENDBRANCH   9  10
ENDBRANCH   8   9
ENDBRANCH   7   8
ENDBRANCH   6   7
ENDBRANCH   5   6
ENDBRANCH   4   5
ENDBRANCH   3   4
ENDBRANCH   2   3
ENDBRANCH   1   2
BRANCH   1  18
ATOM     18  C   UNL     1     117.327 174.860 130.251  1.00  0.00     0.000 C 
BRANCH  18  19
ATOM     19  C   UNL     1     118.073 173.513 130.222  1.00  0.00     0.000 C 
BRANCH  19  20
ATOM     20  C   UNL     1     117.287 172.336 129.608  1.00  0.00     0.000 C 
BRANCH  20  21
ATOM     21  C   UNL     1     118.022 171.552 128.501  1.00  0.00     0.000 C 
BRANCH  21  22
ATOM     22  C   UNL     1     119.530 171.850 128.397  1.00  0.00     0.000 C 
BRANCH  22  23
ATOM     23  C   UNL     1     120.093 171.718 126.964  1.00  0.00     0.000 C 
BRANCH  23  24
ATOM     24  C   UNL     1     120.332 173.071 126.267  1.00  0.00    -0.000 C 
BRANCH  24  25
ATOM     25  C   UNL     1     119.945 174.301 127.104  1.00  0.00    -0.000 C 
BRANCH  25  26
ATOM     26  C   UNL     1     118.964 175.232 126.375  1.00  0.00    -0.000 C 
BRANCH  26  27
ATOM     27  C   UNL     1     117.516 174.772 126.583  1.00  0.00    -0.000 C 
BRANCH  27  28
ATOM     28  C   UNL     1     116.596 175.967 126.877  1.00  0.00    -0.000 C 
BRANCH  28  29
ATOM     29  C   UNL     1     116.832 177.141 125.912  1.00  0.00    -0.000 C 
BRANCH  29  30
ATOM     30  C   UNL     1     117.307 178.413 126.636  1.00  0.00    -0.000 C 
BRANCH  30  31
ATOM     31  C   UNL     1     118.307 179.227 125.799  1.00  0.00    -0.003 C 
ATOM     32  C   UNL     1     118.741 178.499 124.527  1.00  0.00     0.004 C 
ENDBRANCH  30  31
ENDBRANCH  29  30
ENDBRANCH  28  29
ENDBRANCH  27  28
ENDBRANCH  26  27
ENDBRANCH  25  26
ENDBRANCH  24  25
ENDBRANCH  23  24
ENDBRANCH  22  23
ENDBRANCH  21  22
ENDBRANCH  20  21
ENDBRANCH  19  20
ENDBRANCH  18  19
ENDBRANCH   1  18
TORSDOF 28
ENDMDL
MODEL 8
REMARK VINA RESULT:    -5.027      2.624      6.196
REMARK INTER + INTRA:         -19.568
REMARK INTER:                 -14.485
REMARK INTRA:                  -5.083
REMARK UNBOUND:                -6.314
REMARK SMILES CCCCCCCCCCCCCCCCCCCCCCCCCCCCCC(=O)[O-]
REMARK SMILES IDX 16 1 17 2 18 3 19 4 20 5 21 6 22 7 23 8 24 9 25 10 26 11
REMARK SMILES IDX 27 12 28 13 29 14 30 15 31 16 32 17 15 18 14 19 13 20 12 21
REMARK SMILES IDX 11 22 10 23 9 24 8 25 7 26 6 27 5 28 4 29 3 30 2 31 1 32
REMARK H PARENT
REMARK Flexibility Score: inf
ROOT
ATOM      1  C   UNL     1     117.032 174.981 129.596  1.00  0.00     0.000 C 
ENDROOT
BRANCH   1   2
ATOM      2  C   UNL     1     116.930 176.355 128.910  1.00  0.00     0.000 C 
BRANCH   2   3
ATOM      3  C   UNL     1     115.664 176.563 128.058  1.00  0.00     0.000 C 
BRANCH   3   4
ATOM      4  C   UNL     1     115.918 176.907 126.577  1.00  0.00     0.000 C 
BRANCH   4   5
ATOM      5  C   UNL     1     115.391 178.298 126.160  1.00  0.00     0.000 C 
BRANCH   5   6
ATOM      6  C   UNL     1     116.349 179.434 126.557  1.00  0.00     0.000 C 
BRANCH   6   7
ATOM      7  C   UNL     1     117.814 178.955 126.641  1.00  0.00     0.000 C 
BRANCH   7   8
ATOM      8  C   UNL     1     118.644 179.332 125.406  1.00  0.00     0.000 C 
BRANCH   8   9
ATOM      9  C   UNL     1     118.634 178.233 124.327  1.00  0.00     0.000 C 
BRANCH   9  10
ATOM     10  C   UNL     1     119.923 177.397 124.359  1.00  0.00     0.000 C 
BRANCH  10  11
ATOM     11  C   UNL     1     119.641 175.900 124.604  1.00  0.00     0.000 C 
BRANCH  11  12
ATOM     12  C   UNL     1     119.156 175.614 126.037  1.00  0.00     0.000 C 
BRANCH  12  13
ATOM     13  C   UNL     1     119.255 174.129 126.435  1.00  0.00     0.006 C 
BRANCH  13  14
ATOM     14  C   UNL     1     120.708 173.655 126.577  1.00  0.00     0.053 C 
BRANCH  14  15
ATOM     15  C   UNL     1     120.769 172.397 127.384  1.00  0.00     0.041 C 
ATOM     16  O   UNL     1     121.532 171.457 127.037  1.00  0.00    -0.550 OA
ATOM     17  O   UNL     1     119.951 172.244 128.497  1.00  0.00    -0.550 OA
ENDBRANCH  14  15
ENDBRANCH  13  14
ENDBRANCH  12  13
ENDBRANCH  11  12
ENDBRANCH  10  11
ENDBRANCH   9  10
ENDBRANCH   8   9
ENDBRANCH   7   8
ENDBRANCH   6   7
ENDBRANCH   5   6
ENDBRANCH   4   5
ENDBRANCH   3   4
ENDBRANCH   2   3
ENDBRANCH   1   2
BRANCH   1  18
ATOM     18  C   UNL     1     118.308 174.832 130.441  1.00  0.00     0.000 C 
BRANCH  18  19
ATOM     19  C   UNL     1     119.545 175.462 129.773  1.00  0.00     0.000 C 
BRANCH  19  20
ATOM     20  C   UNL     1     120.140 176.683 130.504  1.00  0.00     0.000 C 
BRANCH  20  21
ATOM     21  C   UNL     1     120.486 177.891 129.609  1.00  0.00     0.000 C 
BRANCH  21  22
ATOM     22  C   UNL     1     120.968 177.521 128.193  1.00  0.00     0.000 C 
BRANCH  22  23
ATOM     23  C   UNL     1     121.706 178.669 127.468  1.00  0.00     0.000 C 
BRANCH  23  24
ATOM     24  C   UNL     1     122.722 178.185 126.416  1.00  0.00    -0.000 C 
BRANCH  24  25
ATOM     25  C   UNL     1     122.770 176.660 126.225  1.00  0.00    -0.000 C 
BRANCH  25  26
ATOM     26  C   UNL     1     123.756 176.229 125.129  1.00  0.00    -0.000 C 
BRANCH  26  27
ATOM     27  C   UNL     1     124.089 177.402 124.199  1.00  0.00    -0.000 C 
BRANCH  27  28
ATOM     28  C   UNL     1     124.033 176.971 122.726  1.00  0.00    -0.000 C 
BRANCH  28  29
ATOM     29  C   UNL     1     122.608 176.621 122.269  1.00  0.00    -0.000 C 
BRANCH  29  30
ATOM     30  C   UNL     1     122.355 176.982 120.795  1.00  0.00    -0.000 C 
BRANCH  30  31
ATOM     31  C   UNL     1     123.533 177.744 120.166  1.00  0.00    -0.003 C 
ATOM     32  C   UNL     1     123.793 177.334 118.716  1.00  0.00     0.004 C 
ENDBRANCH  30  31
ENDBRANCH  29  30
ENDBRANCH  28  29
ENDBRANCH  27  28
ENDBRANCH  26  27
ENDBRANCH  25  26
ENDBRANCH  24  25
ENDBRANCH  23  24
ENDBRANCH  22  23
ENDBRANCH  21  22
ENDBRANCH  20  21
ENDBRANCH  19  20
ENDBRANCH  18  19
ENDBRANCH   1  18
TORSDOF 28
ENDMDL
MODEL 9
REMARK VINA RESULT:    -5.010      2.209      5.914
REMARK INTER + INTRA:         -19.524
REMARK INTER:                 -14.878
REMARK INTRA:                  -4.646
REMARK UNBOUND:                -6.314
REMARK SMILES CCCCCCCCCCCCCCCCCCCCCCCCCCCCCC(=O)[O-]
REMARK SMILES IDX 16 1 17 2 18 3 19 4 20 5 21 6 22 7 23 8 24 9 25 10 26 11
REMARK SMILES IDX 27 12 28 13 29 14 30 15 31 16 32 17 15 18 14 19 13 20 12 21
REMARK SMILES IDX 11 22 10 23 9 24 8 25 7 26 6 27 5 28 4 29 3 30 2 31 1 32
REMARK H PARENT
REMARK Flexibility Score: inf
ROOT
ATOM      1  C   UNL     1     120.886 175.949 126.200  1.00  0.00     0.000 C 
ENDROOT
BRANCH   1   2
ATOM      2  C   UNL     1     120.998 175.631 124.697  1.00  0.00     0.000 C 
BRANCH   2   3
ATOM      3  C   UNL     1     121.606 176.756 123.839  1.00  0.00     0.000 C 
BRANCH   3   4
ATOM      4  C   UNL     1     122.940 176.409 123.149  1.00  0.00     0.000 C 
BRANCH   4   5
ATOM      5  C   UNL     1     123.992 175.796 124.099  1.00  0.00     0.000 C 
BRANCH   5   6
ATOM      6  C   UNL     1     125.023 174.930 123.356  1.00  0.00     0.000 C 
BRANCH   6   7
ATOM      7  C   UNL     1     124.984 175.162 121.830  1.00  0.00     0.000 C 
BRANCH   7   8
ATOM      8  C   UNL     1     126.130 174.466 121.084  1.00  0.00     0.000 C 
BRANCH   8   9
ATOM      9  C   UNL     1     127.339 175.393 120.856  1.00  0.00     0.000 C 
BRANCH   9  10
ATOM     10  C   UNL     1     127.812 175.357 119.396  1.00  0.00     0.000 C 
BRANCH  10  11
ATOM     11  C   UNL     1     126.762 175.943 118.428  1.00  0.00     0.000 C 
BRANCH  11  12
ATOM     12  C   UNL     1     126.329 177.368 118.814  1.00  0.00     0.000 C 
BRANCH  12  13
ATOM     13  C   UNL     1     124.958 177.771 118.240  1.00  0.00     0.006 C 
BRANCH  13  14
ATOM     14  C   UNL     1     123.846 177.739 119.298  1.00  0.00     0.053 C 
BRANCH  14  15
ATOM     15  C   UNL     1     122.809 176.724 118.935  1.00  0.00     0.041 C 
ATOM     16  O   UNL     1     121.993 176.312 119.801  1.00  0.00    -0.550 OA
ATOM     17  O   UNL     1     122.770 176.198 117.649  1.00  0.00    -0.550 OA
ENDBRANCH  14  15
ENDBRANCH  13  14
ENDBRANCH  12  13
ENDBRANCH  11  12
ENDBRANCH  10  11
ENDBRANCH   9  10
ENDBRANCH   8   9
ENDBRANCH   7   8
ENDBRANCH   6   7
ENDBRANCH   5   6
ENDBRANCH   4   5
ENDBRANCH   3   4
ENDBRANCH   2   3
ENDBRANCH   1   2
BRANCH   1  18
ATOM     18  C   UNL     1     121.714 177.178 126.609  1.00  0.00     0.000 C 
BRANCH  18  19
ATOM     19  C   UNL     1     120.870 178.270 127.293  1.00  0.00     0.000 C 
BRANCH  19  20
ATOM     20  C   UNL     1     119.359 178.229 126.981  1.00  0.00     0.000 C 
BRANCH  20  21
ATOM     21  C   UNL     1     118.872 179.235 125.918  1.00  0.00     0.000 C 
BRANCH  21  22
ATOM     22  C   UNL     1     118.502 178.604 124.561  1.00  0.00     0.000 C 
BRANCH  22  23
ATOM     23  C   UNL     1     117.738 177.267 124.686  1.00  0.00     0.000 C 
BRANCH  23  24
ATOM     24  C   UNL     1     116.236 177.439 124.982  1.00  0.00    -0.000 C 
BRANCH  24  25
ATOM     25  C   UNL     1     115.686 176.508 126.075  1.00  0.00    -0.000 C 
BRANCH  25  26
ATOM     26  C   UNL     1     115.667 177.167 127.462  1.00  0.00    -0.000 C 
BRANCH  26  27
ATOM     27  C   UNL     1     116.214 176.211 128.530  1.00  0.00    -0.000 C 
BRANCH  27  28
ATOM     28  C   UNL     1     117.278 175.274 127.938  1.00  0.00    -0.000 C 
BRANCH  28  29
ATOM     29  C   UNL     1     118.485 175.091 128.872  1.00  0.00    -0.000 C 
BRANCH  29  30
ATOM     30  C   UNL     1     118.299 175.805 130.223  1.00  0.00    -0.000 C 
BRANCH  30  31
ATOM     31  C   UNL     1     119.379 176.869 130.478  1.00  0.00    -0.003 C 
ATOM     32  C   UNL     1     120.783 176.273 130.574  1.00  0.00     0.004 C 
ENDBRANCH  30  31
ENDBRANCH  29  30
ENDBRANCH  28  29
ENDBRANCH  27  28
ENDBRANCH  26  27
ENDBRANCH  25  26
ENDBRANCH  24  25
ENDBRANCH  23  24
ENDBRANCH  22  23
ENDBRANCH  21  22
ENDBRANCH  20  21
ENDBRANCH  19  20
ENDBRANCH  18  19
ENDBRANCH   1  18
TORSDOF 28
ENDMDL
