MODEL 1
REMARK VINA RESULT:    -4.171      0.000      0.000
REMARK INTER + INTRA:         -10.456
REMARK INTER:                  -7.828
REMARK INTRA:                  -2.628
REMARK UNBOUND:                -2.628
REMARK SMILES CCCCCCCCC=CCCCCCCCC(=O)[O-]
REMARK SMILES IDX 10 1 9 2 11 3 12 4 13 5 14 6 15 7 16 8 17 9 18 10 19 11
REMARK SMILES IDX 20 12 8 13 7 14 6 15 5 16 4 17 3 18 2 19 1 20
REMARK H PARENT
REMARK Flexibility Score: inf
ROOT
ATOM      1  C   UNL     1      36.411  23.406  33.917  1.00  0.00    -0.031 C 
ATOM      2  C   UNL     1      36.012  24.413  34.708  1.00  0.00    -0.031 C 
ENDROOT
BRANCH   1   3
ATOM      3  C   UNL     1      35.843  22.020  34.059  1.00  0.00     0.027 C 
BRANCH   3   4
ATOM      4  C   UNL     1      34.625  22.014  34.991  1.00  0.00     0.004 C 
BRANCH   4   5
ATOM      5  C   UNL     1      33.673  20.836  34.724  1.00  0.00     0.000 C 
BRANCH   5   6
ATOM      6  C   UNL     1      33.747  20.299  33.279  1.00  0.00     0.000 C 
BRANCH   6   7
ATOM      7  C   UNL     1      32.365  19.877  32.746  1.00  0.00     0.000 C 
BRANCH   7   8
ATOM      8  C   UNL     1      31.316  19.726  33.864  1.00  0.00     0.006 C 
BRANCH   8   9
ATOM      9  C   UNL     1      31.047  18.274  34.286  1.00  0.00     0.053 C 
BRANCH   9  10
ATOM     10  C   UNL     1      30.751  18.161  35.751  1.00  0.00     0.041 C 
ATOM     11  O   UNL     1      31.366  18.884  36.579  1.00  0.00    -0.550 OA
ATOM     12  O   UNL     1      29.823  17.232  36.204  1.00  0.00    -0.550 OA
ENDBRANCH   9  10
ENDBRANCH   8   9
ENDBRANCH   7   8
ENDBRANCH   6   7
ENDBRANCH   5   6
ENDBRANCH   4   5
ENDBRANCH   3   4
ENDBRANCH   1   3
BRANCH   2  13
ATOM     13  C   UNL     1      36.579  25.799  34.567  1.00  0.00     0.027 C 
BRANCH  13  14
ATOM     14  C   UNL     1      36.127  26.450  33.252  1.00  0.00     0.004 C 
BRANCH  14  15
ATOM     15  C   UNL     1      34.816  27.238  33.403  1.00  0.00     0.000 C 
BRANCH  15  16
ATOM     16  C   UNL     1      33.616  26.514  32.775  1.00  0.00     0.000 C 
BRANCH  16  17
ATOM     17  C   UNL     1      34.078  25.464  31.758  1.00  0.00    -0.000 C 
BRANCH  17  18
ATOM     18  C   UNL     1      33.357  24.127  31.981  1.00  0.00    -0.000 C 
BRANCH  18  19
ATOM     19  C   UNL     1      32.391  24.169  33.175  1.00  0.00    -0.003 C 
ATOM     20  C   UNL     1      31.147  23.307  32.960  1.00  0.00     0.004 C 
ENDBRANCH  18  19
ENDBRANCH  17  18
ENDBRANCH  16  17
ENDBRANCH  15  16
ENDBRANCH  14  15
ENDBRANCH  13  14
ENDBRANCH   2  13
TORSDOF 15
ENDMDL
MODEL 2
REMARK VINA RESULT:    -4.034      3.604      8.347
REMARK INTER + INTRA:         -10.200
REMARK INTER:                  -7.926
REMARK INTRA:                  -2.274
REMARK UNBOUND:                -2.628
REMARK SMILES CCCCCCCCC=CCCCCCCCC(=O)[O-]
REMARK SMILES IDX 10 1 9 2 11 3 12 4 13 5 14 6 15 7 16 8 17 9 18 10 19 11
REMARK SMILES IDX 20 12 8 13 7 14 6 15 5 16 4 17 3 18 2 19 1 20
REMARK H PARENT
REMARK Flexibility Score: inf
ROOT
ATOM      1  C   UNL     1      33.571  17.729  36.665  1.00  0.00    -0.031 C 
ATOM      2  C   UNL     1      32.806  17.499  37.742  1.00  0.00    -0.031 C 
ENDROOT
BRANCH   1   3
ATOM      3  C   UNL     1      33.092  18.588  35.526  1.00  0.00     0.027 C 
BRANCH   3   4
ATOM      4  C   UNL     1      31.690  19.146  35.806  1.00  0.00     0.004 C 
BRANCH   4   5
ATOM      5  C   UNL     1      31.194  20.097  34.705  1.00  0.00     0.000 C 
BRANCH   5   6
ATOM      6  C   UNL     1      31.189  19.463  33.297  1.00  0.00     0.000 C 
BRANCH   6   7
ATOM      7  C   UNL     1      31.641  20.458  32.212  1.00  0.00     0.000 C 
BRANCH   7   8
ATOM      8  C   UNL     1      32.395  21.670  32.791  1.00  0.00     0.006 C 
BRANCH   8   9
ATOM      9  C   UNL     1      32.001  23.017  32.166  1.00  0.00     0.053 C 
BRANCH   9  10
ATOM     10  C   UNL     1      31.889  24.103  33.194  1.00  0.00     0.041 C 
ATOM     11  O   UNL     1      31.174  25.115  32.971  1.00  0.00    -0.550 OA
ATOM     12  O   UNL     1      32.604  24.012  34.382  1.00  0.00    -0.550 OA
ENDBRANCH   9  10
ENDBRANCH   8   9
ENDBRANCH   7   8
ENDBRANCH   6   7
ENDBRANCH   5   6
ENDBRANCH   4   5
ENDBRANCH   3   4
ENDBRANCH   1   3
BRANCH   2  13
ATOM     13  C   UNL     1      33.284  16.641  38.880  1.00  0.00     0.027 C 
BRANCH  13  14
ATOM     14  C   UNL     1      32.287  15.512  39.180  1.00  0.00     0.004 C 
BRANCH  14  15
ATOM     15  C   UNL     1      30.980  15.652  38.382  1.00  0.00     0.000 C 
BRANCH  15  16
ATOM     16  C   UNL     1      30.512  14.321  37.776  1.00  0.00     0.000 C 
BRANCH  16  17
ATOM     17  C   UNL     1      29.704  14.555  36.494  1.00  0.00    -0.000 C 
BRANCH  17  18
ATOM     18  C   UNL     1      30.014  15.932  35.891  1.00  0.00    -0.000 C 
BRANCH  18  19
ATOM     19  C   UNL     1      30.647  15.836  34.493  1.00  0.00    -0.003 C 
ATOM     20  C   UNL     1      32.009  15.144  34.507  1.00  0.00     0.004 C 
ENDBRANCH  18  19
ENDBRANCH  17  18
ENDBRANCH  16  17
ENDBRANCH  15  16
ENDBRANCH  14  15
ENDBRANCH  13  14
ENDBRANCH   2  13
TORSDOF 15
ENDMDL
MODEL 3
REMARK VINA RESULT:    -4.016      1.615      3.208
REMARK INTER + INTRA:         -10.165
REMARK INTER:                  -7.283
REMARK INTRA:                  -2.882
REMARK UNBOUND:                -2.628
REMARK SMILES CCCCCCCCC=CCCCCCCCC(=O)[O-]
REMARK SMILES IDX 10 1 9 2 11 3 12 4 13 5 14 6 15 7 16 8 17 9 18 10 19 11
REMARK SMILES IDX 20 12 8 13 7 14 6 15 5 16 4 17 3 18 2 19 1 20
REMARK H PARENT
REMARK Flexibility Score: inf
ROOT
ATOM      1  C   UNL     1      34.075  22.851  34.240  1.00  0.00    -0.031 C 
ATOM      2  C   UNL     1      34.129  22.753  32.903  1.00  0.00    -0.031 C 
ENDROOT
BRANCH   1   3
ATOM      3  C   UNL     1      34.941  22.001  35.128  1.00  0.00     0.027 C 
BRANCH   3   4
ATOM      4  C   UNL     1      35.443  20.756  34.385  1.00  0.00     0.004 C 
BRANCH   4   5
ATOM      5  C   UNL     1      35.041  19.443  35.078  1.00  0.00     0.000 C 
BRANCH   5   6
ATOM      6  C   UNL     1      34.450  18.392  34.114  1.00  0.00     0.000 C 
BRANCH   6   7
ATOM      7  C   UNL     1      33.778  19.042  32.890  1.00  0.00     0.000 C 
BRANCH   7   8
ATOM      8  C   UNL     1      32.252  18.835  32.869  1.00  0.00     0.006 C 
BRANCH   8   9
ATOM      9  C   UNL     1      31.441  20.128  32.692  1.00  0.00     0.053 C 
BRANCH   9  10
ATOM     10  C   UNL     1      31.179  20.810  34.001  1.00  0.00     0.041 C 
ATOM     11  O   UNL     1      31.477  20.239  35.083  1.00  0.00    -0.550 OA
ATOM     12  O   UNL     1      30.571  22.059  34.026  1.00  0.00    -0.550 OA
ENDBRANCH   9  10
ENDBRANCH   8   9
ENDBRANCH   7   8
ENDBRANCH   6   7
ENDBRANCH   5   6
ENDBRANCH   4   5
ENDBRANCH   3   4
ENDBRANCH   1   3
BRANCH   2  13
ATOM     13  C   UNL     1      33.264  23.603  32.014  1.00  0.00     0.027 C 
BRANCH  13  14
ATOM     14  C   UNL     1      32.547  24.695  32.821  1.00  0.00     0.004 C 
BRANCH  14  15
ATOM     15  C   UNL     1      33.180  26.083  32.629  1.00  0.00     0.000 C 
BRANCH  15  16
ATOM     16  C   UNL     1      34.353  26.065  31.639  1.00  0.00     0.000 C 
BRANCH  16  17
ATOM     17  C   UNL     1      35.608  26.690  32.261  1.00  0.00    -0.000 C 
BRANCH  17  18
ATOM     18  C   UNL     1      35.452  26.841  33.781  1.00  0.00    -0.000 C 
BRANCH  18  19
ATOM     19  C   UNL     1      36.275  25.807  34.565  1.00  0.00    -0.003 C 
ATOM     20  C   UNL     1      37.120  24.912  33.658  1.00  0.00     0.004 C 
ENDBRANCH  18  19
ENDBRANCH  17  18
ENDBRANCH  16  17
ENDBRANCH  15  16
ENDBRANCH  14  15
ENDBRANCH  13  14
ENDBRANCH   2  13
TORSDOF 15
ENDMDL
MODEL 4
REMARK VINA RESULT:    -4.000      1.104      3.062
REMARK INTER + INTRA:         -10.137
REMARK INTER:                  -7.832
REMARK INTRA:                  -2.305
REMARK UNBOUND:                -2.628
REMARK SMILES CCCCCCCCC=CCCCCCCCC(=O)[O-]
REMARK SMILES IDX 10 1 9 2 11 3 12 4 13 5 14 6 15 7 16 8 17 9 18 10 19 11
REMARK SMILES IDX 20 12 8 13 7 14 6 15 5 16 4 17 3 18 2 19 1 20
REMARK H PARENT
REMARK Flexibility Score: inf
ROOT
ATOM      1  C   UNL     1      33.331  24.792  31.980  1.00  0.00    -0.031 C 
ATOM      2  C   UNL     1      33.416  25.638  33.017  1.00  0.00    -0.031 C 
ENDROOT
BRANCH   1   3
ATOM      3  C   UNL     1      32.651  23.456  32.106  1.00  0.00     0.027 C 
BRANCH   3   4
ATOM      4  C   UNL     1      31.627  23.463  33.250  1.00  0.00     0.004 C 
BRANCH   4   5
ATOM      5  C   UNL     1      30.665  22.264  33.198  1.00  0.00     0.000 C 
BRANCH   5   6
ATOM      6  C   UNL     1      31.219  21.062  32.404  1.00  0.00     0.000 C 
BRANCH   6   7
ATOM      7  C   UNL     1      31.267  19.779  33.254  1.00  0.00     0.000 C 
BRANCH   7   8
ATOM      8  C   UNL     1      31.759  20.034  34.691  1.00  0.00     0.006 C 
BRANCH   8   9
ATOM      9  C   UNL     1      32.507  18.850  35.323  1.00  0.00     0.053 C 
BRANCH   9  10
ATOM     10  C   UNL     1      31.730  18.229  36.444  1.00  0.00     0.041 C 
ATOM     11  O   UNL     1      30.575  17.773  36.237  1.00  0.00    -0.550 OA
ATOM     12  O   UNL     1      32.268  18.186  37.724  1.00  0.00    -0.550 OA
ENDBRANCH   9  10
ENDBRANCH   8   9
ENDBRANCH   7   8
ENDBRANCH   6   7
ENDBRANCH   5   6
ENDBRANCH   4   5
ENDBRANCH   3   4
ENDBRANCH   1   3
BRANCH   2  13
ATOM     13  C   UNL     1      34.097  26.973  32.892  1.00  0.00     0.027 C 
BRANCH  13  14
ATOM     14  C   UNL     1      35.624  26.817  32.883  1.00  0.00     0.004 C 
BRANCH  14  15
ATOM     15  C   UNL     1      36.210  26.664  34.296  1.00  0.00     0.000 C 
BRANCH  15  16
ATOM     16  C   UNL     1      37.186  25.484  34.406  1.00  0.00     0.000 C 
BRANCH  16  17
ATOM     17  C   UNL     1      36.447  24.191  34.773  1.00  0.00    -0.000 C 
BRANCH  17  18
ATOM     18  C   UNL     1      36.436  23.209  33.592  1.00  0.00    -0.000 C 
BRANCH  18  19
ATOM     19  C   UNL     1      35.411  22.078  33.773  1.00  0.00    -0.003 C 
ATOM     20  C   UNL     1      34.629  22.193  35.081  1.00  0.00     0.004 C 
ENDBRANCH  18  19
ENDBRANCH  17  18
ENDBRANCH  16  17
ENDBRANCH  15  16
ENDBRANCH  14  15
ENDBRANCH  13  14
ENDBRANCH   2  13
TORSDOF 15
ENDMDL
MODEL 5
REMARK VINA RESULT:    -3.986      2.464      5.541
REMARK INTER + INTRA:         -10.109
REMARK INTER:                  -7.555
REMARK INTRA:                  -2.554
REMARK UNBOUND:                -2.628
REMARK SMILES CCCCCCCCC=CCCCCCCCC(=O)[O-]
REMARK SMILES IDX 10 1 9 2 11 3 12 4 13 5 14 6 15 7 16 8 17 9 18 10 19 11
REMARK SMILES IDX 20 12 8 13 7 14 6 15 5 16 4 17 3 18 2 19 1 20
REMARK H PARENT
REMARK Flexibility Score: inf
ROOT
ATOM      1  C   UNL     1      35.902  25.111  34.467  1.00  0.00    -0.031 C 
ATOM      2  C   UNL     1      36.790  24.193  34.056  1.00  0.00    -0.031 C 
ENDROOT
BRANCH   1   3
ATOM      3  C   UNL     1      36.162  26.584  34.311  1.00  0.00     0.027 C 
BRANCH   3   4
ATOM      4  C   UNL     1      35.377  27.162  33.126  1.00  0.00     0.004 C 
BRANCH   4   5
ATOM      5  C   UNL     1      36.199  27.202  31.827  1.00  0.00     0.000 C 
BRANCH   5   6
ATOM      6  C   UNL     1      35.960  25.985  30.908  1.00  0.00     0.000 C 
BRANCH   6   7
ATOM      7  C   UNL     1      34.486  25.538  30.910  1.00  0.00     0.000 C 
BRANCH   7   8
ATOM      8  C   UNL     1      34.300  24.098  31.421  1.00  0.00     0.006 C 
BRANCH   8   9
ATOM      9  C   UNL     1      32.861  23.755  31.836  1.00  0.00     0.053 C 
BRANCH   9  10
ATOM     10  C   UNL     1      32.417  24.546  33.029  1.00  0.00     0.041 C 
ATOM     11  O   UNL     1      31.937  25.700  32.880  1.00  0.00    -0.550 OA
ATOM     12  O   UNL     1      32.567  24.022  34.307  1.00  0.00    -0.550 OA
ENDBRANCH   9  10
ENDBRANCH   8   9
ENDBRANCH   7   8
ENDBRANCH   6   7
ENDBRANCH   5   6
ENDBRANCH   4   5
ENDBRANCH   3   4
ENDBRANCH   1   3
BRANCH   2  13
ATOM     13  C   UNL     1      36.530  22.720  34.212  1.00  0.00     0.027 C 
BRANCH  13  14
ATOM     14  C   UNL     1      35.557  22.449  35.368  1.00  0.00     0.004 C 
BRANCH  14  15
ATOM     15  C   UNL     1      34.655  21.232  35.107  1.00  0.00     0.000 C 
BRANCH  15  16
ATOM     16  C   UNL     1      34.504  20.917  33.612  1.00  0.00     0.000 C 
BRANCH  16  17
ATOM     17  C   UNL     1      33.348  19.938  33.370  1.00  0.00    -0.000 C 
BRANCH  17  18
ATOM     18  C   UNL     1      32.151  20.266  34.274  1.00  0.00    -0.000 C 
BRANCH  18  19
ATOM     19  C   UNL     1      31.013  20.968  33.516  1.00  0.00    -0.003 C 
ATOM     20  C   UNL     1      30.971  20.596  32.035  1.00  0.00     0.004 C 
ENDBRANCH  18  19
ENDBRANCH  17  18
ENDBRANCH  16  17
ENDBRANCH  15  16
ENDBRANCH  14  15
ENDBRANCH  13  14
ENDBRANCH   2  13
TORSDOF 15
ENDMDL
MODEL 6
REMARK VINA RESULT:    -3.918      1.852      3.061
REMARK INTER + INTRA:          -9.983
REMARK INTER:                  -7.316
REMARK INTRA:                  -2.666
REMARK UNBOUND:                -2.628
REMARK SMILES CCCCCCCCC=CCCCCCCCC(=O)[O-]
REMARK SMILES IDX 10 1 9 2 11 3 12 4 13 5 14 6 15 7 16 8 17 9 18 10 19 11
REMARK SMILES IDX 20 12 8 13 7 14 6 15 5 16 4 17 3 18 2 19 1 20
REMARK H PARENT
REMARK Flexibility Score: inf
ROOT
ATOM      1  C   UNL     1      36.400  24.394  34.753  1.00  0.00    -0.031 C 
ATOM      2  C   UNL     1      37.554  24.986  34.411  1.00  0.00    -0.031 C 
ENDROOT
BRANCH   1   3
ATOM      3  C   UNL     1      36.340  22.933  35.108  1.00  0.00     0.027 C 
BRANCH   3   4
ATOM      4  C   UNL     1      34.894  22.421  35.098  1.00  0.00     0.004 C 
BRANCH   4   5
ATOM      5  C   UNL     1      34.143  22.775  33.803  1.00  0.00     0.000 C 
BRANCH   5   6
ATOM      6  C   UNL     1      33.093  23.891  33.984  1.00  0.00     0.000 C 
BRANCH   6   7
ATOM      7  C   UNL     1      32.154  24.006  32.769  1.00  0.00     0.000 C 
BRANCH   7   8
ATOM      8  C   UNL     1      31.533  22.656  32.366  1.00  0.00     0.006 C 
BRANCH   8   9
ATOM      9  C   UNL     1      30.584  22.058  33.416  1.00  0.00     0.053 C 
BRANCH   9  10
ATOM     10  C   UNL     1      30.987  20.670  33.812  1.00  0.00     0.041 C 
ATOM     11  O   UNL     1      30.654  19.686  33.100  1.00  0.00    -0.550 OA
ATOM     12  O   UNL     1      31.699  20.461  34.987  1.00  0.00    -0.550 OA
ENDBRANCH   9  10
ENDBRANCH   8   9
ENDBRANCH   7   8
ENDBRANCH   6   7
ENDBRANCH   5   6
ENDBRANCH   4   5
ENDBRANCH   3   4
ENDBRANCH   1   3
BRANCH   2  13
ATOM     13  C   UNL     1      37.616  26.446  34.054  1.00  0.00     0.027 C 
BRANCH  13  14
ATOM     14  C   UNL     1      36.299  27.156  34.401  1.00  0.00     0.004 C 
BRANCH  14  15
ATOM     15  C   UNL     1      35.501  27.563  33.151  1.00  0.00     0.000 C 
BRANCH  15  16
ATOM     16  C   UNL     1      35.976  26.837  31.884  1.00  0.00     0.000 C 
BRANCH  16  17
ATOM     17  C   UNL     1      34.822  26.071  31.225  1.00  0.00    -0.000 C 
BRANCH  17  18
ATOM     18  C   UNL     1      35.236  24.630  30.895  1.00  0.00    -0.000 C 
BRANCH  18  19
ATOM     19  C   UNL     1      36.758  24.426  30.945  1.00  0.00    -0.003 C 
ATOM     20  C   UNL     1      37.152  23.005  31.347  1.00  0.00     0.004 C 
ENDBRANCH  18  19
ENDBRANCH  17  18
ENDBRANCH  16  17
ENDBRANCH  15  16
ENDBRANCH  14  15
ENDBRANCH  13  14
ENDBRANCH   2  13
TORSDOF 15
ENDMDL
MODEL 7
REMARK VINA RESULT:    -3.891      1.297      2.898
REMARK INTER + INTRA:          -9.931
REMARK INTER:                  -7.662
REMARK INTRA:                  -2.269
REMARK UNBOUND:                -2.628
REMARK SMILES CCCCCCCCC=CCCCCCCCC(=O)[O-]
REMARK SMILES IDX 10 1 9 2 11 3 12 4 13 5 14 6 15 7 16 8 17 9 18 10 19 11
REMARK SMILES IDX 20 12 8 13 7 14 6 15 5 16 4 17 3 18 2 19 1 20
REMARK H PARENT
REMARK Flexibility Score: inf
ROOT
ATOM      1  C   UNL     1      34.112  22.614  32.862  1.00  0.00    -0.031 C 
ATOM      2  C   UNL     1      34.138  22.696  34.201  1.00  0.00    -0.031 C 
ENDROOT
BRANCH   1   3
ATOM      3  C   UNL     1      32.878  22.177  32.123  1.00  0.00     0.027 C 
BRANCH   3   4
ATOM      4  C   UNL     1      31.631  22.900  32.651  1.00  0.00     0.004 C 
BRANCH   4   5
ATOM      5  C   UNL     1      30.624  21.946  33.315  1.00  0.00     0.000 C 
BRANCH   5   6
ATOM      6  C   UNL     1      31.097  20.477  33.354  1.00  0.00     0.000 C 
BRANCH   6   7
ATOM      7  C   UNL     1      31.460  20.024  34.780  1.00  0.00     0.000 C 
BRANCH   7   8
ATOM      8  C   UNL     1      31.824  18.529  34.856  1.00  0.00     0.006 C 
BRANCH   8   9
ATOM      9  C   UNL     1      30.713  17.637  35.432  1.00  0.00     0.053 C 
BRANCH   9  10
ATOM     10  C   UNL     1      31.021  17.188  36.828  1.00  0.00     0.041 C 
ATOM     11  O   UNL     1      32.042  17.623  37.422  1.00  0.00    -0.550 OA
ATOM     12  O   UNL     1      30.199  16.263  37.459  1.00  0.00    -0.550 OA
ENDBRANCH   9  10
ENDBRANCH   8   9
ENDBRANCH   7   8
ENDBRANCH   6   7
ENDBRANCH   5   6
ENDBRANCH   4   5
ENDBRANCH   3   4
ENDBRANCH   1   3
BRANCH   2  13
ATOM     13  C   UNL     1      35.372  23.132  34.941  1.00  0.00     0.027 C 
BRANCH  13  14
ATOM     14  C   UNL     1      36.558  23.312  33.981  1.00  0.00     0.004 C 
BRANCH  14  15
ATOM     15  C   UNL     1      37.191  24.709  34.082  1.00  0.00     0.000 C 
BRANCH  15  16
ATOM     16  C   UNL     1      36.210  25.767  34.608  1.00  0.00     0.000 C 
BRANCH  16  17
ATOM     17  C   UNL     1      35.713  26.669  33.472  1.00  0.00    -0.000 C 
BRANCH  17  18
ATOM     18  C   UNL     1      34.204  26.489  33.247  1.00  0.00    -0.000 C 
BRANCH  18  19
ATOM     19  C   UNL     1      33.878  25.921  31.857  1.00  0.00    -0.003 C 
ATOM     20  C   UNL     1      35.124  25.702  31.000  1.00  0.00     0.004 C 
ENDBRANCH  18  19
ENDBRANCH  17  18
ENDBRANCH  16  17
ENDBRANCH  15  16
ENDBRANCH  14  15
ENDBRANCH  13  14
ENDBRANCH   2  13
TORSDOF 15
ENDMDL
MODEL 8
REMARK VINA RESULT:    -3.877      1.925      5.362
REMARK INTER + INTRA:          -9.905
REMARK INTER:                  -7.605
REMARK INTRA:                  -2.300
REMARK UNBOUND:                -2.628
REMARK SMILES CCCCCCCCC=CCCCCCCCC(=O)[O-]
REMARK SMILES IDX 10 1 9 2 11 3 12 4 13 5 14 6 15 7 16 8 17 9 18 10 19 11
REMARK SMILES IDX 20 12 8 13 7 14 6 15 5 16 4 17 3 18 2 19 1 20
REMARK H PARENT
REMARK Flexibility Score: inf
ROOT
ATOM      1  C   UNL     1      36.492  25.283  34.275  1.00  0.00    -0.031 C 
ATOM      2  C   UNL     1      35.831  24.264  34.847  1.00  0.00    -0.031 C 
ENDROOT
BRANCH   1   3
ATOM      3  C   UNL     1      35.872  26.646  34.141  1.00  0.00     0.027 C 
BRANCH   3   4
ATOM      4  C   UNL     1      34.590  26.592  33.299  1.00  0.00     0.004 C 
BRANCH   4   5
ATOM      5  C   UNL     1      34.860  26.262  31.821  1.00  0.00     0.000 C 
BRANCH   5   6
ATOM      6  C   UNL     1      33.967  25.130  31.268  1.00  0.00     0.000 C 
BRANCH   6   7
ATOM      7  C   UNL     1      34.622  23.746  31.426  1.00  0.00     0.000 C 
BRANCH   7   8
ATOM      8  C   UNL     1      33.621  22.658  31.859  1.00  0.00     0.006 C 
BRANCH   8   9
ATOM      9  C   UNL     1      32.179  23.160  32.032  1.00  0.00     0.053 C 
BRANCH   9  10
ATOM     10  C   UNL     1      31.745  23.134  33.467  1.00  0.00     0.041 C 
ATOM     11  O   UNL     1      30.886  22.299  33.853  1.00  0.00    -0.550 OA
ATOM     12  O   UNL     1      32.262  24.057  34.367  1.00  0.00    -0.550 OA
ENDBRANCH   9  10
ENDBRANCH   8   9
ENDBRANCH   7   8
ENDBRANCH   6   7
ENDBRANCH   5   6
ENDBRANCH   4   5
ENDBRANCH   3   4
ENDBRANCH   1   3
BRANCH   2  13
ATOM     13  C   UNL     1      36.450  22.900  34.981  1.00  0.00     0.027 C 
BRANCH  13  14
ATOM     14  C   UNL     1      35.374  21.805  35.019  1.00  0.00     0.004 C 
BRANCH  14  15
ATOM     15  C   UNL     1      35.722  20.604  34.124  1.00  0.00     0.000 C 
BRANCH  15  16
ATOM     16  C   UNL     1      34.561  19.607  33.996  1.00  0.00     0.000 C 
BRANCH  16  17
ATOM     17  C   UNL     1      33.363  20.046  34.846  1.00  0.00    -0.000 C 
BRANCH  17  18
ATOM     18  C   UNL     1      32.133  19.173  34.557  1.00  0.00    -0.000 C 
BRANCH  18  19
ATOM     19  C   UNL     1      31.382  18.767  35.835  1.00  0.00    -0.003 C 
ATOM     20  C   UNL     1      32.254  17.972  36.807  1.00  0.00     0.004 C 
ENDBRANCH  18  19
ENDBRANCH  17  18
ENDBRANCH  16  17
ENDBRANCH  15  16
ENDBRANCH  14  15
ENDBRANCH  13  14
ENDBRANCH   2  13
TORSDOF 15
ENDMDL
MODEL 9
REMARK VINA RESULT:    -3.852      1.851      2.455
REMARK INTER + INTRA:          -9.858
REMARK INTER:                  -6.903
REMARK INTRA:                  -2.956
REMARK UNBOUND:                -2.628
REMARK SMILES CCCCCCCCC=CCCCCCCCC(=O)[O-]
REMARK SMILES IDX 10 1 9 2 11 3 12 4 13 5 14 6 15 7 16 8 17 9 18 10 19 11
REMARK SMILES IDX 20 12 8 13 7 14 6 15 5 16 4 17 3 18 2 19 1 20
REMARK H PARENT
REMARK Flexibility Score: inf
ROOT
ATOM      1  C   UNL     1      35.995  24.782  34.751  1.00  0.00    -0.031 C 
ATOM      2  C   UNL     1      36.906  25.733  34.497  1.00  0.00    -0.031 C 
ENDROOT
BRANCH   1   3
ATOM      3  C   UNL     1      36.386  23.338  34.907  1.00  0.00     0.027 C 
BRANCH   3   4
ATOM      4  C   UNL     1      35.197  22.490  35.377  1.00  0.00     0.004 C 
BRANCH   4   5
ATOM      5  C   UNL     1      35.255  21.042  34.863  1.00  0.00     0.000 C 
BRANCH   5   6
ATOM      6  C   UNL     1      35.868  20.911  33.453  1.00  0.00     0.000 C 
BRANCH   6   7
ATOM      7  C   UNL     1      34.893  20.259  32.456  1.00  0.00     0.000 C 
BRANCH   7   8
ATOM      8  C   UNL     1      33.515  19.962  33.077  1.00  0.00     0.006 C 
BRANCH   8   9
ATOM      9  C   UNL     1      32.392  20.896  32.598  1.00  0.00     0.053 C 
BRANCH   9  10
ATOM     10  C   UNL     1      31.425  21.220  33.697  1.00  0.00     0.041 C 
ATOM     11  O   UNL     1      31.524  20.651  34.816  1.00  0.00    -0.550 OA
ATOM     12  O   UNL     1      30.395  22.124  33.472  1.00  0.00    -0.550 OA
ENDBRANCH   9  10
ENDBRANCH   8   9
ENDBRANCH   7   8
ENDBRANCH   6   7
ENDBRANCH   5   6
ENDBRANCH   4   5
ENDBRANCH   3   4
ENDBRANCH   1   3
BRANCH   2  13
ATOM     13  C   UNL     1      36.515  27.177  34.340  1.00  0.00     0.027 C 
BRANCH  13  14
ATOM     14  C   UNL     1      35.541  27.363  33.168  1.00  0.00     0.004 C 
BRANCH  14  15
ATOM     15  C   UNL     1      36.205  27.114  31.804  1.00  0.00     0.000 C 
BRANCH  15  16
ATOM     16  C   UNL     1      35.375  26.190  30.902  1.00  0.00     0.000 C 
BRANCH  16  17
ATOM     17  C   UNL     1      35.842  24.735  31.027  1.00  0.00    -0.000 C 
BRANCH  17  18
ATOM     18  C   UNL     1      34.712  23.837  31.550  1.00  0.00    -0.000 C 
BRANCH  18  19
ATOM     19  C   UNL     1      33.397  24.604  31.760  1.00  0.00    -0.003 C 
ATOM     20  C   UNL     1      32.913  24.563  33.210  1.00  0.00     0.004 C 
ENDBRANCH  18  19
ENDBRANCH  17  18
ENDBRANCH  16  17
ENDBRANCH  15  16
ENDBRANCH  14  15
ENDBRANCH  13  14
ENDBRANCH   2  13
TORSDOF 15
ENDMDL
