MODEL 1
REMARK VINA RESULT:    29.902      0.000      0.000
REMARK INTER + INTRA:          36.036
REMARK INTER:                  36.021
REMARK INTRA:                   0.015
REMARK UNBOUND:                 0.015
REMARK SMILES O=c1c(O)c(-c2ccc(O)c(O)c2)oc2cc(O)cc(O)c12
REMARK SMILES IDX 5 1 3 2 2 3 1 4 22 5 20 6 19 7 17 8 16 9 15 10 14 11 6 12
REMARK SMILES IDX 7 13 8 14 9 15 13 16 11 17 10 18 12 20 4 22 21 24 18 26
REMARK H PARENT 10 19 12 21 4 23 21 25 18 27
REMARK Flexibility Score: inf
ROOT
ATOM      1  C   UNL     1       2.458  -1.284   0.879  1.00  0.00     0.180 A 
ATOM      2  C   UNL     1       1.614  -0.722   1.853  1.00  0.00     0.208 A 
ATOM      3  C   UNL     1       0.223  -0.792   1.670  1.00  0.00     0.238 A 
ATOM      4  O   UNL     1      -0.525  -0.240   2.517  1.00  0.00    -0.285 OA
ATOM      5  C   UNL     1      -0.305  -1.437   0.526  1.00  0.00     0.111 A 
ATOM      6  C   UNL     1      -1.699  -1.600   0.259  1.00  0.00     0.134 A 
ATOM      7  C   UNL     1      -2.109  -2.138  -0.967  1.00  0.00     0.093 A 
ATOM      8  C   UNL     1      -1.176  -2.577  -1.908  1.00  0.00     0.123 A 
ATOM      9  C   UNL     1       0.186  -2.476  -1.633  1.00  0.00     0.094 A 
ATOM     10  C   UNL     1       0.627  -1.910  -0.434  1.00  0.00     0.146 A 
ATOM     11  O   UNL     1       1.933  -1.823  -0.215  1.00  0.00    -0.452 OA
ENDROOT
BRANCH   1  12
ATOM     12  C   UNL     1       3.932  -1.272   1.013  1.00  0.00     0.025 A 
ATOM     13  C   UNL     1       4.756  -0.769  -0.009  1.00  0.00     0.016 A 
ATOM     14  C   UNL     1       6.144  -0.745   0.149  1.00  0.00     0.051 A 
ATOM     15  C   UNL     1       6.729  -1.209   1.334  1.00  0.00     0.157 A 
ATOM     16  C   UNL     1       4.522  -1.717   2.207  1.00  0.00     0.062 A 
ATOM     17  C   UNL     1       5.912  -1.695   2.370  1.00  0.00     0.158 A 
BRANCH  15  18
ATOM     18  O   UNL     1       8.114  -1.185   1.489  1.00  0.00    -0.504 OA
ATOM     19  H   UNL     1       8.557  -0.639   2.219  1.00  0.00     0.293 HD
ENDBRANCH  15  18
BRANCH  17  20
ATOM     20  O   UNL     1       6.462  -2.157   3.565  1.00  0.00    -0.504 OA
ATOM     21  H   UNL     1       5.964  -2.100   4.445  1.00  0.00     0.293 HD
ENDBRANCH  17  20
ENDBRANCH   1  12
BRANCH   2  22
ATOM     22  O   UNL     1       2.158  -0.072   2.963  1.00  0.00    -0.502 OA
ATOM     23  H   UNL     1       2.422   0.906   2.945  1.00  0.00     0.293 HD
ENDBRANCH   2  22
BRANCH   6  24
ATOM     24  O   UNL     1      -2.710  -1.280   1.170  1.00  0.00    -0.507 OA
ATOM     25  H   UNL     1      -3.539  -0.748   0.946  1.00  0.00     0.293 HD
ENDBRANCH   6  24
BRANCH   8  26
ATOM     26  O   UNL     1      -1.592  -3.125  -3.120  1.00  0.00    -0.508 OA
ATOM     27  H   UNL     1      -2.574  -3.226  -3.346  1.00  0.00     0.293 HD
ENDBRANCH   8  26
TORSDOF 6
ENDMDL
