MODEL 1
REMARK VINA RESULT:    -3.901      0.000      0.000
REMARK INTER + INTRA:          -7.421
REMARK INTER:                  -6.181
REMARK INTRA:                  -1.240
REMARK UNBOUND:                -1.240
REMARK SMILES CCCCCCCCCCCC(=O)[O-]
REMARK SMILES IDX 7 1 8 2 9 3 10 4 11 5 12 6 13 7 14 8 6 9 5 10 4 11 3 12 2 13
REMARK SMILES IDX 1 14
REMARK H PARENT
REMARK Flexibility Score: inf
ROOT
ATOM      1  C   UNL     1     -32.969  13.775  13.383  1.00  0.00     0.000 C 
ENDROOT
BRANCH   1   2
ATOM      2  C   UNL     1     -33.076  12.248  13.509  1.00  0.00     0.000 C 
BRANCH   2   3
ATOM      3  C   UNL     1     -31.814  11.524  13.016  1.00  0.00     0.000 C 
BRANCH   3   4
ATOM      4  C   UNL     1     -31.235  10.622  14.112  1.00  0.00     0.006 C 
BRANCH   4   5
ATOM      5  C   UNL     1     -29.942  11.211  14.683  1.00  0.00     0.053 C 
BRANCH   5   6
ATOM      6  C   UNL     1     -28.902  11.326  13.614  1.00  0.00     0.041 C 
ATOM      7  O   UNL     1     -28.405  12.448  13.329  1.00  0.00    -0.550 OA
ATOM      8  O   UNL     1     -28.515  10.200  12.898  1.00  0.00    -0.550 OA
ENDBRANCH   5   6
ENDBRANCH   4   5
ENDBRANCH   3   4
ENDBRANCH   2   3
ENDBRANCH   1   2
BRANCH   1   9
ATOM      9  C   UNL     1     -31.529  14.247  13.113  1.00  0.00     0.000 C 
BRANCH   9  10
ATOM     10  C   UNL     1     -30.963  15.104  14.255  1.00  0.00    -0.000 C 
BRANCH  10  11
ATOM     11  C   UNL     1     -31.301  14.537  15.643  1.00  0.00    -0.000 C 
BRANCH  11  12
ATOM     12  C   UNL     1     -30.237  14.940  16.675  1.00  0.00    -0.000 C 
BRANCH  12  13
ATOM     13  C   UNL     1     -28.805  14.736  16.158  1.00  0.00    -0.003 C 
ATOM     14  C   UNL     1     -27.763  15.481  16.991  1.00  0.00     0.004 C 
ENDBRANCH  12  13
ENDBRANCH  11  12
ENDBRANCH  10  11
ENDBRANCH   9  10
ENDBRANCH   1   9
TORSDOF 10
ENDMDL
MODEL 2
REMARK VINA RESULT:    -3.827      1.981      3.031
REMARK INTER + INTRA:          -7.304
REMARK INTER:                  -6.849
REMARK INTRA:                  -0.454
REMARK UNBOUND:                -1.240
REMARK SMILES CCCCCCCCCCCC(=O)[O-]
REMARK SMILES IDX 7 1 8 2 9 3 10 4 11 5 12 6 13 7 14 8 6 9 5 10 4 11 3 12 2 13
REMARK SMILES IDX 1 14
REMARK H PARENT
REMARK Flexibility Score: inf
ROOT
ATOM      1  C   UNL     1     -30.582  14.732  15.212  1.00  0.00     0.000 C 
ENDROOT
BRANCH   1   2
ATOM      2  C   UNL     1     -31.247  14.936  13.842  1.00  0.00     0.000 C 
BRANCH   2   3
ATOM      3  C   UNL     1     -31.790  13.628  13.247  1.00  0.00     0.000 C 
BRANCH   3   4
ATOM      4  C   UNL     1     -30.676  12.836  12.553  1.00  0.00     0.006 C 
BRANCH   4   5
ATOM      5  C   UNL     1     -30.608  11.402  13.084  1.00  0.00     0.053 C 
BRANCH   5   6
ATOM      6  C   UNL     1     -29.589  10.611  12.327  1.00  0.00     0.041 C 
ATOM      7  O   UNL     1     -29.865  10.143  11.190  1.00  0.00    -0.550 OA
ATOM      8  O   UNL     1     -28.349  10.347  12.896  1.00  0.00    -0.550 OA
ENDBRANCH   5   6
ENDBRANCH   4   5
ENDBRANCH   3   4
ENDBRANCH   2   3
ENDBRANCH   1   2
BRANCH   1   9
ATOM      9  C   UNL     1     -29.052  14.893  15.156  1.00  0.00     0.000 C 
BRANCH   9  10
ATOM     10  C   UNL     1     -28.450  15.296  16.511  1.00  0.00    -0.000 C 
BRANCH  10  11
ATOM     11  C   UNL     1     -29.500  15.865  17.478  1.00  0.00    -0.000 C 
BRANCH  11  12
ATOM     12  C   UNL     1     -28.891  16.957  18.369  1.00  0.00    -0.000 C 
BRANCH  12  13
ATOM     13  C   UNL     1     -28.946  16.600  19.862  1.00  0.00    -0.003 C 
ATOM     14  C   UNL     1     -29.142  17.824  20.757  1.00  0.00     0.004 C 
ENDBRANCH  12  13
ENDBRANCH  11  12
ENDBRANCH  10  11
ENDBRANCH   9  10
ENDBRANCH   1   9
TORSDOF 10
ENDMDL
MODEL 3
REMARK VINA RESULT:    -3.788      1.838      4.218
REMARK INTER + INTRA:          -7.242
REMARK INTER:                  -5.690
REMARK INTRA:                  -1.551
REMARK UNBOUND:                -1.240
REMARK SMILES CCCCCCCCCCCC(=O)[O-]
REMARK SMILES IDX 7 1 8 2 9 3 10 4 11 5 12 6 13 7 14 8 6 9 5 10 4 11 3 12 2 13
REMARK SMILES IDX 1 14
REMARK H PARENT
REMARK Flexibility Score: inf
ROOT
ATOM      1  C   UNL     1     -33.579  13.362  14.267  1.00  0.00     0.000 C 
ENDROOT
BRANCH   1   2
ATOM      2  C   UNL     1     -32.939  14.211  13.159  1.00  0.00     0.000 C 
BRANCH   2   3
ATOM      3  C   UNL     1     -31.412  14.308  13.294  1.00  0.00     0.000 C 
BRANCH   3   4
ATOM      4  C   UNL     1     -31.019  15.029  14.589  1.00  0.00     0.006 C 
BRANCH   4   5
ATOM      5  C   UNL     1     -30.170  14.124  15.487  1.00  0.00     0.053 C 
BRANCH   5   6
ATOM      6  C   UNL     1     -28.835  14.746  15.745  1.00  0.00     0.041 C 
ATOM      7  O   UNL     1     -28.072  15.032  14.784  1.00  0.00    -0.550 OA
ATOM      8  O   UNL     1     -28.411  14.967  17.049  1.00  0.00    -0.550 OA
ENDBRANCH   5   6
ENDBRANCH   4   5
ENDBRANCH   3   4
ENDBRANCH   2   3
ENDBRANCH   1   2
BRANCH   1   9
ATOM      9  C   UNL     1     -33.480  11.852  13.987  1.00  0.00     0.000 C 
BRANCH   9  10
ATOM     10  C   UNL     1     -32.601  11.116  15.010  1.00  0.00    -0.000 C 
BRANCH  10  11
ATOM     11  C   UNL     1     -31.241  10.698  14.428  1.00  0.00    -0.000 C 
BRANCH  11  12
ATOM     12  C   UNL     1     -31.289  10.656  12.894  1.00  0.00    -0.000 C 
BRANCH  12  13
ATOM     13  C   UNL     1     -29.913  10.890  12.254  1.00  0.00    -0.003 C 
ATOM     14  C   UNL     1     -28.919  11.549  13.209  1.00  0.00     0.004 C 
ENDBRANCH  12  13
ENDBRANCH  11  12
ENDBRANCH  10  11
ENDBRANCH   9  10
ENDBRANCH   1   9
TORSDOF 10
ENDMDL
MODEL 4
REMARK VINA RESULT:    -3.714      1.539      2.337
REMARK INTER + INTRA:          -7.125
REMARK INTER:                  -5.972
REMARK INTRA:                  -1.153
REMARK UNBOUND:                -1.240
REMARK SMILES CCCCCCCCCCCC(=O)[O-]
REMARK SMILES IDX 7 1 8 2 9 3 10 4 11 5 12 6 13 7 14 8 6 9 5 10 4 11 3 12 2 13
REMARK SMILES IDX 1 14
REMARK H PARENT
REMARK Flexibility Score: inf
ROOT
ATOM      1  C   UNL     1     -33.606  11.672  13.927  1.00  0.00     0.000 C 
ENDROOT
BRANCH   1   2
ATOM      2  C   UNL     1     -33.259  10.371  13.189  1.00  0.00     0.000 C 
BRANCH   2   3
ATOM      3  C   UNL     1     -31.846   9.863  13.516  1.00  0.00     0.000 C 
BRANCH   3   4
ATOM      4  C   UNL     1     -30.977   9.806  12.254  1.00  0.00     0.006 C 
BRANCH   4   5
ATOM      5  C   UNL     1     -30.232  11.127  12.039  1.00  0.00     0.053 C 
BRANCH   5   6
ATOM      6  C   UNL     1     -28.962  11.146  12.829  1.00  0.00     0.041 C 
ATOM      7  O   UNL     1     -28.329  10.078  13.038  1.00  0.00    -0.550 OA
ATOM      8  O   UNL     1     -28.502  12.338  13.375  1.00  0.00    -0.550 OA
ENDBRANCH   5   6
ENDBRANCH   4   5
ENDBRANCH   3   4
ENDBRANCH   2   3
ENDBRANCH   1   2
BRANCH   1   9
ATOM      9  C   UNL     1     -33.592  12.900  13.000  1.00  0.00     0.000 C 
BRANCH   9  10
ATOM     10  C   UNL     1     -33.027  14.154  13.686  1.00  0.00    -0.000 C 
BRANCH  10  11
ATOM     11  C   UNL     1     -31.579  14.454  13.269  1.00  0.00    -0.000 C 
BRANCH  11  12
ATOM     12  C   UNL     1     -30.704  14.751  14.496  1.00  0.00    -0.000 C 
BRANCH  12  13
ATOM     13  C   UNL     1     -30.917  13.741  15.633  1.00  0.00    -0.003 C 
ATOM     14  C   UNL     1     -31.373  14.400  16.934  1.00  0.00     0.004 C 
ENDBRANCH  12  13
ENDBRANCH  11  12
ENDBRANCH  10  11
ENDBRANCH   9  10
ENDBRANCH   1   9
TORSDOF 10
ENDMDL
MODEL 5
REMARK VINA RESULT:    -3.684      2.563      4.487
REMARK INTER + INTRA:          -7.077
REMARK INTER:                  -5.747
REMARK INTRA:                  -1.330
REMARK UNBOUND:                -1.240
REMARK SMILES CCCCCCCCCCCC(=O)[O-]
REMARK SMILES IDX 7 1 8 2 9 3 10 4 11 5 12 6 13 7 14 8 6 9 5 10 4 11 3 12 2 13
REMARK SMILES IDX 1 14
REMARK H PARENT
REMARK Flexibility Score: inf
ROOT
ATOM      1  C   UNL     1     -32.815  13.361  14.880  1.00  0.00     0.000 C 
ENDROOT
BRANCH   1   2
ATOM      2  C   UNL     1     -32.034  14.000  16.037  1.00  0.00     0.000 C 
BRANCH   2   3
ATOM      3  C   UNL     1     -31.094  13.008  16.737  1.00  0.00     0.000 C 
BRANCH   3   4
ATOM      4  C   UNL     1     -29.653  13.530  16.749  1.00  0.00     0.006 C 
BRANCH   4   5
ATOM      5  C   UNL     1     -29.594  14.993  16.301  1.00  0.00     0.053 C 
BRANCH   5   6
ATOM      6  C   UNL     1     -28.645  15.766  17.162  1.00  0.00     0.041 C 
ATOM      7  O   UNL     1     -27.436  15.423  17.240  1.00  0.00    -0.550 OA
ATOM      8  O   UNL     1     -29.107  16.838  17.916  1.00  0.00    -0.550 OA
ENDBRANCH   5   6
ENDBRANCH   4   5
ENDBRANCH   3   4
ENDBRANCH   2   3
ENDBRANCH   1   2
BRANCH   1   9
ATOM      9  C   UNL     1     -32.682  14.152  13.566  1.00  0.00     0.000 C 
BRANCH   9  10
ATOM     10  C   UNL     1     -31.243  14.165  13.028  1.00  0.00    -0.000 C 
BRANCH  10  11
ATOM     11  C   UNL     1     -30.730  12.760  12.676  1.00  0.00    -0.000 C 
BRANCH  11  12
ATOM     12  C   UNL     1     -29.409  12.460  13.400  1.00  0.00    -0.000 C 
BRANCH  12  13
ATOM     13  C   UNL     1     -28.994  10.986  13.284  1.00  0.00    -0.003 C 
ATOM     14  C   UNL     1     -28.968  10.270  14.634  1.00  0.00     0.004 C 
ENDBRANCH  12  13
ENDBRANCH  11  12
ENDBRANCH  10  11
ENDBRANCH   9  10
ENDBRANCH   1   9
TORSDOF 10
ENDMDL
MODEL 6
REMARK VINA RESULT:    -3.669      1.505      2.808
REMARK INTER + INTRA:          -7.054
REMARK INTER:                  -5.655
REMARK INTRA:                  -1.399
REMARK UNBOUND:                -1.240
REMARK SMILES CCCCCCCCCCCC(=O)[O-]
REMARK SMILES IDX 7 1 8 2 9 3 10 4 11 5 12 6 13 7 14 8 6 9 5 10 4 11 3 12 2 13
REMARK SMILES IDX 1 14
REMARK H PARENT
REMARK Flexibility Score: inf
ROOT
ATOM      1  C   UNL     1     -30.912  15.096  14.475  1.00  0.00     0.000 C 
ENDROOT
BRANCH   1   2
ATOM      2  C   UNL     1     -31.348  14.446  13.153  1.00  0.00     0.000 C 
BRANCH   2   3
ATOM      3  C   UNL     1     -32.312  13.268  13.362  1.00  0.00     0.000 C 
BRANCH   3   4
ATOM      4  C   UNL     1     -31.555  11.935  13.378  1.00  0.00     0.006 C 
BRANCH   4   5
ATOM      5  C   UNL     1     -30.331  11.986  12.460  1.00  0.00     0.053 C 
BRANCH   5   6
ATOM      6  C   UNL     1     -29.166  11.301  13.101  1.00  0.00     0.041 C 
ATOM      7  O   UNL     1     -28.254  10.801  12.391  1.00  0.00    -0.550 OA
ATOM      8  O   UNL     1     -29.111  11.171  14.483  1.00  0.00    -0.550 OA
ENDBRANCH   5   6
ENDBRANCH   4   5
ENDBRANCH   3   4
ENDBRANCH   2   3
ENDBRANCH   1   2
BRANCH   1   9
ATOM      9  C   UNL     1     -29.457  14.759  14.849  1.00  0.00     0.000 C 
BRANCH   9  10
ATOM     10  C   UNL     1     -29.328  14.190  16.270  1.00  0.00    -0.000 C 
BRANCH  10  11
ATOM     11  C   UNL     1     -30.626  13.532  16.764  1.00  0.00    -0.000 C 
BRANCH  11  12
ATOM     12  C   UNL     1     -31.208  14.295  17.962  1.00  0.00    -0.000 C 
BRANCH  12  13
ATOM     13  C   UNL     1     -32.732  14.141  18.077  1.00  0.00    -0.003 C 
ATOM     14  C   UNL     1     -33.330  13.308  16.944  1.00  0.00     0.004 C 
ENDBRANCH  12  13
ENDBRANCH  11  12
ENDBRANCH  10  11
ENDBRANCH   9  10
ENDBRANCH   1   9
TORSDOF 10
ENDMDL
MODEL 7
REMARK VINA RESULT:    -3.669      2.110      4.464
REMARK INTER + INTRA:          -7.054
REMARK INTER:                  -5.636
REMARK INTRA:                  -1.418
REMARK UNBOUND:                -1.240
REMARK SMILES CCCCCCCCCCCC(=O)[O-]
REMARK SMILES IDX 7 1 8 2 9 3 10 4 11 5 12 6 13 7 14 8 6 9 5 10 4 11 3 12 2 13
REMARK SMILES IDX 1 14
REMARK H PARENT
REMARK Flexibility Score: inf
ROOT
ATOM      1  C   UNL     1     -33.245  10.317  13.440  1.00  0.00     0.000 C 
ENDROOT
BRANCH   1   2
ATOM      2  C   UNL     1     -33.412  11.807  13.109  1.00  0.00     0.000 C 
BRANCH   2   3
ATOM      3  C   UNL     1     -32.905  12.723  14.232  1.00  0.00     0.000 C 
BRANCH   3   4
ATOM      4  C   UNL     1     -32.724  14.160  13.730  1.00  0.00     0.006 C 
BRANCH   4   5
ATOM      5  C   UNL     1     -31.316  14.372  13.166  1.00  0.00     0.053 C 
BRANCH   5   6
ATOM      6  C   UNL     1     -30.338  14.607  14.274  1.00  0.00     0.041 C 
ATOM      7  O   UNL     1     -29.116  14.355  14.105  1.00  0.00    -0.550 OA
ATOM      8  O   UNL     1     -30.783  15.057  15.511  1.00  0.00    -0.550 OA
ENDBRANCH   5   6
ENDBRANCH   4   5
ENDBRANCH   3   4
ENDBRANCH   2   3
ENDBRANCH   1   2
BRANCH   1   9
ATOM      9  C   UNL     1     -32.698   9.504  12.252  1.00  0.00     0.000 C 
BRANCH   9  10
ATOM     10  C   UNL     1     -31.209   9.160  12.406  1.00  0.00    -0.000 C 
BRANCH  10  11
ATOM     11  C   UNL     1     -30.293  10.159  11.683  1.00  0.00    -0.000 C 
BRANCH  11  12
ATOM     12  C   UNL     1     -29.678  11.158  12.675  1.00  0.00    -0.000 C 
BRANCH  12  13
ATOM     13  C   UNL     1     -29.127  10.475  13.935  1.00  0.00    -0.003 C 
ATOM     14  C   UNL     1     -29.717  11.047  15.224  1.00  0.00     0.004 C 
ENDBRANCH  12  13
ENDBRANCH  11  12
ENDBRANCH  10  11
ENDBRANCH   9  10
ENDBRANCH   1   9
TORSDOF 10
ENDMDL
MODEL 8
REMARK VINA RESULT:    -3.652      2.883      5.211
REMARK INTER + INTRA:          -7.027
REMARK INTER:                  -5.688
REMARK INTRA:                  -1.339
REMARK UNBOUND:                -1.240
REMARK SMILES CCCCCCCCCCCC(=O)[O-]
REMARK SMILES IDX 7 1 8 2 9 3 10 4 11 5 12 6 13 7 14 8 6 9 5 10 4 11 3 12 2 13
REMARK SMILES IDX 1 14
REMARK H PARENT
REMARK Flexibility Score: inf
ROOT
ATOM      1  C   UNL     1     -31.855  12.568  16.507  1.00  0.00     0.000 C 
ENDROOT
BRANCH   1   2
ATOM      2  C   UNL     1     -30.574  13.320  16.897  1.00  0.00     0.000 C 
BRANCH   2   3
ATOM      3  C   UNL     1     -30.663  14.827  16.618  1.00  0.00     0.000 C 
BRANCH   3   4
ATOM      4  C   UNL     1     -29.270  15.467  16.599  1.00  0.00     0.006 C 
BRANCH   4   5
ATOM      5  C   UNL     1     -29.071  16.387  17.806  1.00  0.00     0.053 C 
BRANCH   5   6
ATOM      6  C   UNL     1     -27.881  15.955  18.603  1.00  0.00     0.041 C 
ATOM      7  O   UNL     1     -27.381  14.812  18.428  1.00  0.00    -0.550 OA
ATOM      8  O   UNL     1     -27.353  16.795  19.575  1.00  0.00    -0.550 OA
ENDBRANCH   5   6
ENDBRANCH   4   5
ENDBRANCH   3   4
ENDBRANCH   2   3
ENDBRANCH   1   2
BRANCH   1   9
ATOM      9  C   UNL     1     -32.897  13.483  15.836  1.00  0.00     0.000 C 
BRANCH   9  10
ATOM     10  C   UNL     1     -33.125  13.135  14.358  1.00  0.00    -0.000 C 
BRANCH  10  11
ATOM     11  C   UNL     1     -32.778  14.299  13.416  1.00  0.00    -0.000 C 
BRANCH  11  12
ATOM     12  C   UNL     1     -31.282  14.298  13.070  1.00  0.00    -0.000 C 
BRANCH  12  13
ATOM     13  C   UNL     1     -30.760  12.899  12.708  1.00  0.00    -0.003 C 
ATOM     14  C   UNL     1     -29.508  12.512  13.494  1.00  0.00     0.004 C 
ENDBRANCH  12  13
ENDBRANCH  11  12
ENDBRANCH  10  11
ENDBRANCH   9  10
ENDBRANCH   1   9
TORSDOF 10
ENDMDL
MODEL 9
REMARK VINA RESULT:    -3.557      1.824      3.297
REMARK INTER + INTRA:          -6.876
REMARK INTER:                  -5.749
REMARK INTRA:                  -1.127
REMARK UNBOUND:                -1.240
REMARK SMILES CCCCCCCCCCCC(=O)[O-]
REMARK SMILES IDX 7 1 8 2 9 3 10 4 11 5 12 6 13 7 14 8 6 9 5 10 4 11 3 12 2 13
REMARK SMILES IDX 1 14
REMARK H PARENT
REMARK Flexibility Score: inf
ROOT
ATOM      1  C   UNL     1     -31.134  13.173  17.359  1.00  0.00     0.000 C 
ENDROOT
BRANCH   1   2
ATOM      2  C   UNL     1     -32.229  13.981  16.646  1.00  0.00     0.000 C 
BRANCH   2   3
ATOM      3  C   UNL     1     -33.051  13.129  15.668  1.00  0.00     0.000 C 
BRANCH   3   4
ATOM      4  C   UNL     1     -32.955  13.682  14.242  1.00  0.00     0.006 C 
BRANCH   4   5
ATOM      5  C   UNL     1     -32.351  12.646  13.290  1.00  0.00     0.053 C 
BRANCH   5   6
ATOM      6  C   UNL     1     -31.050  13.137  12.738  1.00  0.00     0.041 C 
ATOM      7  O   UNL     1     -30.016  12.423  12.819  1.00  0.00    -0.550 OA
ATOM      8  O   UNL     1     -30.968  14.406  12.177  1.00  0.00    -0.550 OA
ENDBRANCH   5   6
ENDBRANCH   4   5
ENDBRANCH   3   4
ENDBRANCH   2   3
ENDBRANCH   1   2
BRANCH   1   9
ATOM      9  C   UNL     1     -29.804  13.167  16.583  1.00  0.00     0.000 C 
BRANCH   9  10
ATOM     10  C   UNL     1     -29.577  14.461  15.786  1.00  0.00    -0.000 C 
BRANCH  10  11
ATOM     11  C   UNL     1     -28.367  15.262  16.292  1.00  0.00    -0.000 C 
BRANCH  11  12
ATOM     12  C   UNL     1     -28.728  16.065  17.550  1.00  0.00    -0.000 C 
BRANCH  12  13
ATOM     13  C   UNL     1     -27.664  15.946  18.651  1.00  0.00    -0.003 C 
ATOM     14  C   UNL     1     -27.674  14.582  19.341  1.00  0.00     0.004 C 
ENDBRANCH  12  13
ENDBRANCH  11  12
ENDBRANCH  10  11
ENDBRANCH   9  10
ENDBRANCH   1   9
TORSDOF 10
ENDMDL
