MODEL 1
REMARK VINA RESULT:     3.067      0.000      0.000
REMARK INTER + INTRA:           3.884
REMARK INTER:                   3.694
REMARK INTRA:                   0.190
REMARK UNBOUND:                 0.190
REMARK SMILES O=c1c(O)c(-c2ccc(O)c(O)c2)oc2cc(O)cc(O)c12
REMARK SMILES IDX 5 1 3 2 2 3 1 4 22 5 20 6 19 7 17 8 16 9 15 10 14 11 6 12
REMARK SMILES IDX 7 13 8 14 9 15 13 16 11 17 10 18 12 20 4 22 21 24 18 26
REMARK H PARENT 10 19 12 21 4 23 21 25 18 27
REMARK Flexibility Score: inf
ROOT
ATOM      1  C   UNL     1      11.844  21.840  -0.100  1.00  0.00     0.180 A 
ATOM      2  C   UNL     1      12.589  22.913  -0.620  1.00  0.00     0.208 A 
ATOM      3  C   UNL     1      12.557  23.158  -2.002  1.00  0.00     0.238 A 
ATOM      4  O   UNL     1      13.181  24.153  -2.454  1.00  0.00    -0.285 OA
ATOM      5  C   UNL     1      11.795  22.318  -2.850  1.00  0.00     0.111 A 
ATOM      6  C   UNL     1      11.722  22.450  -4.269  1.00  0.00     0.134 A 
ATOM      7  C   UNL     1      10.834  21.644  -4.992  1.00  0.00     0.093 A 
ATOM      8  C   UNL     1      10.066  20.670  -4.358  1.00  0.00     0.123 A 
ATOM      9  C   UNL     1      10.172  20.492  -2.978  1.00  0.00     0.094 A 
ATOM     10  C   UNL     1      11.023  21.305  -2.224  1.00  0.00     0.146 A 
ATOM     11  O   UNL     1      11.088  21.110  -0.912  1.00  0.00    -0.452 OA
ENDROOT
BRANCH   1  12
ATOM     12  C   UNL     1      11.847  21.503   1.342  1.00  0.00     0.025 A 
ATOM     13  C   UNL     1      11.830  20.170   1.781  1.00  0.00     0.016 A 
ATOM     14  C   UNL     1      11.809  19.878   3.146  1.00  0.00     0.051 A 
ATOM     15  C   UNL     1      11.791  20.904   4.097  1.00  0.00     0.157 A 
ATOM     16  C   UNL     1      11.805  22.534   2.292  1.00  0.00     0.062 A 
ATOM     17  C   UNL     1      11.784  22.251   3.664  1.00  0.00     0.158 A 
BRANCH  15  18
ATOM     18  O   UNL     1      11.774  20.545   5.446  1.00  0.00    -0.504 OA
ATOM     19  H   UNL     1      11.698  19.594   5.776  1.00  0.00     0.293 HD
ENDBRANCH  15  18
BRANCH  17  20
ATOM     20  O   UNL     1      11.755  23.328   4.552  1.00  0.00    -0.504 OA
ATOM     21  H   UNL     1      12.560  23.896   4.777  1.00  0.00     0.293 HD
ENDBRANCH  17  20
ENDBRANCH   1  12
BRANCH   2  22
ATOM     22  O   UNL     1      13.317  23.743   0.237  1.00  0.00    -0.502 OA
ATOM     23  H   UNL     1      13.403  23.558   1.229  1.00  0.00     0.293 HD
ENDBRANCH   2  22
BRANCH   6  24
ATOM     24  O   UNL     1      12.515  23.329  -5.013  1.00  0.00    -0.507 OA
ATOM     25  H   UNL     1      12.165  23.966  -5.712  1.00  0.00     0.293 HD
ENDBRANCH   6  24
BRANCH   8  26
ATOM     26  O   UNL     1       9.204  19.875  -5.112  1.00  0.00    -0.508 OA
ATOM     27  H   UNL     1       9.471  18.947  -5.419  1.00  0.00     0.293 HD
ENDBRANCH   8  26
TORSDOF 6
ENDMDL
