MODEL 1
REMARK VINA RESULT:    -5.602      0.000      0.000
REMARK INTER + INTRA:         -11.580
REMARK INTER:                 -10.187
REMARK INTRA:                  -1.393
REMARK UNBOUND:                -1.393
REMARK SMILES CCCCCCCCCCCCCCCC(=O)[O-]
REMARK SMILES IDX 9 1 10 2 11 3 12 4 13 5 14 6 15 7 16 8 17 9 18 10 8 11 7 12
REMARK SMILES IDX 6 13 5 14 4 15 3 16 2 17 1 18
REMARK H PARENT
REMARK Flexibility Score: inf
ROOT
ATOM      1  C   UNL     1      -5.020  -1.640  12.589  1.00  0.00     0.000 C 
ENDROOT
BRANCH   1   2
ATOM      2  C   UNL     1      -3.563  -2.082  12.760  1.00  0.00     0.000 C 
BRANCH   2   3
ATOM      3  C   UNL     1      -2.880  -2.270  11.397  1.00  0.00     0.000 C 
BRANCH   3   4
ATOM      4  C   UNL     1      -3.088  -3.678  10.819  1.00  0.00     0.000 C 
BRANCH   4   5
ATOM      5  C   UNL     1      -3.448  -3.655   9.322  1.00  0.00     0.000 C 
BRANCH   5   6
ATOM      6  C   UNL     1      -4.846  -4.229   9.042  1.00  0.00     0.006 C 
BRANCH   6   7
ATOM      7  C   UNL     1      -5.966  -3.228   9.351  1.00  0.00     0.053 C 
BRANCH   7   8
ATOM      8  C   UNL     1      -5.813  -1.998   8.512  1.00  0.00     0.041 C 
ATOM      9  O   UNL     1      -6.073  -2.036   7.280  1.00  0.00    -0.550 OA
ATOM     10  O   UNL     1      -5.336  -0.824   9.080  1.00  0.00    -0.550 OA
ENDBRANCH   7   8
ENDBRANCH   6   7
ENDBRANCH   5   6
ENDBRANCH   4   5
ENDBRANCH   3   4
ENDBRANCH   2   3
ENDBRANCH   1   2
BRANCH   1  11
ATOM     11  C   UNL     1      -5.987  -2.779  12.951  1.00  0.00     0.000 C 
BRANCH  11  12
ATOM     12  C   UNL     1      -5.313  -3.886  13.779  1.00  0.00    -0.000 C 
BRANCH  12  13
ATOM     13  C   UNL     1      -6.040  -4.159  15.104  1.00  0.00    -0.000 C 
BRANCH  13  14
ATOM     14  C   UNL     1      -7.127  -5.227  14.924  1.00  0.00    -0.000 C 
BRANCH  14  15
ATOM     15  C   UNL     1      -6.648  -6.591  15.443  1.00  0.00    -0.000 C 
BRANCH  15  16
ATOM     16  C   UNL     1      -7.769  -7.391  16.126  1.00  0.00    -0.000 C 
BRANCH  16  17
ATOM     17  C   UNL     1      -7.471  -7.683  17.604  1.00  0.00    -0.003 C 
ATOM     18  C   UNL     1      -6.400  -6.740  18.146  1.00  0.00     0.004 C 
ENDBRANCH  16  17
ENDBRANCH  15  16
ENDBRANCH  14  15
ENDBRANCH  13  14
ENDBRANCH  12  13
ENDBRANCH  11  12
ENDBRANCH   1  11
TORSDOF 14
ENDMDL
MODEL 2
REMARK VINA RESULT:    -5.562      1.909      2.822
REMARK INTER + INTRA:         -11.507
REMARK INTER:                 -10.057
REMARK INTRA:                  -1.450
REMARK UNBOUND:                -1.393
REMARK SMILES CCCCCCCCCCCCCCCC(=O)[O-]
REMARK SMILES IDX 9 1 10 2 11 3 12 4 13 5 14 6 15 7 16 8 17 9 18 10 8 11 7 12
REMARK SMILES IDX 6 13 5 14 4 15 3 16 2 17 1 18
REMARK H PARENT
REMARK Flexibility Score: inf
ROOT
ATOM      1  C   UNL     1      -6.113  -2.002  12.355  1.00  0.00     0.000 C 
ENDROOT
BRANCH   1   2
ATOM      2  C   UNL     1      -6.791  -1.747  11.004  1.00  0.00     0.000 C 
BRANCH   2   3
ATOM      3  C   UNL     1      -6.898  -3.044  10.188  1.00  0.00     0.000 C 
BRANCH   3   4
ATOM      4  C   UNL     1      -5.930  -3.075   8.995  1.00  0.00     0.000 C 
BRANCH   4   5
ATOM      5  C   UNL     1      -4.861  -4.174   9.130  1.00  0.00     0.000 C 
BRANCH   5   6
ATOM      6  C   UNL     1      -3.488  -3.616   9.536  1.00  0.00     0.006 C 
BRANCH   6   7
ATOM      7  C   UNL     1      -3.165  -3.868  11.014  1.00  0.00     0.053 C 
BRANCH   7   8
ATOM      8  C   UNL     1      -2.318  -2.760  11.559  1.00  0.00     0.041 C 
ATOM      9  O   UNL     1      -1.338  -2.327  10.897  1.00  0.00    -0.550 OA
ATOM     10  O   UNL     1      -2.581  -2.241  12.820  1.00  0.00    -0.550 OA
ENDBRANCH   7   8
ENDBRANCH   6   7
ENDBRANCH   5   6
ENDBRANCH   4   5
ENDBRANCH   3   4
ENDBRANCH   2   3
ENDBRANCH   1   2
BRANCH   1  11
ATOM     11  C   UNL     1      -6.409  -3.423  12.859  1.00  0.00     0.000 C 
BRANCH  11  12
ATOM     12  C   UNL     1      -5.539  -3.816  14.064  1.00  0.00    -0.000 C 
BRANCH  12  13
ATOM     13  C   UNL     1      -6.372  -4.246  15.281  1.00  0.00    -0.000 C 
BRANCH  13  14
ATOM     14  C   UNL     1      -7.245  -5.463  14.946  1.00  0.00    -0.000 C 
BRANCH  14  15
ATOM     15  C   UNL     1      -6.589  -6.762  15.436  1.00  0.00    -0.000 C 
BRANCH  15  16
ATOM     16  C   UNL     1      -7.579  -7.688  16.160  1.00  0.00    -0.000 C 
BRANCH  16  17
ATOM     17  C   UNL     1      -7.735  -7.341  17.648  1.00  0.00    -0.003 C 
ATOM     18  C   UNL     1      -6.407  -6.890  18.249  1.00  0.00     0.004 C 
ENDBRANCH  16  17
ENDBRANCH  15  16
ENDBRANCH  14  15
ENDBRANCH  13  14
ENDBRANCH  12  13
ENDBRANCH  11  12
ENDBRANCH   1  11
TORSDOF 14
ENDMDL
MODEL 3
REMARK VINA RESULT:    -5.412      4.451      6.400
REMARK INTER + INTRA:         -11.234
REMARK INTER:                  -8.960
REMARK INTRA:                  -2.274
REMARK UNBOUND:                -1.393
REMARK SMILES CCCCCCCCCCCCCCCC(=O)[O-]
REMARK SMILES IDX 9 1 10 2 11 3 12 4 13 5 14 6 15 7 16 8 17 9 18 10 8 11 7 12
REMARK SMILES IDX 6 13 5 14 4 15 3 16 2 17 1 18
REMARK H PARENT
REMARK Flexibility Score: inf
ROOT
ATOM      1  C   UNL     1      -4.385   1.007   8.583  1.00  0.00     0.000 C 
ENDROOT
BRANCH   1   2
ATOM      2  C   UNL     1      -5.747   0.458   9.023  1.00  0.00     0.000 C 
BRANCH   2   3
ATOM      3  C   UNL     1      -5.663  -1.045   9.325  1.00  0.00     0.000 C 
BRANCH   3   4
ATOM      4  C   UNL     1      -5.977  -1.915   8.098  1.00  0.00     0.000 C 
BRANCH   4   5
ATOM      5  C   UNL     1      -4.904  -2.988   7.844  1.00  0.00     0.000 C 
BRANCH   5   6
ATOM      6  C   UNL     1      -4.707  -3.923   9.048  1.00  0.00     0.006 C 
BRANCH   6   7
ATOM      7  C   UNL     1      -3.325  -3.767   9.695  1.00  0.00     0.053 C 
BRANCH   7   8
ATOM      8  C   UNL     1      -3.430  -3.884  11.184  1.00  0.00     0.041 C 
ATOM      9  O   UNL     1      -2.575  -4.548  11.828  1.00  0.00    -0.550 OA
ATOM     10  O   UNL     1      -4.499  -3.304  11.853  1.00  0.00    -0.550 OA
ENDBRANCH   7   8
ENDBRANCH   6   7
ENDBRANCH   5   6
ENDBRANCH   4   5
ENDBRANCH   3   4
ENDBRANCH   2   3
ENDBRANCH   1   2
BRANCH   1  11
ATOM     11  C   UNL     1      -3.238   0.241   9.261  1.00  0.00     0.000 C 
BRANCH  11  12
ATOM     12  C   UNL     1      -2.226   1.175   9.944  1.00  0.00    -0.000 C 
BRANCH  12  13
ATOM     13  C   UNL     1      -2.339   1.153  11.476  1.00  0.00    -0.000 C 
BRANCH  13  14
ATOM     14  C   UNL     1      -3.147  -0.063  11.948  1.00  0.00    -0.000 C 
BRANCH  14  15
ATOM     15  C   UNL     1      -4.314   0.369  12.848  1.00  0.00    -0.000 C 
BRANCH  15  16
ATOM     16  C   UNL     1      -4.584   1.880  12.784  1.00  0.00    -0.000 C 
BRANCH  16  17
ATOM     17  C   UNL     1      -6.011   2.207  12.318  1.00  0.00    -0.003 C 
ATOM     18  C   UNL     1      -6.971   1.066  12.644  1.00  0.00     0.004 C 
ENDBRANCH  16  17
ENDBRANCH  15  16
ENDBRANCH  14  15
ENDBRANCH  13  14
ENDBRANCH  12  13
ENDBRANCH  11  12
ENDBRANCH   1  11
TORSDOF 14
ENDMDL
MODEL 4
REMARK VINA RESULT:    -5.404      5.541      6.905
REMARK INTER + INTRA:         -11.221
REMARK INTER:                  -8.990
REMARK INTRA:                  -2.231
REMARK UNBOUND:                -1.393
REMARK SMILES CCCCCCCCCCCCCCCC(=O)[O-]
REMARK SMILES IDX 9 1 10 2 11 3 12 4 13 5 14 6 15 7 16 8 17 9 18 10 8 11 7 12
REMARK SMILES IDX 6 13 5 14 4 15 3 16 2 17 1 18
REMARK H PARENT
REMARK Flexibility Score: inf
ROOT
ATOM      1  C   UNL     1      -0.847  -1.966  10.354  1.00  0.00     0.000 C 
ENDROOT
BRANCH   1   2
ATOM      2  C   UNL     1      -2.200  -2.685  10.331  1.00  0.00     0.000 C 
BRANCH   2   3
ATOM      3  C   UNL     1      -3.358  -1.686  10.475  1.00  0.00     0.000 C 
BRANCH   3   4
ATOM      4  C   UNL     1      -3.875  -1.179   9.120  1.00  0.00     0.000 C 
BRANCH   4   5
ATOM      5  C   UNL     1      -3.766   0.350   8.980  1.00  0.00     0.000 C 
BRANCH   5   6
ATOM      6  C   UNL     1      -2.438   0.792   8.345  1.00  0.00     0.006 C 
BRANCH   6   7
ATOM      7  C   UNL     1      -1.832   2.017   9.041  1.00  0.00     0.053 C 
BRANCH   7   8
ATOM      8  C   UNL     1      -1.336   3.001   8.028  1.00  0.00     0.041 C 
ATOM      9  O   UNL     1      -2.114   3.875   7.560  1.00  0.00    -0.550 OA
ATOM     10  O   UNL     1      -0.030   2.922   7.563  1.00  0.00    -0.550 OA
ENDBRANCH   7   8
ENDBRANCH   6   7
ENDBRANCH   5   6
ENDBRANCH   4   5
ENDBRANCH   3   4
ENDBRANCH   2   3
ENDBRANCH   1   2
BRANCH   1  11
ATOM     11  C   UNL     1      -0.046  -2.340  11.611  1.00  0.00     0.000 C 
BRANCH  11  12
ATOM     12  C   UNL     1      -0.067  -1.233  12.677  1.00  0.00    -0.000 C 
BRANCH  12  13
ATOM     13  C   UNL     1      -1.154  -1.454  13.739  1.00  0.00    -0.000 C 
BRANCH  13  14
ATOM     14  C   UNL     1      -2.192  -0.325  13.706  1.00  0.00    -0.000 C 
BRANCH  14  15
ATOM     15  C   UNL     1      -1.810   0.743  12.670  1.00  0.00    -0.000 C 
BRANCH  15  16
ATOM     16  C   UNL     1      -2.955   1.728  12.386  1.00  0.00    -0.000 C 
BRANCH  16  17
ATOM     17  C   UNL     1      -4.336   1.139  12.708  1.00  0.00    -0.003 C 
ATOM     18  C   UNL     1      -5.405   2.228  12.733  1.00  0.00     0.004 C 
ENDBRANCH  16  17
ENDBRANCH  15  16
ENDBRANCH  14  15
ENDBRANCH  13  14
ENDBRANCH  12  13
ENDBRANCH  11  12
ENDBRANCH   1  11
TORSDOF 14
ENDMDL
MODEL 5
REMARK VINA RESULT:    -5.391      2.535      3.909
REMARK INTER + INTRA:         -11.197
REMARK INTER:                  -9.854
REMARK INTRA:                  -1.342
REMARK UNBOUND:                -1.393
REMARK SMILES CCCCCCCCCCCCCCCC(=O)[O-]
REMARK SMILES IDX 9 1 10 2 11 3 12 4 13 5 14 6 15 7 16 8 17 9 18 10 8 11 7 12
REMARK SMILES IDX 6 13 5 14 4 15 3 16 2 17 1 18
REMARK H PARENT
REMARK Flexibility Score: inf
ROOT
ATOM      1  C   UNL     1      -3.955  -3.105  11.455  1.00  0.00     0.000 C 
ENDROOT
BRANCH   1   2
ATOM      2  C   UNL     1      -2.608  -3.446  10.808  1.00  0.00     0.000 C 
BRANCH   2   3
ATOM      3  C   UNL     1      -2.123  -2.301   9.907  1.00  0.00     0.000 C 
BRANCH   3   4
ATOM      4  C   UNL     1      -0.659  -1.918  10.172  1.00  0.00     0.000 C 
BRANCH   4   5
ATOM      5  C   UNL     1      -0.157  -2.414  11.540  1.00  0.00     0.000 C 
BRANCH   5   6
ATOM      6  C   UNL     1      -0.169  -1.310  12.609  1.00  0.00     0.006 C 
BRANCH   6   7
ATOM      7  C   UNL     1      -1.164  -1.597  13.740  1.00  0.00     0.053 C 
BRANCH   7   8
ATOM      8  C   UNL     1      -2.323  -0.652  13.667  1.00  0.00     0.041 C 
ATOM      9  O   UNL     1      -3.100  -0.526  14.650  1.00  0.00    -0.550 OA
ATOM     10  O   UNL     1      -2.575   0.050  12.495  1.00  0.00    -0.550 OA
ENDBRANCH   7   8
ENDBRANCH   6   7
ENDBRANCH   5   6
ENDBRANCH   4   5
ENDBRANCH   3   4
ENDBRANCH   2   3
ENDBRANCH   1   2
BRANCH   1  11
ATOM     11  C   UNL     1      -4.135  -3.860  12.781  1.00  0.00     0.000 C 
BRANCH  11  12
ATOM     12  C   UNL     1      -5.107  -3.152  13.739  1.00  0.00    -0.000 C 
BRANCH  12  13
ATOM     13  C   UNL     1      -6.418  -3.927  13.933  1.00  0.00    -0.000 C 
BRANCH  13  14
ATOM     14  C   UNL     1      -6.441  -4.637  15.293  1.00  0.00    -0.000 C 
BRANCH  14  15
ATOM     15  C   UNL     1      -7.514  -5.735  15.323  1.00  0.00    -0.000 C 
BRANCH  15  16
ATOM     16  C   UNL     1      -8.594  -5.478  16.387  1.00  0.00    -0.000 C 
BRANCH  16  17
ATOM     17  C   UNL     1      -8.029  -5.477  17.815  1.00  0.00    -0.003 C 
ATOM     18  C   UNL     1      -7.576  -6.875  18.228  1.00  0.00     0.004 C 
ENDBRANCH  16  17
ENDBRANCH  15  16
ENDBRANCH  14  15
ENDBRANCH  13  14
ENDBRANCH  12  13
ENDBRANCH  11  12
ENDBRANCH   1  11
TORSDOF 14
ENDMDL
MODEL 6
REMARK VINA RESULT:    -5.385      5.090      6.920
REMARK INTER + INTRA:         -11.186
REMARK INTER:                  -9.129
REMARK INTRA:                  -2.057
REMARK UNBOUND:                -1.393
REMARK SMILES CCCCCCCCCCCCCCCC(=O)[O-]
REMARK SMILES IDX 9 1 10 2 11 3 12 4 13 5 14 6 15 7 16 8 17 9 18 10 8 11 7 12
REMARK SMILES IDX 6 13 5 14 4 15 3 16 2 17 1 18
REMARK H PARENT
REMARK Flexibility Score: inf
ROOT
ATOM      1  C   UNL     1      -3.755  -3.869  10.046  1.00  0.00     0.000 C 
ENDROOT
BRANCH   1   2
ATOM      2  C   UNL     1      -2.706  -2.900   9.491  1.00  0.00     0.000 C 
BRANCH   2   3
ATOM      3  C   UNL     1      -2.594  -1.646  10.371  1.00  0.00     0.000 C 
BRANCH   3   4
ATOM      4  C   UNL     1      -2.285  -0.378   9.561  1.00  0.00     0.000 C 
BRANCH   4   5
ATOM      5  C   UNL     1      -2.023   0.847  10.455  1.00  0.00     0.000 C 
BRANCH   5   6
ATOM      6  C   UNL     1      -1.787   2.131   9.645  1.00  0.00     0.006 C 
BRANCH   6   7
ATOM      7  C   UNL     1      -2.413   2.067   8.246  1.00  0.00     0.053 C 
BRANCH   7   8
ATOM      8  C   UNL     1      -1.383   2.357   7.199  1.00  0.00     0.041 C 
ATOM      9  O   UNL     1      -1.624   2.112   5.988  1.00  0.00    -0.550 OA
ATOM     10  O   UNL     1      -0.137   2.850   7.568  1.00  0.00    -0.550 OA
ENDBRANCH   7   8
ENDBRANCH   6   7
ENDBRANCH   5   6
ENDBRANCH   4   5
ENDBRANCH   3   4
ENDBRANCH   2   3
ENDBRANCH   1   2
BRANCH   1  11
ATOM     11  C   UNL     1      -4.872  -4.117   9.020  1.00  0.00     0.000 C 
BRANCH  11  12
ATOM     12  C   UNL     1      -4.860  -3.093   7.873  1.00  0.00    -0.000 C 
BRANCH  12  13
ATOM     13  C   UNL     1      -6.069  -2.147   7.910  1.00  0.00    -0.000 C 
BRANCH  13  14
ATOM     14  C   UNL     1      -5.630  -0.706   8.197  1.00  0.00    -0.000 C 
BRANCH  14  15
ATOM     15  C   UNL     1      -5.924  -0.321   9.655  1.00  0.00    -0.000 C 
BRANCH  15  16
ATOM     16  C   UNL     1      -5.765   1.185   9.914  1.00  0.00    -0.000 C 
BRANCH  16  17
ATOM     17  C   UNL     1      -5.719   1.526  11.411  1.00  0.00    -0.003 C 
ATOM     18  C   UNL     1      -6.751   0.716  12.191  1.00  0.00     0.004 C 
ENDBRANCH  16  17
ENDBRANCH  15  16
ENDBRANCH  14  15
ENDBRANCH  13  14
ENDBRANCH  12  13
ENDBRANCH  11  12
ENDBRANCH   1  11
TORSDOF 14
ENDMDL
MODEL 7
REMARK VINA RESULT:    -5.372      4.251      6.013
REMARK INTER + INTRA:         -11.162
REMARK INTER:                  -8.864
REMARK INTRA:                  -2.298
REMARK UNBOUND:                -1.393
REMARK SMILES CCCCCCCCCCCCCCCC(=O)[O-]
REMARK SMILES IDX 9 1 10 2 11 3 12 4 13 5 14 6 15 7 16 8 17 9 18 10 8 11 7 12
REMARK SMILES IDX 6 13 5 14 4 15 3 16 2 17 1 18
REMARK H PARENT
REMARK Flexibility Score: inf
ROOT
ATOM      1  C   UNL     1      -5.205  -3.147   8.095  1.00  0.00     0.000 C 
ENDROOT
BRANCH   1   2
ATOM      2  C   UNL     1      -6.357  -2.372   8.743  1.00  0.00     0.000 C 
BRANCH   2   3
ATOM      3  C   UNL     1      -6.746  -2.991  10.094  1.00  0.00     0.000 C 
BRANCH   3   4
ATOM      4  C   UNL     1      -6.725  -1.971  11.242  1.00  0.00     0.000 C 
BRANCH   4   5
ATOM      5  C   UNL     1      -5.297  -1.537  11.621  1.00  0.00     0.000 C 
BRANCH   5   6
ATOM      6  C   UNL     1      -5.086  -0.021  11.489  1.00  0.00     0.006 C 
BRANCH   6   7
ATOM      7  C   UNL     1      -4.206   0.349  10.289  1.00  0.00     0.053 C 
BRANCH   7   8
ATOM      8  C   UNL     1      -5.029   0.991   9.216  1.00  0.00     0.041 C 
ATOM      9  O   UNL     1      -6.269   1.143   9.375  1.00  0.00    -0.550 OA
ATOM     10  O   UNL     1      -4.436   1.373   8.020  1.00  0.00    -0.550 OA
ENDBRANCH   7   8
ENDBRANCH   6   7
ENDBRANCH   5   6
ENDBRANCH   4   5
ENDBRANCH   3   4
ENDBRANCH   2   3
ENDBRANCH   1   2
BRANCH   1  11
ATOM     11  C   UNL     1      -4.669  -4.231   9.043  1.00  0.00     0.000 C 
BRANCH  11  12
ATOM     12  C   UNL     1      -3.352  -3.823   9.725  1.00  0.00    -0.000 C 
BRANCH  12  13
ATOM     13  C   UNL     1      -2.619  -2.703   8.974  1.00  0.00    -0.000 C 
BRANCH  13  14
ATOM     14  C   UNL     1      -1.563  -2.041   9.870  1.00  0.00    -0.000 C 
BRANCH  14  15
ATOM     15  C   UNL     1      -1.632  -2.594  11.301  1.00  0.00    -0.000 C 
BRANCH  15  16
ATOM     16  C   UNL     1      -0.547  -2.005  12.216  1.00  0.00    -0.000 C 
BRANCH  16  17
ATOM     17  C   UNL     1      -1.073  -1.675  13.621  1.00  0.00    -0.003 C 
ATOM     18  C   UNL     1      -1.927  -0.410  13.606  1.00  0.00     0.004 C 
ENDBRANCH  16  17
ENDBRANCH  15  16
ENDBRANCH  14  15
ENDBRANCH  13  14
ENDBRANCH  12  13
ENDBRANCH  11  12
ENDBRANCH   1  11
TORSDOF 14
ENDMDL
MODEL 8
REMARK VINA RESULT:    -5.344      4.329      6.813
REMARK INTER + INTRA:         -11.110
REMARK INTER:                  -8.542
REMARK INTRA:                  -2.568
REMARK UNBOUND:                -1.393
REMARK SMILES CCCCCCCCCCCCCCCC(=O)[O-]
REMARK SMILES IDX 9 1 10 2 11 3 12 4 13 5 14 6 15 7 16 8 17 9 18 10 8 11 7 12
REMARK SMILES IDX 6 13 5 14 4 15 3 16 2 17 1 18
REMARK H PARENT
REMARK Flexibility Score: inf
ROOT
ATOM      1  C   UNL     1      -7.053  -2.826  10.219  1.00  0.00     0.000 C 
ENDROOT
BRANCH   1   2
ATOM      2  C   UNL     1      -6.746  -2.487  11.682  1.00  0.00     0.000 C 
BRANCH   2   3
ATOM      3  C   UNL     1      -5.264  -2.728  12.005  1.00  0.00     0.000 C 
BRANCH   3   4
ATOM      4  C   UNL     1      -4.731  -1.777  13.088  1.00  0.00     0.000 C 
BRANCH   4   5
ATOM      5  C   UNL     1      -3.243  -1.437  12.895  1.00  0.00     0.000 C 
BRANCH   5   6
ATOM      6  C   UNL     1      -2.652  -2.068  11.624  1.00  0.00     0.006 C 
BRANCH   6   7
ATOM      7  C   UNL     1      -1.475  -1.264  11.060  1.00  0.00     0.053 C 
BRANCH   7   8
ATOM      8  C   UNL     1      -0.185  -1.742  11.650  1.00  0.00     0.041 C 
ATOM      9  O   UNL     1       0.086  -1.505  12.857  1.00  0.00    -0.550 OA
ATOM     10  O   UNL     1       0.740  -2.405  10.854  1.00  0.00    -0.550 OA
ENDBRANCH   7   8
ENDBRANCH   6   7
ENDBRANCH   5   6
ENDBRANCH   4   5
ENDBRANCH   3   4
ENDBRANCH   2   3
ENDBRANCH   1   2
BRANCH   1  11
ATOM     11  C   UNL     1      -5.783  -3.279   9.482  1.00  0.00     0.000 C 
BRANCH  11  12
ATOM     12  C   UNL     1      -5.588  -2.555   8.140  1.00  0.00    -0.000 C 
BRANCH  12  13
ATOM     13  C   UNL     1      -5.681  -1.028   8.271  1.00  0.00    -0.000 C 
BRANCH  13  14
ATOM     14  C   UNL     1      -4.435  -0.460   8.964  1.00  0.00    -0.000 C 
BRANCH  14  15
ATOM     15  C   UNL     1      -4.731   0.911   9.589  1.00  0.00    -0.000 C 
BRANCH  15  16
ATOM     16  C   UNL     1      -6.039   0.925  10.394  1.00  0.00    -0.000 C 
BRANCH  16  17
ATOM     17  C   UNL     1      -5.869   1.543  11.790  1.00  0.00    -0.003 C 
ATOM     18  C   UNL     1      -7.018   1.144  12.711  1.00  0.00     0.004 C 
ENDBRANCH  16  17
ENDBRANCH  15  16
ENDBRANCH  14  15
ENDBRANCH  13  14
ENDBRANCH  12  13
ENDBRANCH  11  12
ENDBRANCH   1  11
TORSDOF 14
ENDMDL
MODEL 9
REMARK VINA RESULT:    -5.336      4.254      5.856
REMARK INTER + INTRA:         -11.097
REMARK INTER:                  -8.416
REMARK INTRA:                  -2.681
REMARK UNBOUND:                -1.393
REMARK SMILES CCCCCCCCCCCCCCCC(=O)[O-]
REMARK SMILES IDX 9 1 10 2 11 3 12 4 13 5 14 6 15 7 16 8 17 9 18 10 8 11 7 12
REMARK SMILES IDX 6 13 5 14 4 15 3 16 2 17 1 18
REMARK H PARENT
REMARK Flexibility Score: inf
ROOT
ATOM      1  C   UNL     1      -6.788  -3.121   9.765  1.00  0.00     0.000 C 
ENDROOT
BRANCH   1   2
ATOM      2  C   UNL     1      -6.915  -2.179  10.968  1.00  0.00     0.000 C 
BRANCH   2   3
ATOM      3  C   UNL     1      -5.951  -0.991  10.842  1.00  0.00     0.000 C 
BRANCH   3   4
ATOM      4  C   UNL     1      -4.938  -0.925  11.995  1.00  0.00     0.000 C 
BRANCH   4   5
ATOM      5  C   UNL     1      -3.708  -0.064  11.653  1.00  0.00     0.000 C 
BRANCH   5   6
ATOM      6  C   UNL     1      -3.456   0.031  10.139  1.00  0.00     0.006 C 
BRANCH   6   7
ATOM      7  C   UNL     1      -2.067   0.590   9.808  1.00  0.00     0.053 C 
BRANCH   7   8
ATOM      8  C   UNL     1      -1.619   0.112   8.462  1.00  0.00     0.041 C 
ATOM      9  O   UNL     1      -1.373   0.939   7.545  1.00  0.00    -0.550 OA
ATOM     10  O   UNL     1      -1.522  -1.250   8.206  1.00  0.00    -0.550 OA
ENDBRANCH   7   8
ENDBRANCH   6   7
ENDBRANCH   5   6
ENDBRANCH   4   5
ENDBRANCH   3   4
ENDBRANCH   2   3
ENDBRANCH   1   2
BRANCH   1  11
ATOM     11  C   UNL     1      -6.036  -2.440   8.611  1.00  0.00     0.000 C 
BRANCH  11  12
ATOM     12  C   UNL     1      -4.730  -3.165   8.247  1.00  0.00    -0.000 C 
BRANCH  12  13
ATOM     13  C   UNL     1      -4.276  -4.150   9.334  1.00  0.00    -0.000 C 
BRANCH  13  14
ATOM     14  C   UNL     1      -3.073  -3.596  10.109  1.00  0.00    -0.000 C 
BRANCH  14  15
ATOM     15  C   UNL     1      -3.138  -4.001  11.589  1.00  0.00    -0.000 C 
BRANCH  15  16
ATOM     16  C   UNL     1      -2.010  -3.376  12.424  1.00  0.00    -0.000 C 
BRANCH  16  17
ATOM     17  C   UNL     1      -1.015  -2.576  11.571  1.00  0.00    -0.003 C 
ATOM     18  C   UNL     1      -0.188  -1.628  12.435  1.00  0.00     0.004 C 
ENDBRANCH  16  17
ENDBRANCH  15  16
ENDBRANCH  14  15
ENDBRANCH  13  14
ENDBRANCH  12  13
ENDBRANCH  11  12
ENDBRANCH   1  11
TORSDOF 14
ENDMDL
