MODEL 1
REMARK VINA RESULT:    -4.606      0.000      0.000
REMARK INTER + INTRA:         -15.984
REMARK INTER:                 -11.606
REMARK INTRA:                  -4.378
REMARK UNBOUND:                -4.378
REMARK SMILES CCCCCCCCCCCCCCCCCCCCCCCCCCCC(=O)[O-]
REMARK SMILES IDX 15 1 16 2 17 3 18 4 19 5 20 6 21 7 22 8 23 9 24 10 25 11
REMARK SMILES IDX 26 12 27 13 28 14 29 15 30 16 14 17 13 18 12 19 11 20 10 21
REMARK SMILES IDX 9 22 8 23 7 24 6 25 5 26 4 27 3 28 2 29 1 30
REMARK H PARENT
REMARK Flexibility Score: inf
ROOT
ATOM      1  C   UNL     1      14.123 -17.252  36.116  1.00  0.00     0.000 C 
ENDROOT
BRANCH   1   2
ATOM      2  C   UNL     1      12.780 -17.660  36.741  1.00  0.00     0.000 C 
BRANCH   2   3
ATOM      3  C   UNL     1      12.520 -19.174  36.658  1.00  0.00     0.000 C 
BRANCH   3   4
ATOM      4  C   UNL     1      11.253 -19.595  37.422  1.00  0.00     0.000 C 
BRANCH   4   5
ATOM      5  C   UNL     1      11.175 -18.965  38.823  1.00  0.00     0.000 C 
BRANCH   5   6
ATOM      6  C   UNL     1      11.531 -19.961  39.937  1.00  0.00     0.000 C 
BRANCH   6   7
ATOM      7  C   UNL     1      12.830 -19.590  40.676  1.00  0.00     0.000 C 
BRANCH   7   8
ATOM      8  C   UNL     1      13.851 -20.741  40.699  1.00  0.00     0.000 C 
BRANCH   8   9
ATOM      9  C   UNL     1      14.361 -21.184  39.313  1.00  0.00     0.000 C 
BRANCH   9  10
ATOM     10  C   UNL     1      13.790 -22.524  38.809  1.00  0.00     0.000 C 
BRANCH  10  11
ATOM     11  C   UNL     1      14.496 -23.780  39.356  1.00  0.00     0.000 C 
BRANCH  11  12
ATOM     12  C   UNL     1      15.765 -24.197  38.589  1.00  0.00     0.006 C 
BRANCH  12  13
ATOM     13  C   UNL     1      16.748 -24.997  39.454  1.00  0.00     0.053 C 
BRANCH  13  14
ATOM     14  C   UNL     1      17.742 -25.716  38.594  1.00  0.00     0.041 C 
ATOM     15  O   UNL     1      18.902 -25.249  38.441  1.00  0.00    -0.550 OA
ATOM     16  O   UNL     1      17.386 -26.901  37.964  1.00  0.00    -0.550 OA
ENDBRANCH  13  14
ENDBRANCH  12  13
ENDBRANCH  11  12
ENDBRANCH  10  11
ENDBRANCH   9  10
ENDBRANCH   8   9
ENDBRANCH   7   8
ENDBRANCH   6   7
ENDBRANCH   5   6
ENDBRANCH   4   5
ENDBRANCH   3   4
ENDBRANCH   2   3
ENDBRANCH   1   2
BRANCH   1  17
ATOM     17  C   UNL     1      15.268 -17.214  37.144  1.00  0.00     0.000 C 
BRANCH  17  18
ATOM     18  C   UNL     1      14.848 -17.770  38.515  1.00  0.00     0.000 C 
BRANCH  18  19
ATOM     19  C   UNL     1      15.447 -16.970  39.687  1.00  0.00     0.000 C 
BRANCH  19  20
ATOM     20  C   UNL     1      14.605 -15.735  40.046  1.00  0.00     0.000 C 
BRANCH  20  21
ATOM     21  C   UNL     1      13.093 -16.014  39.975  1.00  0.00     0.000 C 
BRANCH  21  22
ATOM     22  C   UNL     1      12.308 -14.886  39.282  1.00  0.00    -0.000 C 
BRANCH  22  23
ATOM     23  C   UNL     1      12.990 -14.283  38.041  1.00  0.00    -0.000 C 
BRANCH  23  24
ATOM     24  C   UNL     1      13.330 -12.794  38.209  1.00  0.00    -0.000 C 
BRANCH  24  25
ATOM     25  C   UNL     1      14.838 -12.592  38.404  1.00  0.00    -0.000 C 
BRANCH  25  26
ATOM     26  C   UNL     1      15.639 -13.396  37.368  1.00  0.00    -0.000 C 
BRANCH  26  27
ATOM     27  C   UNL     1      16.928 -13.996  37.950  1.00  0.00    -0.000 C 
BRANCH  27  28
ATOM     28  C   UNL     1      17.791 -14.690  36.887  1.00  0.00    -0.000 C 
BRANCH  28  29
ATOM     29  C   UNL     1      17.386 -14.245  35.476  1.00  0.00    -0.003 C 
ATOM     30  C   UNL     1      18.517 -13.487  34.789  1.00  0.00     0.004 C 
ENDBRANCH  28  29
ENDBRANCH  27  28
ENDBRANCH  26  27
ENDBRANCH  25  26
ENDBRANCH  24  25
ENDBRANCH  23  24
ENDBRANCH  22  23
ENDBRANCH  21  22
ENDBRANCH  20  21
ENDBRANCH  19  20
ENDBRANCH  18  19
ENDBRANCH  17  18
ENDBRANCH   1  17
TORSDOF 26
ENDMDL
MODEL 2
REMARK VINA RESULT:    -4.567      3.080      8.781
REMARK INTER + INTRA:         -15.886
REMARK INTER:                 -11.288
REMARK INTRA:                  -4.598
REMARK UNBOUND:                -4.378
REMARK SMILES CCCCCCCCCCCCCCCCCCCCCCCCCCCC(=O)[O-]
REMARK SMILES IDX 15 1 16 2 17 3 18 4 19 5 20 6 21 7 22 8 23 9 24 10 25 11
REMARK SMILES IDX 26 12 27 13 28 14 29 15 30 16 14 17 13 18 12 19 11 20 10 21
REMARK SMILES IDX 9 22 8 23 7 24 6 25 5 26 4 27 3 28 2 29 1 30
REMARK H PARENT
REMARK Flexibility Score: inf
ROOT
ATOM      1  C   UNL     1      14.761 -19.770  39.373  1.00  0.00     0.000 C 
ENDROOT
BRANCH   1   2
ATOM      2  C   UNL     1      15.508 -18.431  39.268  1.00  0.00     0.000 C 
BRANCH   2   3
ATOM      3  C   UNL     1      14.615 -17.223  39.603  1.00  0.00     0.000 C 
BRANCH   3   4
ATOM      4  C   UNL     1      13.686 -16.840  38.438  1.00  0.00     0.000 C 
BRANCH   4   5
ATOM      5  C   UNL     1      12.301 -16.375  38.920  1.00  0.00     0.000 C 
BRANCH   5   6
ATOM      6  C   UNL     1      12.309 -14.921  39.419  1.00  0.00     0.000 C 
BRANCH   6   7
ATOM      7  C   UNL     1      11.761 -13.931  38.376  1.00  0.00     0.000 C 
BRANCH   7   8
ATOM      8  C   UNL     1      12.738 -12.781  38.077  1.00  0.00     0.000 C 
BRANCH   8   9
ATOM      9  C   UNL     1      14.171 -13.224  37.716  1.00  0.00     0.000 C 
BRANCH   9  10
ATOM     10  C   UNL     1      15.239 -12.891  38.775  1.00  0.00     0.000 C 
BRANCH  10  11
ATOM     11  C   UNL     1      16.337 -13.958  38.951  1.00  0.00     0.000 C 
BRANCH  11  12
ATOM     12  C   UNL     1      17.204 -14.210  37.704  1.00  0.00     0.006 C 
BRANCH  12  13
ATOM     13  C   UNL     1      17.081 -15.644  37.172  1.00  0.00     0.053 C 
BRANCH  13  14
ATOM     14  C   UNL     1      16.341 -15.661  35.870  1.00  0.00     0.041 C 
ATOM     15  O   UNL     1      16.322 -14.636  35.138  1.00  0.00    -0.550 OA
ATOM     16  O   UNL     1      15.672 -16.809  35.467  1.00  0.00    -0.550 OA
ENDBRANCH  13  14
ENDBRANCH  12  13
ENDBRANCH  11  12
ENDBRANCH  10  11
ENDBRANCH   9  10
ENDBRANCH   8   9
ENDBRANCH   7   8
ENDBRANCH   6   7
ENDBRANCH   5   6
ENDBRANCH   4   5
ENDBRANCH   3   4
ENDBRANCH   2   3
ENDBRANCH   1   2
BRANCH   1  17
ATOM     17  C   UNL     1      13.904 -19.871  40.648  1.00  0.00     0.000 C 
BRANCH  17  18
ATOM     18  C   UNL     1      12.548 -20.552  40.396  1.00  0.00     0.000 C 
BRANCH  18  19
ATOM     19  C   UNL     1      11.841 -20.015  39.138  1.00  0.00     0.000 C 
BRANCH  19  20
ATOM     20  C   UNL     1      11.464 -21.135  38.154  1.00  0.00     0.000 C 
BRANCH  20  21
ATOM     21  C   UNL     1      12.547 -21.367  37.085  1.00  0.00     0.000 C 
BRANCH  21  22
ATOM     22  C   UNL     1      13.302 -22.695  37.276  1.00  0.00    -0.000 C 
BRANCH  22  23
ATOM     23  C   UNL     1      12.672 -23.663  38.294  1.00  0.00    -0.000 C 
BRANCH  23  24
ATOM     24  C   UNL     1      13.579 -23.932  39.504  1.00  0.00    -0.000 C 
BRANCH  24  25
ATOM     25  C   UNL     1      15.014 -23.460  39.233  1.00  0.00    -0.000 C 
BRANCH  25  26
ATOM     26  C   UNL     1      15.970 -24.656  39.108  1.00  0.00    -0.000 C 
BRANCH  26  27
ATOM     27  C   UNL     1      16.614 -24.756  37.716  1.00  0.00    -0.000 C 
BRANCH  27  28
ATOM     28  C   UNL     1      16.208 -26.034  36.968  1.00  0.00    -0.000 C 
BRANCH  28  29
ATOM     29  C   UNL     1      15.332 -26.932  37.851  1.00  0.00    -0.003 C 
ATOM     30  C   UNL     1      13.911 -27.028  37.304  1.00  0.00     0.004 C 
ENDBRANCH  28  29
ENDBRANCH  27  28
ENDBRANCH  26  27
ENDBRANCH  25  26
ENDBRANCH  24  25
ENDBRANCH  23  24
ENDBRANCH  22  23
ENDBRANCH  21  22
ENDBRANCH  20  21
ENDBRANCH  19  20
ENDBRANCH  18  19
ENDBRANCH  17  18
ENDBRANCH   1  17
TORSDOF 26
ENDMDL
MODEL 3
REMARK VINA RESULT:    -4.562      1.423      2.620
REMARK INTER + INTRA:         -15.874
REMARK INTER:                 -10.454
REMARK INTRA:                  -5.421
REMARK UNBOUND:                -4.378
REMARK SMILES CCCCCCCCCCCCCCCCCCCCCCCCCCCC(=O)[O-]
REMARK SMILES IDX 15 1 16 2 17 3 18 4 19 5 20 6 21 7 22 8 23 9 24 10 25 11
REMARK SMILES IDX 26 12 27 13 28 14 29 15 30 16 14 17 13 18 12 19 11 20 10 21
REMARK SMILES IDX 9 22 8 23 7 24 6 25 5 26 4 27 3 28 2 29 1 30
REMARK H PARENT
REMARK Flexibility Score: inf
ROOT
ATOM      1  C   UNL     1      14.857 -18.507  38.043  1.00  0.00     0.000 C 
ENDROOT
BRANCH   1   2
ATOM      2  C   UNL     1      15.362 -18.698  39.482  1.00  0.00     0.000 C 
BRANCH   2   3
ATOM      3  C   UNL     1      14.344 -19.425  40.378  1.00  0.00     0.000 C 
BRANCH   3   4
ATOM      4  C   UNL     1      13.335 -20.255  39.567  1.00  0.00     0.000 C 
BRANCH   4   5
ATOM      5  C   UNL     1      11.883 -19.803  39.795  1.00  0.00     0.000 C 
BRANCH   5   6
ATOM      6  C   UNL     1      11.018 -19.941  38.533  1.00  0.00     0.000 C 
BRANCH   6   7
ATOM      7  C   UNL     1      11.826 -20.392  37.303  1.00  0.00     0.000 C 
BRANCH   7   8
ATOM      8  C   UNL     1      11.351 -21.745  36.743  1.00  0.00     0.000 C 
BRANCH   8   9
ATOM      9  C   UNL     1      10.991 -22.798  37.810  1.00  0.00     0.000 C 
BRANCH   9  10
ATOM     10  C   UNL     1      12.193 -23.552  38.410  1.00  0.00     0.000 C 
BRANCH  10  11
ATOM     11  C   UNL     1      13.352 -23.813  37.429  1.00  0.00     0.000 C 
BRANCH  11  12
ATOM     12  C   UNL     1      14.709 -23.225  37.856  1.00  0.00     0.006 C 
BRANCH  12  13
ATOM     13  C   UNL     1      15.107 -23.616  39.285  1.00  0.00     0.053 C 
BRANCH  13  14
ATOM     14  C   UNL     1      15.945 -24.857  39.278  1.00  0.00     0.041 C 
ATOM     15  O   UNL     1      17.148 -24.812  39.653  1.00  0.00    -0.550 OA
ATOM     16  O   UNL     1      15.399 -26.063  38.859  1.00  0.00    -0.550 OA
ENDBRANCH  13  14
ENDBRANCH  12  13
ENDBRANCH  11  12
ENDBRANCH  10  11
ENDBRANCH   9  10
ENDBRANCH   8   9
ENDBRANCH   7   8
ENDBRANCH   6   7
ENDBRANCH   5   6
ENDBRANCH   4   5
ENDBRANCH   3   4
ENDBRANCH   2   3
ENDBRANCH   1   2
BRANCH   1  17
ATOM     17  C   UNL     1      15.403 -17.224  37.390  1.00  0.00     0.000 C 
BRANCH  17  18
ATOM     18  C   UNL     1      14.365 -16.531  36.492  1.00  0.00     0.000 C 
BRANCH  18  19
ATOM     19  C   UNL     1      12.933 -17.037  36.742  1.00  0.00     0.000 C 
BRANCH  19  20
ATOM     20  C   UNL     1      12.014 -15.942  37.310  1.00  0.00     0.000 C 
BRANCH  20  21
ATOM     21  C   UNL     1      11.517 -16.269  38.729  1.00  0.00     0.000 C 
BRANCH  21  22
ATOM     22  C   UNL     1      12.629 -16.176  39.790  1.00  0.00    -0.000 C 
BRANCH  22  23
ATOM     23  C   UNL     1      13.516 -14.921  39.697  1.00  0.00    -0.000 C 
BRANCH  23  24
ATOM     24  C   UNL     1      14.929 -15.143  40.258  1.00  0.00    -0.000 C 
BRANCH  24  25
ATOM     25  C   UNL     1      15.895 -14.060  39.761  1.00  0.00    -0.000 C 
BRANCH  25  26
ATOM     26  C   UNL     1      15.223 -13.165  38.708  1.00  0.00    -0.000 C 
BRANCH  26  27
ATOM     27  C   UNL     1      15.899 -13.260  37.332  1.00  0.00    -0.000 C 
BRANCH  27  28
ATOM     28  C   UNL     1      17.239 -14.008  37.381  1.00  0.00    -0.000 C 
BRANCH  28  29
ATOM     29  C   UNL     1      17.962 -13.926  36.031  1.00  0.00    -0.003 C 
ATOM     30  C   UNL     1      17.157 -14.609  34.930  1.00  0.00     0.004 C 
ENDBRANCH  28  29
ENDBRANCH  27  28
ENDBRANCH  26  27
ENDBRANCH  25  26
ENDBRANCH  24  25
ENDBRANCH  23  24
ENDBRANCH  22  23
ENDBRANCH  21  22
ENDBRANCH  20  21
ENDBRANCH  19  20
ENDBRANCH  18  19
ENDBRANCH  17  18
ENDBRANCH   1  17
TORSDOF 26
ENDMDL
MODEL 4
REMARK VINA RESULT:    -4.460      1.310      2.444
REMARK INTER + INTRA:         -15.617
REMARK INTER:                 -10.794
REMARK INTRA:                  -4.823
REMARK UNBOUND:                -4.378
REMARK SMILES CCCCCCCCCCCCCCCCCCCCCCCCCCCC(=O)[O-]
REMARK SMILES IDX 15 1 16 2 17 3 18 4 19 5 20 6 21 7 22 8 23 9 24 10 25 11
REMARK SMILES IDX 26 12 27 13 28 14 29 15 30 16 14 17 13 18 12 19 11 20 10 21
REMARK SMILES IDX 9 22 8 23 7 24 6 25 5 26 4 27 3 28 2 29 1 30
REMARK H PARENT
REMARK Flexibility Score: inf
ROOT
ATOM      1  C   UNL     1      12.571 -19.743  36.416  1.00  0.00     0.000 C 
ENDROOT
BRANCH   1   2
ATOM      2  C   UNL     1      11.929 -21.098  36.752  1.00  0.00     0.000 C 
BRANCH   2   3
ATOM      3  C   UNL     1      10.734 -20.969  37.714  1.00  0.00     0.000 C 
BRANCH   3   4
ATOM      4  C   UNL     1      10.921 -21.799  38.996  1.00  0.00     0.000 C 
BRANCH   4   5
ATOM      5  C   UNL     1      10.694 -20.969  40.271  1.00  0.00     0.000 C 
BRANCH   5   6
ATOM      6  C   UNL     1      11.329 -19.572  40.185  1.00  0.00     0.000 C 
BRANCH   6   7
ATOM      7  C   UNL     1      12.711 -19.504  40.861  1.00  0.00     0.000 C 
BRANCH   7   8
ATOM      8  C   UNL     1      13.812 -18.999  39.912  1.00  0.00     0.000 C 
BRANCH   8   9
ATOM      9  C   UNL     1      14.868 -20.054  39.524  1.00  0.00     0.000 C 
BRANCH   9  10
ATOM     10  C   UNL     1      14.501 -21.504  39.890  1.00  0.00     0.000 C 
BRANCH  10  11
ATOM     11  C   UNL     1      14.612 -22.516  38.733  1.00  0.00     0.000 C 
BRANCH  11  12
ATOM     12  C   UNL     1      15.360 -23.817  39.076  1.00  0.00     0.006 C 
BRANCH  12  13
ATOM     13  C   UNL     1      15.911 -24.534  37.836  1.00  0.00     0.053 C 
BRANCH  13  14
ATOM     14  C   UNL     1      16.676 -25.759  38.232  1.00  0.00     0.041 C 
ATOM     15  O   UNL     1      16.114 -26.669  38.899  1.00  0.00    -0.550 OA
ATOM     16  O   UNL     1      18.007 -25.897  37.863  1.00  0.00    -0.550 OA
ENDBRANCH  13  14
ENDBRANCH  12  13
ENDBRANCH  11  12
ENDBRANCH  10  11
ENDBRANCH   9  10
ENDBRANCH   8   9
ENDBRANCH   7   8
ENDBRANCH   6   7
ENDBRANCH   5   6
ENDBRANCH   4   5
ENDBRANCH   3   4
ENDBRANCH   2   3
ENDBRANCH   1   2
BRANCH   1  17
ATOM     17  C   UNL     1      11.611 -18.561  36.640  1.00  0.00     0.000 C 
BRANCH  17  18
ATOM     18  C   UNL     1      12.350 -17.254  36.972  1.00  0.00     0.000 C 
BRANCH  18  19
ATOM     19  C   UNL     1      11.402 -16.044  37.061  1.00  0.00     0.000 C 
BRANCH  19  20
ATOM     20  C   UNL     1      11.761 -15.102  38.222  1.00  0.00     0.000 C 
BRANCH  20  21
ATOM     21  C   UNL     1      12.224 -15.864  39.476  1.00  0.00     0.000 C 
BRANCH  21  22
ATOM     22  C   UNL     1      13.445 -15.216  40.155  1.00  0.00    -0.000 C 
BRANCH  22  23
ATOM     23  C   UNL     1      14.789 -15.450  39.441  1.00  0.00    -0.000 C 
BRANCH  23  24
ATOM     24  C   UNL     1      15.718 -14.228  39.500  1.00  0.00    -0.000 C 
BRANCH  24  25
ATOM     25  C   UNL     1      15.166 -13.075  38.651  1.00  0.00    -0.000 C 
BRANCH  25  26
ATOM     26  C   UNL     1      14.940 -13.522  37.198  1.00  0.00    -0.000 C 
BRANCH  26  27
ATOM     27  C   UNL     1      16.141 -13.218  36.290  1.00  0.00    -0.000 C 
BRANCH  27  28
ATOM     28  C   UNL     1      16.604 -14.445  35.491  1.00  0.00    -0.000 C 
BRANCH  28  29
ATOM     29  C   UNL     1      15.777 -15.682  35.859  1.00  0.00    -0.003 C 
ATOM     30  C   UNL     1      16.649 -16.762  36.492  1.00  0.00     0.004 C 
ENDBRANCH  28  29
ENDBRANCH  27  28
ENDBRANCH  26  27
ENDBRANCH  25  26
ENDBRANCH  24  25
ENDBRANCH  23  24
ENDBRANCH  22  23
ENDBRANCH  21  22
ENDBRANCH  20  21
ENDBRANCH  19  20
ENDBRANCH  18  19
ENDBRANCH  17  18
ENDBRANCH   1  17
TORSDOF 26
ENDMDL
MODEL 5
REMARK VINA RESULT:    -4.434      1.422      2.159
REMARK INTER + INTRA:         -15.551
REMARK INTER:                 -11.212
REMARK INTRA:                  -4.339
REMARK UNBOUND:                -4.378
REMARK SMILES CCCCCCCCCCCCCCCCCCCCCCCCCCCC(=O)[O-]
REMARK SMILES IDX 15 1 16 2 17 3 18 4 19 5 20 6 21 7 22 8 23 9 24 10 25 11
REMARK SMILES IDX 26 12 27 13 28 14 29 15 30 16 14 17 13 18 12 19 11 20 10 21
REMARK SMILES IDX 9 22 8 23 7 24 6 25 5 26 4 27 3 28 2 29 1 30
REMARK H PARENT
REMARK Flexibility Score: inf
ROOT
ATOM      1  C   UNL     1      14.288 -16.819  37.047  1.00  0.00     0.000 C 
ENDROOT
BRANCH   1   2
ATOM      2  C   UNL     1      13.053 -17.554  36.502  1.00  0.00     0.000 C 
BRANCH   2   3
ATOM      3  C   UNL     1      13.025 -19.042  36.892  1.00  0.00     0.000 C 
BRANCH   3   4
ATOM      4  C   UNL     1      11.593 -19.593  37.003  1.00  0.00     0.000 C 
BRANCH   4   5
ATOM      5  C   UNL     1      11.565 -21.107  37.273  1.00  0.00     0.000 C 
BRANCH   5   6
ATOM      6  C   UNL     1      10.870 -21.456  38.598  1.00  0.00     0.000 C 
BRANCH   6   7
ATOM      7  C   UNL     1      11.122 -20.409  39.698  1.00  0.00     0.000 C 
BRANCH   7   8
ATOM      8  C   UNL     1      12.128 -20.891  40.758  1.00  0.00     0.000 C 
BRANCH   8   9
ATOM      9  C   UNL     1      13.483 -20.154  40.749  1.00  0.00     0.000 C 
BRANCH   9  10
ATOM     10  C   UNL     1      14.547 -20.764  39.816  1.00  0.00     0.000 C 
BRANCH  10  11
ATOM     11  C   UNL     1      14.456 -22.291  39.635  1.00  0.00     0.000 C 
BRANCH  11  12
ATOM     12  C   UNL     1      14.786 -22.798  38.219  1.00  0.00     0.006 C 
BRANCH  12  13
ATOM     13  C   UNL     1      13.913 -23.985  37.791  1.00  0.00     0.053 C 
BRANCH  13  14
ATOM     14  C   UNL     1      14.714 -24.971  36.999  1.00  0.00     0.041 C 
ATOM     15  O   UNL     1      14.134 -25.854  36.311  1.00  0.00    -0.550 OA
ATOM     16  O   UNL     1      16.101 -24.915  37.020  1.00  0.00    -0.550 OA
ENDBRANCH  13  14
ENDBRANCH  12  13
ENDBRANCH  11  12
ENDBRANCH  10  11
ENDBRANCH   9  10
ENDBRANCH   8   9
ENDBRANCH   7   8
ENDBRANCH   6   7
ENDBRANCH   5   6
ENDBRANCH   4   5
ENDBRANCH   3   4
ENDBRANCH   2   3
ENDBRANCH   1   2
BRANCH   1  17
ATOM     17  C   UNL     1      14.761 -17.382  38.400  1.00  0.00     0.000 C 
BRANCH  17  18
ATOM     18  C   UNL     1      14.363 -16.485  39.584  1.00  0.00     0.000 C 
BRANCH  18  19
ATOM     19  C   UNL     1      12.893 -16.673  40.001  1.00  0.00     0.000 C 
BRANCH  19  20
ATOM     20  C   UNL     1      12.123 -15.342  40.050  1.00  0.00     0.000 C 
BRANCH  20  21
ATOM     21  C   UNL     1      11.804 -14.796  38.648  1.00  0.00     0.000 C 
BRANCH  21  22
ATOM     22  C   UNL     1      12.127 -13.298  38.501  1.00  0.00    -0.000 C 
BRANCH  22  23
ATOM     23  C   UNL     1      13.379 -12.979  37.664  1.00  0.00    -0.000 C 
BRANCH  23  24
ATOM     24  C   UNL     1      14.677 -13.033  38.484  1.00  0.00    -0.000 C 
BRANCH  24  25
ATOM     25  C   UNL     1      15.908 -12.961  37.572  1.00  0.00    -0.000 C 
BRANCH  25  26
ATOM     26  C   UNL     1      16.699 -14.277  37.610  1.00  0.00    -0.000 C 
BRANCH  26  27
ATOM     27  C   UNL     1      17.963 -14.235  36.739  1.00  0.00    -0.000 C 
BRANCH  27  28
ATOM     28  C   UNL     1      17.656 -13.934  35.264  1.00  0.00    -0.000 C 
BRANCH  28  29
ATOM     29  C   UNL     1      18.899 -13.398  34.544  1.00  0.00    -0.003 C 
ATOM     30  C   UNL     1      18.977 -13.921  33.113  1.00  0.00     0.004 C 
ENDBRANCH  28  29
ENDBRANCH  27  28
ENDBRANCH  26  27
ENDBRANCH  25  26
ENDBRANCH  24  25
ENDBRANCH  23  24
ENDBRANCH  22  23
ENDBRANCH  21  22
ENDBRANCH  20  21
ENDBRANCH  19  20
ENDBRANCH  18  19
ENDBRANCH  17  18
ENDBRANCH   1  17
TORSDOF 26
ENDMDL
MODEL 6
REMARK VINA RESULT:    -4.431      3.266      8.460
REMARK INTER + INTRA:         -15.544
REMARK INTER:                 -10.810
REMARK INTRA:                  -4.734
REMARK UNBOUND:                -4.378
REMARK SMILES CCCCCCCCCCCCCCCCCCCCCCCCCCCC(=O)[O-]
REMARK SMILES IDX 15 1 16 2 17 3 18 4 19 5 20 6 21 7 22 8 23 9 24 10 25 11
REMARK SMILES IDX 26 12 27 13 28 14 29 15 30 16 14 17 13 18 12 19 11 20 10 21
REMARK SMILES IDX 9 22 8 23 7 24 6 25 5 26 4 27 3 28 2 29 1 30
REMARK H PARENT
REMARK Flexibility Score: inf
ROOT
ATOM      1  C   UNL     1      15.434 -16.676  38.968  1.00  0.00     0.000 C 
ENDROOT
BRANCH   1   2
ATOM      2  C   UNL     1      15.587 -17.033  37.481  1.00  0.00     0.000 C 
BRANCH   2   3
ATOM      3  C   UNL     1      14.409 -16.535  36.625  1.00  0.00     0.000 C 
BRANCH   3   4
ATOM      4  C   UNL     1      13.280 -17.574  36.520  1.00  0.00     0.000 C 
BRANCH   4   5
ATOM      5  C   UNL     1      11.923 -17.014  36.981  1.00  0.00     0.000 C 
BRANCH   5   6
ATOM      6  C   UNL     1      11.686 -17.210  38.487  1.00  0.00     0.000 C 
BRANCH   6   7
ATOM      7  C   UNL     1      11.204 -15.926  39.186  1.00  0.00     0.000 C 
BRANCH   7   8
ATOM      8  C   UNL     1      12.249 -14.797  39.141  1.00  0.00     0.000 C 
BRANCH   8   9
ATOM      9  C   UNL     1      12.017 -13.741  38.042  1.00  0.00     0.000 C 
BRANCH   9  10
ATOM     10  C   UNL     1      13.196 -12.777  37.808  1.00  0.00     0.000 C 
BRANCH  10  11
ATOM     11  C   UNL     1      14.540 -13.236  38.407  1.00  0.00     0.000 C 
BRANCH  11  12
ATOM     12  C   UNL     1      15.789 -12.731  37.662  1.00  0.00     0.006 C 
BRANCH  12  13
ATOM     13  C   UNL     1      15.842 -13.197  36.201  1.00  0.00     0.053 C 
BRANCH  13  14
ATOM     14  C   UNL     1      17.070 -14.018  35.953  1.00  0.00     0.041 C 
ATOM     15  O   UNL     1      17.340 -14.420  34.790  1.00  0.00    -0.550 OA
ATOM     16  O   UNL     1      17.917 -14.336  37.006  1.00  0.00    -0.550 OA
ENDBRANCH  13  14
ENDBRANCH  12  13
ENDBRANCH  11  12
ENDBRANCH  10  11
ENDBRANCH   9  10
ENDBRANCH   8   9
ENDBRANCH   7   8
ENDBRANCH   6   7
ENDBRANCH   5   6
ENDBRANCH   4   5
ENDBRANCH   3   4
ENDBRANCH   2   3
ENDBRANCH   1   2
BRANCH   1  17
ATOM     17  C   UNL     1      14.959 -17.869  39.817  1.00  0.00     0.000 C 
BRANCH  17  18
ATOM     18  C   UNL     1      15.433 -19.219  39.255  1.00  0.00     0.000 C 
BRANCH  18  19
ATOM     19  C   UNL     1      14.708 -20.416  39.898  1.00  0.00     0.000 C 
BRANCH  19  20
ATOM     20  C   UNL     1      13.282 -20.062  40.352  1.00  0.00     0.000 C 
BRANCH  20  21
ATOM     21  C   UNL     1      12.206 -20.717  39.469  1.00  0.00     0.000 C 
BRANCH  21  22
ATOM     22  C   UNL     1      12.607 -20.783  37.984  1.00  0.00    -0.000 C 
BRANCH  22  23
ATOM     23  C   UNL     1      12.309 -22.123  37.287  1.00  0.00    -0.000 C 
BRANCH  23  24
ATOM     24  C   UNL     1      13.506 -23.085  37.303  1.00  0.00    -0.000 C 
BRANCH  24  25
ATOM     25  C   UNL     1      13.196 -24.335  38.137  1.00  0.00    -0.000 C 
BRANCH  25  26
ATOM     26  C   UNL     1      14.097 -24.404  39.380  1.00  0.00    -0.000 C 
BRANCH  26  27
ATOM     27  C   UNL     1      15.536 -23.949  39.094  1.00  0.00    -0.000 C 
BRANCH  27  28
ATOM     28  C   UNL     1      16.584 -24.966  39.570  1.00  0.00    -0.000 C 
BRANCH  28  29
ATOM     29  C   UNL     1      17.093 -25.816  38.400  1.00  0.00    -0.003 C 
ATOM     30  C   UNL     1      16.926 -25.084  37.071  1.00  0.00     0.004 C 
ENDBRANCH  28  29
ENDBRANCH  27  28
ENDBRANCH  26  27
ENDBRANCH  25  26
ENDBRANCH  24  25
ENDBRANCH  23  24
ENDBRANCH  22  23
ENDBRANCH  21  22
ENDBRANCH  20  21
ENDBRANCH  19  20
ENDBRANCH  18  19
ENDBRANCH  17  18
ENDBRANCH   1  17
TORSDOF 26
ENDMDL
MODEL 7
REMARK VINA RESULT:    -4.405      1.538      2.792
REMARK INTER + INTRA:         -15.479
REMARK INTER:                 -10.410
REMARK INTRA:                  -5.069
REMARK UNBOUND:                -4.378
REMARK SMILES CCCCCCCCCCCCCCCCCCCCCCCCCCCC(=O)[O-]
REMARK SMILES IDX 15 1 16 2 17 3 18 4 19 5 20 6 21 7 22 8 23 9 24 10 25 11
REMARK SMILES IDX 26 12 27 13 28 14 29 15 30 16 14 17 13 18 12 19 11 20 10 21
REMARK SMILES IDX 9 22 8 23 7 24 6 25 5 26 4 27 3 28 2 29 1 30
REMARK H PARENT
REMARK Flexibility Score: inf
ROOT
ATOM      1  C   UNL     1      11.986 -17.061  36.826  1.00  0.00     0.000 C 
ENDROOT
BRANCH   1   2
ATOM      2  C   UNL     1      13.258 -17.924  36.852  1.00  0.00     0.000 C 
BRANCH   2   3
ATOM      3  C   UNL     1      13.131 -19.144  37.782  1.00  0.00     0.000 C 
BRANCH   3   4
ATOM      4  C   UNL     1      14.181 -19.137  38.905  1.00  0.00     0.000 C 
BRANCH   4   5
ATOM      5  C   UNL     1      13.545 -19.093  40.305  1.00  0.00     0.000 C 
BRANCH   5   6
ATOM      6  C   UNL     1      13.245 -20.495  40.860  1.00  0.00     0.000 C 
BRANCH   6   7
ATOM      7  C   UNL     1      11.746 -20.723  41.124  1.00  0.00     0.000 C 
BRANCH   7   8
ATOM      8  C   UNL     1      10.952 -21.008  39.836  1.00  0.00     0.000 C 
BRANCH   8   9
ATOM      9  C   UNL     1      11.156 -22.418  39.247  1.00  0.00     0.000 C 
BRANCH   9  10
ATOM     10  C   UNL     1      11.752 -22.448  37.826  1.00  0.00     0.000 C 
BRANCH  10  11
ATOM     11  C   UNL     1      12.980 -23.363  37.654  1.00  0.00     0.000 C 
BRANCH  11  12
ATOM     12  C   UNL     1      14.296 -22.796  38.216  1.00  0.00     0.006 C 
BRANCH  12  13
ATOM     13  C   UNL     1      14.893 -23.666  39.330  1.00  0.00     0.053 C 
BRANCH  13  14
ATOM     14  C   UNL     1      15.934 -24.590  38.777  1.00  0.00     0.041 C 
ATOM     15  O   UNL     1      16.323 -25.582  39.450  1.00  0.00    -0.550 OA
ATOM     16  O   UNL     1      16.472 -24.357  37.519  1.00  0.00    -0.550 OA
ENDBRANCH  13  14
ENDBRANCH  12  13
ENDBRANCH  11  12
ENDBRANCH  10  11
ENDBRANCH   9  10
ENDBRANCH   8   9
ENDBRANCH   7   8
ENDBRANCH   6   7
ENDBRANCH   5   6
ENDBRANCH   4   5
ENDBRANCH   3   4
ENDBRANCH   2   3
ENDBRANCH   1   2
BRANCH   1  17
ATOM     17  C   UNL     1      10.938 -17.521  37.855  1.00  0.00     0.000 C 
BRANCH  17  18
ATOM     18  C   UNL     1      10.978 -16.692  39.150  1.00  0.00     0.000 C 
BRANCH  18  19
ATOM     19  C   UNL     1      11.829 -15.417  39.011  1.00  0.00     0.000 C 
BRANCH  19  20
ATOM     20  C   UNL     1      13.017 -15.396  39.986  1.00  0.00     0.000 C 
BRANCH  20  21
ATOM     21  C   UNL     1      14.372 -15.501  39.265  1.00  0.00     0.000 C 
BRANCH  21  22
ATOM     22  C   UNL     1      15.501 -14.753  39.997  1.00  0.00    -0.000 C 
BRANCH  22  23
ATOM     23  C   UNL     1      16.115 -13.575  39.219  1.00  0.00    -0.000 C 
BRANCH  23  24
ATOM     24  C   UNL     1      15.125 -12.919  38.245  1.00  0.00    -0.000 C 
BRANCH  24  25
ATOM     25  C   UNL     1      15.736 -12.783  36.845  1.00  0.00    -0.000 C 
BRANCH  25  26
ATOM     26  C   UNL     1      16.610 -14.001  36.507  1.00  0.00    -0.000 C 
BRANCH  26  27
ATOM     27  C   UNL     1      15.829 -15.108  35.782  1.00  0.00    -0.000 C 
BRANCH  27  28
ATOM     28  C   UNL     1      16.541 -16.468  35.839  1.00  0.00    -0.000 C 
BRANCH  28  29
ATOM     29  C   UNL     1      17.307 -16.631  37.157  1.00  0.00    -0.003 C 
ATOM     30  C   UNL     1      17.198 -18.057  37.688  1.00  0.00     0.004 C 
ENDBRANCH  28  29
ENDBRANCH  27  28
ENDBRANCH  26  27
ENDBRANCH  25  26
ENDBRANCH  24  25
ENDBRANCH  23  24
ENDBRANCH  22  23
ENDBRANCH  21  22
ENDBRANCH  20  21
ENDBRANCH  19  20
ENDBRANCH  18  19
ENDBRANCH  17  18
ENDBRANCH   1  17
TORSDOF 26
ENDMDL
MODEL 8
REMARK VINA RESULT:    -4.336      1.361      3.062
REMARK INTER + INTRA:         -15.304
REMARK INTER:                 -10.563
REMARK INTRA:                  -4.742
REMARK UNBOUND:                -4.378
REMARK SMILES CCCCCCCCCCCCCCCCCCCCCCCCCCCC(=O)[O-]
REMARK SMILES IDX 15 1 16 2 17 3 18 4 19 5 20 6 21 7 22 8 23 9 24 10 25 11
REMARK SMILES IDX 26 12 27 13 28 14 29 15 30 16 14 17 13 18 12 19 11 20 10 21
REMARK SMILES IDX 9 22 8 23 7 24 6 25 5 26 4 27 3 28 2 29 1 30
REMARK H PARENT
REMARK Flexibility Score: inf
ROOT
ATOM      1  C   UNL     1      12.422 -17.436  37.245  1.00  0.00     0.000 C 
ENDROOT
BRANCH   1   2
ATOM      2  C   UNL     1      12.492 -18.739  36.434  1.00  0.00     0.000 C 
BRANCH   2   3
ATOM      3  C   UNL     1      11.182 -19.546  36.490  1.00  0.00     0.000 C 
BRANCH   3   4
ATOM      4  C   UNL     1      11.396 -20.975  37.016  1.00  0.00     0.000 C 
BRANCH   4   5
ATOM      5  C   UNL     1      12.884 -21.349  37.115  1.00  0.00     0.000 C 
BRANCH   5   6
ATOM      6  C   UNL     1      13.346 -21.548  38.567  1.00  0.00     0.000 C 
BRANCH   6   7
ATOM      7  C   UNL     1      12.179 -21.536  39.571  1.00  0.00     0.000 C 
BRANCH   7   8
ATOM      8  C   UNL     1      12.043 -22.862  40.341  1.00  0.00     0.000 C 
BRANCH   8   9
ATOM      9  C   UNL     1      12.271 -24.130  39.494  1.00  0.00     0.000 C 
BRANCH   9  10
ATOM     10  C   UNL     1      13.379 -25.066  40.013  1.00  0.00     0.000 C 
BRANCH  10  11
ATOM     11  C   UNL     1      14.572 -25.256  39.056  1.00  0.00     0.000 C 
BRANCH  11  12
ATOM     12  C   UNL     1      15.746 -24.285  39.280  1.00  0.00     0.006 C 
BRANCH  12  13
ATOM     13  C   UNL     1      17.091 -25.004  39.453  1.00  0.00     0.053 C 
BRANCH  13  14
ATOM     14  C   UNL     1      17.539 -25.603  38.156  1.00  0.00     0.041 C 
ATOM     15  O   UNL     1      17.772 -24.863  37.163  1.00  0.00    -0.550 OA
ATOM     16  O   UNL     1      17.702 -26.977  38.045  1.00  0.00    -0.550 OA
ENDBRANCH  13  14
ENDBRANCH  12  13
ENDBRANCH  11  12
ENDBRANCH  10  11
ENDBRANCH   9  10
ENDBRANCH   8   9
ENDBRANCH   7   8
ENDBRANCH   6   7
ENDBRANCH   5   6
ENDBRANCH   4   5
ENDBRANCH   3   4
ENDBRANCH   2   3
ENDBRANCH   1   2
BRANCH   1  17
ATOM     17  C   UNL     1      11.871 -17.652  38.666  1.00  0.00     0.000 C 
BRANCH  17  18
ATOM     18  C   UNL     1      12.866 -17.222  39.757  1.00  0.00     0.000 C 
BRANCH  18  19
ATOM     19  C   UNL     1      13.932 -18.295  40.043  1.00  0.00     0.000 C 
BRANCH  19  20
ATOM     20  C   UNL     1      15.349 -17.828  39.671  1.00  0.00     0.000 C 
BRANCH  20  21
ATOM     21  C   UNL     1      15.816 -18.388  38.316  1.00  0.00     0.000 C 
BRANCH  21  22
ATOM     22  C   UNL     1      16.700 -17.402  37.531  1.00  0.00    -0.000 C 
BRANCH  22  23
ATOM     23  C   UNL     1      16.054 -16.812  36.265  1.00  0.00    -0.000 C 
BRANCH  23  24
ATOM     24  C   UNL     1      16.802 -15.583  35.727  1.00  0.00    -0.000 C 
BRANCH  24  25
ATOM     25  C   UNL     1      17.536 -14.848  36.856  1.00  0.00    -0.000 C 
BRANCH  25  26
ATOM     26  C   UNL     1      16.661 -13.729  37.442  1.00  0.00    -0.000 C 
BRANCH  26  27
ATOM     27  C   UNL     1      16.298 -13.971  38.915  1.00  0.00    -0.000 C 
BRANCH  27  28
ATOM     28  C   UNL     1      14.806 -14.276  39.114  1.00  0.00    -0.000 C 
BRANCH  28  29
ATOM     29  C   UNL     1      14.013 -13.992  37.833  1.00  0.00    -0.003 C 
ATOM     30  C   UNL     1      12.719 -13.242  38.138  1.00  0.00     0.004 C 
ENDBRANCH  28  29
ENDBRANCH  27  28
ENDBRANCH  26  27
ENDBRANCH  25  26
ENDBRANCH  24  25
ENDBRANCH  23  24
ENDBRANCH  22  23
ENDBRANCH  21  22
ENDBRANCH  20  21
ENDBRANCH  19  20
ENDBRANCH  18  19
ENDBRANCH  17  18
ENDBRANCH   1  17
TORSDOF 26
ENDMDL
MODEL 9
REMARK VINA RESULT:    -4.320      2.907      8.553
REMARK INTER + INTRA:         -15.264
REMARK INTER:                 -10.564
REMARK INTRA:                  -4.700
REMARK UNBOUND:                -4.378
REMARK SMILES CCCCCCCCCCCCCCCCCCCCCCCCCCCC(=O)[O-]
REMARK SMILES IDX 15 1 16 2 17 3 18 4 19 5 20 6 21 7 22 8 23 9 24 10 25 11
REMARK SMILES IDX 26 12 27 13 28 14 29 15 30 16 14 17 13 18 12 19 11 20 10 21
REMARK SMILES IDX 9 22 8 23 7 24 6 25 5 26 4 27 3 28 2 29 1 30
REMARK H PARENT
REMARK Flexibility Score: inf
ROOT
ATOM      1  C   UNL     1      10.737 -19.980  39.481  1.00  0.00     0.000 C 
ENDROOT
BRANCH   1   2
ATOM      2  C   UNL     1      10.662 -18.880  38.410  1.00  0.00     0.000 C 
BRANCH   2   3
ATOM      3  C   UNL     1      11.505 -19.205  37.164  1.00  0.00     0.000 C 
BRANCH   3   4
ATOM      4  C   UNL     1      12.922 -18.611  37.243  1.00  0.00     0.000 C 
BRANCH   4   5
ATOM      5  C   UNL     1      13.033 -17.257  36.521  1.00  0.00     0.000 C 
BRANCH   5   6
ATOM      6  C   UNL     1      13.263 -16.089  37.492  1.00  0.00     0.000 C 
BRANCH   6   7
ATOM      7  C   UNL     1      13.533 -16.556  38.934  1.00  0.00     0.000 C 
BRANCH   7   8
ATOM      8  C   UNL     1      13.780 -15.386  39.902  1.00  0.00     0.000 C 
BRANCH   8   9
ATOM      9  C   UNL     1      15.245 -15.210  40.348  1.00  0.00     0.000 C 
BRANCH   9  10
ATOM     10  C   UNL     1      15.918 -13.909  39.871  1.00  0.00     0.000 C 
BRANCH  10  11
ATOM     11  C   UNL     1      15.208 -13.200  38.700  1.00  0.00     0.000 C 
BRANCH  11  12
ATOM     12  C   UNL     1      15.923 -13.316  37.341  1.00  0.00     0.006 C 
BRANCH  12  13
ATOM     13  C   UNL     1      17.087 -14.315  37.363  1.00  0.00     0.053 C 
BRANCH  13  14
ATOM     14  C   UNL     1      16.744 -15.542  36.577  1.00  0.00     0.041 C 
ATOM     15  O   UNL     1      16.116 -15.444  35.489  1.00  0.00    -0.550 OA
ATOM     16  O   UNL     1      17.119 -16.795  37.045  1.00  0.00    -0.550 OA
ENDBRANCH  13  14
ENDBRANCH  12  13
ENDBRANCH  11  12
ENDBRANCH  10  11
ENDBRANCH   9  10
ENDBRANCH   8   9
ENDBRANCH   7   8
ENDBRANCH   6   7
ENDBRANCH   5   6
ENDBRANCH   4   5
ENDBRANCH   3   4
ENDBRANCH   2   3
ENDBRANCH   1   2
BRANCH   1  17
ATOM     17  C   UNL     1      11.448 -19.510  40.763  1.00  0.00     0.000 C 
BRANCH  17  18
ATOM     18  C   UNL     1      12.689 -20.355  41.093  1.00  0.00     0.000 C 
BRANCH  18  19
ATOM     19  C   UNL     1      14.002 -19.668  40.675  1.00  0.00     0.000 C 
BRANCH  19  20
ATOM     20  C   UNL     1      14.773 -20.472  39.615  1.00  0.00     0.000 C 
BRANCH  20  21
ATOM     21  C   UNL     1      14.246 -21.910  39.470  1.00  0.00     0.000 C 
BRANCH  21  22
ATOM     22  C   UNL     1      13.586 -22.172  38.104  1.00  0.00    -0.000 C 
BRANCH  22  23
ATOM     23  C   UNL     1      12.298 -23.014  38.152  1.00  0.00    -0.000 C 
BRANCH  23  24
ATOM     24  C   UNL     1      12.457 -24.305  38.971  1.00  0.00    -0.000 C 
BRANCH  24  25
ATOM     25  C   UNL     1      12.063 -25.534  38.143  1.00  0.00    -0.000 C 
BRANCH  25  26
ATOM     26  C   UNL     1      13.301 -26.361  37.763  1.00  0.00    -0.000 C 
BRANCH  26  27
ATOM     27  C   UNL     1      14.230 -25.623  36.787  1.00  0.00    -0.000 C 
BRANCH  27  28
ATOM     28  C   UNL     1      15.717 -25.861  37.090  1.00  0.00    -0.000 C 
BRANCH  28  29
ATOM     29  C   UNL     1      16.324 -24.664  37.832  1.00  0.00    -0.003 C 
ATOM     30  C   UNL     1      16.374 -24.915  39.336  1.00  0.00     0.004 C 
ENDBRANCH  28  29
ENDBRANCH  27  28
ENDBRANCH  26  27
ENDBRANCH  25  26
ENDBRANCH  24  25
ENDBRANCH  23  24
ENDBRANCH  22  23
ENDBRANCH  21  22
ENDBRANCH  20  21
ENDBRANCH  19  20
ENDBRANCH  18  19
ENDBRANCH  17  18
ENDBRANCH   1  17
TORSDOF 26
ENDMDL
