MODEL 1
REMARK VINA RESULT:    -6.957      0.000      0.000
REMARK INTER + INTRA:          -8.592
REMARK INTER:                  -8.583
REMARK INTRA:                  -0.008
REMARK UNBOUND:                -0.008
REMARK SMILES Oc1cc(O)c2cc(O)c(-c3cc(O)c(O)c(O)c3)[o+]c2c1
REMARK SMILES IDX 10 1 20 2 21 3 22 4 2 5 3 6 4 7 6 8 7 9 8 10 11 11 12 12
REMARK SMILES IDX 13 13 19 14 15 15 17 16 14 17 16 19 18 21 9 23 1 25 5 27
REMARK H PARENT 14 18 16 20 18 22 9 24 1 26 5 28
REMARK Flexibility Score: inf
ROOT
ATOM      1  C   UNL     1     -21.716  34.705 -38.081  1.00  0.00     0.402 A 
ATOM      2  O   UNL     1     -21.556  33.758 -39.002  1.00  0.00    -0.202 OA
ATOM      3  C   UNL     1     -21.861  32.481 -38.796  1.00  0.00     0.368 A 
ATOM      4  C   UNL     1     -21.660  31.559 -39.827  1.00  0.00     0.162 A 
ATOM      5  C   UNL     1     -21.975  30.210 -39.638  1.00  0.00     0.128 A 
ATOM      6  C   UNL     1     -22.494  29.782 -38.415  1.00  0.00     0.093 A 
ATOM      7  C   UNL     1     -22.706  30.686 -37.366  1.00  0.00     0.136 A 
ATOM      8  C   UNL     1     -22.384  32.055 -37.551  1.00  0.00     0.125 A 
ATOM      9  C   UNL     1     -22.550  33.030 -36.552  1.00  0.00     0.078 A 
ATOM     10  C   UNL     1     -22.207  34.360 -36.808  1.00  0.00     0.223 A 
ENDROOT
BRANCH   1  11
ATOM     11  C   UNL     1     -21.349  36.095 -38.435  1.00  0.00     0.091 A 
ATOM     12  C   UNL     1     -20.567  36.886 -37.576  1.00  0.00     0.068 A 
ATOM     13  C   UNL     1     -20.248  38.208 -37.919  1.00  0.00     0.162 A 
ATOM     14  C   UNL     1     -21.836  36.656 -39.626  1.00  0.00     0.068 A 
ATOM     15  C   UNL     1     -20.719  38.754 -39.120  1.00  0.00     0.200 A 
ATOM     16  C   UNL     1     -21.520  37.977 -39.975  1.00  0.00     0.162 A 
BRANCH  13  17
ATOM     17  O   UNL     1     -19.467  38.987 -37.067  1.00  0.00    -0.504 OA
ATOM     18  H   UNL     1     -18.996  38.586 -36.264  1.00  0.00     0.293 HD
ENDBRANCH  13  17
BRANCH  15  19
ATOM     19  O   UNL     1     -20.389  40.069 -39.446  1.00  0.00    -0.502 OA
ATOM     20  H   UNL     1     -19.438  40.415 -39.391  1.00  0.00     0.293 HD
ENDBRANCH  15  19
BRANCH  16  21
ATOM     21  O   UNL     1     -21.997  38.519 -41.166  1.00  0.00    -0.504 OA
ATOM     22  H   UNL     1     -22.959  38.389 -41.462  1.00  0.00     0.293 HD
ENDBRANCH  16  21
ENDBRANCH   1  11
BRANCH  10  23
ATOM     23  O   UNL     1     -22.324  35.319 -35.801  1.00  0.00    -0.500 OA
ATOM     24  H   UNL     1     -22.171  36.304 -35.983  1.00  0.00     0.294 HD
ENDBRANCH  10  23
BRANCH   5  25
ATOM     25  O   UNL     1     -21.777  29.286 -40.661  1.00  0.00    -0.507 OA
ATOM     26  H   UNL     1     -21.051  29.412 -41.356  1.00  0.00     0.293 HD
ENDBRANCH   5  25
BRANCH   7  27
ATOM     27  O   UNL     1     -23.231  30.178 -36.175  1.00  0.00    -0.507 OA
ATOM     28  H   UNL     1     -23.387  30.726 -35.341  1.00  0.00     0.293 HD
ENDBRANCH   7  27
TORSDOF 7
ENDMDL
MODEL 2
REMARK VINA RESULT:    -6.883      0.074      1.790
REMARK INTER + INTRA:          -8.501
REMARK INTER:                  -8.519
REMARK INTRA:                   0.017
REMARK UNBOUND:                -0.008
REMARK SMILES Oc1cc(O)c2cc(O)c(-c3cc(O)c(O)c(O)c3)[o+]c2c1
REMARK SMILES IDX 10 1 20 2 21 3 22 4 2 5 3 6 4 7 6 8 7 9 8 10 11 11 12 12
REMARK SMILES IDX 13 13 19 14 15 15 17 16 14 17 16 19 18 21 9 23 1 25 5 27
REMARK H PARENT 14 18 16 20 18 22 9 24 1 26 5 28
REMARK Flexibility Score: inf
ROOT
ATOM      1  C   UNL     1     -21.722  34.750 -38.089  1.00  0.00     0.402 A 
ATOM      2  O   UNL     1     -21.568  33.808 -39.018  1.00  0.00    -0.202 OA
ATOM      3  C   UNL     1     -21.836  32.524 -38.806  1.00  0.00     0.368 A 
ATOM      4  C   UNL     1     -21.645  31.609 -39.845  1.00  0.00     0.162 A 
ATOM      5  C   UNL     1     -21.922  30.253 -39.650  1.00  0.00     0.128 A 
ATOM      6  C   UNL     1     -22.392  29.810 -38.412  1.00  0.00     0.093 A 
ATOM      7  C   UNL     1     -22.593  30.707 -37.355  1.00  0.00     0.136 A 
ATOM      8  C   UNL     1     -22.310  32.084 -37.546  1.00  0.00     0.125 A 
ATOM      9  C   UNL     1     -22.468  33.052 -36.540  1.00  0.00     0.078 A 
ATOM     10  C   UNL     1     -22.165  34.391 -36.803  1.00  0.00     0.223 A 
ENDROOT
BRANCH   1  11
ATOM     11  C   UNL     1     -21.398  36.148 -38.451  1.00  0.00     0.091 A 
ATOM     12  C   UNL     1     -21.845  36.715 -39.657  1.00  0.00     0.068 A 
ATOM     13  C   UNL     1     -21.509  38.034 -39.991  1.00  0.00     0.162 A 
ATOM     14  C   UNL     1     -20.582  36.910 -37.600  1.00  0.00     0.068 A 
ATOM     15  C   UNL     1     -20.712  38.796 -39.126  1.00  0.00     0.200 A 
ATOM     16  C   UNL     1     -20.243  38.230 -37.928  1.00  0.00     0.162 A 
BRANCH  13  17
ATOM     17  O   UNL     1     -21.959  38.594 -41.185  1.00  0.00    -0.504 OA
ATOM     18  H   UNL     1     -22.542  38.072 -41.830  1.00  0.00     0.293 HD
ENDBRANCH  13  17
BRANCH  15  19
ATOM     19  O   UNL     1     -20.391  40.108 -39.474  1.00  0.00    -0.502 OA
ATOM     20  H   UNL     1     -19.590  40.331 -40.053  1.00  0.00     0.293 HD
ENDBRANCH  15  19
BRANCH  16  21
ATOM     21  O   UNL     1     -19.444  38.981 -37.069  1.00  0.00    -0.504 OA
ATOM     22  H   UNL     1     -18.463  38.764 -36.929  1.00  0.00     0.293 HD
ENDBRANCH  16  21
ENDBRANCH   1  11
BRANCH  10  23
ATOM     23  O   UNL     1     -22.274  35.344 -35.790  1.00  0.00    -0.500 OA
ATOM     24  H   UNL     1     -22.931  36.113 -35.851  1.00  0.00     0.294 HD
ENDBRANCH  10  23
BRANCH   5  25
ATOM     25  O   UNL     1     -21.734  29.336 -40.681  1.00  0.00    -0.507 OA
ATOM     26  H   UNL     1     -21.542  29.636 -41.630  1.00  0.00     0.293 HD
ENDBRANCH   5  25
BRANCH   7  27
ATOM     27  O   UNL     1     -23.069  30.184 -36.150  1.00  0.00    -0.507 OA
ATOM     28  H   UNL     1     -22.521  30.108 -35.305  1.00  0.00     0.293 HD
ENDBRANCH   7  27
TORSDOF 7
ENDMDL
MODEL 3
REMARK VINA RESULT:    -6.826      3.895      8.083
REMARK INTER + INTRA:          -8.431
REMARK INTER:                  -8.106
REMARK INTRA:                  -0.325
REMARK UNBOUND:                -0.008
REMARK SMILES Oc1cc(O)c2cc(O)c(-c3cc(O)c(O)c(O)c3)[o+]c2c1
REMARK SMILES IDX 10 1 20 2 21 3 22 4 2 5 3 6 4 7 6 8 7 9 8 10 11 11 12 12
REMARK SMILES IDX 13 13 19 14 15 15 17 16 14 17 16 19 18 21 9 23 1 25 5 27
REMARK H PARENT 14 18 16 20 18 22 9 24 1 26 5 28
REMARK Flexibility Score: inf
ROOT
ATOM      1  C   UNL     1     -22.131  29.910 -36.323  1.00  0.00     0.402 A 
ATOM      2  O   UNL     1     -22.419  29.433 -37.532  1.00  0.00    -0.202 OA
ATOM      3  C   UNL     1     -22.299  30.147 -38.646  1.00  0.00     0.368 A 
ATOM      4  C   UNL     1     -22.623  29.557 -39.870  1.00  0.00     0.162 A 
ATOM      5  C   UNL     1     -22.502  30.284 -41.058  1.00  0.00     0.128 A 
ATOM      6  C   UNL     1     -22.056  31.607 -41.021  1.00  0.00     0.093 A 
ATOM      7  C   UNL     1     -21.724  32.222 -39.807  1.00  0.00     0.136 A 
ATOM      8  C   UNL     1     -21.848  31.488 -38.598  1.00  0.00     0.125 A 
ATOM      9  C   UNL     1     -21.551  32.026 -37.334  1.00  0.00     0.078 A 
ATOM     10  C   UNL     1     -21.702  31.243 -36.187  1.00  0.00     0.223 A 
ENDROOT
BRANCH   1  11
ATOM     11  C   UNL     1     -22.297  29.012 -35.158  1.00  0.00     0.091 A 
ATOM     12  C   UNL     1     -21.186  28.482 -34.479  1.00  0.00     0.068 A 
ATOM     13  C   UNL     1     -21.365  27.615 -33.392  1.00  0.00     0.162 A 
ATOM     14  C   UNL     1     -23.588  28.634 -34.756  1.00  0.00     0.068 A 
ATOM     15  C   UNL     1     -22.656  27.260 -32.982  1.00  0.00     0.200 A 
ATOM     16  C   UNL     1     -23.773  27.768 -33.669  1.00  0.00     0.162 A 
BRANCH  13  17
ATOM     17  O   UNL     1     -20.261  27.097 -32.716  1.00  0.00    -0.504 OA
ATOM     18  H   UNL     1     -20.248  27.012 -31.707  1.00  0.00     0.293 HD
ENDBRANCH  13  17
BRANCH  15  19
ATOM     19  O   UNL     1     -22.814  26.399 -31.896  1.00  0.00    -0.502 OA
ATOM     20  H   UNL     1     -23.629  26.433 -31.295  1.00  0.00     0.293 HD
ENDBRANCH  15  19
BRANCH  16  21
ATOM     21  O   UNL     1     -25.059  27.410 -33.270  1.00  0.00    -0.504 OA
ATOM     22  H   UNL     1     -25.220  26.667 -32.599  1.00  0.00     0.293 HD
ENDBRANCH  16  21
ENDBRANCH   1  11
BRANCH  10  23
ATOM     23  O   UNL     1     -21.455  31.792 -34.928  1.00  0.00    -0.500 OA
ATOM     24  H   UNL     1     -21.353  31.211 -34.104  1.00  0.00     0.294 HD
ENDBRANCH  10  23
BRANCH   5  25
ATOM     25  O   UNL     1     -22.823  29.702 -42.282  1.00  0.00    -0.507 OA
ATOM     26  H   UNL     1     -23.675  29.168 -42.408  1.00  0.00     0.293 HD
ENDBRANCH   5  25
BRANCH   7  27
ATOM     27  O   UNL     1     -21.283  33.547 -39.856  1.00  0.00    -0.507 OA
ATOM     28  H   UNL     1     -20.819  34.022 -39.095  1.00  0.00     0.293 HD
ENDBRANCH   7  27
TORSDOF 7
ENDMDL
MODEL 4
REMARK VINA RESULT:    -6.713      1.632      7.179
REMARK INTER + INTRA:          -8.291
REMARK INTER:                  -8.272
REMARK INTRA:                  -0.020
REMARK UNBOUND:                -0.008
REMARK SMILES Oc1cc(O)c2cc(O)c(-c3cc(O)c(O)c(O)c3)[o+]c2c1
REMARK SMILES IDX 10 1 20 2 21 3 22 4 2 5 3 6 4 7 6 8 7 9 8 10 11 11 12 12
REMARK SMILES IDX 13 13 19 14 15 15 17 16 14 17 16 19 18 21 9 23 1 25 5 27
REMARK H PARENT 14 18 16 20 18 22 9 24 1 26 5 28
REMARK Flexibility Score: inf
ROOT
ATOM      1  C   UNL     1     -20.920  36.060 -38.095  1.00  0.00     0.402 A 
ATOM      2  O   UNL     1     -20.987  36.898 -39.127  1.00  0.00    -0.202 OA
ATOM      3  C   UNL     1     -20.687  38.190 -39.038  1.00  0.00     0.368 A 
ATOM      4  C   UNL     1     -20.785  38.990 -40.179  1.00  0.00     0.162 A 
ATOM      5  C   UNL     1     -20.472  40.351 -40.115  1.00  0.00     0.128 A 
ATOM      6  C   UNL     1     -20.059  40.913 -38.905  1.00  0.00     0.093 A 
ATOM      7  C   UNL     1     -19.951  40.133 -37.747  1.00  0.00     0.136 A 
ATOM      8  C   UNL     1     -20.271  38.752 -37.807  1.00  0.00     0.125 A 
ATOM      9  C   UNL     1     -20.206  37.895 -36.695  1.00  0.00     0.078 A 
ATOM     10  C   UNL     1     -20.540  36.545 -36.830  1.00  0.00     0.223 A 
ENDROOT
BRANCH   1  11
ATOM     11  C   UNL     1     -21.271  34.640 -38.323  1.00  0.00     0.091 A 
ATOM     12  C   UNL     1     -22.148  33.956 -37.464  1.00  0.00     0.068 A 
ATOM     13  C   UNL     1     -22.451  32.605 -37.684  1.00  0.00     0.162 A 
ATOM     14  C   UNL     1     -20.674  33.943 -39.385  1.00  0.00     0.068 A 
ATOM     15  C   UNL     1     -21.868  31.922 -38.759  1.00  0.00     0.200 A 
ATOM     16  C   UNL     1     -20.973  32.592 -39.611  1.00  0.00     0.162 A 
BRANCH  13  17
ATOM     17  O   UNL     1     -23.326  31.933 -36.833  1.00  0.00    -0.504 OA
ATOM     18  H   UNL     1     -23.440  30.926 -36.876  1.00  0.00     0.293 HD
ENDBRANCH  13  17
BRANCH  15  19
ATOM     19  O   UNL     1     -22.184  30.579 -38.964  1.00  0.00    -0.502 OA
ATOM     20  H   UNL     1     -22.319  29.933 -38.195  1.00  0.00     0.293 HD
ENDBRANCH  15  19
BRANCH  16  21
ATOM     21  O   UNL     1     -20.385  31.914 -40.677  1.00  0.00    -0.504 OA
ATOM     22  H   UNL     1     -20.813  31.089 -41.083  1.00  0.00     0.293 HD
ENDBRANCH  16  21
ENDBRANCH   1  11
BRANCH  10  23
ATOM     23  O   UNL     1     -20.524  35.705 -35.716  1.00  0.00    -0.500 OA
ATOM     24  H   UNL     1     -19.709  35.152 -35.477  1.00  0.00     0.294 HD
ENDBRANCH  10  23
BRANCH   5  25
ATOM     25  O   UNL     1     -20.568  41.155 -41.248  1.00  0.00    -0.507 OA
ATOM     26  H   UNL     1     -20.178  40.866 -42.138  1.00  0.00     0.293 HD
ENDBRANCH   5  25
BRANCH   7  27
ATOM     27  O   UNL     1     -19.528  40.770 -36.578  1.00  0.00    -0.507 OA
ATOM     28  H   UNL     1     -19.917  40.599 -35.663  1.00  0.00     0.293 HD
ENDBRANCH   7  27
TORSDOF 7
ENDMDL
MODEL 5
REMARK VINA RESULT:    -6.683      1.002      2.549
REMARK INTER + INTRA:          -8.254
REMARK INTER:                  -8.216
REMARK INTRA:                  -0.038
REMARK UNBOUND:                -0.008
REMARK SMILES Oc1cc(O)c2cc(O)c(-c3cc(O)c(O)c(O)c3)[o+]c2c1
REMARK SMILES IDX 10 1 20 2 21 3 22 4 2 5 3 6 4 7 6 8 7 9 8 10 11 11 12 12
REMARK SMILES IDX 13 13 19 14 15 15 17 16 14 17 16 19 18 21 9 23 1 25 5 27
REMARK H PARENT 14 18 16 20 18 22 9 24 1 26 5 28
REMARK Flexibility Score: inf
ROOT
ATOM      1  C   UNL     1     -21.442  34.345 -38.897  1.00  0.00     0.402 A 
ATOM      2  O   UNL     1     -21.997  33.818 -37.808  1.00  0.00    -0.202 OA
ATOM      3  C   UNL     1     -22.268  32.523 -37.680  1.00  0.00     0.368 A 
ATOM      4  C   UNL     1     -22.849  32.063 -36.496  1.00  0.00     0.162 A 
ATOM      5  C   UNL     1     -23.141  30.705 -36.334  1.00  0.00     0.128 A 
ATOM      6  C   UNL     1     -22.850  29.805 -37.360  1.00  0.00     0.093 A 
ATOM      7  C   UNL     1     -22.266  30.240 -38.557  1.00  0.00     0.136 A 
ATOM      8  C   UNL     1     -21.971  31.617 -38.727  1.00  0.00     0.125 A 
ATOM      9  C   UNL     1     -21.399  32.146 -39.897  1.00  0.00     0.078 A 
ATOM     10  C   UNL     1     -21.141  33.516 -39.993  1.00  0.00     0.223 A 
ENDROOT
BRANCH   1  11
ATOM     11  C   UNL     1     -21.181  35.802 -38.914  1.00  0.00     0.091 A 
ATOM     12  C   UNL     1     -20.509  36.438 -37.856  1.00  0.00     0.068 A 
ATOM     13  C   UNL     1     -20.292  37.822 -37.881  1.00  0.00     0.162 A 
ATOM     14  C   UNL     1     -21.663  36.577 -39.981  1.00  0.00     0.068 A 
ATOM     15  C   UNL     1     -20.756  38.586 -38.960  1.00  0.00     0.200 A 
ATOM     16  C   UNL     1     -21.447  37.962 -40.012  1.00  0.00     0.162 A 
BRANCH  13  17
ATOM     17  O   UNL     1     -19.619  38.448 -36.832  1.00  0.00    -0.504 OA
ATOM     18  H   UNL     1     -18.771  38.980 -36.988  1.00  0.00     0.293 HD
ENDBRANCH  13  17
BRANCH  15  19
ATOM     19  O   UNL     1     -20.526  39.962 -38.969  1.00  0.00    -0.502 OA
ATOM     20  H   UNL     1     -19.634  40.362 -38.701  1.00  0.00     0.293 HD
ENDBRANCH  15  19
BRANCH  16  21
ATOM     21  O   UNL     1     -21.918  38.719 -41.083  1.00  0.00    -0.504 OA
ATOM     22  H   UNL     1     -21.402  38.786 -41.954  1.00  0.00     0.293 HD
ENDBRANCH  16  21
ENDBRANCH   1  11
BRANCH  10  23
ATOM     23  O   UNL     1     -20.619  34.049 -41.172  1.00  0.00    -0.500 OA
ATOM     24  H   UNL     1     -19.996  33.516 -41.768  1.00  0.00     0.294 HD
ENDBRANCH  10  23
BRANCH   5  25
ATOM     25  O   UNL     1     -23.720  30.240 -35.156  1.00  0.00    -0.507 OA
ATOM     26  H   UNL     1     -23.369  30.517 -34.247  1.00  0.00     0.293 HD
ENDBRANCH   5  25
BRANCH   7  27
ATOM     27  O   UNL     1     -22.003  29.275 -39.533  1.00  0.00    -0.507 OA
ATOM     28  H   UNL     1     -22.713  28.738 -40.010  1.00  0.00     0.293 HD
ENDBRANCH   7  27
TORSDOF 7
ENDMDL
MODEL 6
REMARK VINA RESULT:    -6.669      5.128      7.996
REMARK INTER + INTRA:          -8.237
REMARK INTER:                  -8.062
REMARK INTRA:                  -0.175
REMARK UNBOUND:                -0.008
REMARK SMILES Oc1cc(O)c2cc(O)c(-c3cc(O)c(O)c(O)c3)[o+]c2c1
REMARK SMILES IDX 10 1 20 2 21 3 22 4 2 5 3 6 4 7 6 8 7 9 8 10 11 11 12 12
REMARK SMILES IDX 13 13 19 14 15 15 17 16 14 17 16 19 18 21 9 23 1 25 5 27
REMARK H PARENT 14 18 16 20 18 22 9 24 1 26 5 28
REMARK Flexibility Score: inf
ROOT
ATOM      1  C   UNL     1     -20.253  40.470 -35.978  1.00  0.00     0.402 A 
ATOM      2  O   UNL     1     -20.016  41.009 -37.172  1.00  0.00    -0.202 OA
ATOM      3  C   UNL     1     -20.180  40.351 -38.315  1.00  0.00     0.368 A 
ATOM      4  C   UNL     1     -19.909  41.003 -39.520  1.00  0.00     0.162 A 
ATOM      5  C   UNL     1     -20.076  40.335 -40.737  1.00  0.00     0.128 A 
ATOM      6  C   UNL     1     -20.517  39.010 -40.748  1.00  0.00     0.093 A 
ATOM      7  C   UNL     1     -20.797  38.334 -39.553  1.00  0.00     0.136 A 
ATOM      8  C   UNL     1     -20.625  39.006 -38.316  1.00  0.00     0.125 A 
ATOM      9  C   UNL     1     -20.868  38.404 -37.069  1.00  0.00     0.078 A 
ATOM     10  C   UNL     1     -20.673  39.130 -35.891  1.00  0.00     0.223 A 
ENDROOT
BRANCH   1  11
ATOM     11  C   UNL     1     -20.042  41.310 -34.777  1.00  0.00     0.091 A 
ATOM     12  C   UNL     1     -21.073  41.530 -33.847  1.00  0.00     0.068 A 
ATOM     13  C   UNL     1     -20.859  42.347 -32.728  1.00  0.00     0.162 A 
ATOM     14  C   UNL     1     -18.805  41.947 -34.589  1.00  0.00     0.068 A 
ATOM     15  C   UNL     1     -19.615  42.961 -32.535  1.00  0.00     0.200 A 
ATOM     16  C   UNL     1     -18.585  42.764 -33.471  1.00  0.00     0.162 A 
BRANCH  13  17
ATOM     17  O   UNL     1     -21.882  42.557 -31.805  1.00  0.00    -0.504 OA
ATOM     18  H   UNL     1     -22.760  42.054 -31.863  1.00  0.00     0.293 HD
ENDBRANCH  13  17
BRANCH  15  19
ATOM     19  O   UNL     1     -19.420  43.767 -31.414  1.00  0.00    -0.502 OA
ATOM     20  H   UNL     1     -19.464  44.778 -31.463  1.00  0.00     0.293 HD
ENDBRANCH  15  19
BRANCH  16  21
ATOM     21  O   UNL     1     -17.349  43.380 -33.287  1.00  0.00    -0.504 OA
ATOM     22  H   UNL     1     -16.901  43.906 -34.030  1.00  0.00     0.293 HD
ENDBRANCH  16  21
ENDBRANCH   1  11
BRANCH  10  23
ATOM     23  O   UNL     1     -20.866  38.518 -34.653  1.00  0.00    -0.500 OA
ATOM     24  H   UNL     1     -21.704  38.674 -34.106  1.00  0.00     0.294 HD
ENDBRANCH  10  23
BRANCH   5  25
ATOM     25  O   UNL     1     -19.807  40.979 -41.942  1.00  0.00    -0.507 OA
ATOM     26  H   UNL     1     -20.386  41.740 -42.278  1.00  0.00     0.293 HD
ENDBRANCH   5  25
BRANCH   7  27
ATOM     27  O   UNL     1     -21.237  37.011 -39.651  1.00  0.00    -0.507 OA
ATOM     28  H   UNL     1     -22.202  36.725 -39.578  1.00  0.00     0.293 HD
ENDBRANCH   7  27
TORSDOF 7
ENDMDL
MODEL 7
REMARK VINA RESULT:    -6.571      3.948      6.521
REMARK INTER + INTRA:          -8.116
REMARK INTER:                  -7.757
REMARK INTRA:                  -0.359
REMARK UNBOUND:                -0.008
REMARK SMILES Oc1cc(O)c2cc(O)c(-c3cc(O)c(O)c(O)c3)[o+]c2c1
REMARK SMILES IDX 10 1 20 2 21 3 22 4 2 5 3 6 4 7 6 8 7 9 8 10 11 11 12 12
REMARK SMILES IDX 13 13 19 14 15 15 17 16 14 17 16 19 18 21 9 23 1 25 5 27
REMARK H PARENT 14 18 16 20 18 22 9 24 1 26 5 28
REMARK Flexibility Score: inf
ROOT
ATOM      1  C   UNL     1     -22.499  29.603 -36.696  1.00  0.00     0.402 A 
ATOM      2  O   UNL     1     -21.474  29.039 -36.060  1.00  0.00    -0.202 OA
ATOM      3  C   UNL     1     -21.592  28.421 -34.890  1.00  0.00     0.368 A 
ATOM      4  C   UNL     1     -20.458  27.856 -34.302  1.00  0.00     0.162 A 
ATOM      5  C   UNL     1     -20.555  27.197 -33.072  1.00  0.00     0.128 A 
ATOM      6  C   UNL     1     -21.791  27.103 -32.430  1.00  0.00     0.093 A 
ATOM      7  C   UNL     1     -22.943  27.660 -32.999  1.00  0.00     0.136 A 
ATOM      8  C   UNL     1     -22.850  28.333 -34.244  1.00  0.00     0.125 A 
ATOM      9  C   UNL     1     -23.948  28.933 -34.883  1.00  0.00     0.078 A 
ATOM     10  C   UNL     1     -23.777  29.582 -36.109  1.00  0.00     0.223 A 
ENDROOT
BRANCH   1  11
ATOM     11  C   UNL     1     -22.241  30.254 -38.000  1.00  0.00     0.091 A 
ATOM     12  C   UNL     1     -21.735  31.563 -38.078  1.00  0.00     0.068 A 
ATOM     13  C   UNL     1     -21.519  32.170 -39.323  1.00  0.00     0.162 A 
ATOM     14  C   UNL     1     -22.559  29.574 -39.186  1.00  0.00     0.068 A 
ATOM     15  C   UNL     1     -21.818  31.476 -40.503  1.00  0.00     0.200 A 
ATOM     16  C   UNL     1     -22.344  30.175 -40.435  1.00  0.00     0.162 A 
BRANCH  13  17
ATOM     17  O   UNL     1     -21.011  33.466 -39.395  1.00  0.00    -0.504 OA
ATOM     18  H   UNL     1     -20.029  33.661 -39.239  1.00  0.00     0.293 HD
ENDBRANCH  13  17
BRANCH  15  19
ATOM     19  O   UNL     1     -21.592  32.095 -41.732  1.00  0.00    -0.502 OA
ATOM     20  H   UNL     1     -21.011  32.920 -41.822  1.00  0.00     0.293 HD
ENDBRANCH  15  19
BRANCH  16  21
ATOM     21  O   UNL     1     -22.650  29.484 -41.605  1.00  0.00    -0.504 OA
ATOM     22  H   UNL     1     -22.534  28.479 -41.676  1.00  0.00     0.293 HD
ENDBRANCH  16  21
ENDBRANCH   1  11
BRANCH  10  23
ATOM     23  O   UNL     1     -24.857  30.220 -36.719  1.00  0.00    -0.500 OA
ATOM     24  H   UNL     1     -24.739  30.794 -37.545  1.00  0.00     0.294 HD
ENDBRANCH  10  23
BRANCH   5  25
ATOM     25  O   UNL     1     -19.428  26.632 -32.480  1.00  0.00    -0.507 OA
ATOM     26  H   UNL     1     -18.658  26.279 -33.036  1.00  0.00     0.293 HD
ENDBRANCH   5  25
BRANCH   7  27
ATOM     27  O   UNL     1     -24.141  27.519 -32.293  1.00  0.00    -0.507 OA
ATOM     28  H   UNL     1     -24.516  28.212 -31.661  1.00  0.00     0.293 HD
ENDBRANCH   7  27
TORSDOF 7
ENDMDL
MODEL 8
REMARK VINA RESULT:    -6.521      1.745      7.462
REMARK INTER + INTRA:          -8.055
REMARK INTER:                  -7.951
REMARK INTRA:                  -0.104
REMARK UNBOUND:                -0.008
REMARK SMILES Oc1cc(O)c2cc(O)c(-c3cc(O)c(O)c(O)c3)[o+]c2c1
REMARK SMILES IDX 10 1 20 2 21 3 22 4 2 5 3 6 4 7 6 8 7 9 8 10 11 11 12 12
REMARK SMILES IDX 13 13 19 14 15 15 17 16 14 17 16 19 18 21 9 23 1 25 5 27
REMARK H PARENT 14 18 16 20 18 22 9 24 1 26 5 28
REMARK Flexibility Score: inf
ROOT
ATOM      1  C   UNL     1     -21.034  36.148 -38.629  1.00  0.00     0.402 A 
ATOM      2  O   UNL     1     -20.504  36.655 -37.518  1.00  0.00    -0.202 OA
ATOM      3  C   UNL     1     -20.211  37.942 -37.370  1.00  0.00     0.368 A 
ATOM      4  C   UNL     1     -19.660  38.380 -36.163  1.00  0.00     0.162 A 
ATOM      5  C   UNL     1     -19.345  39.730 -35.980  1.00  0.00     0.128 A 
ATOM      6  C   UNL     1     -19.584  40.645 -37.007  1.00  0.00     0.093 A 
ATOM      7  C   UNL     1     -20.137  40.232 -38.226  1.00  0.00     0.136 A 
ATOM      8  C   UNL     1     -20.455  38.863 -38.418  1.00  0.00     0.125 A 
ATOM      9  C   UNL     1     -21.000  38.356 -39.610  1.00  0.00     0.078 A 
ATOM     10  C   UNL     1     -21.283  36.992 -39.727  1.00  0.00     0.223 A 
ENDROOT
BRANCH   1  11
ATOM     11  C   UNL     1     -21.325  34.697 -38.668  1.00  0.00     0.091 A 
ATOM     12  C   UNL     1     -22.128  34.085 -37.690  1.00  0.00     0.068 A 
ATOM     13  C   UNL     1     -22.373  32.705 -37.732  1.00  0.00     0.162 A 
ATOM     14  C   UNL     1     -20.742  33.903 -39.668  1.00  0.00     0.068 A 
ATOM     15  C   UNL     1     -21.806  31.923 -38.746  1.00  0.00     0.200 A 
ATOM     16  C   UNL     1     -20.984  32.523 -39.715  1.00  0.00     0.162 A 
BRANCH  13  17
ATOM     17  O   UNL     1     -23.175  32.104 -36.764  1.00  0.00    -0.504 OA
ATOM     18  H   UNL     1     -23.731  31.282 -36.971  1.00  0.00     0.293 HD
ENDBRANCH  13  17
BRANCH  15  19
ATOM     19  O   UNL     1     -22.064  30.552 -38.773  1.00  0.00    -0.502 OA
ATOM     20  H   UNL     1     -21.470  29.882 -38.299  1.00  0.00     0.293 HD
ENDBRANCH  15  19
BRANCH  16  21
ATOM     21  O   UNL     1     -20.411  31.746 -40.721  1.00  0.00    -0.504 OA
ATOM     22  H   UNL     1     -20.890  31.575 -41.598  1.00  0.00     0.293 HD
ENDBRANCH  16  21
ENDBRANCH   1  11
BRANCH  10  23
ATOM     23  O   UNL     1     -21.777  36.480 -40.927  1.00  0.00    -0.500 OA
ATOM     24  H   UNL     1     -22.727  36.139 -41.010  1.00  0.00     0.294 HD
ENDBRANCH  10  23
BRANCH   5  25
ATOM     25  O   UNL     1     -18.795  40.173 -34.780  1.00  0.00    -0.507 OA
ATOM     26  H   UNL     1     -19.113  41.025 -34.333  1.00  0.00     0.293 HD
ENDBRANCH   5  25
BRANCH   7  27
ATOM     27  O   UNL     1     -20.348  41.210 -39.201  1.00  0.00    -0.507 OA
ATOM     28  H   UNL     1     -20.406  42.201 -39.012  1.00  0.00     0.293 HD
ENDBRANCH   7  27
TORSDOF 7
ENDMDL
MODEL 9
REMARK VINA RESULT:    -6.306      2.580      7.195
REMARK INTER + INTRA:          -7.789
REMARK INTER:                  -7.415
REMARK INTRA:                  -0.374
REMARK UNBOUND:                -0.008
REMARK SMILES Oc1cc(O)c2cc(O)c(-c3cc(O)c(O)c(O)c3)[o+]c2c1
REMARK SMILES IDX 10 1 20 2 21 3 22 4 2 5 3 6 4 7 6 8 7 9 8 10 11 11 12 12
REMARK SMILES IDX 13 13 19 14 15 15 17 16 14 17 16 19 18 21 9 23 1 25 5 27
REMARK H PARENT 14 18 16 20 18 22 9 24 1 26 5 28
REMARK Flexibility Score: inf
ROOT
ATOM      1  C   UNL     1     -21.295  35.353 -37.584  1.00  0.00     0.402 A 
ATOM      2  O   UNL     1     -20.895  36.592 -37.307  1.00  0.00    -0.202 OA
ATOM      3  C   UNL     1     -20.834  37.560 -38.215  1.00  0.00     0.368 A 
ATOM      4  C   UNL     1     -20.405  38.831 -37.826  1.00  0.00     0.162 A 
ATOM      5  C   UNL     1     -20.335  39.868 -38.761  1.00  0.00     0.128 A 
ATOM      6  C   UNL     1     -20.696  39.633 -40.089  1.00  0.00     0.093 A 
ATOM      7  C   UNL     1     -21.132  38.367 -40.504  1.00  0.00     0.136 A 
ATOM      8  C   UNL     1     -21.201  37.311 -39.560  1.00  0.00     0.125 A 
ATOM      9  C   UNL     1     -21.612  36.008 -39.888  1.00  0.00     0.078 A 
ATOM     10  C   UNL     1     -21.651  35.017 -38.903  1.00  0.00     0.223 A 
ENDROOT
BRANCH   1  11
ATOM     11  C   UNL     1     -21.328  34.365 -36.482  1.00  0.00     0.091 A 
ATOM     12  C   UNL     1     -20.241  33.508 -36.234  1.00  0.00     0.068 A 
ATOM     13  C   UNL     1     -20.302  32.564 -35.199  1.00  0.00     0.162 A 
ATOM     14  C   UNL     1     -22.488  34.239 -35.702  1.00  0.00     0.068 A 
ATOM     15  C   UNL     1     -21.455  32.459 -34.411  1.00  0.00     0.200 A 
ATOM     16  C   UNL     1     -22.554  33.297 -34.666  1.00  0.00     0.162 A 
BRANCH  13  17
ATOM     17  O   UNL     1     -19.219  31.721 -34.952  1.00  0.00    -0.504 OA
ATOM     18  H   UNL     1     -19.345  30.798 -34.555  1.00  0.00     0.293 HD
ENDBRANCH  13  17
BRANCH  15  19
ATOM     19  O   UNL     1     -21.494  31.517 -33.384  1.00  0.00    -0.502 OA
ATOM     20  H   UNL     1     -20.858  30.729 -33.350  1.00  0.00     0.293 HD
ENDBRANCH  15  19
BRANCH  16  21
ATOM     21  O   UNL     1     -23.706  33.191 -33.889  1.00  0.00    -0.504 OA
ATOM     22  H   UNL     1     -23.675  32.844 -32.936  1.00  0.00     0.293 HD
ENDBRANCH  16  21
ENDBRANCH   1  11
BRANCH  10  23
ATOM     23  O   UNL     1     -22.011  33.711 -39.238  1.00  0.00    -0.500 OA
ATOM     24  H   UNL     1     -21.386  33.101 -39.750  1.00  0.00     0.294 HD
ENDBRANCH  10  23
BRANCH   5  25
ATOM     25  O   UNL     1     -19.907  41.138 -38.381  1.00  0.00    -0.507 OA
ATOM     26  H   UNL     1     -18.923  41.359 -38.283  1.00  0.00     0.293 HD
ENDBRANCH   5  25
BRANCH   7  27
ATOM     27  O   UNL     1     -21.478  38.216 -41.849  1.00  0.00    -0.507 OA
ATOM     28  H   UNL     1     -22.425  38.235 -42.200  1.00  0.00     0.293 HD
ENDBRANCH   7  27
TORSDOF 7
ENDMDL
