MODEL 1
REMARK VINA RESULT:    -3.411      0.000      0.000
REMARK INTER + INTRA:         -12.496
REMARK INTER:                  -8.995
REMARK INTRA:                  -3.500
REMARK UNBOUND:                -3.500
REMARK SMILES CCCCCCCCCCCCCCCCCCCCCCCCCCCCCC(=O)[O-]
REMARK SMILES IDX 16 1 17 2 18 3 19 4 20 5 21 6 22 7 23 8 24 9 25 10 26 11
REMARK SMILES IDX 27 12 28 13 29 14 30 15 31 16 32 17 15 18 14 19 13 20 12 21
REMARK SMILES IDX 11 22 10 23 9 24 8 25 7 26 6 27 5 28 4 29 3 30 2 31 1 32
REMARK H PARENT
REMARK Flexibility Score: inf
ROOT
ATOM      1  C   UNL     1     -13.062  10.055   3.943  1.00  0.00     0.000 C 
ENDROOT
BRANCH   1   2
ATOM      2  C   UNL     1     -12.258   9.527   5.143  1.00  0.00     0.000 C 
BRANCH   2   3
ATOM      3  C   UNL     1     -12.815  10.000   6.492  1.00  0.00     0.000 C 
BRANCH   3   4
ATOM      4  C   UNL     1     -13.752   8.951   7.103  1.00  0.00     0.000 C 
BRANCH   4   5
ATOM      5  C   UNL     1     -14.029   9.259   8.581  1.00  0.00     0.000 C 
BRANCH   5   6
ATOM      6  C   UNL     1     -15.532   9.312   8.907  1.00  0.00     0.000 C 
BRANCH   6   7
ATOM      7  C   UNL     1     -16.348  10.148   7.898  1.00  0.00     0.000 C 
BRANCH   7   8
ATOM      8  C   UNL     1     -17.732   9.537   7.624  1.00  0.00     0.000 C 
BRANCH   8   9
ATOM      9  C   UNL     1     -18.543   9.282   8.906  1.00  0.00     0.000 C 
BRANCH   9  10
ATOM     10  C   UNL     1     -19.452  10.461   9.312  1.00  0.00     0.000 C 
BRANCH  10  11
ATOM     11  C   UNL     1     -19.076  11.037  10.687  1.00  0.00     0.000 C 
BRANCH  11  12
ATOM     12  C   UNL     1     -18.253  10.030  11.503  1.00  0.00     0.000 C 
BRANCH  12  13
ATOM     13  C   UNL     1     -17.319  10.702  12.526  1.00  0.00     0.006 C 
BRANCH  13  14
ATOM     14  C   UNL     1     -15.822  10.558  12.197  1.00  0.00     0.053 C 
BRANCH  14  15
ATOM     15  C   UNL     1     -14.946  10.837  13.380  1.00  0.00     0.041 C 
ATOM     16  O   UNL     1     -13.782  11.290  13.214  1.00  0.00    -0.550 OA
ATOM     17  O   UNL     1     -15.395  10.560  14.665  1.00  0.00    -0.550 OA
ENDBRANCH  14  15
ENDBRANCH  13  14
ENDBRANCH  12  13
ENDBRANCH  11  12
ENDBRANCH  10  11
ENDBRANCH   9  10
ENDBRANCH   8   9
ENDBRANCH   7   8
ENDBRANCH   6   7
ENDBRANCH   5   6
ENDBRANCH   4   5
ENDBRANCH   3   4
ENDBRANCH   2   3
ENDBRANCH   1   2
BRANCH   1  18
ATOM     18  C   UNL     1     -14.138   9.072   3.435  1.00  0.00     0.000 C 
BRANCH  18  19
ATOM     19  C   UNL     1     -15.558   9.509   3.836  1.00  0.00     0.000 C 
BRANCH  19  20
ATOM     20  C   UNL     1     -15.606  10.937   4.409  1.00  0.00     0.000 C 
BRANCH  20  21
ATOM     21  C   UNL     1     -16.949  11.665   4.222  1.00  0.00     0.000 C 
BRANCH  21  22
ATOM     22  C   UNL     1     -18.062  10.744   3.697  1.00  0.00     0.000 C 
BRANCH  22  23
ATOM     23  C   UNL     1     -18.581  11.227   2.338  1.00  0.00     0.000 C 
BRANCH  23  24
ATOM     24  C   UNL     1     -18.739  10.052   1.360  1.00  0.00    -0.000 C 
BRANCH  24  25
ATOM     25  C   UNL     1     -17.540   9.917   0.398  1.00  0.00    -0.000 C 
BRANCH  25  26
ATOM     26  C   UNL     1     -17.854  10.340  -1.049  1.00  0.00    -0.000 C 
BRANCH  26  27
ATOM     27  C   UNL     1     -19.235  10.992  -1.249  1.00  0.00    -0.000 C 
BRANCH  27  28
ATOM     28  C   UNL     1     -19.211  12.371  -1.939  1.00  0.00    -0.000 C 
BRANCH  28  29
ATOM     29  C   UNL     1     -18.293  13.420  -1.279  1.00  0.00    -0.000 C 
BRANCH  29  30
ATOM     30  C   UNL     1     -18.982  14.323  -0.241  1.00  0.00    -0.000 C 
BRANCH  30  31
ATOM     31  C   UNL     1     -19.043  15.793  -0.681  1.00  0.00    -0.003 C 
ATOM     32  C   UNL     1     -19.805  15.944  -1.994  1.00  0.00     0.004 C 
ENDBRANCH  30  31
ENDBRANCH  29  30
ENDBRANCH  28  29
ENDBRANCH  27  28
ENDBRANCH  26  27
ENDBRANCH  25  26
ENDBRANCH  24  25
ENDBRANCH  23  24
ENDBRANCH  22  23
ENDBRANCH  21  22
ENDBRANCH  20  21
ENDBRANCH  19  20
ENDBRANCH  18  19
ENDBRANCH   1  18
TORSDOF 28
ENDMDL
MODEL 2
REMARK VINA RESULT:    -3.180      1.550      2.568
REMARK INTER + INTRA:         -11.885
REMARK INTER:                  -8.943
REMARK INTRA:                  -2.942
REMARK UNBOUND:                -3.500
REMARK SMILES CCCCCCCCCCCCCCCCCCCCCCCCCCCCCC(=O)[O-]
REMARK SMILES IDX 16 1 17 2 18 3 19 4 20 5 21 6 22 7 23 8 24 9 25 10 26 11
REMARK SMILES IDX 27 12 28 13 29 14 30 15 31 16 32 17 15 18 14 19 13 20 12 21
REMARK SMILES IDX 11 22 10 23 9 24 8 25 7 26 6 27 5 28 4 29 3 30 2 31 1 32
REMARK H PARENT
REMARK Flexibility Score: inf
ROOT
ATOM      1  C   UNL     1     -13.174  10.070   3.908  1.00  0.00     0.000 C 
ENDROOT
BRANCH   1   2
ATOM      2  C   UNL     1     -12.290   9.509   5.033  1.00  0.00     0.000 C 
BRANCH   2   3
ATOM      3  C   UNL     1     -12.724   9.980   6.428  1.00  0.00     0.000 C 
BRANCH   3   4
ATOM      4  C   UNL     1     -13.820   9.072   7.002  1.00  0.00     0.000 C 
BRANCH   4   5
ATOM      5  C   UNL     1     -13.930   9.242   8.524  1.00  0.00     0.000 C 
BRANCH   5   6
ATOM      6  C   UNL     1     -15.387   9.280   9.016  1.00  0.00     0.000 C 
BRANCH   6   7
ATOM      7  C   UNL     1     -16.383   9.761   7.939  1.00  0.00     0.000 C 
BRANCH   7   8
ATOM      8  C   UNL     1     -17.762   9.097   8.087  1.00  0.00     0.000 C 
BRANCH   8   9
ATOM      9  C   UNL     1     -18.334   9.205   9.511  1.00  0.00     0.000 C 
BRANCH   9  10
ATOM     10  C   UNL     1     -18.879  10.607   9.858  1.00  0.00     0.000 C 
BRANCH  10  11
ATOM     11  C   UNL     1     -18.296  11.148  11.174  1.00  0.00     0.000 C 
BRANCH  11  12
ATOM     12  C   UNL     1     -17.409  10.098  11.858  1.00  0.00     0.000 C 
BRANCH  12  13
ATOM     13  C   UNL     1     -16.782  10.602  13.171  1.00  0.00     0.006 C 
BRANCH  13  14
ATOM     14  C   UNL     1     -15.554   9.795  13.629  1.00  0.00     0.053 C 
BRANCH  14  15
ATOM     15  C   UNL     1     -14.293  10.234  12.948  1.00  0.00     0.041 C 
ATOM     16  O   UNL     1     -13.823  11.383  13.167  1.00  0.00    -0.550 OA
ATOM     17  O   UNL     1     -13.658   9.396  12.041  1.00  0.00    -0.550 OA
ENDBRANCH  14  15
ENDBRANCH  13  14
ENDBRANCH  12  13
ENDBRANCH  11  12
ENDBRANCH  10  11
ENDBRANCH   9  10
ENDBRANCH   8   9
ENDBRANCH   7   8
ENDBRANCH   6   7
ENDBRANCH   5   6
ENDBRANCH   4   5
ENDBRANCH   3   4
ENDBRANCH   2   3
ENDBRANCH   1   2
BRANCH   1  18
ATOM     18  C   UNL     1     -14.240   9.075   3.400  1.00  0.00     0.000 C 
BRANCH  18  19
ATOM     19  C   UNL     1     -15.663   9.490   3.810  1.00  0.00     0.000 C 
BRANCH  19  20
ATOM     20  C   UNL     1     -15.720  10.893   4.441  1.00  0.00     0.000 C 
BRANCH  20  21
ATOM     21  C   UNL     1     -17.017  11.676   4.165  1.00  0.00     0.000 C 
BRANCH  21  22
ATOM     22  C   UNL     1     -18.085  10.833   3.452  1.00  0.00     0.000 C 
BRANCH  22  23
ATOM     23  C   UNL     1     -18.675  11.588   2.255  1.00  0.00     0.000 C 
BRANCH  23  24
ATOM     24  C   UNL     1     -19.193  10.611   1.189  1.00  0.00    -0.000 C 
BRANCH  24  25
ATOM     25  C   UNL     1     -18.264  10.528  -0.041  1.00  0.00    -0.000 C 
BRANCH  25  26
ATOM     26  C   UNL     1     -18.698  11.434  -1.209  1.00  0.00    -0.000 C 
BRANCH  26  27
ATOM     27  C   UNL     1     -17.581  12.316  -1.797  1.00  0.00    -0.000 C 
BRANCH  27  28
ATOM     28  C   UNL     1     -17.429  12.238  -3.330  1.00  0.00    -0.000 C 
BRANCH  28  29
ATOM     29  C   UNL     1     -16.085  11.666  -3.828  1.00  0.00    -0.000 C 
BRANCH  29  30
ATOM     30  C   UNL     1     -15.010  11.497  -2.741  1.00  0.00    -0.000 C 
BRANCH  30  31
ATOM     31  C   UNL     1     -14.221  10.188  -2.884  1.00  0.00    -0.003 C 
ATOM     32  C   UNL     1     -14.238   9.390  -1.584  1.00  0.00     0.004 C 
ENDBRANCH  30  31
ENDBRANCH  29  30
ENDBRANCH  28  29
ENDBRANCH  27  28
ENDBRANCH  26  27
ENDBRANCH  25  26
ENDBRANCH  24  25
ENDBRANCH  23  24
ENDBRANCH  22  23
ENDBRANCH  21  22
ENDBRANCH  20  21
ENDBRANCH  19  20
ENDBRANCH  18  19
ENDBRANCH   1  18
TORSDOF 28
ENDMDL
MODEL 3
REMARK VINA RESULT:    -2.736      2.561      4.216
REMARK INTER + INTRA:         -10.714
REMARK INTER:                  -8.245
REMARK INTRA:                  -2.469
REMARK UNBOUND:                -3.500
REMARK SMILES CCCCCCCCCCCCCCCCCCCCCCCCCCCCCC(=O)[O-]
REMARK SMILES IDX 16 1 17 2 18 3 19 4 20 5 21 6 22 7 23 8 24 9 25 10 26 11
REMARK SMILES IDX 27 12 28 13 29 14 30 15 31 16 32 17 15 18 14 19 13 20 12 21
REMARK SMILES IDX 11 22 10 23 9 24 8 25 7 26 6 27 5 28 4 29 3 30 2 31 1 32
REMARK H PARENT
REMARK Flexibility Score: inf
ROOT
ATOM      1  C   UNL     1     -13.642  10.116   4.808  1.00  0.00     0.000 C 
ENDROOT
BRANCH   1   2
ATOM      2  C   UNL     1     -13.172   9.305   6.028  1.00  0.00     0.000 C 
BRANCH   2   3
ATOM      3  C   UNL     1     -13.441  10.018   7.360  1.00  0.00     0.000 C 
BRANCH   3   4
ATOM      4  C   UNL     1     -14.607   9.365   8.112  1.00  0.00     0.000 C 
BRANCH   4   5
ATOM      5  C   UNL     1     -14.169   8.906   9.510  1.00  0.00     0.000 C 
BRANCH   5   6
ATOM      6  C   UNL     1     -14.895   9.658  10.639  1.00  0.00     0.000 C 
BRANCH   6   7
ATOM      7  C   UNL     1     -14.210   9.507  12.014  1.00  0.00     0.000 C 
BRANCH   7   8
ATOM      8  C   UNL     1     -14.128  10.842  12.771  1.00  0.00     0.000 C 
BRANCH   8   9
ATOM      9  C   UNL     1     -15.379  11.132  13.618  1.00  0.00     0.000 C 
BRANCH   9  10
ATOM     10  C   UNL     1     -15.725  10.012  14.622  1.00  0.00     0.000 C 
BRANCH  10  11
ATOM     11  C   UNL     1     -17.162   9.495  14.443  1.00  0.00     0.000 C 
BRANCH  11  12
ATOM     12  C   UNL     1     -18.058  10.562  13.798  1.00  0.00     0.000 C 
BRANCH  12  13
ATOM     13  C   UNL     1     -19.025   9.985  12.748  1.00  0.00     0.006 C 
BRANCH  13  14
ATOM     14  C   UNL     1     -18.372   9.698  11.385  1.00  0.00     0.053 C 
BRANCH  14  15
ATOM     15  C   UNL     1     -18.914  10.571  10.294  1.00  0.00     0.041 C 
ATOM     16  O   UNL     1     -19.652  11.553  10.577  1.00  0.00    -0.550 OA
ATOM     17  O   UNL     1     -18.642  10.280   8.964  1.00  0.00    -0.550 OA
ENDBRANCH  14  15
ENDBRANCH  13  14
ENDBRANCH  12  13
ENDBRANCH  11  12
ENDBRANCH  10  11
ENDBRANCH   9  10
ENDBRANCH   8   9
ENDBRANCH   7   8
ENDBRANCH   6   7
ENDBRANCH   5   6
ENDBRANCH   4   5
ENDBRANCH   3   4
ENDBRANCH   2   3
ENDBRANCH   1   2
BRANCH   1  18
ATOM     18  C   UNL     1     -14.551   9.321   3.847  1.00  0.00     0.000 C 
BRANCH  18  19
ATOM     19  C   UNL     1     -16.031   9.717   3.989  1.00  0.00     0.000 C 
BRANCH  19  20
ATOM     20  C   UNL     1     -16.227  11.223   4.237  1.00  0.00     0.000 C 
BRANCH  20  21
ATOM     21  C   UNL     1     -17.578  11.788   3.761  1.00  0.00     0.000 C 
BRANCH  21  22
ATOM     22  C   UNL     1     -18.463  10.731   3.081  1.00  0.00     0.000 C 
BRANCH  22  23
ATOM     23  C   UNL     1     -18.898  11.191   1.685  1.00  0.00     0.000 C 
BRANCH  23  24
ATOM     24  C   UNL     1     -19.348   9.998   0.828  1.00  0.00    -0.000 C 
BRANCH  24  25
ATOM     25  C   UNL     1     -18.501   9.833  -0.451  1.00  0.00    -0.000 C 
BRANCH  25  26
ATOM     26  C   UNL     1     -17.644  11.068  -0.790  1.00  0.00    -0.000 C 
BRANCH  26  27
ATOM     27  C   UNL     1     -16.501  10.810  -1.790  1.00  0.00    -0.000 C 
BRANCH  27  28
ATOM     28  C   UNL     1     -16.365   9.348  -2.263  1.00  0.00    -0.000 C 
BRANCH  28  29
ATOM     29  C   UNL     1     -14.941   8.922  -2.675  1.00  0.00    -0.000 C 
BRANCH  29  30
ATOM     30  C   UNL     1     -13.820   9.867  -2.209  1.00  0.00    -0.000 C 
BRANCH  30  31
ATOM     31  C   UNL     1     -13.146  10.607  -3.373  1.00  0.00    -0.003 C 
ATOM     32  C   UNL     1     -13.314   9.843  -4.683  1.00  0.00     0.004 C 
ENDBRANCH  30  31
ENDBRANCH  29  30
ENDBRANCH  28  29
ENDBRANCH  27  28
ENDBRANCH  26  27
ENDBRANCH  25  26
ENDBRANCH  24  25
ENDBRANCH  23  24
ENDBRANCH  22  23
ENDBRANCH  21  22
ENDBRANCH  20  21
ENDBRANCH  19  20
ENDBRANCH  18  19
ENDBRANCH   1  18
TORSDOF 28
ENDMDL
MODEL 4
REMARK VINA RESULT:    -2.734      2.104      3.341
REMARK INTER + INTRA:         -10.708
REMARK INTER:                  -8.206
REMARK INTRA:                  -2.502
REMARK UNBOUND:                -3.500
REMARK SMILES CCCCCCCCCCCCCCCCCCCCCCCCCCCCCC(=O)[O-]
REMARK SMILES IDX 16 1 17 2 18 3 19 4 20 5 21 6 22 7 23 8 24 9 25 10 26 11
REMARK SMILES IDX 27 12 28 13 29 14 30 15 31 16 32 17 15 18 14 19 13 20 12 21
REMARK SMILES IDX 11 22 10 23 9 24 8 25 7 26 6 27 5 28 4 29 3 30 2 31 1 32
REMARK H PARENT
REMARK Flexibility Score: inf
ROOT
ATOM      1  C   UNL     1     -13.567  10.297   5.271  1.00  0.00     0.000 C 
ENDROOT
BRANCH   1   2
ATOM      2  C   UNL     1     -13.859   9.178   6.284  1.00  0.00     0.000 C 
BRANCH   2   3
ATOM      3  C   UNL     1     -13.449   9.544   7.716  1.00  0.00     0.000 C 
BRANCH   3   4
ATOM      4  C   UNL     1     -14.398   8.914   8.743  1.00  0.00     0.000 C 
BRANCH   4   5
ATOM      5  C   UNL     1     -13.782   8.942  10.149  1.00  0.00     0.000 C 
BRANCH   5   6
ATOM      6  C   UNL     1     -14.706   9.592  11.193  1.00  0.00     0.000 C 
BRANCH   6   7
ATOM      7  C   UNL     1     -14.090   9.643  12.607  1.00  0.00     0.000 C 
BRANCH   7   8
ATOM      8  C   UNL     1     -14.220  11.035  13.246  1.00  0.00     0.000 C 
BRANCH   8   9
ATOM      9  C   UNL     1     -15.679  11.508  13.370  1.00  0.00     0.000 C 
BRANCH   9  10
ATOM     10  C   UNL     1     -16.592  10.519  14.126  1.00  0.00     0.000 C 
BRANCH  10  11
ATOM     11  C   UNL     1     -17.783  10.057  13.271  1.00  0.00     0.000 C 
BRANCH  11  12
ATOM     12  C   UNL     1     -18.790  11.197  13.063  1.00  0.00     0.000 C 
BRANCH  12  13
ATOM     13  C   UNL     1     -19.004  11.551  11.579  1.00  0.00     0.006 C 
BRANCH  13  14
ATOM     14  C   UNL     1     -18.105  10.760  10.611  1.00  0.00     0.053 C 
BRANCH  14  15
ATOM     15  C   UNL     1     -18.854  10.258   9.415  1.00  0.00     0.041 C 
ATOM     16  O   UNL     1     -19.977   9.701   9.558  1.00  0.00    -0.550 OA
ATOM     17  O   UNL     1     -18.300  10.364   8.146  1.00  0.00    -0.550 OA
ENDBRANCH  14  15
ENDBRANCH  13  14
ENDBRANCH  12  13
ENDBRANCH  11  12
ENDBRANCH  10  11
ENDBRANCH   9  10
ENDBRANCH   8   9
ENDBRANCH   7   8
ENDBRANCH   6   7
ENDBRANCH   5   6
ENDBRANCH   4   5
ENDBRANCH   3   4
ENDBRANCH   2   3
ENDBRANCH   1   2
BRANCH   1  18
ATOM     18  C   UNL     1     -14.046   9.979   3.839  1.00  0.00     0.000 C 
BRANCH  18  19
ATOM     19  C   UNL     1     -15.580   9.988   3.724  1.00  0.00     0.000 C 
BRANCH  19  20
ATOM     20  C   UNL     1     -16.213  11.284   4.261  1.00  0.00     0.000 C 
BRANCH  20  21
ATOM     21  C   UNL     1     -17.636  11.572   3.748  1.00  0.00     0.000 C 
BRANCH  21  22
ATOM     22  C   UNL     1     -18.179  10.461   2.835  1.00  0.00     0.000 C 
BRANCH  22  23
ATOM     23  C   UNL     1     -18.795  11.048   1.559  1.00  0.00     0.000 C 
BRANCH  23  24
ATOM     24  C   UNL     1     -18.580  10.109   0.363  1.00  0.00    -0.000 C 
BRANCH  24  25
ATOM     25  C   UNL     1     -17.090   9.951  -0.006  1.00  0.00    -0.000 C 
BRANCH  25  26
ATOM     26  C   UNL     1     -16.840   9.768  -1.515  1.00  0.00    -0.000 C 
BRANCH  26  27
ATOM     27  C   UNL     1     -17.719  10.641  -2.429  1.00  0.00    -0.000 C 
BRANCH  27  28
ATOM     28  C   UNL     1     -17.108  12.005  -2.812  1.00  0.00    -0.000 C 
BRANCH  28  29
ATOM     29  C   UNL     1     -18.086  13.003  -3.463  1.00  0.00    -0.000 C 
BRANCH  29  30
ATOM     30  C   UNL     1     -18.983  13.770  -2.477  1.00  0.00    -0.000 C 
BRANCH  30  31
ATOM     31  C   UNL     1     -18.543  13.597  -1.016  1.00  0.00    -0.003 C 
ATOM     32  C   UNL     1     -18.954  14.799  -0.171  1.00  0.00     0.004 C 
ENDBRANCH  30  31
ENDBRANCH  29  30
ENDBRANCH  28  29
ENDBRANCH  27  28
ENDBRANCH  26  27
ENDBRANCH  25  26
ENDBRANCH  24  25
ENDBRANCH  23  24
ENDBRANCH  22  23
ENDBRANCH  21  22
ENDBRANCH  20  21
ENDBRANCH  19  20
ENDBRANCH  18  19
ENDBRANCH   1  18
TORSDOF 28
ENDMDL
MODEL 5
REMARK VINA RESULT:    -2.694      1.836      2.753
REMARK INTER + INTRA:         -10.603
REMARK INTER:                  -7.381
REMARK INTRA:                  -3.222
REMARK UNBOUND:                -3.500
REMARK SMILES CCCCCCCCCCCCCCCCCCCCCCCCCCCCCC(=O)[O-]
REMARK SMILES IDX 16 1 17 2 18 3 19 4 20 5 21 6 22 7 23 8 24 9 25 10 26 11
REMARK SMILES IDX 27 12 28 13 29 14 30 15 31 16 32 17 15 18 14 19 13 20 12 21
REMARK SMILES IDX 11 22 10 23 9 24 8 25 7 26 6 27 5 28 4 29 3 30 2 31 1 32
REMARK H PARENT
REMARK Flexibility Score: inf
ROOT
ATOM      1  C   UNL     1     -13.423  10.643   6.441  1.00  0.00     0.000 C 
ENDROOT
BRANCH   1   2
ATOM      2  C   UNL     1     -13.496   9.352   7.274  1.00  0.00     0.000 C 
BRANCH   2   3
ATOM      3  C   UNL     1     -14.934   8.875   7.515  1.00  0.00     0.000 C 
BRANCH   3   4
ATOM      4  C   UNL     1     -15.808  10.007   8.069  1.00  0.00     0.000 C 
BRANCH   4   5
ATOM      5  C   UNL     1     -16.956  10.335   7.104  1.00  0.00     0.000 C 
BRANCH   5   6
ATOM      6  C   UNL     1     -17.865   9.126   6.824  1.00  0.00     0.000 C 
BRANCH   6   7
ATOM      7  C   UNL     1     -19.369   9.457   6.917  1.00  0.00     0.000 C 
BRANCH   7   8
ATOM      8  C   UNL     1     -19.989   8.971   8.238  1.00  0.00     0.000 C 
BRANCH   8   9
ATOM      9  C   UNL     1     -19.895  10.011   9.367  1.00  0.00     0.000 C 
BRANCH   9  10
ATOM     10  C   UNL     1     -18.688   9.802  10.307  1.00  0.00     0.000 C 
BRANCH  10  11
ATOM     11  C   UNL     1     -18.322  11.082  11.076  1.00  0.00     0.000 C 
BRANCH  11  12
ATOM     12  C   UNL     1     -18.637  10.936  12.573  1.00  0.00     0.000 C 
BRANCH  12  13
ATOM     13  C   UNL     1     -17.441  10.419  13.393  1.00  0.00     0.006 C 
BRANCH  13  14
ATOM     14  C   UNL     1     -16.192  11.315  13.313  1.00  0.00     0.053 C 
BRANCH  14  15
ATOM     15  C   UNL     1     -15.042  10.635  12.634  1.00  0.00     0.041 C 
ATOM     16  O   UNL     1     -15.244   9.636  11.893  1.00  0.00    -0.550 OA
ATOM     17  O   UNL     1     -13.742  11.076  12.848  1.00  0.00    -0.550 OA
ENDBRANCH  14  15
ENDBRANCH  13  14
ENDBRANCH  12  13
ENDBRANCH  11  12
ENDBRANCH  10  11
ENDBRANCH   9  10
ENDBRANCH   8   9
ENDBRANCH   7   8
ENDBRANCH   6   7
ENDBRANCH   5   6
ENDBRANCH   4   5
ENDBRANCH   3   4
ENDBRANCH   2   3
ENDBRANCH   1   2
BRANCH   1  18
ATOM     18  C   UNL     1     -12.691  10.472   5.093  1.00  0.00     0.000 C 
BRANCH  18  19
ATOM     19  C   UNL     1     -12.991   9.112   4.439  1.00  0.00     0.000 C 
BRANCH  19  20
ATOM     20  C   UNL     1     -14.436   9.004   3.918  1.00  0.00     0.000 C 
BRANCH  20  21
ATOM     21  C   UNL     1     -15.156  10.351   3.721  1.00  0.00     0.000 C 
BRANCH  21  22
ATOM     22  C   UNL     1     -16.663  10.191   3.463  1.00  0.00     0.000 C 
BRANCH  22  23
ATOM     23  C   UNL     1     -17.411  11.501   3.741  1.00  0.00     0.000 C 
BRANCH  23  24
ATOM     24  C   UNL     1     -18.628  11.646   2.815  1.00  0.00    -0.000 C 
BRANCH  24  25
ATOM     25  C   UNL     1     -18.765  10.468   1.827  1.00  0.00    -0.000 C 
BRANCH  25  26
ATOM     26  C   UNL     1     -19.467  10.843   0.508  1.00  0.00    -0.000 C 
BRANCH  26  27
ATOM     27  C   UNL     1     -18.651  10.556  -0.765  1.00  0.00    -0.000 C 
BRANCH  27  28
ATOM     28  C   UNL     1     -17.238   9.985  -0.521  1.00  0.00    -0.000 C 
BRANCH  28  29
ATOM     29  C   UNL     1     -16.178  10.386  -1.567  1.00  0.00    -0.000 C 
BRANCH  29  30
ATOM     30  C   UNL     1     -16.375  11.779  -2.190  1.00  0.00    -0.000 C 
BRANCH  30  31
ATOM     31  C   UNL     1     -16.320  11.757  -3.724  1.00  0.00    -0.003 C 
ATOM     32  C   UNL     1     -17.529  11.034  -4.309  1.00  0.00     0.004 C 
ENDBRANCH  30  31
ENDBRANCH  29  30
ENDBRANCH  28  29
ENDBRANCH  27  28
ENDBRANCH  26  27
ENDBRANCH  25  26
ENDBRANCH  24  25
ENDBRANCH  23  24
ENDBRANCH  22  23
ENDBRANCH  21  22
ENDBRANCH  20  21
ENDBRANCH  19  20
ENDBRANCH  18  19
ENDBRANCH   1  18
TORSDOF 28
ENDMDL
MODEL 6
REMARK VINA RESULT:    -2.670      1.435      1.946
REMARK INTER + INTRA:         -10.541
REMARK INTER:                  -7.814
REMARK INTRA:                  -2.726
REMARK UNBOUND:                -3.500
REMARK SMILES CCCCCCCCCCCCCCCCCCCCCCCCCCCCCC(=O)[O-]
REMARK SMILES IDX 16 1 17 2 18 3 19 4 20 5 21 6 22 7 23 8 24 9 25 10 26 11
REMARK SMILES IDX 27 12 28 13 29 14 30 15 31 16 32 17 15 18 14 19 13 20 12 21
REMARK SMILES IDX 11 22 10 23 9 24 8 25 7 26 6 27 5 28 4 29 3 30 2 31 1 32
REMARK H PARENT
REMARK Flexibility Score: inf
ROOT
ATOM      1  C   UNL     1     -13.361  10.498   4.300  1.00  0.00     0.000 C 
ENDROOT
BRANCH   1   2
ATOM      2  C   UNL     1     -13.302  10.668   5.827  1.00  0.00     0.000 C 
BRANCH   2   3
ATOM      3  C   UNL     1     -13.202   9.332   6.575  1.00  0.00     0.000 C 
BRANCH   3   4
ATOM      4  C   UNL     1     -14.569   8.897   7.117  1.00  0.00     0.000 C 
BRANCH   4   5
ATOM      5  C   UNL     1     -14.749   9.346   8.574  1.00  0.00     0.000 C 
BRANCH   5   6
ATOM      6  C   UNL     1     -16.227   9.506   8.971  1.00  0.00     0.000 C 
BRANCH   6   7
ATOM      7  C   UNL     1     -17.208   9.072   7.862  1.00  0.00     0.000 C 
BRANCH   7   8
ATOM      8  C   UNL     1     -18.506   9.896   7.881  1.00  0.00     0.000 C 
BRANCH   8   9
ATOM      9  C   UNL     1     -18.866  10.422   9.281  1.00  0.00     0.000 C 
BRANCH   9  10
ATOM     10  C   UNL     1     -19.623   9.399  10.155  1.00  0.00     0.000 C 
BRANCH  10  11
ATOM     11  C   UNL     1     -19.300   9.560  11.649  1.00  0.00     0.000 C 
BRANCH  11  12
ATOM     12  C   UNL     1     -18.203  10.612  11.868  1.00  0.00     0.000 C 
BRANCH  12  13
ATOM     13  C   UNL     1     -16.894  10.013  12.415  1.00  0.00     0.006 C 
BRANCH  13  14
ATOM     14  C   UNL     1     -15.975  11.039  13.103  1.00  0.00     0.053 C 
BRANCH  14  15
ATOM     15  C   UNL     1     -14.524  10.776  12.840  1.00  0.00     0.041 C 
ATOM     16  O   UNL     1     -14.178  10.040  11.877  1.00  0.00    -0.550 OA
ATOM     17  O   UNL     1     -13.552  11.308  13.678  1.00  0.00    -0.550 OA
ENDBRANCH  14  15
ENDBRANCH  13  14
ENDBRANCH  12  13
ENDBRANCH  11  12
ENDBRANCH  10  11
ENDBRANCH   9  10
ENDBRANCH   8   9
ENDBRANCH   7   8
ENDBRANCH   6   7
ENDBRANCH   5   6
ENDBRANCH   4   5
ENDBRANCH   3   4
ENDBRANCH   2   3
ENDBRANCH   1   2
BRANCH   1  18
ATOM     18  C   UNL     1     -14.724   9.992   3.783  1.00  0.00     0.000 C 
BRANCH  18  19
ATOM     19  C   UNL     1     -15.896  10.832   4.321  1.00  0.00     0.000 C 
BRANCH  19  20
ATOM     20  C   UNL     1     -17.251  10.428   3.714  1.00  0.00     0.000 C 
BRANCH  20  21
ATOM     21  C   UNL     1     -18.137  11.605   3.265  1.00  0.00     0.000 C 
BRANCH  21  22
ATOM     22  C   UNL     1     -19.210  11.192   2.246  1.00  0.00     0.000 C 
BRANCH  22  23
ATOM     23  C   UNL     1     -18.632  10.241   1.191  1.00  0.00     0.000 C 
BRANCH  23  24
ATOM     24  C   UNL     1     -18.027  11.024   0.016  1.00  0.00    -0.000 C 
BRANCH  24  25
ATOM     25  C   UNL     1     -17.796  10.142  -1.229  1.00  0.00    -0.000 C 
BRANCH  25  26
ATOM     26  C   UNL     1     -16.414  10.339  -1.880  1.00  0.00    -0.000 C 
BRANCH  26  27
ATOM     27  C   UNL     1     -16.446  10.685  -3.380  1.00  0.00    -0.000 C 
BRANCH  27  28
ATOM     28  C   UNL     1     -16.172  12.166  -3.713  1.00  0.00    -0.000 C 
BRANCH  28  29
ATOM     29  C   UNL     1     -17.116  12.788  -4.762  1.00  0.00    -0.000 C 
BRANCH  29  30
ATOM     30  C   UNL     1     -18.208  13.708  -4.188  1.00  0.00    -0.000 C 
BRANCH  30  31
ATOM     31  C   UNL     1     -18.881  13.122  -2.939  1.00  0.00    -0.003 C 
ATOM     32  C   UNL     1     -19.041  14.180  -1.852  1.00  0.00     0.004 C 
ENDBRANCH  30  31
ENDBRANCH  29  30
ENDBRANCH  28  29
ENDBRANCH  27  28
ENDBRANCH  26  27
ENDBRANCH  25  26
ENDBRANCH  24  25
ENDBRANCH  23  24
ENDBRANCH  22  23
ENDBRANCH  21  22
ENDBRANCH  20  21
ENDBRANCH  19  20
ENDBRANCH  18  19
ENDBRANCH   1  18
TORSDOF 28
ENDMDL
MODEL 7
REMARK VINA RESULT:    -2.309      1.445      2.821
REMARK INTER + INTRA:          -9.590
REMARK INTER:                  -6.572
REMARK INTRA:                  -3.019
REMARK UNBOUND:                -3.500
REMARK SMILES CCCCCCCCCCCCCCCCCCCCCCCCCCCCCC(=O)[O-]
REMARK SMILES IDX 16 1 17 2 18 3 19 4 20 5 21 6 22 7 23 8 24 9 25 10 26 11
REMARK SMILES IDX 27 12 28 13 29 14 30 15 31 16 32 17 15 18 14 19 13 20 12 21
REMARK SMILES IDX 11 22 10 23 9 24 8 25 7 26 6 27 5 28 4 29 3 30 2 31 1 32
REMARK H PARENT
REMARK Flexibility Score: inf
ROOT
ATOM      1  C   UNL     1     -13.957  11.296   6.508  1.00  0.00     0.000 C 
ENDROOT
BRANCH   1   2
ATOM      2  C   UNL     1     -14.331  10.150   7.463  1.00  0.00     0.000 C 
BRANCH   2   3
ATOM      3  C   UNL     1     -15.816   9.770   7.389  1.00  0.00     0.000 C 
BRANCH   3   4
ATOM      4  C   UNL     1     -16.703  11.018   7.300  1.00  0.00     0.000 C 
BRANCH   4   5
ATOM      5  C   UNL     1     -18.173  10.631   7.080  1.00  0.00     0.000 C 
BRANCH   5   6
ATOM      6  C   UNL     1     -18.529   9.267   7.696  1.00  0.00     0.000 C 
BRANCH   6   7
ATOM      7  C   UNL     1     -19.775   9.313   8.605  1.00  0.00     0.000 C 
BRANCH   7   8
ATOM      8  C   UNL     1     -19.449   8.921  10.056  1.00  0.00     0.000 C 
BRANCH   8   9
ATOM      9  C   UNL     1     -19.848  10.002  11.076  1.00  0.00     0.000 C 
BRANCH   9  10
ATOM     10  C   UNL     1     -18.812  11.137  11.218  1.00  0.00     0.000 C 
BRANCH  10  11
ATOM     11  C   UNL     1     -18.854  11.793  12.608  1.00  0.00     0.000 C 
BRANCH  11  12
ATOM     12  C   UNL     1     -18.047  10.978  13.629  1.00  0.00     0.000 C 
BRANCH  12  13
ATOM     13  C   UNL     1     -16.615  10.667  13.155  1.00  0.00     0.006 C 
BRANCH  13  14
ATOM     14  C   UNL     1     -15.635  10.338  14.296  1.00  0.00     0.053 C 
BRANCH  14  15
ATOM     15  C   UNL     1     -14.214  10.648  13.938  1.00  0.00     0.041 C 
ATOM     16  O   UNL     1     -13.924  11.033  12.773  1.00  0.00    -0.550 OA
ATOM     17  O   UNL     1     -13.202  10.474  14.873  1.00  0.00    -0.550 OA
ENDBRANCH  14  15
ENDBRANCH  13  14
ENDBRANCH  12  13
ENDBRANCH  11  12
ENDBRANCH  10  11
ENDBRANCH   9  10
ENDBRANCH   8   9
ENDBRANCH   7   8
ENDBRANCH   6   7
ENDBRANCH   5   6
ENDBRANCH   4   5
ENDBRANCH   3   4
ENDBRANCH   2   3
ENDBRANCH   1   2
BRANCH   1  18
ATOM     18  C   UNL     1     -12.469  11.299   6.096  1.00  0.00     0.000 C 
BRANCH  18  19
ATOM     19  C   UNL     1     -12.280  10.965   4.605  1.00  0.00     0.000 C 
BRANCH  19  20
ATOM     20  C   UNL     1     -13.608  10.674   3.884  1.00  0.00     0.000 C 
BRANCH  20  21
ATOM     21  C   UNL     1     -13.931   9.180   3.699  1.00  0.00     0.000 C 
BRANCH  21  22
ATOM     22  C   UNL     1     -15.434   8.875   3.803  1.00  0.00     0.000 C 
BRANCH  22  23
ATOM     23  C   UNL     1     -16.263  10.164   3.741  1.00  0.00     0.000 C 
BRANCH  23  24
ATOM     24  C   UNL     1     -17.749   9.851   3.512  1.00  0.00    -0.000 C 
BRANCH  24  25
ATOM     25  C   UNL     1     -18.630  11.119   3.517  1.00  0.00    -0.000 C 
BRANCH  25  26
ATOM     26  C   UNL     1     -19.824  11.048   2.547  1.00  0.00    -0.000 C 
BRANCH  26  27
ATOM     27  C   UNL     1     -20.042  12.311   1.693  1.00  0.00    -0.000 C 
BRANCH  27  28
ATOM     28  C   UNL     1     -19.367  12.285   0.306  1.00  0.00    -0.000 C 
BRANCH  28  29
ATOM     29  C   UNL     1     -20.125  13.037  -0.808  1.00  0.00    -0.000 C 
BRANCH  29  30
ATOM     30  C   UNL     1     -19.383  14.252  -1.391  1.00  0.00    -0.000 C 
BRANCH  30  31
ATOM     31  C   UNL     1     -19.363  15.451  -0.432  1.00  0.00    -0.003 C 
ATOM     32  C   UNL     1     -18.819  16.698  -1.123  1.00  0.00     0.004 C 
ENDBRANCH  30  31
ENDBRANCH  29  30
ENDBRANCH  28  29
ENDBRANCH  27  28
ENDBRANCH  26  27
ENDBRANCH  25  26
ENDBRANCH  24  25
ENDBRANCH  23  24
ENDBRANCH  22  23
ENDBRANCH  21  22
ENDBRANCH  20  21
ENDBRANCH  19  20
ENDBRANCH  18  19
ENDBRANCH   1  18
TORSDOF 28
ENDMDL
MODEL 8
REMARK VINA RESULT:    -2.290      2.052      3.471
REMARK INTER + INTRA:          -9.538
REMARK INTER:                  -7.172
REMARK INTRA:                  -2.367
REMARK UNBOUND:                -3.500
REMARK SMILES CCCCCCCCCCCCCCCCCCCCCCCCCCCCCC(=O)[O-]
REMARK SMILES IDX 16 1 17 2 18 3 19 4 20 5 21 6 22 7 23 8 24 9 25 10 26 11
REMARK SMILES IDX 27 12 28 13 29 14 30 15 31 16 32 17 15 18 14 19 13 20 12 21
REMARK SMILES IDX 11 22 10 23 9 24 8 25 7 26 6 27 5 28 4 29 3 30 2 31 1 32
REMARK H PARENT
REMARK Flexibility Score: inf
ROOT
ATOM      1  C   UNL     1     -13.110   8.875   1.756  1.00  0.00     0.000 C 
ENDROOT
BRANCH   1   2
ATOM      2  C   UNL     1     -13.417   9.625   3.062  1.00  0.00     0.000 C 
BRANCH   2   3
ATOM      3  C   UNL     1     -12.330   9.441   4.129  1.00  0.00     0.000 C 
BRANCH   3   4
ATOM      4  C   UNL     1     -12.777  10.011   5.480  1.00  0.00     0.000 C 
BRANCH   4   5
ATOM      5  C   UNL     1     -13.252   8.891   6.417  1.00  0.00     0.000 C 
BRANCH   5   6
ATOM      6  C   UNL     1     -14.447   9.311   7.290  1.00  0.00     0.000 C 
BRANCH   6   7
ATOM      7  C   UNL     1     -14.772  10.818   7.199  1.00  0.00     0.000 C 
BRANCH   7   8
ATOM      8  C   UNL     1     -16.103  11.081   6.477  1.00  0.00     0.000 C 
BRANCH   8   9
ATOM      9  C   UNL     1     -17.113   9.931   6.635  1.00  0.00     0.000 C 
BRANCH   9  10
ATOM     10  C   UNL     1     -18.141  10.156   7.765  1.00  0.00     0.000 C 
BRANCH  10  11
ATOM     11  C   UNL     1     -18.121   9.022   8.803  1.00  0.00     0.000 C 
BRANCH  11  12
ATOM     12  C   UNL     1     -17.738   9.551  10.193  1.00  0.00     0.000 C 
BRANCH  12  13
ATOM     13  C   UNL     1     -18.105  11.032  10.397  1.00  0.00     0.006 C 
BRANCH  13  14
ATOM     14  C   UNL     1     -19.147  11.272  11.504  1.00  0.00     0.053 C 
BRANCH  14  15
ATOM     15  C   UNL     1     -18.518  11.479  12.848  1.00  0.00     0.041 C 
ATOM     16  O   UNL     1     -19.047  10.983  13.879  1.00  0.00    -0.550 OA
ATOM     17  O   UNL     1     -17.371  12.253  12.973  1.00  0.00    -0.550 OA
ENDBRANCH  14  15
ENDBRANCH  13  14
ENDBRANCH  12  13
ENDBRANCH  11  12
ENDBRANCH  10  11
ENDBRANCH   9  10
ENDBRANCH   8   9
ENDBRANCH   7   8
ENDBRANCH   6   7
ENDBRANCH   5   6
ENDBRANCH   4   5
ENDBRANCH   3   4
ENDBRANCH   2   3
ENDBRANCH   1   2
BRANCH   1  18
ATOM     18  C   UNL     1     -11.923   9.465   0.965  1.00  0.00     0.000 C 
BRANCH  18  19
ATOM     19  C   UNL     1     -12.282   9.730  -0.508  1.00  0.00     0.000 C 
BRANCH  19  20
ATOM     20  C   UNL     1     -13.583   9.033  -0.942  1.00  0.00     0.000 C 
BRANCH  20  21
ATOM     21  C   UNL     1     -14.179   9.540  -2.268  1.00  0.00     0.000 C 
BRANCH  21  22
ATOM     22  C   UNL     1     -15.562   8.943  -2.570  1.00  0.00     0.000 C 
BRANCH  22  23
ATOM     23  C   UNL     1     -16.441   8.926  -1.313  1.00  0.00     0.000 C 
BRANCH  23  24
ATOM     24  C   UNL     1     -17.713   9.763  -1.520  1.00  0.00    -0.000 C 
BRANCH  24  25
ATOM     25  C   UNL     1     -17.780  10.983  -0.577  1.00  0.00    -0.000 C 
BRANCH  25  26
ATOM     26  C   UNL     1     -17.902  10.608   0.913  1.00  0.00    -0.000 C 
BRANCH  26  27
ATOM     27  C   UNL     1     -19.082  11.264   1.653  1.00  0.00    -0.000 C 
BRANCH  27  28
ATOM     28  C   UNL     1     -18.964  12.790   1.846  1.00  0.00    -0.000 C 
BRANCH  28  29
ATOM     29  C   UNL     1     -20.022  13.630   1.101  1.00  0.00    -0.000 C 
BRANCH  29  30
ATOM     30  C   UNL     1     -19.679  13.954  -0.363  1.00  0.00    -0.000 C 
BRANCH  30  31
ATOM     31  C   UNL     1     -18.751  15.169  -0.501  1.00  0.00    -0.003 C 
ATOM     32  C   UNL     1     -19.442  16.309  -1.244  1.00  0.00     0.004 C 
ENDBRANCH  30  31
ENDBRANCH  29  30
ENDBRANCH  28  29
ENDBRANCH  27  28
ENDBRANCH  26  27
ENDBRANCH  25  26
ENDBRANCH  24  25
ENDBRANCH  23  24
ENDBRANCH  22  23
ENDBRANCH  21  22
ENDBRANCH  20  21
ENDBRANCH  19  20
ENDBRANCH  18  19
ENDBRANCH   1  18
TORSDOF 28
ENDMDL
MODEL 9
REMARK VINA RESULT:    -2.225      4.470     11.043
REMARK INTER + INTRA:          -9.366
REMARK INTER:                  -6.478
REMARK INTRA:                  -2.889
REMARK UNBOUND:                -3.500
REMARK SMILES CCCCCCCCCCCCCCCCCCCCCCCCCCCCCC(=O)[O-]
REMARK SMILES IDX 16 1 17 2 18 3 19 4 20 5 21 6 22 7 23 8 24 9 25 10 26 11
REMARK SMILES IDX 27 12 28 13 29 14 30 15 31 16 32 17 15 18 14 19 13 20 12 21
REMARK SMILES IDX 11 22 10 23 9 24 8 25 7 26 6 27 5 28 4 29 3 30 2 31 1 32
REMARK H PARENT
REMARK Flexibility Score: inf
ROOT
ATOM      1  C   UNL     1     -12.918  10.585   5.230  1.00  0.00     0.000 C 
ENDROOT
BRANCH   1   2
ATOM      2  C   UNL     1     -12.924   9.867   3.871  1.00  0.00     0.000 C 
BRANCH   2   3
ATOM      3  C   UNL     1     -14.104   8.899   3.711  1.00  0.00     0.000 C 
BRANCH   3   4
ATOM      4  C   UNL     1     -15.361   9.632   3.226  1.00  0.00     0.000 C 
BRANCH   4   5
ATOM      5  C   UNL     1     -16.013   8.886   2.053  1.00  0.00     0.000 C 
BRANCH   5   6
ATOM      6  C   UNL     1     -17.513   9.197   1.909  1.00  0.00     0.000 C 
BRANCH   6   7
ATOM      7  C   UNL     1     -18.195   9.553   3.247  1.00  0.00     0.000 C 
BRANCH   7   8
ATOM      8  C   UNL     1     -18.972  10.878   3.167  1.00  0.00     0.000 C 
BRANCH   8   9
ATOM      9  C   UNL     1     -18.551  11.752   1.973  1.00  0.00     0.000 C 
BRANCH   9  10
ATOM     10  C   UNL     1     -19.498  11.647   0.759  1.00  0.00     0.000 C 
BRANCH  10  11
ATOM     11  C   UNL     1     -18.772  11.913  -0.570  1.00  0.00     0.000 C 
BRANCH  11  12
ATOM     12  C   UNL     1     -18.055  10.650  -1.070  1.00  0.00     0.000 C 
BRANCH  12  13
ATOM     13  C   UNL     1     -18.265  10.393  -2.574  1.00  0.00     0.006 C 
BRANCH  13  14
ATOM     14  C   UNL     1     -17.348  11.228  -3.486  1.00  0.00     0.053 C 
BRANCH  14  15
ATOM     15  C   UNL     1     -15.895  10.972  -3.224  1.00  0.00     0.041 C 
ATOM     16  O   UNL     1     -15.362   9.895  -3.606  1.00  0.00    -0.550 OA
ATOM     17  O   UNL     1     -15.135  11.902  -2.525  1.00  0.00    -0.550 OA
ENDBRANCH  14  15
ENDBRANCH  13  14
ENDBRANCH  12  13
ENDBRANCH  11  12
ENDBRANCH  10  11
ENDBRANCH   9  10
ENDBRANCH   8   9
ENDBRANCH   7   8
ENDBRANCH   6   7
ENDBRANCH   5   6
ENDBRANCH   4   5
ENDBRANCH   3   4
ENDBRANCH   2   3
ENDBRANCH   1   2
BRANCH   1  18
ATOM     18  C   UNL     1     -13.790   9.897   6.301  1.00  0.00     0.000 C 
BRANCH  18  19
ATOM     19  C   UNL     1     -14.821  10.860   6.916  1.00  0.00     0.000 C 
BRANCH  19  20
ATOM     20  C   UNL     1     -16.216  10.732   6.278  1.00  0.00     0.000 C 
BRANCH  20  21
ATOM     21  C   UNL     1     -17.342  10.342   7.253  1.00  0.00     0.000 C 
BRANCH  21  22
ATOM     22  C   UNL     1     -17.174   8.926   7.826  1.00  0.00     0.000 C 
BRANCH  22  23
ATOM     23  C   UNL     1     -16.908   8.970   9.336  1.00  0.00     0.000 C 
BRANCH  23  24
ATOM     24  C   UNL     1     -17.104  10.390   9.887  1.00  0.00    -0.000 C 
BRANCH  24  25
ATOM     25  C   UNL     1     -18.182  10.455  10.989  1.00  0.00    -0.000 C 
BRANCH  25  26
ATOM     26  C   UNL     1     -18.288   9.168  11.830  1.00  0.00    -0.000 C 
BRANCH  26  27
ATOM     27  C   UNL     1     -18.975   9.340  13.197  1.00  0.00    -0.000 C 
BRANCH  27  28
ATOM     28  C   UNL     1     -18.100   9.988  14.290  1.00  0.00    -0.000 C 
BRANCH  28  29
ATOM     29  C   UNL     1     -16.599   9.638  14.222  1.00  0.00    -0.000 C 
BRANCH  29  30
ATOM     30  C   UNL     1     -15.672  10.819  13.888  1.00  0.00    -0.000 C 
BRANCH  30  31
ATOM     31  C   UNL     1     -14.704  10.507  12.737  1.00  0.00    -0.003 C 
ATOM     32  C   UNL     1     -13.678   9.456  13.149  1.00  0.00     0.004 C 
ENDBRANCH  30  31
ENDBRANCH  29  30
ENDBRANCH  28  29
ENDBRANCH  27  28
ENDBRANCH  26  27
ENDBRANCH  25  26
ENDBRANCH  24  25
ENDBRANCH  23  24
ENDBRANCH  22  23
ENDBRANCH  21  22
ENDBRANCH  20  21
ENDBRANCH  19  20
ENDBRANCH  18  19
ENDBRANCH   1  18
TORSDOF 28
ENDMDL
