MODEL 1
REMARK VINA RESULT:    -6.290      0.000      0.000
REMARK INTER + INTRA:         -17.094
REMARK INTER:                 -13.645
REMARK INTRA:                  -3.449
REMARK UNBOUND:                -3.449
REMARK SMILES CCCCCCCCCCCCCCCCCCCCCC(=O)[O-]
REMARK SMILES IDX 12 1 11 2 10 3 9 4 8 5 7 6 6 7 5 8 4 9 3 10 2 11 1 12 13 13
REMARK SMILES IDX 14 14 15 15 16 16 17 17 18 18 19 19 20 20 21 21 22 22 23 23
REMARK SMILES IDX 24 24
REMARK H PARENT
REMARK Flexibility Score: inf
ROOT
ATOM      1  C   UNL     1      15.903  -0.242  15.432  1.00  0.00     0.000 C 
ENDROOT
BRANCH   1   2
ATOM      2  C   UNL     1      15.607  -1.156  16.636  1.00  0.00     0.000 C 
BRANCH   2   3
ATOM      3  C   UNL     1      16.716  -2.173  16.977  1.00  0.00     0.000 C 
BRANCH   3   4
ATOM      4  C   UNL     1      17.439  -1.924  18.312  1.00  0.00    -0.000 C 
BRANCH   4   5
ATOM      5  C   UNL     1      17.952  -0.481  18.450  1.00  0.00    -0.000 C 
BRANCH   5   6
ATOM      6  C   UNL     1      17.291   0.281  19.614  1.00  0.00    -0.000 C 
BRANCH   6   7
ATOM      7  C   UNL     1      15.979  -0.338  20.131  1.00  0.00    -0.000 C 
BRANCH   7   8
ATOM      8  C   UNL     1      14.803   0.648  20.280  1.00  0.00    -0.000 C 
BRANCH   8   9
ATOM      9  C   UNL     1      13.684   0.444  19.236  1.00  0.00    -0.000 C 
BRANCH   9  10
ATOM     10  C   UNL     1      13.642   1.570  18.189  1.00  0.00    -0.000 C 
BRANCH  10  11
ATOM     11  C   UNL     1      14.196   2.897  18.730  1.00  0.00    -0.003 C 
ATOM     12  C   UNL     1      13.886   4.081  17.815  1.00  0.00     0.004 C 
ENDBRANCH  10  11
ENDBRANCH   9  10
ENDBRANCH   8   9
ENDBRANCH   7   8
ENDBRANCH   6   7
ENDBRANCH   5   6
ENDBRANCH   4   5
ENDBRANCH   3   4
ENDBRANCH   2   3
ENDBRANCH   1   2
BRANCH   1  13
ATOM     13  C   UNL     1      16.341   1.169  15.848  1.00  0.00     0.000 C 
BRANCH  13  14
ATOM     14  C   UNL     1      15.522   2.237  15.107  1.00  0.00     0.000 C 
BRANCH  14  15
ATOM     15  C   UNL     1      15.047   1.773  13.721  1.00  0.00     0.000 C 
BRANCH  15  16
ATOM     16  C   UNL     1      15.529   2.695  12.589  1.00  0.00     0.000 C 
BRANCH  16  17
ATOM     17  C   UNL     1      15.926   1.926  11.315  1.00  0.00     0.000 C 
BRANCH  17  18
ATOM     18  C   UNL     1      17.419   1.563  11.210  1.00  0.00     0.000 C 
BRANCH  18  19
ATOM     19  C   UNL     1      17.737   0.167  11.773  1.00  0.00     0.000 C 
BRANCH  19  20
ATOM     20  C   UNL     1      18.530   0.225  13.087  1.00  0.00     0.006 C 
BRANCH  20  21
ATOM     21  C   UNL     1      18.786  -1.167  13.681  1.00  0.00     0.053 C 
BRANCH  21  22
ATOM     22  C   UNL     1      19.600  -1.058  14.932  1.00  0.00     0.041 C 
ATOM     23  O   UNL     1      19.990  -2.098  15.526  1.00  0.00    -0.550 OA
ATOM     24  O   UNL     1      19.885   0.190  15.469  1.00  0.00    -0.550 OA
ENDBRANCH  21  22
ENDBRANCH  20  21
ENDBRANCH  19  20
ENDBRANCH  18  19
ENDBRANCH  17  18
ENDBRANCH  16  17
ENDBRANCH  15  16
ENDBRANCH  14  15
ENDBRANCH  13  14
ENDBRANCH   1  13
TORSDOF 20
ENDMDL
MODEL 2
REMARK VINA RESULT:    -6.183      0.981      3.326
REMARK INTER + INTRA:         -16.861
REMARK INTER:                 -13.878
REMARK INTRA:                  -2.983
REMARK UNBOUND:                -3.449
REMARK SMILES CCCCCCCCCCCCCCCCCCCCCC(=O)[O-]
REMARK SMILES IDX 12 1 11 2 10 3 9 4 8 5 7 6 6 7 5 8 4 9 3 10 2 11 1 12 13 13
REMARK SMILES IDX 14 14 15 15 16 16 17 17 18 18 19 19 20 20 21 21 22 22 23 23
REMARK SMILES IDX 24 24
REMARK H PARENT
REMARK Flexibility Score: inf
ROOT
ATOM      1  C   UNL     1      15.124   3.088  16.219  1.00  0.00     0.000 C 
ENDROOT
BRANCH   1   2
ATOM      2  C   UNL     1      13.606   3.253  16.419  1.00  0.00     0.000 C 
BRANCH   2   3
ATOM      3  C   UNL     1      13.126   3.199  17.884  1.00  0.00     0.000 C 
BRANCH   3   4
ATOM      4  C   UNL     1      14.245   3.049  18.931  1.00  0.00    -0.000 C 
BRANCH   4   5
ATOM      5  C   UNL     1      14.377   1.610  19.456  1.00  0.00    -0.000 C 
BRANCH   5   6
ATOM      6  C   UNL     1      13.705   0.572  18.539  1.00  0.00    -0.000 C 
BRANCH   6   7
ATOM      7  C   UNL     1      13.794  -0.884  19.034  1.00  0.00    -0.000 C 
BRANCH   7   8
ATOM      8  C   UNL     1      14.452  -1.871  18.049  1.00  0.00    -0.000 C 
BRANCH   8   9
ATOM      9  C   UNL     1      15.784  -1.364  17.455  1.00  0.00    -0.000 C 
BRANCH   9  10
ATOM     10  C   UNL     1      16.984  -1.642  18.377  1.00  0.00    -0.000 C 
BRANCH  10  11
ATOM     11  C   UNL     1      17.465  -0.382  19.113  1.00  0.00    -0.003 C 
ATOM     12  C   UNL     1      17.762   0.777  18.163  1.00  0.00     0.004 C 
ENDBRANCH  10  11
ENDBRANCH   9  10
ENDBRANCH   8   9
ENDBRANCH   7   8
ENDBRANCH   6   7
ENDBRANCH   5   6
ENDBRANCH   4   5
ENDBRANCH   3   4
ENDBRANCH   2   3
ENDBRANCH   1   2
BRANCH   1  13
ATOM     13  C   UNL     1      15.489   1.811  15.450  1.00  0.00     0.000 C 
BRANCH  13  14
ATOM     14  C   UNL     1      14.762   1.760  14.097  1.00  0.00     0.000 C 
BRANCH  14  15
ATOM     15  C   UNL     1      15.441   2.622  13.021  1.00  0.00     0.000 C 
BRANCH  15  16
ATOM     16  C   UNL     1      15.613   1.878  11.685  1.00  0.00     0.000 C 
BRANCH  16  17
ATOM     17  C   UNL     1      17.004   2.083  11.059  1.00  0.00     0.000 C 
BRANCH  17  18
ATOM     18  C   UNL     1      18.039   0.994  11.396  1.00  0.00     0.000 C 
BRANCH  18  19
ATOM     19  C   UNL     1      17.457  -0.139  12.259  1.00  0.00     0.000 C 
BRANCH  19  20
ATOM     20  C   UNL     1      18.515  -0.806  13.152  1.00  0.00     0.006 C 
BRANCH  20  21
ATOM     21  C   UNL     1      18.410  -0.361  14.617  1.00  0.00     0.053 C 
BRANCH  21  22
ATOM     22  C   UNL     1      19.626  -0.789  15.379  1.00  0.00     0.041 C 
ATOM     23  O   UNL     1      20.397   0.072  15.876  1.00  0.00    -0.550 OA
ATOM     24  O   UNL     1      19.931  -2.139  15.498  1.00  0.00    -0.550 OA
ENDBRANCH  21  22
ENDBRANCH  20  21
ENDBRANCH  19  20
ENDBRANCH  18  19
ENDBRANCH  17  18
ENDBRANCH  16  17
ENDBRANCH  15  16
ENDBRANCH  14  15
ENDBRANCH  13  14
ENDBRANCH   1  13
TORSDOF 20
ENDMDL
MODEL 3
REMARK VINA RESULT:    -6.179      2.515      6.854
REMARK INTER + INTRA:         -16.853
REMARK INTER:                 -13.801
REMARK INTRA:                  -3.052
REMARK UNBOUND:                -3.449
REMARK SMILES CCCCCCCCCCCCCCCCCCCCCC(=O)[O-]
REMARK SMILES IDX 12 1 11 2 10 3 9 4 8 5 7 6 6 7 5 8 4 9 3 10 2 11 1 12 13 13
REMARK SMILES IDX 14 14 15 15 16 16 17 17 18 18 19 19 20 20 21 21 22 22 23 23
REMARK SMILES IDX 24 24
REMARK H PARENT
REMARK Flexibility Score: inf
ROOT
ATOM      1  C   UNL     1      18.308  -2.350  16.601  1.00  0.00     0.000 C 
ENDROOT
BRANCH   1   2
ATOM      2  C   UNL     1      19.167  -1.276  15.909  1.00  0.00     0.000 C 
BRANCH   2   3
ATOM      3  C   UNL     1      19.200  -1.353  14.369  1.00  0.00     0.000 C 
BRANCH   3   4
ATOM      4  C   UNL     1      18.307  -0.329  13.646  1.00  0.00    -0.000 C 
BRANCH   4   5
ATOM      5  C   UNL     1      17.414   0.467  14.612  1.00  0.00    -0.000 C 
BRANCH   5   6
ATOM      6  C   UNL     1      15.960  -0.037  14.637  1.00  0.00    -0.000 C 
BRANCH   6   7
ATOM      7  C   UNL     1      14.942   0.885  13.939  1.00  0.00    -0.000 C 
BRANCH   7   8
ATOM      8  C   UNL     1      15.263   2.391  14.015  1.00  0.00    -0.000 C 
BRANCH   8   9
ATOM      9  C   UNL     1      15.592   3.027  12.646  1.00  0.00    -0.000 C 
BRANCH   9  10
ATOM     10  C   UNL     1      15.845   1.975  11.553  1.00  0.00    -0.000 C 
BRANCH  10  11
ATOM     11  C   UNL     1      17.290   2.004  11.033  1.00  0.00    -0.003 C 
ATOM     12  C   UNL     1      17.640   0.772  10.198  1.00  0.00     0.004 C 
ENDBRANCH  10  11
ENDBRANCH   9  10
ENDBRANCH   8   9
ENDBRANCH   7   8
ENDBRANCH   6   7
ENDBRANCH   5   6
ENDBRANCH   4   5
ENDBRANCH   3   4
ENDBRANCH   2   3
ENDBRANCH   1   2
BRANCH   1  13
ATOM     13  C   UNL     1      17.381  -1.769  17.679  1.00  0.00     0.000 C 
BRANCH  13  14
ATOM     14  C   UNL     1      17.742  -0.307  17.982  1.00  0.00     0.000 C 
BRANCH  14  15
ATOM     15  C   UNL     1      17.280   0.147  19.375  1.00  0.00     0.000 C 
BRANCH  15  16
ATOM     16  C   UNL     1      16.223  -0.788  19.985  1.00  0.00     0.000 C 
BRANCH  16  17
ATOM     17  C   UNL     1      15.091  -0.028  20.702  1.00  0.00     0.000 C 
BRANCH  17  18
ATOM     18  C   UNL     1      13.750   0.011  19.946  1.00  0.00     0.000 C 
BRANCH  18  19
ATOM     19  C   UNL     1      13.892  -0.337  18.454  1.00  0.00     0.000 C 
BRANCH  19  20
ATOM     20  C   UNL     1      13.789   0.898  17.546  1.00  0.00     0.006 C 
BRANCH  20  21
ATOM     21  C   UNL     1      13.559   2.192  18.339  1.00  0.00     0.053 C 
BRANCH  21  22
ATOM     22  C   UNL     1      13.608   3.378  17.427  1.00  0.00     0.041 C 
ATOM     23  O   UNL     1      12.913   3.397  16.377  1.00  0.00    -0.550 OA
ATOM     24  O   UNL     1      14.458   4.438  17.710  1.00  0.00    -0.550 OA
ENDBRANCH  21  22
ENDBRANCH  20  21
ENDBRANCH  19  20
ENDBRANCH  18  19
ENDBRANCH  17  18
ENDBRANCH  16  17
ENDBRANCH  15  16
ENDBRANCH  14  15
ENDBRANCH  13  14
ENDBRANCH   1  13
TORSDOF 20
ENDMDL
MODEL 4
REMARK VINA RESULT:    -6.150      2.404      6.989
REMARK INTER + INTRA:         -16.789
REMARK INTER:                 -13.715
REMARK INTRA:                  -3.074
REMARK UNBOUND:                -3.449
REMARK SMILES CCCCCCCCCCCCCCCCCCCCCC(=O)[O-]
REMARK SMILES IDX 12 1 11 2 10 3 9 4 8 5 7 6 6 7 5 8 4 9 3 10 2 11 1 12 13 13
REMARK SMILES IDX 14 14 15 15 16 16 17 17 18 18 19 19 20 20 21 21 22 22 23 23
REMARK SMILES IDX 24 24
REMARK H PARENT
REMARK Flexibility Score: inf
ROOT
ATOM      1  C   UNL     1      19.165  -1.117  14.002  1.00  0.00     0.000 C 
ENDROOT
BRANCH   1   2
ATOM      2  C   UNL     1      18.155  -0.062  14.489  1.00  0.00     0.000 C 
BRANCH   2   3
ATOM      3  C   UNL     1      16.670  -0.432  14.288  1.00  0.00     0.000 C 
BRANCH   3   4
ATOM      4  C   UNL     1      15.700   0.192  15.307  1.00  0.00    -0.000 C 
BRANCH   4   5
ATOM      5  C   UNL     1      16.211   1.527  15.873  1.00  0.00    -0.000 C 
BRANCH   5   6
ATOM      6  C   UNL     1      15.374   2.734  15.411  1.00  0.00    -0.000 C 
BRANCH   6   7
ATOM      7  C   UNL     1      14.694   2.562  14.039  1.00  0.00    -0.000 C 
BRANCH   7   8
ATOM      8  C   UNL     1      15.506   3.081  12.835  1.00  0.00    -0.000 C 
BRANCH   8   9
ATOM      9  C   UNL     1      15.675   2.044  11.704  1.00  0.00    -0.000 C 
BRANCH   9  10
ATOM     10  C   UNL     1      17.081   2.074  11.082  1.00  0.00    -0.000 C 
BRANCH  10  11
ATOM     11  C   UNL     1      17.654   0.667  10.853  1.00  0.00    -0.003 C 
ATOM     12  C   UNL     1      17.828   0.336   9.371  1.00  0.00     0.004 C 
ENDBRANCH  10  11
ENDBRANCH   9  10
ENDBRANCH   8   9
ENDBRANCH   7   8
ENDBRANCH   6   7
ENDBRANCH   5   6
ENDBRANCH   4   5
ENDBRANCH   3   4
ENDBRANCH   2   3
ENDBRANCH   1   2
BRANCH   1  13
ATOM     13  C   UNL     1      19.602  -2.082  15.114  1.00  0.00     0.000 C 
BRANCH  13  14
ATOM     14  C   UNL     1      19.057  -1.629  16.477  1.00  0.00     0.000 C 
BRANCH  14  15
ATOM     15  C   UNL     1      17.907  -2.513  16.985  1.00  0.00     0.000 C 
BRANCH  15  16
ATOM     16  C   UNL     1      17.151  -1.883  18.167  1.00  0.00     0.000 C 
BRANCH  16  17
ATOM     17  C   UNL     1      17.737  -0.527  18.600  1.00  0.00     0.000 C 
BRANCH  17  18
ATOM     18  C   UNL     1      16.862   0.282  19.575  1.00  0.00     0.000 C 
BRANCH  18  19
ATOM     19  C   UNL     1      15.502  -0.383  19.852  1.00  0.00     0.000 C 
BRANCH  19  20
ATOM     20  C   UNL     1      14.374   0.640  20.054  1.00  0.00     0.006 C 
BRANCH  20  21
ATOM     21  C   UNL     1      14.716   2.015  19.464  1.00  0.00     0.053 C 
BRANCH  21  22
ATOM     22  C   UNL     1      13.669   2.434  18.479  1.00  0.00     0.041 C 
ATOM     23  O   UNL     1      13.249   1.619  17.618  1.00  0.00    -0.550 OA
ATOM     24  O   UNL     1      13.194   3.739  18.483  1.00  0.00    -0.550 OA
ENDBRANCH  21  22
ENDBRANCH  20  21
ENDBRANCH  19  20
ENDBRANCH  18  19
ENDBRANCH  17  18
ENDBRANCH  16  17
ENDBRANCH  15  16
ENDBRANCH  14  15
ENDBRANCH  13  14
ENDBRANCH   1  13
TORSDOF 20
ENDMDL
MODEL 5
REMARK VINA RESULT:    -6.097      1.904      3.499
REMARK INTER + INTRA:         -16.673
REMARK INTER:                 -13.319
REMARK INTRA:                  -3.355
REMARK UNBOUND:                -3.449
REMARK SMILES CCCCCCCCCCCCCCCCCCCCCC(=O)[O-]
REMARK SMILES IDX 12 1 11 2 10 3 9 4 8 5 7 6 6 7 5 8 4 9 3 10 2 11 1 12 13 13
REMARK SMILES IDX 14 14 15 15 16 16 17 17 18 18 19 19 20 20 21 21 22 22 23 23
REMARK SMILES IDX 24 24
REMARK H PARENT
REMARK Flexibility Score: inf
ROOT
ATOM      1  C   UNL     1      19.305  -2.246  15.868  1.00  0.00     0.000 C 
ENDROOT
BRANCH   1   2
ATOM      2  C   UNL     1      18.457  -2.268  17.153  1.00  0.00     0.000 C 
BRANCH   2   3
ATOM      3  C   UNL     1      16.960  -2.578  16.947  1.00  0.00     0.000 C 
BRANCH   3   4
ATOM      4  C   UNL     1      16.002  -1.802  17.868  1.00  0.00    -0.000 C 
BRANCH   4   5
ATOM      5  C   UNL     1      16.716  -1.179  19.079  1.00  0.00    -0.000 C 
BRANCH   5   6
ATOM      6  C   UNL     1      16.540   0.348  19.158  1.00  0.00    -0.000 C 
BRANCH   6   7
ATOM      7  C   UNL     1      15.446   0.825  20.132  1.00  0.00    -0.000 C 
BRANCH   7   8
ATOM      8  C   UNL     1      14.013   0.821  19.561  1.00  0.00    -0.000 C 
BRANCH   8   9
ATOM      9  C   UNL     1      13.919   1.346  18.112  1.00  0.00    -0.000 C 
BRANCH   9  10
ATOM     10  C   UNL     1      13.201   2.703  18.023  1.00  0.00    -0.000 C 
BRANCH  10  11
ATOM     11  C   UNL     1      14.153   3.849  17.647  1.00  0.00    -0.003 C 
ATOM     12  C   UNL     1      15.508   3.349  17.149  1.00  0.00     0.004 C 
ENDBRANCH  10  11
ENDBRANCH   9  10
ENDBRANCH   8   9
ENDBRANCH   7   8
ENDBRANCH   6   7
ENDBRANCH   5   6
ENDBRANCH   4   5
ENDBRANCH   3   4
ENDBRANCH   2   3
ENDBRANCH   1   2
BRANCH   1  13
ATOM     13  C   UNL     1      19.809  -0.841  15.510  1.00  0.00     0.000 C 
BRANCH  13  14
ATOM     14  C   UNL     1      19.248  -0.388  14.153  1.00  0.00     0.000 C 
BRANCH  14  15
ATOM     15  C   UNL     1      17.715  -0.480  14.079  1.00  0.00     0.000 C 
BRANCH  15  16
ATOM     16  C   UNL     1      17.013   0.572  14.954  1.00  0.00     0.000 C 
BRANCH  16  17
ATOM     17  C   UNL     1      15.481   0.416  14.968  1.00  0.00     0.000 C 
BRANCH  17  18
ATOM     18  C   UNL     1      14.724   1.316  13.975  1.00  0.00     0.000 C 
BRANCH  18  19
ATOM     19  C   UNL     1      15.460   2.634  13.679  1.00  0.00     0.000 C 
BRANCH  19  20
ATOM     20  C   UNL     1      15.558   2.932  12.175  1.00  0.00     0.006 C 
BRANCH  20  21
ATOM     21  C   UNL     1      15.631   1.655  11.327  1.00  0.00     0.053 C 
BRANCH  21  22
ATOM     22  C   UNL     1      17.052   1.347  10.971  1.00  0.00     0.041 C 
ATOM     23  O   UNL     1      17.903   2.272  10.907  1.00  0.00    -0.550 OA
ATOM     24  O   UNL     1      17.425   0.046  10.660  1.00  0.00    -0.550 OA
ENDBRANCH  21  22
ENDBRANCH  20  21
ENDBRANCH  19  20
ENDBRANCH  18  19
ENDBRANCH  17  18
ENDBRANCH  16  17
ENDBRANCH  15  16
ENDBRANCH  14  15
ENDBRANCH  13  14
ENDBRANCH   1  13
TORSDOF 20
ENDMDL
MODEL 6
REMARK VINA RESULT:    -6.079      2.082      4.622
REMARK INTER + INTRA:         -16.635
REMARK INTER:                 -13.548
REMARK INTRA:                  -3.087
REMARK UNBOUND:                -3.449
REMARK SMILES CCCCCCCCCCCCCCCCCCCCCC(=O)[O-]
REMARK SMILES IDX 12 1 11 2 10 3 9 4 8 5 7 6 6 7 5 8 4 9 3 10 2 11 1 12 13 13
REMARK SMILES IDX 14 14 15 15 16 16 17 17 18 18 19 19 20 20 21 21 22 22 23 23
REMARK SMILES IDX 24 24
REMARK H PARENT
REMARK Flexibility Score: inf
ROOT
ATOM      1  C   UNL     1      13.802   1.052  18.197  1.00  0.00     0.000 C 
ENDROOT
BRANCH   1   2
ATOM      2  C   UNL     1      13.645   0.179  19.455  1.00  0.00     0.000 C 
BRANCH   2   3
ATOM      3  C   UNL     1      14.966  -0.327  20.072  1.00  0.00     0.000 C 
BRANCH   3   4
ATOM      4  C   UNL     1      16.200   0.544  19.774  1.00  0.00    -0.000 C 
BRANCH   4   5
ATOM      5  C   UNL     1      17.310  -0.230  19.044  1.00  0.00    -0.000 C 
BRANCH   5   6
ATOM      6  C   UNL     1      16.959  -1.713  18.820  1.00  0.00    -0.000 C 
BRANCH   6   7
ATOM      7  C   UNL     1      16.618  -2.085  17.365  1.00  0.00    -0.000 C 
BRANCH   7   8
ATOM      8  C   UNL     1      16.283  -0.894  16.445  1.00  0.00    -0.000 C 
BRANCH   8   9
ATOM      9  C   UNL     1      17.323  -0.659  15.328  1.00  0.00    -0.000 C 
BRANCH   9  10
ATOM     10  C   UNL     1      18.528   0.167  15.810  1.00  0.00    -0.000 C 
BRANCH  10  11
ATOM     11  C   UNL     1      19.871  -0.473  15.425  1.00  0.00    -0.003 C 
ATOM     12  C   UNL     1      19.729  -1.936  15.007  1.00  0.00     0.004 C 
ENDBRANCH  10  11
ENDBRANCH   9  10
ENDBRANCH   8   9
ENDBRANCH   7   8
ENDBRANCH   6   7
ENDBRANCH   5   6
ENDBRANCH   4   5
ENDBRANCH   3   4
ENDBRANCH   2   3
ENDBRANCH   1   2
BRANCH   1  13
ATOM     13  C   UNL     1      13.315   2.493  18.407  1.00  0.00     0.000 C 
BRANCH  13  14
ATOM     14  C   UNL     1      13.833   3.414  17.291  1.00  0.00     0.000 C 
BRANCH  14  15
ATOM     15  C   UNL     1      15.341   3.258  17.038  1.00  0.00     0.000 C 
BRANCH  15  16
ATOM     16  C   UNL     1      15.653   2.679  15.648  1.00  0.00     0.000 C 
BRANCH  16  17
ATOM     17  C   UNL     1      14.389   2.412  14.811  1.00  0.00     0.000 C 
BRANCH  17  18
ATOM     18  C   UNL     1      14.600   1.519  13.575  1.00  0.00     0.000 C 
BRANCH  18  19
ATOM     19  C   UNL     1      15.561   2.139  12.545  1.00  0.00     0.000 C 
BRANCH  19  20
ATOM     20  C   UNL     1      16.719   1.199  12.176  1.00  0.00     0.006 C 
BRANCH  20  21
ATOM     21  C   UNL     1      17.515   1.698  10.962  1.00  0.00     0.053 C 
BRANCH  21  22
ATOM     22  C   UNL     1      17.730   0.582   9.987  1.00  0.00     0.041 C 
ATOM     23  O   UNL     1      18.252   0.815   8.865  1.00  0.00    -0.550 OA
ATOM     24  O   UNL     1      17.309  -0.704  10.298  1.00  0.00    -0.550 OA
ENDBRANCH  21  22
ENDBRANCH  20  21
ENDBRANCH  19  20
ENDBRANCH  18  19
ENDBRANCH  17  18
ENDBRANCH  16  17
ENDBRANCH  15  16
ENDBRANCH  14  15
ENDBRANCH  13  14
ENDBRANCH   1  13
TORSDOF 20
ENDMDL
MODEL 7
REMARK VINA RESULT:    -6.078      1.041      6.102
REMARK INTER + INTRA:         -16.633
REMARK INTER:                 -14.217
REMARK INTRA:                  -2.416
REMARK UNBOUND:                -3.449
REMARK SMILES CCCCCCCCCCCCCCCCCCCCCC(=O)[O-]
REMARK SMILES IDX 12 1 11 2 10 3 9 4 8 5 7 6 6 7 5 8 4 9 3 10 2 11 1 12 13 13
REMARK SMILES IDX 14 14 15 15 16 16 17 17 18 18 19 19 20 20 21 21 22 22 23 23
REMARK SMILES IDX 24 24
REMARK H PARENT
REMARK Flexibility Score: inf
ROOT
ATOM      1  C   UNL     1      14.907   1.944  19.324  1.00  0.00     0.000 C 
ENDROOT
BRANCH   1   2
ATOM      2  C   UNL     1      13.555   2.274  18.668  1.00  0.00     0.000 C 
BRANCH   2   3
ATOM      3  C   UNL     1      13.494   3.629  17.932  1.00  0.00     0.000 C 
BRANCH   3   4
ATOM      4  C   UNL     1      12.876   3.579  16.524  1.00  0.00    -0.000 C 
BRANCH   4   5
ATOM      5  C   UNL     1      13.337   2.354  15.717  1.00  0.00    -0.000 C 
BRANCH   5   6
ATOM      6  C   UNL     1      14.721   2.549  15.070  1.00  0.00    -0.000 C 
BRANCH   6   7
ATOM      7  C   UNL     1      14.854   1.985  13.643  1.00  0.00    -0.000 C 
BRANCH   7   8
ATOM      8  C   UNL     1      15.374   2.984  12.589  1.00  0.00    -0.000 C 
BRANCH   8   9
ATOM      9  C   UNL     1      15.955   2.311  11.327  1.00  0.00    -0.000 C 
BRANCH   9  10
ATOM     10  C   UNL     1      17.230   1.504  11.623  1.00  0.00    -0.000 C 
BRANCH  10  11
ATOM     11  C   UNL     1      17.397   0.301  10.682  1.00  0.00    -0.003 C 
ATOM     12  C   UNL     1      17.982   0.692   9.326  1.00  0.00     0.004 C 
ENDBRANCH  10  11
ENDBRANCH   9  10
ENDBRANCH   8   9
ENDBRANCH   7   8
ENDBRANCH   6   7
ENDBRANCH   5   6
ENDBRANCH   4   5
ENDBRANCH   3   4
ENDBRANCH   2   3
ENDBRANCH   1   2
BRANCH   1  13
ATOM     13  C   UNL     1      14.804   0.832  20.378  1.00  0.00     0.000 C 
BRANCH  13  14
ATOM     14  C   UNL     1      15.710  -0.354  20.012  1.00  0.00     0.000 C 
BRANCH  14  15
ATOM     15  C   UNL     1      17.079   0.084  19.469  1.00  0.00     0.000 C 
BRANCH  15  16
ATOM     16  C   UNL     1      17.740  -0.990  18.588  1.00  0.00     0.000 C 
BRANCH  16  17
ATOM     17  C   UNL     1      16.737  -1.720  17.676  1.00  0.00     0.000 C 
BRANCH  17  18
ATOM     18  C   UNL     1      16.120  -0.855  16.561  1.00  0.00     0.000 C 
BRANCH  18  19
ATOM     19  C   UNL     1      17.169  -0.040  15.785  1.00  0.00     0.000 C 
BRANCH  19  20
ATOM     20  C   UNL     1      17.562  -0.698  14.453  1.00  0.00     0.006 C 
BRANCH  20  21
ATOM     21  C   UNL     1      19.049  -0.508  14.122  1.00  0.00     0.053 C 
BRANCH  21  22
ATOM     22  C   UNL     1      19.875  -0.589  15.368  1.00  0.00     0.041 C 
ATOM     23  O   UNL     1      20.090  -1.703  15.913  1.00  0.00    -0.550 OA
ATOM     24  O   UNL     1      20.364   0.571  15.954  1.00  0.00    -0.550 OA
ENDBRANCH  21  22
ENDBRANCH  20  21
ENDBRANCH  19  20
ENDBRANCH  18  19
ENDBRANCH  17  18
ENDBRANCH  16  17
ENDBRANCH  15  16
ENDBRANCH  14  15
ENDBRANCH  13  14
ENDBRANCH   1  13
TORSDOF 20
ENDMDL
MODEL 8
REMARK VINA RESULT:    -6.035      1.755      5.967
REMARK INTER + INTRA:         -16.540
REMARK INTER:                 -13.029
REMARK INTRA:                  -3.510
REMARK UNBOUND:                -3.449
REMARK SMILES CCCCCCCCCCCCCCCCCCCCCC(=O)[O-]
REMARK SMILES IDX 12 1 11 2 10 3 9 4 8 5 7 6 6 7 5 8 4 9 3 10 2 11 1 12 13 13
REMARK SMILES IDX 14 14 15 15 16 16 17 17 18 18 19 19 20 20 21 21 22 22 23 23
REMARK SMILES IDX 24 24
REMARK H PARENT
REMARK Flexibility Score: inf
ROOT
ATOM      1  C   UNL     1      15.958   0.861  15.960  1.00  0.00     0.000 C 
ENDROOT
BRANCH   1   2
ATOM      2  C   UNL     1      16.884   1.722  16.838  1.00  0.00     0.000 C 
BRANCH   2   3
ATOM      3  C   UNL     1      18.156   1.012  17.346  1.00  0.00     0.000 C 
BRANCH   3   4
ATOM      4  C   UNL     1      19.130   0.554  16.245  1.00  0.00    -0.000 C 
BRANCH   4   5
ATOM      5  C   UNL     1      19.136  -0.972  16.055  1.00  0.00    -0.000 C 
BRANCH   5   6
ATOM      6  C   UNL     1      18.885  -1.395  14.596  1.00  0.00    -0.000 C 
BRANCH   6   7
ATOM      7  C   UNL     1      18.880  -0.239  13.578  1.00  0.00    -0.000 C 
BRANCH   7   8
ATOM      8  C   UNL     1      17.536  -0.006  12.858  1.00  0.00    -0.000 C 
BRANCH   8   9
ATOM      9  C   UNL     1      17.688   0.456  11.392  1.00  0.00    -0.000 C 
BRANCH   9  10
ATOM     10  C   UNL     1      17.033   1.824  11.134  1.00  0.00    -0.000 C 
BRANCH  10  11
ATOM     11  C   UNL     1      15.630   1.930  11.752  1.00  0.00    -0.003 C 
ATOM     12  C   UNL     1      15.475   3.153  12.655  1.00  0.00     0.004 C 
ENDBRANCH  10  11
ENDBRANCH   9  10
ENDBRANCH   8   9
ENDBRANCH   7   8
ENDBRANCH   6   7
ENDBRANCH   5   6
ENDBRANCH   4   5
ENDBRANCH   3   4
ENDBRANCH   2   3
ENDBRANCH   1   2
BRANCH   1  13
ATOM     13  C   UNL     1      14.626   1.553  15.640  1.00  0.00     0.000 C 
BRANCH  13  14
ATOM     14  C   UNL     1      14.580   2.962  16.252  1.00  0.00     0.000 C 
BRANCH  14  15
ATOM     15  C   UNL     1      13.172   3.366  16.719  1.00  0.00     0.000 C 
BRANCH  15  16
ATOM     16  C   UNL     1      12.988   3.227  18.239  1.00  0.00     0.000 C 
BRANCH  16  17
ATOM     17  C   UNL     1      14.324   3.195  19.006  1.00  0.00     0.000 C 
BRANCH  17  18
ATOM     18  C   UNL     1      14.611   1.886  19.763  1.00  0.00     0.000 C 
BRANCH  18  19
ATOM     19  C   UNL     1      13.586   0.780  19.457  1.00  0.00     0.000 C 
BRANCH  19  20
ATOM     20  C   UNL     1      14.240  -0.497  18.907  1.00  0.00     0.006 C 
BRANCH  20  21
ATOM     21  C   UNL     1      15.684  -0.674  19.395  1.00  0.00     0.053 C 
BRANCH  21  22
ATOM     22  C   UNL     1      16.375  -1.739  18.602  1.00  0.00     0.041 C 
ATOM     23  O   UNL     1      17.500  -2.170  18.967  1.00  0.00    -0.550 OA
ATOM     24  O   UNL     1      15.799  -2.220  17.434  1.00  0.00    -0.550 OA
ENDBRANCH  21  22
ENDBRANCH  20  21
ENDBRANCH  19  20
ENDBRANCH  18  19
ENDBRANCH  17  18
ENDBRANCH  16  17
ENDBRANCH  15  16
ENDBRANCH  14  15
ENDBRANCH  13  14
ENDBRANCH   1  13
TORSDOF 20
ENDMDL
MODEL 9
REMARK VINA RESULT:    -5.934      1.468      6.532
REMARK INTER + INTRA:         -16.321
REMARK INTER:                 -13.278
REMARK INTRA:                  -3.043
REMARK UNBOUND:                -3.449
REMARK SMILES CCCCCCCCCCCCCCCCCCCCCC(=O)[O-]
REMARK SMILES IDX 12 1 11 2 10 3 9 4 8 5 7 6 6 7 5 8 4 9 3 10 2 11 1 12 13 13
REMARK SMILES IDX 14 14 15 15 16 16 17 17 18 18 19 19 20 20 21 21 22 22 23 23
REMARK SMILES IDX 24 24
REMARK H PARENT
REMARK Flexibility Score: inf
ROOT
ATOM      1  C   UNL     1      15.865   2.152  15.667  1.00  0.00     0.000 C 
ENDROOT
BRANCH   1   2
ATOM      2  C   UNL     1      14.749   1.289  15.050  1.00  0.00     0.000 C 
BRANCH   2   3
ATOM      3  C   UNL     1      14.688   1.299  13.508  1.00  0.00     0.000 C 
BRANCH   3   4
ATOM      4  C   UNL     1      15.654   2.281  12.824  1.00  0.00    -0.000 C 
BRANCH   4   5
ATOM      5  C   UNL     1      15.919   1.926  11.351  1.00  0.00    -0.000 C 
BRANCH   5   6
ATOM      6  C   UNL     1      17.416   1.757  11.035  1.00  0.00    -0.000 C 
BRANCH   6   7
ATOM      7  C   UNL     1      18.218   0.978  12.094  1.00  0.00    -0.000 C 
BRANCH   7   8
ATOM      8  C   UNL     1      17.696  -0.440  12.400  1.00  0.00    -0.000 C 
BRANCH   8   9
ATOM      9  C   UNL     1      17.885  -0.870  13.871  1.00  0.00    -0.000 C 
BRANCH   9  10
ATOM     10  C   UNL     1      18.825   0.071  14.644  1.00  0.00    -0.000 C 
BRANCH  10  11
ATOM     11  C   UNL     1      19.987  -0.678  15.313  1.00  0.00    -0.003 C 
ATOM     12  C   UNL     1      19.931  -2.186  15.073  1.00  0.00     0.004 C 
ENDBRANCH  10  11
ENDBRANCH   9  10
ENDBRANCH   8   9
ENDBRANCH   7   8
ENDBRANCH   6   7
ENDBRANCH   5   6
ENDBRANCH   4   5
ENDBRANCH   3   4
ENDBRANCH   2   3
ENDBRANCH   1   2
BRANCH   1  13
ATOM     13  C   UNL     1      15.326   3.245  16.600  1.00  0.00     0.000 C 
BRANCH  13  14
ATOM     14  C   UNL     1      13.790   3.279  16.574  1.00  0.00     0.000 C 
BRANCH  14  15
ATOM     15  C   UNL     1      13.169   3.360  17.978  1.00  0.00     0.000 C 
BRANCH  15  16
ATOM     16  C   UNL     1      14.110   2.832  19.075  1.00  0.00     0.000 C 
BRANCH  16  17
ATOM     17  C   UNL     1      14.070   1.299  19.212  1.00  0.00     0.000 C 
BRANCH  17  18
ATOM     18  C   UNL     1      14.804   0.734  20.442  1.00  0.00     0.000 C 
BRANCH  18  19
ATOM     19  C   UNL     1      15.964  -0.205  20.069  1.00  0.00     0.000 C 
BRANCH  19  20
ATOM     20  C   UNL     1      16.831   0.349  18.927  1.00  0.00     0.006 C 
BRANCH  20  21
ATOM     21  C   UNL     1      17.674  -0.739  18.249  1.00  0.00     0.053 C 
BRANCH  21  22
ATOM     22  C   UNL     1      16.799  -1.656  17.454  1.00  0.00     0.041 C 
ATOM     23  O   UNL     1      17.240  -2.767  17.058  1.00  0.00    -0.550 OA
ATOM     24  O   UNL     1      15.513  -1.263  17.108  1.00  0.00    -0.550 OA
ENDBRANCH  21  22
ENDBRANCH  20  21
ENDBRANCH  19  20
ENDBRANCH  18  19
ENDBRANCH  17  18
ENDBRANCH  16  17
ENDBRANCH  15  16
ENDBRANCH  14  15
ENDBRANCH  13  14
ENDBRANCH   1  13
TORSDOF 20
ENDMDL
