MODEL 1
REMARK VINA RESULT:    -2.670      0.000      0.000
REMARK INTER + INTRA:          -3.633
REMARK INTER:                  -3.217
REMARK INTRA:                  -0.417
REMARK UNBOUND:                -0.417
REMARK SMILES O=c1c(O)c(-c2ccc(O)cc2O)oc2cc(O)cc(O)c12
REMARK SMILES IDX 5 1 3 2 2 3 1 4 22 5 20 6 19 7 17 8 16 9 15 10 14 11 6 12
REMARK SMILES IDX 8 13 7 14 9 15 11 16 12 17 10 18 13 20 4 22 21 24 18 26
REMARK H PARENT 10 19 13 21 4 23 21 25 18 27
REMARK Flexibility Score: inf
ROOT
ATOM      1  C   UNL     1     -24.419 -10.177   8.243  1.00  0.00     0.184 A 
ATOM      2  C   UNL     1     -24.520 -10.821   7.001  1.00  0.00     0.208 A 
ATOM      3  C   UNL     1     -24.431 -12.221   6.949  1.00  0.00     0.238 A 
ATOM      4  O   UNL     1     -24.447 -12.785   5.824  1.00  0.00    -0.285 OA
ATOM      5  C   UNL     1     -24.295 -12.962   8.149  1.00  0.00     0.111 A 
ATOM      6  C   UNL     1     -24.238 -14.387   8.221  1.00  0.00     0.134 A 
ATOM      7  C   UNL     1     -23.997 -15.007   9.453  1.00  0.00     0.093 A 
ATOM      8  C   UNL     1     -23.873 -14.256  10.625  1.00  0.00     0.123 A 
ATOM      9  C   UNL     1     -23.983 -12.870  10.574  1.00  0.00     0.094 A 
ATOM     10  C   UNL     1     -24.185 -12.219   9.354  1.00  0.00     0.146 A 
ATOM     11  O   UNL     1     -24.261 -10.893   9.348  1.00  0.00    -0.451 OA
ENDROOT
BRANCH   1  12
ATOM     12  C   UNL     1     -24.498  -8.707   8.366  1.00  0.00     0.063 A 
ATOM     13  C   UNL     1     -25.842  -6.728   8.800  1.00  0.00     0.047 A 
ATOM     14  C   UNL     1     -25.734  -8.115   8.671  1.00  0.00     0.020 A 
ATOM     15  C   UNL     1     -24.714  -5.916   8.638  1.00  0.00     0.119 A 
ATOM     16  C   UNL     1     -23.474  -6.499   8.357  1.00  0.00     0.093 A 
ATOM     17  C   UNL     1     -23.355  -7.890   8.231  1.00  0.00     0.130 A 
BRANCH  15  18
ATOM     18  O   UNL     1     -24.811  -4.532   8.760  1.00  0.00    -0.508 OA
ATOM     19  H   UNL     1     -25.524  -4.100   9.337  1.00  0.00     0.293 HD
ENDBRANCH  15  18
BRANCH  17  20
ATOM     20  O   UNL     1     -22.104  -8.462   7.998  1.00  0.00    -0.507 OA
ATOM     21  H   UNL     1     -21.857  -9.370   8.374  1.00  0.00     0.293 HD
ENDBRANCH  17  20
ENDBRANCH   1  12
BRANCH   2  22
ATOM     22  O   UNL     1     -24.726 -10.070   5.838  1.00  0.00    -0.502 OA
ATOM     23  H   UNL     1     -25.348 -10.373   5.099  1.00  0.00     0.293 HD
ENDBRANCH   2  22
BRANCH   6  24
ATOM     24  O   UNL     1     -24.435 -15.235   7.127  1.00  0.00    -0.507 OA
ATOM     25  H   UNL     1     -25.277 -15.761   6.948  1.00  0.00     0.293 HD
ENDBRANCH   6  24
BRANCH   8  26
ATOM     26  O   UNL     1     -23.651 -14.883  11.850  1.00  0.00    -0.508 OA
ATOM     27  H   UNL     1     -22.954 -15.612  11.954  1.00  0.00     0.293 HD
ENDBRANCH   8  26
TORSDOF 6
ENDMDL
MODEL 2
REMARK VINA RESULT:    -2.435      1.390      3.100
REMARK INTER + INTRA:          -3.350
REMARK INTER:                  -2.962
REMARK INTRA:                  -0.388
REMARK UNBOUND:                -0.417
REMARK SMILES O=c1c(O)c(-c2ccc(O)cc2O)oc2cc(O)cc(O)c12
REMARK SMILES IDX 5 1 3 2 2 3 1 4 22 5 20 6 19 7 17 8 16 9 15 10 14 11 6 12
REMARK SMILES IDX 8 13 7 14 9 15 11 16 12 17 10 18 13 20 4 22 21 24 18 26
REMARK H PARENT 10 19 13 21 4 23 21 25 18 27
REMARK Flexibility Score: inf
ROOT
ATOM      1  C   UNL     1     -24.226 -10.585   8.125  1.00  0.00     0.184 A 
ATOM      2  C   UNL     1     -24.116 -11.417   9.250  1.00  0.00     0.208 A 
ATOM      3  C   UNL     1     -24.272 -12.803   9.091  1.00  0.00     0.238 A 
ATOM      4  O   UNL     1     -24.247 -13.534  10.114  1.00  0.00    -0.285 OA
ATOM      5  C   UNL     1     -24.482 -13.344   7.798  1.00  0.00     0.111 A 
ATOM      6  C   UNL     1     -24.611 -14.736   7.512  1.00  0.00     0.134 A 
ATOM      7  C   UNL     1     -24.921 -15.148   6.210  1.00  0.00     0.093 A 
ATOM      8  C   UNL     1     -25.046 -14.221   5.172  1.00  0.00     0.123 A 
ATOM      9  C   UNL     1     -24.868 -12.865   5.430  1.00  0.00     0.094 A 
ATOM     10  C   UNL     1     -24.595 -12.420   6.726  1.00  0.00     0.146 A 
ATOM     11  O   UNL     1     -24.454 -11.115   6.931  1.00  0.00    -0.451 OA
ENDROOT
BRANCH   1  12
ATOM     12  C   UNL     1     -24.080  -9.119   8.225  1.00  0.00     0.063 A 
ATOM     13  C   UNL     1     -25.079  -6.962   8.737  1.00  0.00     0.047 A 
ATOM     14  C   UNL     1     -25.185  -8.351   8.627  1.00  0.00     0.020 A 
ATOM     15  C   UNL     1     -23.863  -6.325   8.461  1.00  0.00     0.119 A 
ATOM     16  C   UNL     1     -22.752  -7.084   8.083  1.00  0.00     0.093 A 
ATOM     17  C   UNL     1     -22.847  -8.479   7.974  1.00  0.00     0.130 A 
BRANCH  15  18
ATOM     18  O   UNL     1     -23.748  -4.941   8.563  1.00  0.00    -0.508 OA
ATOM     19  H   UNL     1     -24.202  -4.425   9.309  1.00  0.00     0.293 HD
ENDBRANCH  15  18
BRANCH  17  20
ATOM     20  O   UNL     1     -21.718  -9.229   7.643  1.00  0.00    -0.507 OA
ATOM     21  H   UNL     1     -20.893  -9.235   8.232  1.00  0.00     0.293 HD
ENDBRANCH  17  20
ENDBRANCH   1  12
BRANCH   2  22
ATOM     22  O   UNL     1     -23.837 -10.864  10.504  1.00  0.00    -0.502 OA
ATOM     23  H   UNL     1     -24.271 -10.008  10.828  1.00  0.00     0.293 HD
ENDBRANCH   2  22
BRANCH   6  24
ATOM     24  O   UNL     1     -24.420 -15.751   8.454  1.00  0.00    -0.507 OA
ATOM     25  H   UNL     1     -24.790 -15.746   9.392  1.00  0.00     0.293 HD
ENDBRANCH   6  24
BRANCH   8  26
ATOM     26  O   UNL     1     -25.338 -14.642   3.876  1.00  0.00    -0.508 OA
ATOM     27  H   UNL     1     -25.885 -15.477   3.699  1.00  0.00     0.293 HD
ENDBRANCH   8  26
TORSDOF 6
ENDMDL
MODEL 3
REMARK VINA RESULT:    -0.273      1.862      6.687
REMARK INTER + INTRA:          -0.746
REMARK INTER:                  -0.449
REMARK INTRA:                  -0.297
REMARK UNBOUND:                -0.417
REMARK SMILES O=c1c(O)c(-c2ccc(O)cc2O)oc2cc(O)cc(O)c12
REMARK SMILES IDX 5 1 3 2 2 3 1 4 22 5 20 6 19 7 17 8 16 9 15 10 14 11 6 12
REMARK SMILES IDX 8 13 7 14 9 15 11 16 12 17 10 18 13 20 4 22 21 24 18 26
REMARK H PARENT 10 19 13 21 4 23 21 25 18 27
REMARK Flexibility Score: inf
ROOT
ATOM      1  C   UNL     1     -23.573  -9.893   8.765  1.00  0.00     0.184 A 
ATOM      2  C   UNL     1     -22.638  -9.360   7.865  1.00  0.00     0.208 A 
ATOM      3  C   UNL     1     -22.730  -8.006   7.509  1.00  0.00     0.238 A 
ATOM      4  O   UNL     1     -21.935  -7.554   6.645  1.00  0.00    -0.285 OA
ATOM      5  C   UNL     1     -23.724  -7.188   8.102  1.00  0.00     0.111 A 
ATOM      6  C   UNL     1     -23.883  -5.792   7.850  1.00  0.00     0.134 A 
ATOM      7  C   UNL     1     -24.967  -5.108   8.414  1.00  0.00     0.093 A 
ATOM      8  C   UNL     1     -25.862  -5.755   9.269  1.00  0.00     0.123 A 
ATOM      9  C   UNL     1     -25.683  -7.103   9.566  1.00  0.00     0.094 A 
ATOM     10  C   UNL     1     -24.633  -7.823   8.989  1.00  0.00     0.146 A 
ATOM     11  O   UNL     1     -24.513  -9.113   9.282  1.00  0.00    -0.451 OA
ENDROOT
BRANCH   1  12
ATOM     12  C   UNL     1     -23.536 -11.312   9.175  1.00  0.00     0.063 A 
ATOM     13  C   UNL     1     -24.554 -13.519   9.110  1.00  0.00     0.047 A 
ATOM     14  C   UNL     1     -24.561 -12.171   8.745  1.00  0.00     0.020 A 
ATOM     15  C   UNL     1     -23.515 -14.030   9.897  1.00  0.00     0.119 A 
ATOM     16  C   UNL     1     -22.479 -13.188  10.310  1.00  0.00     0.093 A 
ATOM     17  C   UNL     1     -22.475 -11.834   9.944  1.00  0.00     0.130 A 
BRANCH  15  18
ATOM     18  O   UNL     1     -23.500 -15.372  10.270  1.00  0.00    -0.508 OA
ATOM     19  H   UNL     1     -24.210 -15.759  10.881  1.00  0.00     0.293 HD
ENDBRANCH  15  18
BRANCH  17  20
ATOM     20  O   UNL     1     -21.410 -11.015  10.322  1.00  0.00    -0.507 OA
ATOM     21  H   UNL     1     -21.556 -10.059  10.622  1.00  0.00     0.293 HD
ENDBRANCH  17  20
ENDBRANCH   1  12
BRANCH   2  22
ATOM     22  O   UNL     1     -21.623 -10.172   7.348  1.00  0.00    -0.502 OA
ATOM     23  H   UNL     1     -21.567 -10.413   6.367  1.00  0.00     0.293 HD
ENDBRANCH   2  22
BRANCH   6  24
ATOM     24  O   UNL     1     -22.999  -5.029   7.082  1.00  0.00    -0.507 OA
ATOM     25  H   UNL     1     -23.268  -4.422   6.323  1.00  0.00     0.293 HD
ENDBRANCH   6  24
BRANCH   8  26
ATOM     26  O   UNL     1     -26.928  -5.062   9.839  1.00  0.00    -0.508 OA
ATOM     27  H   UNL     1     -27.885  -5.380   9.732  1.00  0.00     0.293 HD
ENDBRANCH   8  26
TORSDOF 6
ENDMDL
