MODEL 1
REMARK VINA RESULT:    -6.180      0.000      0.000
REMARK INTER + INTRA:          -7.515
REMARK INTER:                  -7.264
REMARK INTRA:                  -0.250
REMARK UNBOUND:                -0.250
REMARK SMILES O=c1c(O)c(-c2ccc(O)cc2)oc2cc(O)cc(O)c12
REMARK SMILES IDX 5 1 3 2 2 3 1 4 21 5 19 6 18 7 16 8 15 9 14 10 13 11 6 12
REMARK SMILES IDX 7 13 8 14 9 15 12 16 11 17 10 18 4 20 20 22 17 24
REMARK H PARENT 10 19 4 21 20 23 17 25
REMARK Flexibility Score: inf
ROOT
ATOM      1  C   UNL     1      20.126  17.366 -11.898  1.00  0.00     0.180 A 
ATOM      2  C   UNL     1      20.235  16.176 -12.638  1.00  0.00     0.208 A 
ATOM      3  C   UNL     1      21.100  15.169 -12.184  1.00  0.00     0.238 A 
ATOM      4  O   UNL     1      21.153  14.083 -12.821  1.00  0.00    -0.285 OA
ATOM      5  C   UNL     1      21.859  15.369 -11.006  1.00  0.00     0.111 A 
ATOM      6  C   UNL     1      22.797  14.433 -10.476  1.00  0.00     0.134 A 
ATOM      7  C   UNL     1      23.394  14.682  -9.233  1.00  0.00     0.093 A 
ATOM      8  C   UNL     1      23.138  15.859  -8.534  1.00  0.00     0.123 A 
ATOM      9  C   UNL     1      22.267  16.809  -9.071  1.00  0.00     0.094 A 
ATOM     10  C   UNL     1      21.629  16.574 -10.292  1.00  0.00     0.146 A 
ATOM     11  O   UNL     1      20.801  17.498 -10.762  1.00  0.00    -0.452 OA
ENDROOT
BRANCH   1  12
ATOM     12  C   UNL     1      19.255  18.483 -12.327  1.00  0.00     0.021 A 
ATOM     13  C   UNL     1      19.619  19.335 -13.386  1.00  0.00     0.016 A 
ATOM     14  C   UNL     1      18.791  20.397 -13.758  1.00  0.00     0.047 A 
ATOM     15  C   UNL     1      17.595  20.632 -13.067  1.00  0.00     0.115 A 
ATOM     16  C   UNL     1      18.063  18.738 -11.628  1.00  0.00     0.016 A 
ATOM     17  C   UNL     1      17.235  19.802 -12.001  1.00  0.00     0.047 A 
BRANCH  15  18
ATOM     18  O   UNL     1      16.761  21.687 -13.429  1.00  0.00    -0.508 OA
ATOM     19  H   UNL     1      17.122  22.622 -13.574  1.00  0.00     0.293 HD
ENDBRANCH  15  18
ENDBRANCH   1  12
BRANCH   2  20
ATOM     20  O   UNL     1      19.461  15.989 -13.788  1.00  0.00    -0.502 OA
ATOM     21  H   UNL     1      18.612  16.511 -13.962  1.00  0.00     0.293 HD
ENDBRANCH   2  20
BRANCH   6  22
ATOM     22  O   UNL     1      23.195  13.267 -11.138  1.00  0.00    -0.507 OA
ATOM     23  H   UNL     1      24.040  13.174 -11.678  1.00  0.00     0.293 HD
ENDBRANCH   6  22
BRANCH   8  24
ATOM     24  O   UNL     1      23.761  16.081  -7.308  1.00  0.00    -0.508 OA
ATOM     25  H   UNL     1      24.669  15.685  -7.095  1.00  0.00     0.293 HD
ENDBRANCH   8  24
TORSDOF 5
ENDMDL
MODEL 2
REMARK VINA RESULT:    -6.179     12.676     13.565
REMARK INTER + INTRA:          -7.513
REMARK INTER:                  -7.514
REMARK INTRA:                   0.001
REMARK UNBOUND:                -0.250
REMARK SMILES O=c1c(O)c(-c2ccc(O)cc2)oc2cc(O)cc(O)c12
REMARK SMILES IDX 5 1 3 2 2 3 1 4 21 5 19 6 18 7 16 8 15 9 14 10 13 11 6 12
REMARK SMILES IDX 7 13 8 14 9 15 12 16 11 17 10 18 4 20 20 22 17 24
REMARK H PARENT 10 19 4 21 20 23 17 25
REMARK Flexibility Score: inf
ROOT
ATOM      1  C   UNL     1      10.917  11.513  -4.127  1.00  0.00     0.180 A 
ATOM      2  C   UNL     1      10.752  11.601  -2.733  1.00  0.00     0.208 A 
ATOM      3  C   UNL     1      11.795  12.128  -1.956  1.00  0.00     0.238 A 
ATOM      4  O   UNL     1      11.620  12.255  -0.715  1.00  0.00    -0.285 OA
ATOM      5  C   UNL     1      12.996  12.546  -2.578  1.00  0.00     0.111 A 
ATOM      6  C   UNL     1      14.133  13.059  -1.884  1.00  0.00     0.134 A 
ATOM      7  C   UNL     1      15.217  13.563  -2.613  1.00  0.00     0.093 A 
ATOM      8  C   UNL     1      15.234  13.514  -4.005  1.00  0.00     0.123 A 
ATOM      9  C   UNL     1      14.153  12.961  -4.693  1.00  0.00     0.094 A 
ATOM     10  C   UNL     1      13.041  12.482  -3.995  1.00  0.00     0.146 A 
ATOM     11  O   UNL     1      12.029  11.974  -4.687  1.00  0.00    -0.452 OA
ENDROOT
BRANCH   1  12
ATOM     12  C   UNL     1       9.873  10.944  -5.009  1.00  0.00     0.021 A 
ATOM     13  C   UNL     1       9.284   9.695  -4.740  1.00  0.00     0.016 A 
ATOM     14  C   UNL     1       8.317   9.168  -5.601  1.00  0.00     0.047 A 
ATOM     15  C   UNL     1       7.937   9.875  -6.749  1.00  0.00     0.115 A 
ATOM     16  C   UNL     1       9.500  11.637  -6.173  1.00  0.00     0.016 A 
ATOM     17  C   UNL     1       8.532  11.108  -7.033  1.00  0.00     0.047 A 
BRANCH  15  18
ATOM     18  O   UNL     1       6.974   9.361  -7.613  1.00  0.00    -0.508 OA
ATOM     19  H   UNL     1       5.993   9.599  -7.517  1.00  0.00     0.293 HD
ENDBRANCH  15  18
ENDBRANCH   1  12
BRANCH   2  20
ATOM     20  O   UNL     1       9.550  11.202  -2.141  1.00  0.00    -0.502 OA
ATOM     21  H   UNL     1       9.501  10.855  -1.191  1.00  0.00     0.293 HD
ENDBRANCH   2  20
BRANCH   6  22
ATOM     22  O   UNL     1      14.258  13.068  -0.491  1.00  0.00    -0.507 OA
ATOM     23  H   UNL     1      13.508  13.271   0.151  1.00  0.00     0.293 HD
ENDBRANCH   6  22
BRANCH   8  24
ATOM     24  O   UNL     1      16.336  14.011  -4.698  1.00  0.00    -0.508 OA
ATOM     25  H   UNL     1      16.468  15.005  -4.843  1.00  0.00     0.293 HD
ENDBRANCH   8  24
TORSDOF 5
ENDMDL
MODEL 3
REMARK VINA RESULT:    -6.121     11.782     13.505
REMARK INTER + INTRA:          -7.445
REMARK INTER:                  -7.179
REMARK INTRA:                  -0.266
REMARK UNBOUND:                -0.250
REMARK SMILES O=c1c(O)c(-c2ccc(O)cc2)oc2cc(O)cc(O)c12
REMARK SMILES IDX 5 1 3 2 2 3 1 4 21 5 19 6 18 7 16 8 15 9 14 10 13 11 6 12
REMARK SMILES IDX 7 13 8 14 9 15 12 16 11 17 10 18 4 20 20 22 17 24
REMARK H PARENT 10 19 4 21 20 23 17 25
REMARK Flexibility Score: inf
ROOT
ATOM      1  C   UNL     1       7.544  14.712  -8.981  1.00  0.00     0.180 A 
ATOM      2  C   UNL     1       7.332  14.743 -10.370  1.00  0.00     0.208 A 
ATOM      3  C   UNL     1       8.097  13.903 -11.194  1.00  0.00     0.238 A 
ATOM      4  O   UNL     1       7.865  13.896 -12.432  1.00  0.00    -0.285 OA
ATOM      5  C   UNL     1       9.075  13.055 -10.622  1.00  0.00     0.111 A 
ATOM      6  C   UNL     1       9.934  12.191 -11.366  1.00  0.00     0.134 A 
ATOM      7  C   UNL     1      10.775  11.301 -10.686  1.00  0.00     0.093 A 
ATOM      8  C   UNL     1      10.834  11.287  -9.294  1.00  0.00     0.123 A 
ATOM      9  C   UNL     1      10.041  12.168  -8.557  1.00  0.00     0.094 A 
ATOM     10  C   UNL     1       9.166  13.044  -9.206  1.00  0.00     0.146 A 
ATOM     11  O   UNL     1       8.422  13.858  -8.469  1.00  0.00    -0.452 OA
ENDROOT
BRANCH   1  12
ATOM     12  C   UNL     1       6.795  15.586  -8.050  1.00  0.00     0.021 A 
ATOM     13  C   UNL     1       5.496  15.258  -7.618  1.00  0.00     0.016 A 
ATOM     14  C   UNL     1       4.800  16.112  -6.758  1.00  0.00     0.047 A 
ATOM     15  C   UNL     1       5.385  17.311  -6.330  1.00  0.00     0.115 A 
ATOM     16  C   UNL     1       7.366  16.800  -7.632  1.00  0.00     0.016 A 
ATOM     17  C   UNL     1       6.667  17.653  -6.771  1.00  0.00     0.047 A 
BRANCH  15  18
ATOM     18  O   UNL     1       4.701  18.168  -5.472  1.00  0.00    -0.508 OA
ATOM     19  H   UNL     1       3.985  18.800  -5.812  1.00  0.00     0.293 HD
ENDBRANCH  15  18
ENDBRANCH   1  12
BRANCH   2  20
ATOM     20  O   UNL     1       6.346  15.573 -10.913  1.00  0.00    -0.502 OA
ATOM     21  H   UNL     1       5.357  15.406 -10.773  1.00  0.00     0.293 HD
ENDBRANCH   2  20
BRANCH   6  22
ATOM     22  O   UNL     1      10.021  12.190 -12.761  1.00  0.00    -0.507 OA
ATOM     23  H   UNL     1      10.564  11.535 -13.302  1.00  0.00     0.293 HD
ENDBRANCH   6  22
BRANCH   8  24
ATOM     24  O   UNL     1      11.692  10.398  -8.650  1.00  0.00    -0.508 OA
ATOM     25  H   UNL     1      12.208  10.664  -7.820  1.00  0.00     0.293 HD
ENDBRANCH   8  24
TORSDOF 5
ENDMDL
MODEL 4
REMARK VINA RESULT:    -6.022     10.081     13.123
REMARK INTER + INTRA:          -7.329
REMARK INTER:                  -7.459
REMARK INTRA:                   0.130
REMARK UNBOUND:                -0.250
REMARK SMILES O=c1c(O)c(-c2ccc(O)cc2)oc2cc(O)cc(O)c12
REMARK SMILES IDX 5 1 3 2 2 3 1 4 21 5 19 6 18 7 16 8 15 9 14 10 13 11 6 12
REMARK SMILES IDX 7 13 8 14 9 15 12 16 11 17 10 18 4 20 20 22 17 24
REMARK H PARENT 10 19 4 21 20 23 17 25
REMARK Flexibility Score: inf
ROOT
ATOM      1  C   UNL     1      18.489  13.173  -0.172  1.00  0.00     0.180 A 
ATOM      2  C   UNL     1      19.644  13.126  -0.971  1.00  0.00     0.208 A 
ATOM      3  C   UNL     1      19.509  13.183  -2.367  1.00  0.00     0.238 A 
ATOM      4  O   UNL     1      20.550  13.196  -3.076  1.00  0.00    -0.285 OA
ATOM      5  C   UNL     1      18.221  13.269  -2.948  1.00  0.00     0.111 A 
ATOM      6  C   UNL     1      17.963  13.293  -4.351  1.00  0.00     0.134 A 
ATOM      7  C   UNL     1      16.658  13.512  -4.811  1.00  0.00     0.093 A 
ATOM      8  C   UNL     1      15.594  13.643  -3.921  1.00  0.00     0.123 A 
ATOM      9  C   UNL     1      15.825  13.563  -2.547  1.00  0.00     0.094 A 
ATOM     10  C   UNL     1      17.121  13.381  -2.057  1.00  0.00     0.146 A 
ATOM     11  O   UNL     1      17.300  13.320  -0.743  1.00  0.00    -0.452 OA
ENDROOT
BRANCH   1  12
ATOM     12  C   UNL     1      18.550  13.091   1.305  1.00  0.00     0.021 A 
ATOM     13  C   UNL     1      17.664  12.275   2.033  1.00  0.00     0.016 A 
ATOM     14  C   UNL     1      17.726  12.233   3.429  1.00  0.00     0.047 A 
ATOM     15  C   UNL     1      18.662  13.017   4.116  1.00  0.00     0.115 A 
ATOM     16  C   UNL     1      19.472  13.889   2.004  1.00  0.00     0.016 A 
ATOM     17  C   UNL     1      19.532  13.845   3.400  1.00  0.00     0.047 A 
BRANCH  15  18
ATOM     18  O   UNL     1      18.733  12.982   5.506  1.00  0.00    -0.508 OA
ATOM     19  H   UNL     1      19.256  13.676   6.028  1.00  0.00     0.293 HD
ENDBRANCH  15  18
ENDBRANCH   1  12
BRANCH   2  20
ATOM     20  O   UNL     1      20.908  13.062  -0.378  1.00  0.00    -0.502 OA
ATOM     21  H   UNL     1      21.084  12.543   0.473  1.00  0.00     0.293 HD
ENDBRANCH   2  20
BRANCH   6  22
ATOM     22  O   UNL     1      18.942  13.080  -5.328  1.00  0.00    -0.507 OA
ATOM     23  H   UNL     1      19.934  13.058  -5.151  1.00  0.00     0.293 HD
ENDBRANCH   6  22
BRANCH   8  24
ATOM     24  O   UNL     1      14.306  13.845  -4.413  1.00  0.00    -0.508 OA
ATOM     25  H   UNL     1      13.638  13.087  -4.477  1.00  0.00     0.293 HD
ENDBRANCH   8  24
TORSDOF 5
ENDMDL
MODEL 5
REMARK VINA RESULT:    -6.006     11.672     12.385
REMARK INTER + INTRA:          -7.310
REMARK INTER:                  -7.012
REMARK INTRA:                  -0.299
REMARK UNBOUND:                -0.250
REMARK SMILES O=c1c(O)c(-c2ccc(O)cc2)oc2cc(O)cc(O)c12
REMARK SMILES IDX 5 1 3 2 2 3 1 4 21 5 19 6 18 7 16 8 15 9 14 10 13 11 6 12
REMARK SMILES IDX 7 13 8 14 9 15 12 16 11 17 10 18 4 20 20 22 17 24
REMARK H PARENT 10 19 4 21 20 23 17 25
REMARK Flexibility Score: inf
ROOT
ATOM      1  C   UNL     1      11.582  11.712  -5.751  1.00  0.00     0.180 A 
ATOM      2  C   UNL     1      12.636  12.143  -6.575  1.00  0.00     0.208 A 
ATOM      3  C   UNL     1      13.775  12.710  -5.982  1.00  0.00     0.238 A 
ATOM      4  O   UNL     1      14.739  13.043  -6.721  1.00  0.00    -0.285 OA
ATOM      5  C   UNL     1      13.840  12.855  -4.576  1.00  0.00     0.111 A 
ATOM      6  C   UNL     1      14.928  13.451  -3.871  1.00  0.00     0.134 A 
ATOM      7  C   UNL     1      14.943  13.423  -2.470  1.00  0.00     0.093 A 
ATOM      8  C   UNL     1      13.881  12.879  -1.750  1.00  0.00     0.123 A 
ATOM      9  C   UNL     1      12.784  12.346  -2.429  1.00  0.00     0.094 A 
ATOM     10  C   UNL     1      12.757  12.327  -3.825  1.00  0.00     0.146 A 
ATOM     11  O   UNL     1      11.700  11.801  -4.432  1.00  0.00    -0.452 OA
ENDROOT
BRANCH   1  12
ATOM     12  C   UNL     1      10.339  11.129  -6.304  1.00  0.00     0.021 A 
ATOM     13  C   UNL     1       9.254  11.939  -6.688  1.00  0.00     0.016 A 
ATOM     14  C   UNL     1       8.082  11.364  -7.185  1.00  0.00     0.047 A 
ATOM     15  C   UNL     1       7.971   9.971  -7.291  1.00  0.00     0.115 A 
ATOM     16  C   UNL     1      10.211   9.733  -6.395  1.00  0.00     0.016 A 
ATOM     17  C   UNL     1       9.037   9.159  -6.893  1.00  0.00     0.047 A 
BRANCH  15  18
ATOM     18  O   UNL     1       6.808   9.387  -7.787  1.00  0.00    -0.508 OA
ATOM     19  H   UNL     1       6.697   8.380  -7.828  1.00  0.00     0.293 HD
ENDBRANCH  15  18
ENDBRANCH   1  12
BRANCH   2  20
ATOM     20  O   UNL     1      12.562  11.972  -7.960  1.00  0.00    -0.502 OA
ATOM     21  H   UNL     1      13.096  11.265  -8.450  1.00  0.00     0.293 HD
ENDBRANCH   2  20
BRANCH   6  22
ATOM     22  O   UNL     1      15.996  14.105  -4.493  1.00  0.00    -0.507 OA
ATOM     23  H   UNL     1      16.396  13.837  -5.379  1.00  0.00     0.293 HD
ENDBRANCH   6  22
BRANCH   8  24
ATOM     24  O   UNL     1      13.922  12.881  -0.357  1.00  0.00    -0.508 OA
ATOM     25  H   UNL     1      14.745  13.187   0.149  1.00  0.00     0.293 HD
ENDBRANCH   8  24
TORSDOF 5
ENDMDL
MODEL 6
REMARK VINA RESULT:    -5.982      1.767      3.123
REMARK INTER + INTRA:          -7.282
REMARK INTER:                  -7.005
REMARK INTRA:                  -0.277
REMARK UNBOUND:                -0.250
REMARK SMILES O=c1c(O)c(-c2ccc(O)cc2)oc2cc(O)cc(O)c12
REMARK SMILES IDX 5 1 3 2 2 3 1 4 21 5 19 6 18 7 16 8 15 9 14 10 13 11 6 12
REMARK SMILES IDX 7 13 8 14 9 15 12 16 11 17 10 18 4 20 20 22 17 24
REMARK H PARENT 10 19 4 21 20 23 17 25
REMARK Flexibility Score: inf
ROOT
ATOM      1  C   UNL     1      19.843  17.148 -11.271  1.00  0.00     0.180 A 
ATOM      2  C   UNL     1      20.869  17.362 -10.335  1.00  0.00     0.208 A 
ATOM      3  C   UNL     1      21.469  16.254  -9.718  1.00  0.00     0.238 A 
ATOM      4  O   UNL     1      22.425  16.449  -8.920  1.00  0.00    -0.285 OA
ATOM      5  C   UNL     1      21.026  14.947 -10.031  1.00  0.00     0.111 A 
ATOM      6  C   UNL     1      21.536  13.753  -9.438  1.00  0.00     0.134 A 
ATOM      7  C   UNL     1      21.115  12.507  -9.919  1.00  0.00     0.093 A 
ATOM      8  C   UNL     1      20.157  12.411 -10.927  1.00  0.00     0.123 A 
ATOM      9  C   UNL     1      19.608  13.572 -11.474  1.00  0.00     0.094 A 
ATOM     10  C   UNL     1      20.034  14.830 -11.039  1.00  0.00     0.146 A 
ATOM     11  O   UNL     1      19.495  15.908 -11.593  1.00  0.00    -0.452 OA
ENDROOT
BRANCH   1  12
ATOM     12  C   UNL     1      19.144  18.267 -11.943  1.00  0.00     0.021 A 
ATOM     13  C   UNL     1      19.677  18.882 -13.091  1.00  0.00     0.016 A 
ATOM     14  C   UNL     1      19.011  19.953 -13.694  1.00  0.00     0.047 A 
ATOM     15  C   UNL     1      17.812  20.432 -13.150  1.00  0.00     0.115 A 
ATOM     16  C   UNL     1      17.952  18.767 -11.394  1.00  0.00     0.016 A 
ATOM     17  C   UNL     1      17.287  19.838 -11.999  1.00  0.00     0.047 A 
BRANCH  15  18
ATOM     18  O   UNL     1      17.139  21.497 -13.744  1.00  0.00    -0.508 OA
ATOM     19  H   UNL     1      17.592  22.099 -14.422  1.00  0.00     0.293 HD
ENDBRANCH  15  18
ENDBRANCH   1  12
BRANCH   2  20
ATOM     20  O   UNL     1      21.306  18.660 -10.054  1.00  0.00    -0.502 OA
ATOM     21  H   UNL     1      21.782  18.899  -9.193  1.00  0.00     0.293 HD
ENDBRANCH   2  20
BRANCH   6  22
ATOM     22  O   UNL     1      22.428  13.737  -8.361  1.00  0.00    -0.507 OA
ATOM     23  H   UNL     1      23.283  13.203  -8.331  1.00  0.00     0.293 HD
ENDBRANCH   6  22
BRANCH   8  24
ATOM     24  O   UNL     1      19.750  11.155 -11.372  1.00  0.00    -0.508 OA
ATOM     25  H   UNL     1      18.977  11.046 -12.017  1.00  0.00     0.293 HD
ENDBRANCH   8  24
TORSDOF 5
ENDMDL
MODEL 7
REMARK VINA RESULT:    -5.904     11.658     14.183
REMARK INTER + INTRA:          -7.190
REMARK INTER:                  -6.902
REMARK INTRA:                  -0.288
REMARK UNBOUND:                -0.250
REMARK SMILES O=c1c(O)c(-c2ccc(O)cc2)oc2cc(O)cc(O)c12
REMARK SMILES IDX 5 1 3 2 2 3 1 4 21 5 19 6 18 7 16 8 15 9 14 10 13 11 6 12
REMARK SMILES IDX 7 13 8 14 9 15 12 16 11 17 10 18 4 20 20 22 17 24
REMARK H PARENT 10 19 4 21 20 23 17 25
REMARK Flexibility Score: inf
ROOT
ATOM      1  C   UNL     1       8.826  13.522  -9.325  1.00  0.00     0.180 A 
ATOM      2  C   UNL     1       7.651  12.910  -9.796  1.00  0.00     0.208 A 
ATOM      3  C   UNL     1       6.411  13.492  -9.491  1.00  0.00     0.238 A 
ATOM      4  O   UNL     1       5.366  12.970  -9.962  1.00  0.00    -0.285 OA
ATOM      5  C   UNL     1       6.358  14.667  -8.704  1.00  0.00     0.111 A 
ATOM      6  C   UNL     1       5.154  15.320  -8.301  1.00  0.00     0.134 A 
ATOM      7  C   UNL     1       5.225  16.549  -7.633  1.00  0.00     0.093 A 
ATOM      8  C   UNL     1       6.453  17.117  -7.299  1.00  0.00     0.123 A 
ATOM      9  C   UNL     1       7.636  16.459  -7.637  1.00  0.00     0.094 A 
ATOM     10  C   UNL     1       7.599  15.248  -8.334  1.00  0.00     0.146 A 
ATOM     11  O   UNL     1       8.747  14.660  -8.646  1.00  0.00    -0.452 OA
ENDROOT
BRANCH   1  12
ATOM     12  C   UNL     1      10.168  12.955  -9.584  1.00  0.00     0.021 A 
ATOM     13  C   UNL     1      10.888  13.273 -10.750  1.00  0.00     0.016 A 
ATOM     14  C   UNL     1      12.144  12.705 -10.984  1.00  0.00     0.047 A 
ATOM     15  C   UNL     1      12.690  11.802 -10.064  1.00  0.00     0.115 A 
ATOM     16  C   UNL     1      10.715  12.032  -8.676  1.00  0.00     0.016 A 
ATOM     17  C   UNL     1      11.972  11.466  -8.912  1.00  0.00     0.047 A 
BRANCH  15  18
ATOM     18  O   UNL     1      13.941  11.232 -10.285  1.00  0.00    -0.508 OA
ATOM     19  H   UNL     1      14.213  10.890 -11.200  1.00  0.00     0.293 HD
ENDBRANCH  15  18
ENDBRANCH   1  12
BRANCH   2  20
ATOM     20  O   UNL     1       7.726  11.761 -10.589  1.00  0.00    -0.502 OA
ATOM     21  H   UNL     1       7.748  11.799 -11.601  1.00  0.00     0.293 HD
ENDBRANCH   2  20
BRANCH   6  22
ATOM     22  O   UNL     1       3.875  14.792  -8.503  1.00  0.00    -0.507 OA
ATOM     23  H   UNL     1       3.034  15.341  -8.589  1.00  0.00     0.293 HD
ENDBRANCH   6  22
BRANCH   8  24
ATOM     24  O   UNL     1       6.486  18.334  -6.622  1.00  0.00    -0.508 OA
ATOM     25  H   UNL     1       5.911  19.117  -6.908  1.00  0.00     0.293 HD
ENDBRANCH   8  24
TORSDOF 5
ENDMDL
MODEL 8
REMARK VINA RESULT:    -5.870     12.658     14.800
REMARK INTER + INTRA:          -7.149
REMARK INTER:                  -7.055
REMARK INTRA:                  -0.094
REMARK UNBOUND:                -0.250
REMARK SMILES O=c1c(O)c(-c2ccc(O)cc2)oc2cc(O)cc(O)c12
REMARK SMILES IDX 5 1 3 2 2 3 1 4 21 5 19 6 18 7 16 8 15 9 14 10 13 11 6 12
REMARK SMILES IDX 7 13 8 14 9 15 12 16 11 17 10 18 4 20 20 22 17 24
REMARK H PARENT 10 19 4 21 20 23 17 25
REMARK Flexibility Score: inf
ROOT
ATOM      1  C   UNL     1      14.856  12.242   0.396  1.00  0.00     0.180 A 
ATOM      2  C   UNL     1      16.102  12.846   0.159  1.00  0.00     0.208 A 
ATOM      3  C   UNL     1      16.419  13.266  -1.142  1.00  0.00     0.238 A 
ATOM      4  O   UNL     1      17.514  13.856  -1.338  1.00  0.00    -0.285 OA
ATOM      5  C   UNL     1      15.493  13.062  -2.193  1.00  0.00     0.111 A 
ATOM      6  C   UNL     1      15.724  13.412  -3.557  1.00  0.00     0.134 A 
ATOM      7  C   UNL     1      14.686  13.283  -4.489  1.00  0.00     0.093 A 
ATOM      8  C   UNL     1      13.449  12.759  -4.121  1.00  0.00     0.123 A 
ATOM      9  C   UNL     1      13.231  12.358  -2.802  1.00  0.00     0.094 A 
ATOM     10  C   UNL     1      14.235  12.507  -1.842  1.00  0.00     0.146 A 
ATOM     11  O   UNL     1      13.983  12.124  -0.597  1.00  0.00    -0.452 OA
ENDROOT
BRANCH   1  12
ATOM     12  C   UNL     1      14.462  11.750   1.736  1.00  0.00     0.021 A 
ATOM     13  C   UNL     1      15.224  10.782   2.417  1.00  0.00     0.016 A 
ATOM     14  C   UNL     1      14.818  10.316   3.671  1.00  0.00     0.047 A 
ATOM     15  C   UNL     1      13.639  10.798   4.253  1.00  0.00     0.115 A 
ATOM     16  C   UNL     1      13.270  12.213   2.319  1.00  0.00     0.016 A 
ATOM     17  C   UNL     1      12.867  11.745   3.574  1.00  0.00     0.047 A 
BRANCH  15  18
ATOM     18  O   UNL     1      13.226  10.342   5.503  1.00  0.00    -0.508 OA
ATOM     19  H   UNL     1      13.095  10.976   6.282  1.00  0.00     0.293 HD
ENDBRANCH  15  18
ENDBRANCH   1  12
BRANCH   2  20
ATOM     20  O   UNL     1      16.994  13.058   1.215  1.00  0.00    -0.502 OA
ATOM     21  H   UNL     1      17.973  12.803   1.159  1.00  0.00     0.293 HD
ENDBRANCH   2  20
BRANCH   6  22
ATOM     22  O   UNL     1      16.954  13.859  -4.050  1.00  0.00    -0.507 OA
ATOM     23  H   UNL     1      17.172  13.979  -5.027  1.00  0.00     0.293 HD
ENDBRANCH   6  22
BRANCH   8  24
ATOM     24  O   UNL     1      12.444  12.631  -5.078  1.00  0.00    -0.508 OA
ATOM     25  H   UNL     1      11.928  13.435  -5.417  1.00  0.00     0.293 HD
ENDBRANCH   8  24
TORSDOF 5
ENDMDL
MODEL 9
REMARK VINA RESULT:    -5.859     10.031     10.834
REMARK INTER + INTRA:          -7.137
REMARK INTER:                  -6.849
REMARK INTRA:                  -0.288
REMARK UNBOUND:                -0.250
REMARK SMILES O=c1c(O)c(-c2ccc(O)cc2)oc2cc(O)cc(O)c12
REMARK SMILES IDX 5 1 3 2 2 3 1 4 21 5 19 6 18 7 16 8 15 9 14 10 13 11 6 12
REMARK SMILES IDX 7 13 8 14 9 15 12 16 11 17 10 18 4 20 20 22 17 24
REMARK H PARENT 10 19 4 21 20 23 17 25
REMARK Flexibility Score: inf
ROOT
ATOM      1  C   UNL     1      13.655  12.124  -6.943  1.00  0.00     0.180 A 
ATOM      2  C   UNL     1      14.972  12.600  -6.824  1.00  0.00     0.208 A 
ATOM      3  C   UNL     1      15.426  13.041  -5.570  1.00  0.00     0.238 A 
ATOM      4  O   UNL     1      16.623  13.415  -5.458  1.00  0.00    -0.285 OA
ATOM      5  C   UNL     1      14.554  13.015  -4.456  1.00  0.00     0.111 A 
ATOM      6  C   UNL     1      14.896  13.473  -3.148  1.00  0.00     0.134 A 
ATOM      7  C   UNL     1      13.997  13.279  -2.091  1.00  0.00     0.093 A 
ATOM      8  C   UNL     1      12.747  12.702  -2.306  1.00  0.00     0.123 A 
ATOM      9  C   UNL     1      12.379  12.303  -3.592  1.00  0.00     0.094 A 
ATOM     10  C   UNL     1      13.267  12.452  -4.660  1.00  0.00     0.146 A 
ATOM     11  O   UNL     1      12.883  12.050  -5.865  1.00  0.00    -0.452 OA
ENDROOT
BRANCH   1  12
ATOM     12  C   UNL     1      13.097  11.667  -8.235  1.00  0.00     0.021 A 
ATOM     13  C   UNL     1      12.365  12.534  -9.067  1.00  0.00     0.016 A 
ATOM     14  C   UNL     1      11.827  12.074 -10.272  1.00  0.00     0.047 A 
ATOM     15  C   UNL     1      12.002  10.737 -10.655  1.00  0.00     0.115 A 
ATOM     16  C   UNL     1      13.250  10.324  -8.618  1.00  0.00     0.016 A 
ATOM     17  C   UNL     1      12.712   9.865  -9.825  1.00  0.00     0.047 A 
BRANCH  15  18
ATOM     18  O   UNL     1      11.472  10.268 -11.854  1.00  0.00    -0.508 OA
ATOM     19  H   UNL     1      10.652  10.691 -12.274  1.00  0.00     0.293 HD
ENDBRANCH  15  18
ENDBRANCH   1  12
BRANCH   2  20
ATOM     20  O   UNL     1      15.824  12.598  -7.932  1.00  0.00    -0.502 OA
ATOM     21  H   UNL     1      15.671  13.193  -8.737  1.00  0.00     0.293 HD
ENDBRANCH   2  20
BRANCH   6  22
ATOM     22  O   UNL     1      16.082  14.147  -2.843  1.00  0.00    -0.507 OA
ATOM     23  H   UNL     1      16.629  13.997  -2.009  1.00  0.00     0.293 HD
ENDBRANCH   6  22
BRANCH   8  24
ATOM     24  O   UNL     1      11.872  12.538  -1.234  1.00  0.00    -0.508 OA
ATOM     25  H   UNL     1      11.510  13.330  -0.718  1.00  0.00     0.293 HD
ENDBRANCH   8  24
TORSDOF 5
ENDMDL
