MODEL 1
REMARK VINA RESULT:    -6.295      0.000      0.000
REMARK INTER + INTRA:          -7.663
REMARK INTER:                  -7.399
REMARK INTRA:                  -0.264
REMARK UNBOUND:                -0.264
REMARK SMILES O=c1cc(-c2ccc(O)c(O)c2)oc2cc(O)cc(O)c12
REMARK SMILES IDX 4 1 3 2 2 3 1 4 21 5 19 6 18 7 16 8 15 9 14 10 13 11 5 12
REMARK SMILES IDX 6 13 7 14 8 15 12 16 10 17 9 18 11 20 20 22 17 24
REMARK H PARENT 9 19 11 21 20 23 17 25
REMARK Flexibility Score: inf
ROOT
ATOM      1  C   UNL     1      -9.327   8.599   6.233  1.00  0.00     0.138 A 
ATOM      2  C   UNL     1     -10.589   9.189   6.081  1.00  0.00     0.100 A 
ATOM      3  C   UNL     1     -11.736   8.398   6.156  1.00  0.00     0.197 A 
ATOM      4  O   UNL     1     -12.850   8.947   5.953  1.00  0.00    -0.289 OA
ATOM      5  C   UNL     1     -11.618   7.012   6.417  1.00  0.00     0.107 A 
ATOM      6  C   UNL     1     -12.719   6.115   6.556  1.00  0.00     0.134 A 
ATOM      7  C   UNL     1     -12.477   4.742   6.697  1.00  0.00     0.093 A 
ATOM      8  C   UNL     1     -11.174   4.243   6.766  1.00  0.00     0.123 A 
ATOM      9  C   UNL     1     -10.093   5.118   6.686  1.00  0.00     0.094 A 
ATOM     10  C   UNL     1     -10.301   6.488   6.509  1.00  0.00     0.146 A 
ATOM     11  O   UNL     1      -9.242   7.285   6.423  1.00  0.00    -0.456 OA
ENDROOT
BRANCH   1  12
ATOM     12  C   UNL     1      -8.075   9.394   6.163  1.00  0.00     0.021 A 
ATOM     13  C   UNL     1      -7.418   9.632   4.942  1.00  0.00     0.016 A 
ATOM     14  C   UNL     1      -6.247  10.393   4.903  1.00  0.00     0.051 A 
ATOM     15  C   UNL     1      -5.716  10.934   6.080  1.00  0.00     0.157 A 
ATOM     16  C   UNL     1      -7.543   9.952   7.339  1.00  0.00     0.062 A 
ATOM     17  C   UNL     1      -6.369  10.714   7.303  1.00  0.00     0.158 A 
BRANCH  15  18
ATOM     18  O   UNL     1      -4.546  11.692   6.039  1.00  0.00    -0.504 OA
ATOM     19  H   UNL     1      -3.636  11.257   5.945  1.00  0.00     0.293 HD
ENDBRANCH  15  18
BRANCH  17  20
ATOM     20  O   UNL     1      -5.869  11.242   8.493  1.00  0.00    -0.504 OA
ATOM     21  H   UNL     1      -5.659  12.227   8.598  1.00  0.00     0.293 HD
ENDBRANCH  17  20
ENDBRANCH   1  12
BRANCH   6  22
ATOM     22  O   UNL     1     -14.057   6.519   6.585  1.00  0.00    -0.507 OA
ATOM     23  H   UNL     1     -14.374   7.449   6.815  1.00  0.00     0.293 HD
ENDBRANCH   6  22
BRANCH   8  24
ATOM     24  O   UNL     1     -10.944   2.878   6.921  1.00  0.00    -0.508 OA
ATOM     25  H   UNL     1     -11.395   2.193   6.326  1.00  0.00     0.293 HD
ENDBRANCH   8  24
TORSDOF 5
ENDMDL
MODEL 2
REMARK VINA RESULT:    -5.975      1.187      2.690
REMARK INTER + INTRA:          -7.286
REMARK INTER:                  -7.024
REMARK INTRA:                  -0.262
REMARK UNBOUND:                -0.264
REMARK SMILES O=c1cc(-c2ccc(O)c(O)c2)oc2cc(O)cc(O)c12
REMARK SMILES IDX 4 1 3 2 2 3 1 4 21 5 19 6 18 7 16 8 15 9 14 10 13 11 5 12
REMARK SMILES IDX 6 13 7 14 8 15 12 16 10 17 9 18 11 20 20 22 17 24
REMARK H PARENT 9 19 11 21 20 23 17 25
REMARK Flexibility Score: inf
ROOT
ATOM      1  C   UNL     1      -9.069   8.346   6.311  1.00  0.00     0.138 A 
ATOM      2  C   UNL     1      -8.881   6.985   6.592  1.00  0.00     0.100 A 
ATOM      3  C   UNL     1      -9.982   6.130   6.637  1.00  0.00     0.197 A 
ATOM      4  O   UNL     1      -9.788   4.927   6.952  1.00  0.00    -0.289 OA
ATOM      5  C   UNL     1     -11.276   6.635   6.366  1.00  0.00     0.107 A 
ATOM      6  C   UNL     1     -12.467   5.849   6.342  1.00  0.00     0.134 A 
ATOM      7  C   UNL     1     -13.707   6.479   6.177  1.00  0.00     0.093 A 
ATOM      8  C   UNL     1     -13.793   7.859   5.975  1.00  0.00     0.123 A 
ATOM      9  C   UNL     1     -12.631   8.628   5.942  1.00  0.00     0.094 A 
ATOM     10  C   UNL     1     -11.382   8.033   6.139  1.00  0.00     0.146 A 
ATOM     11  O   UNL     1     -10.301   8.805   6.114  1.00  0.00    -0.456 OA
ENDROOT
BRANCH   1  12
ATOM     12  C   UNL     1      -7.932   9.299   6.251  1.00  0.00     0.021 A 
ATOM     13  C   UNL     1      -7.346   9.675   5.028  1.00  0.00     0.016 A 
ATOM     14  C   UNL     1      -6.284  10.582   5.000  1.00  0.00     0.051 A 
ATOM     15  C   UNL     1      -5.795  11.136   6.189  1.00  0.00     0.157 A 
ATOM     16  C   UNL     1      -7.444   9.870   7.440  1.00  0.00     0.062 A 
ATOM     17  C   UNL     1      -6.380  10.779   7.414  1.00  0.00     0.158 A 
BRANCH  15  18
ATOM     18  O   UNL     1      -4.734  12.040   6.158  1.00  0.00    -0.504 OA
ATOM     19  H   UNL     1      -3.854  11.810   5.712  1.00  0.00     0.293 HD
ENDBRANCH  15  18
BRANCH  17  20
ATOM     20  O   UNL     1      -5.919  11.315   8.617  1.00  0.00    -0.504 OA
ATOM     21  H   UNL     1      -4.933  11.443   8.806  1.00  0.00     0.293 HD
ENDBRANCH  17  20
ENDBRANCH   1  12
BRANCH   6  22
ATOM     22  O   UNL     1     -12.485   4.455   6.450  1.00  0.00    -0.507 OA
ATOM     23  H   UNL     1     -11.758   3.901   6.877  1.00  0.00     0.293 HD
ENDBRANCH   6  22
BRANCH   8  24
ATOM     24  O   UNL     1     -15.030   8.475   5.797  1.00  0.00    -0.508 OA
ATOM     25  H   UNL     1     -15.529   8.895   6.573  1.00  0.00     0.293 HD
ENDBRANCH   8  24
TORSDOF 5
ENDMDL
MODEL 3
REMARK VINA RESULT:    -5.801      1.721      6.851
REMARK INTER + INTRA:          -7.082
REMARK INTER:                  -6.817
REMARK INTRA:                  -0.265
REMARK UNBOUND:                -0.264
REMARK SMILES O=c1cc(-c2ccc(O)c(O)c2)oc2cc(O)cc(O)c12
REMARK SMILES IDX 4 1 3 2 2 3 1 4 21 5 19 6 18 7 16 8 15 9 14 10 13 11 5 12
REMARK SMILES IDX 6 13 7 14 8 15 12 16 10 17 9 18 11 20 20 22 17 24
REMARK H PARENT 9 19 11 21 20 23 17 25
REMARK Flexibility Score: inf
ROOT
ATOM      1  C   UNL     1     -10.079   7.614   6.611  1.00  0.00     0.138 A 
ATOM      2  C   UNL     1     -10.853   8.661   6.093  1.00  0.00     0.100 A 
ATOM      3  C   UNL     1     -10.228   9.823   5.639  1.00  0.00     0.197 A 
ATOM      4  O   UNL     1     -10.953  10.770   5.237  1.00  0.00    -0.289 OA
ATOM      5  C   UNL     1      -8.816   9.923   5.676  1.00  0.00     0.107 A 
ATOM      6  C   UNL     1      -8.068  11.042   5.203  1.00  0.00     0.134 A 
ATOM      7  C   UNL     1      -6.681  11.077   5.398  1.00  0.00     0.093 A 
ATOM      8  C   UNL     1      -6.010  10.007   5.994  1.00  0.00     0.123 A 
ATOM      9  C   UNL     1      -6.725   8.886   6.410  1.00  0.00     0.094 A 
ATOM     10  C   UNL     1      -8.113   8.836   6.262  1.00  0.00     0.146 A 
ATOM     11  O   UNL     1      -8.759   7.754   6.684  1.00  0.00    -0.456 OA
ENDROOT
BRANCH   1  12
ATOM     12  C   UNL     1     -10.692   6.356   7.106  1.00  0.00     0.021 A 
ATOM     13  C   UNL     1     -11.237   6.258   8.400  1.00  0.00     0.016 A 
ATOM     14  C   UNL     1     -11.818   5.065   8.837  1.00  0.00     0.051 A 
ATOM     15  C   UNL     1     -11.872   3.952   7.988  1.00  0.00     0.157 A 
ATOM     16  C   UNL     1     -10.764   5.238   6.255  1.00  0.00     0.062 A 
ATOM     17  C   UNL     1     -11.344   4.041   6.691  1.00  0.00     0.158 A 
BRANCH  15  18
ATOM     18  O   UNL     1     -12.451   2.763   8.427  1.00  0.00    -0.504 OA
ATOM     19  H   UNL     1     -12.263   1.880   7.968  1.00  0.00     0.293 HD
ENDBRANCH  15  18
BRANCH  17  20
ATOM     20  O   UNL     1     -11.386   2.953   5.819  1.00  0.00    -0.504 OA
ATOM     21  H   UNL     1     -11.888   2.987   4.940  1.00  0.00     0.293 HD
ENDBRANCH  17  20
ENDBRANCH   1  12
BRANCH   6  22
ATOM     22  O   UNL     1      -8.629  12.125   4.519  1.00  0.00    -0.507 OA
ATOM     23  H   UNL     1      -8.785  12.160   3.523  1.00  0.00     0.293 HD
ENDBRANCH   6  22
BRANCH   8  24
ATOM     24  O   UNL     1      -4.628  10.044   6.171  1.00  0.00    -0.508 OA
ATOM     25  H   UNL     1      -3.991   9.878   5.400  1.00  0.00     0.293 HD
ENDBRANCH   8  24
TORSDOF 5
ENDMDL
MODEL 4
REMARK VINA RESULT:    -5.448      2.315      6.867
REMARK INTER + INTRA:          -6.667
REMARK INTER:                  -6.397
REMARK INTRA:                  -0.269
REMARK UNBOUND:                -0.264
REMARK SMILES O=c1cc(-c2ccc(O)c(O)c2)oc2cc(O)cc(O)c12
REMARK SMILES IDX 4 1 3 2 2 3 1 4 21 5 19 6 18 7 16 8 15 9 14 10 13 11 5 12
REMARK SMILES IDX 6 13 7 14 8 15 12 16 10 17 9 18 11 20 20 22 17 24
REMARK H PARENT 9 19 11 21 20 23 17 25
REMARK Flexibility Score: inf
ROOT
ATOM      1  C   UNL     1     -10.527   7.521   6.551  1.00  0.00     0.138 A 
ATOM      2  C   UNL     1      -9.250   7.992   6.216  1.00  0.00     0.100 A 
ATOM      3  C   UNL     1      -9.108   9.256   5.641  1.00  0.00     0.197 A 
ATOM      4  O   UNL     1      -7.956   9.625   5.294  1.00  0.00    -0.289 OA
ATOM      5  C   UNL     1     -10.251  10.065   5.430  1.00  0.00     0.107 A 
ATOM      6  C   UNL     1     -10.223  11.385   4.889  1.00  0.00     0.134 A 
ATOM      7  C   UNL     1     -11.428  12.044   4.617  1.00  0.00     0.093 A 
ATOM      8  C   UNL     1     -12.658  11.455   4.923  1.00  0.00     0.123 A 
ATOM      9  C   UNL     1     -12.693  10.188   5.502  1.00  0.00     0.094 A 
ATOM     10  C   UNL     1     -11.509   9.490   5.752  1.00  0.00     0.146 A 
ATOM     11  O   UNL     1     -11.589   8.279   6.292  1.00  0.00    -0.456 OA
ENDROOT
BRANCH   1  12
ATOM     12  C   UNL     1     -10.734   6.186   7.166  1.00  0.00     0.021 A 
ATOM     13  C   UNL     1     -10.563   5.973   8.547  1.00  0.00     0.016 A 
ATOM     14  C   UNL     1     -10.775   4.708   9.100  1.00  0.00     0.051 A 
ATOM     15  C   UNL     1     -11.168   3.637   8.289  1.00  0.00     0.157 A 
ATOM     16  C   UNL     1     -11.142   5.108   6.360  1.00  0.00     0.062 A 
ATOM     17  C   UNL     1     -11.354   3.840   6.912  1.00  0.00     0.158 A 
BRANCH  15  18
ATOM     18  O   UNL     1     -11.378   2.375   8.844  1.00  0.00    -0.504 OA
ATOM     19  H   UNL     1     -12.145   2.197   9.481  1.00  0.00     0.293 HD
ENDBRANCH  15  18
BRANCH  17  20
ATOM     20  O   UNL     1     -11.750   2.796   6.076  1.00  0.00    -0.504 OA
ATOM     21  H   UNL     1     -12.720   2.643   5.828  1.00  0.00     0.293 HD
ENDBRANCH  17  20
ENDBRANCH   1  12
BRANCH   6  22
ATOM     22  O   UNL     1      -9.049  12.096   4.625  1.00  0.00    -0.507 OA
ATOM     23  H   UNL     1      -8.282  11.756   4.065  1.00  0.00     0.293 HD
ENDBRANCH   6  22
BRANCH   8  24
ATOM     24  O   UNL     1     -13.851  12.125   4.663  1.00  0.00    -0.508 OA
ATOM     25  H   UNL     1     -13.860  13.065   4.285  1.00  0.00     0.293 HD
ENDBRANCH   8  24
TORSDOF 5
ENDMDL
MODEL 5
REMARK VINA RESULT:    -5.371     17.825     19.749
REMARK INTER + INTRA:          -6.577
REMARK INTER:                  -6.290
REMARK INTRA:                  -0.287
REMARK UNBOUND:                -0.264
REMARK SMILES O=c1cc(-c2ccc(O)c(O)c2)oc2cc(O)cc(O)c12
REMARK SMILES IDX 4 1 3 2 2 3 1 4 21 5 19 6 18 7 16 8 15 9 14 10 13 11 5 12
REMARK SMILES IDX 6 13 7 14 8 15 12 16 10 17 9 18 11 20 20 22 17 24
REMARK H PARENT 9 19 11 21 20 23 17 25
REMARK Flexibility Score: inf
ROOT
ATOM      1  C   UNL     1     -12.099  -1.931  -9.626  1.00  0.00     0.138 A 
ATOM      2  C   UNL     1     -10.714  -1.939  -9.847  1.00  0.00     0.100 A 
ATOM      3  C   UNL     1     -10.004  -3.135  -9.735  1.00  0.00     0.197 A 
ATOM      4  O   UNL     1      -8.755  -3.100  -9.878  1.00  0.00    -0.289 OA
ATOM      5  C   UNL     1     -10.691  -4.335  -9.431  1.00  0.00     0.107 A 
ATOM      6  C   UNL     1     -10.078  -5.620  -9.333  1.00  0.00     0.134 A 
ATOM      7  C   UNL     1     -10.840  -6.717  -8.911  1.00  0.00     0.093 A 
ATOM      8  C   UNL     1     -12.205  -6.588  -8.644  1.00  0.00     0.123 A 
ATOM      9  C   UNL     1     -12.824  -5.348  -8.791  1.00  0.00     0.094 A 
ATOM     10  C   UNL     1     -12.084  -4.227  -9.175  1.00  0.00     0.146 A 
ATOM     11  O   UNL     1     -12.711  -3.061  -9.289  1.00  0.00    -0.456 OA
ENDROOT
BRANCH   1  12
ATOM     12  C   UNL     1     -12.902  -0.687  -9.733  1.00  0.00     0.021 A 
ATOM     13  C   UNL     1     -14.278  -0.718 -10.029  1.00  0.00     0.016 A 
ATOM     14  C   UNL     1     -15.012   0.467 -10.113  1.00  0.00     0.051 A 
ATOM     15  C   UNL     1     -14.390   1.703  -9.896  1.00  0.00     0.157 A 
ATOM     16  C   UNL     1     -12.287   0.557  -9.503  1.00  0.00     0.062 A 
ATOM     17  C   UNL     1     -13.021   1.746  -9.588  1.00  0.00     0.158 A 
BRANCH  15  18
ATOM     18  O   UNL     1     -15.125   2.884  -9.982  1.00  0.00    -0.504 OA
ATOM     19  H   UNL     1     -14.698   3.754 -10.276  1.00  0.00     0.293 HD
ENDBRANCH  15  18
BRANCH  17  20
ATOM     20  O   UNL     1     -12.371   2.959  -9.362  1.00  0.00    -0.504 OA
ATOM     21  H   UNL     1     -12.489   3.481  -8.502  1.00  0.00     0.293 HD
ENDBRANCH  17  20
ENDBRANCH   1  12
BRANCH   6  22
ATOM     22  O   UNL     1      -8.742  -5.875  -9.657  1.00  0.00    -0.507 OA
ATOM     23  H   UNL     1      -8.225  -5.403 -10.383  1.00  0.00     0.293 HD
ENDBRANCH   6  22
BRANCH   8  24
ATOM     24  O   UNL     1     -12.958  -7.688  -8.240  1.00  0.00    -0.508 OA
ATOM     25  H   UNL     1     -13.625  -8.131  -8.862  1.00  0.00     0.293 HD
ENDBRANCH   8  24
TORSDOF 5
ENDMDL
MODEL 6
REMARK VINA RESULT:    -5.121      2.441      6.774
REMARK INTER + INTRA:          -6.283
REMARK INTER:                  -6.002
REMARK INTRA:                  -0.281
REMARK UNBOUND:                -0.264
REMARK SMILES O=c1cc(-c2ccc(O)c(O)c2)oc2cc(O)cc(O)c12
REMARK SMILES IDX 4 1 3 2 2 3 1 4 21 5 19 6 18 7 16 8 15 9 14 10 13 11 5 12
REMARK SMILES IDX 6 13 7 14 8 15 12 16 10 17 9 18 11 20 20 22 17 24
REMARK H PARENT 9 19 11 21 20 23 17 25
REMARK Flexibility Score: inf
ROOT
ATOM      1  C   UNL     1     -11.788   7.149   6.423  1.00  0.00     0.138 A 
ATOM      2  C   UNL     1     -12.982   7.723   6.881  1.00  0.00     0.100 A 
ATOM      3  C   UNL     1     -13.097   9.112   6.957  1.00  0.00     0.197 A 
ATOM      4  O   UNL     1     -14.158   9.595   7.430  1.00  0.00    -0.289 OA
ATOM      5  C   UNL     1     -12.019   9.931   6.542  1.00  0.00     0.107 A 
ATOM      6  C   UNL     1     -12.038  11.357   6.536  1.00  0.00     0.134 A 
ATOM      7  C   UNL     1     -10.870  12.061   6.215  1.00  0.00     0.093 A 
ATOM      8  C   UNL     1      -9.704  11.390   5.840  1.00  0.00     0.123 A 
ATOM      9  C   UNL     1      -9.692   9.998   5.790  1.00  0.00     0.094 A 
ATOM     10  C   UNL     1     -10.830   9.266   6.139  1.00  0.00     0.146 A 
ATOM     11  O   UNL     1     -10.771   7.940   6.091  1.00  0.00    -0.456 OA
ENDROOT
BRANCH   1  12
ATOM     12  C   UNL     1     -11.613   5.679   6.321  1.00  0.00     0.021 A 
ATOM     13  C   UNL     1     -11.817   4.831   7.426  1.00  0.00     0.016 A 
ATOM     14  C   UNL     1     -11.655   3.450   7.299  1.00  0.00     0.051 A 
ATOM     15  C   UNL     1     -11.295   2.889   6.068  1.00  0.00     0.157 A 
ATOM     16  C   UNL     1     -11.265   5.106   5.084  1.00  0.00     0.062 A 
ATOM     17  C   UNL     1     -11.101   3.723   4.955  1.00  0.00     0.158 A 
BRANCH  15  18
ATOM     18  O   UNL     1     -11.134   1.510   5.945  1.00  0.00    -0.504 OA
ATOM     19  H   UNL     1     -11.761   0.859   6.404  1.00  0.00     0.293 HD
ENDBRANCH  15  18
BRANCH  17  20
ATOM     20  O   UNL     1     -10.747   3.196   3.713  1.00  0.00    -0.504 OA
ATOM     21  H   UNL     1     -10.216   2.339   3.624  1.00  0.00     0.293 HD
ENDBRANCH  17  20
ENDBRANCH   1  12
BRANCH   6  22
ATOM     22  O   UNL     1     -13.173  12.125   6.814  1.00  0.00    -0.507 OA
ATOM     23  H   UNL     1     -13.226  12.840   7.523  1.00  0.00     0.293 HD
ENDBRANCH   6  22
BRANCH   8  24
ATOM     24  O   UNL     1      -8.552  12.099   5.507  1.00  0.00    -0.508 OA
ATOM     25  H   UNL     1      -7.837  11.699   4.911  1.00  0.00     0.293 HD
ENDBRANCH   8  24
TORSDOF 5
ENDMDL
MODEL 7
REMARK VINA RESULT:    -5.103      4.064      4.953
REMARK INTER + INTRA:          -6.262
REMARK INTER:                  -5.976
REMARK INTRA:                  -0.286
REMARK UNBOUND:                -0.264
REMARK SMILES O=c1cc(-c2ccc(O)c(O)c2)oc2cc(O)cc(O)c12
REMARK SMILES IDX 4 1 3 2 2 3 1 4 21 5 19 6 18 7 16 8 15 9 14 10 13 11 5 12
REMARK SMILES IDX 6 13 7 14 8 15 12 16 10 17 9 18 11 20 20 22 17 24
REMARK H PARENT 9 19 11 21 20 23 17 25
REMARK Flexibility Score: inf
ROOT
ATOM      1  C   UNL     1     -10.064  10.992   5.952  1.00  0.00     0.138 A 
ATOM      2  C   UNL     1     -10.948  11.266   7.004  1.00  0.00     0.100 A 
ATOM      3  C   UNL     1     -12.272  11.605   6.724  1.00  0.00     0.197 A 
ATOM      4  O   UNL     1     -13.025  11.905   7.687  1.00  0.00    -0.289 OA
ATOM      5  C   UNL     1     -12.720  11.639   5.382  1.00  0.00     0.107 A 
ATOM      6  C   UNL     1     -14.058  11.931   4.979  1.00  0.00     0.134 A 
ATOM      7  C   UNL     1     -14.357  12.050   3.616  1.00  0.00     0.093 A 
ATOM      8  C   UNL     1     -13.381  11.828   2.641  1.00  0.00     0.123 A 
ATOM      9  C   UNL     1     -12.085  11.488   3.024  1.00  0.00     0.094 A 
ATOM     10  C   UNL     1     -11.747  11.397   4.376  1.00  0.00     0.146 A 
ATOM     11  O   UNL     1     -10.496  11.084   4.698  1.00  0.00    -0.456 OA
ENDROOT
BRANCH   1  12
ATOM     12  C   UNL     1      -8.645  10.626   6.193  1.00  0.00     0.021 A 
ATOM     13  C   UNL     1      -7.926   9.820   5.292  1.00  0.00     0.016 A 
ATOM     14  C   UNL     1      -6.589   9.499   5.539  1.00  0.00     0.051 A 
ATOM     15  C   UNL     1      -5.945   9.983   6.684  1.00  0.00     0.157 A 
ATOM     16  C   UNL     1      -7.987  11.119   7.334  1.00  0.00     0.062 A 
ATOM     17  C   UNL     1      -6.648  10.799   7.585  1.00  0.00     0.158 A 
BRANCH  15  18
ATOM     18  O   UNL     1      -4.611   9.661   6.928  1.00  0.00    -0.504 OA
ATOM     19  H   UNL     1      -4.295   9.372   7.847  1.00  0.00     0.293 HD
ENDBRANCH  15  18
BRANCH  17  20
ATOM     20  O   UNL     1      -6.035  11.301   8.733  1.00  0.00    -0.504 OA
ATOM     21  H   UNL     1      -6.569  11.671   9.509  1.00  0.00     0.293 HD
ENDBRANCH  17  20
ENDBRANCH   1  12
BRANCH   6  22
ATOM     22  O   UNL     1     -15.125  12.088   5.869  1.00  0.00    -0.507 OA
ATOM     23  H   UNL     1     -15.451  12.973   6.227  1.00  0.00     0.293 HD
ENDBRANCH   6  22
BRANCH   8  24
ATOM     24  O   UNL     1     -13.692  11.934   1.287  1.00  0.00    -0.508 OA
ATOM     25  H   UNL     1     -14.569  12.336   0.975  1.00  0.00     0.293 HD
ENDBRANCH   8  24
TORSDOF 5
ENDMDL
MODEL 8
REMARK VINA RESULT:    -5.092      1.766      2.017
REMARK INTER + INTRA:          -6.249
REMARK INTER:                  -5.973
REMARK INTRA:                  -0.275
REMARK UNBOUND:                -0.264
REMARK SMILES O=c1cc(-c2ccc(O)c(O)c2)oc2cc(O)cc(O)c12
REMARK SMILES IDX 4 1 3 2 2 3 1 4 21 5 19 6 18 7 16 8 15 9 14 10 13 11 5 12
REMARK SMILES IDX 6 13 7 14 8 15 12 16 10 17 9 18 11 20 20 22 17 24
REMARK H PARENT 9 19 11 21 20 23 17 25
REMARK Flexibility Score: inf
ROOT
ATOM      1  C   UNL     1      -9.562   7.764   6.135  1.00  0.00     0.138 A 
ATOM      2  C   UNL     1     -10.687   7.755   6.971  1.00  0.00     0.100 A 
ATOM      3  C   UNL     1     -11.542   6.652   6.967  1.00  0.00     0.197 A 
ATOM      4  O   UNL     1     -12.576   6.699   7.683  1.00  0.00    -0.289 OA
ATOM      5  C   UNL     1     -11.250   5.538   6.142  1.00  0.00     0.107 A 
ATOM      6  C   UNL     1     -12.026   4.343   6.087  1.00  0.00     0.134 A 
ATOM      7  C   UNL     1     -11.706   3.355   5.147  1.00  0.00     0.093 A 
ATOM      8  C   UNL     1     -10.601   3.494   4.303  1.00  0.00     0.123 A 
ATOM      9  C   UNL     1      -9.804   4.634   4.388  1.00  0.00     0.094 A 
ATOM     10  C   UNL     1     -10.119   5.653   5.291  1.00  0.00     0.146 A 
ATOM     11  O   UNL     1      -9.341   6.729   5.330  1.00  0.00    -0.456 OA
ENDROOT
BRANCH   1  12
ATOM     12  C   UNL     1      -8.620   8.911   6.100  1.00  0.00     0.021 A 
ATOM     13  C   UNL     1      -9.038  10.201   5.721  1.00  0.00     0.016 A 
ATOM     14  C   UNL     1      -8.133  11.264   5.708  1.00  0.00     0.051 A 
ATOM     15  C   UNL     1      -6.798  11.062   6.078  1.00  0.00     0.157 A 
ATOM     16  C   UNL     1      -7.281   8.719   6.484  1.00  0.00     0.062 A 
ATOM     17  C   UNL     1      -6.372   9.783   6.470  1.00  0.00     0.158 A 
BRANCH  15  18
ATOM     18  O   UNL     1      -5.896  12.125   6.063  1.00  0.00    -0.504 OA
ATOM     19  H   UNL     1      -5.327  12.350   6.870  1.00  0.00     0.293 HD
ENDBRANCH  15  18
BRANCH  17  20
ATOM     20  O   UNL     1      -5.050   9.548   6.850  1.00  0.00    -0.504 OA
ATOM     21  H   UNL     1      -4.777   8.721   7.366  1.00  0.00     0.293 HD
ENDBRANCH  17  20
ENDBRANCH   1  12
BRANCH   6  22
ATOM     22  O   UNL     1     -13.099   4.067   6.940  1.00  0.00    -0.507 OA
ATOM     23  H   UNL     1     -13.651   4.765   7.415  1.00  0.00     0.293 HD
ENDBRANCH   6  22
BRANCH   8  24
ATOM     24  O   UNL     1     -10.281   2.500   3.382  1.00  0.00    -0.508 OA
ATOM     25  H   UNL     1      -9.484   1.889   3.517  1.00  0.00     0.293 HD
ENDBRANCH   8  24
TORSDOF 5
ENDMDL
MODEL 9
REMARK VINA RESULT:    -4.462      2.463      6.842
REMARK INTER + INTRA:          -5.508
REMARK INTER:                  -5.230
REMARK INTRA:                  -0.278
REMARK UNBOUND:                -0.264
REMARK SMILES O=c1cc(-c2ccc(O)c(O)c2)oc2cc(O)cc(O)c12
REMARK SMILES IDX 4 1 3 2 2 3 1 4 21 5 19 6 18 7 16 8 15 9 14 10 13 11 5 12
REMARK SMILES IDX 6 13 7 14 8 15 12 16 10 17 9 18 11 20 20 22 17 24
REMARK H PARENT 9 19 11 21 20 23 17 25
REMARK Flexibility Score: inf
ROOT
ATOM      1  C   UNL     1     -12.230   7.675   6.625  1.00  0.00     0.138 A 
ATOM      2  C   UNL     1     -13.430   8.265   6.203  1.00  0.00     0.100 A 
ATOM      3  C   UNL     1     -13.404   9.510   5.575  1.00  0.00     0.197 A 
ATOM      4  O   UNL     1     -14.502  10.041   5.263  1.00  0.00    -0.289 OA
ATOM      5  C   UNL     1     -12.166  10.155   5.341  1.00  0.00     0.107 A 
ATOM      6  C   UNL     1     -12.014  11.407   4.673  1.00  0.00     0.134 A 
ATOM      7  C   UNL     1     -10.749  12.003   4.603  1.00  0.00     0.093 A 
ATOM      8  C   UNL     1      -9.621  11.363   5.123  1.00  0.00     0.123 A 
ATOM      9  C   UNL     1      -9.750  10.115   5.728  1.00  0.00     0.094 A 
ATOM     10  C   UNL     1     -11.005   9.511   5.845  1.00  0.00     0.146 A 
ATOM     11  O   UNL     1     -11.085   8.327   6.442  1.00  0.00    -0.456 OA
ENDROOT
BRANCH   1  12
ATOM     12  C   UNL     1     -12.200   6.352   7.297  1.00  0.00     0.021 A 
ATOM     13  C   UNL     1     -12.898   6.115   8.496  1.00  0.00     0.016 A 
ATOM     14  C   UNL     1     -12.861   4.857   9.101  1.00  0.00     0.051 A 
ATOM     15  C   UNL     1     -12.134   3.812   8.518  1.00  0.00     0.157 A 
ATOM     16  C   UNL     1     -11.484   5.293   6.710  1.00  0.00     0.062 A 
ATOM     17  C   UNL     1     -11.444   4.032   7.315  1.00  0.00     0.158 A 
BRANCH  15  18
ATOM     18  O   UNL     1     -12.098   2.558   9.125  1.00  0.00    -0.504 OA
ATOM     19  H   UNL     1     -11.234   2.163   9.476  1.00  0.00     0.293 HD
ENDBRANCH  15  18
BRANCH  17  20
ATOM     20  O   UNL     1     -10.714   3.011   6.706  1.00  0.00    -0.504 OA
ATOM     21  H   UNL     1     -10.604   2.955   5.701  1.00  0.00     0.293 HD
ENDBRANCH  17  20
ENDBRANCH   1  12
BRANCH   6  22
ATOM     22  O   UNL     1     -13.062  12.090   4.047  1.00  0.00    -0.507 OA
ATOM     23  H   UNL     1     -12.953  12.723   3.269  1.00  0.00     0.293 HD
ENDBRANCH   6  22
BRANCH   8  24
ATOM     24  O   UNL     1      -8.364  11.957   5.035  1.00  0.00    -0.508 OA
ATOM     25  H   UNL     1      -7.514  11.408   5.081  1.00  0.00     0.293 HD
ENDBRANCH   8  24
TORSDOF 5
ENDMDL
