MODEL 1
REMARK VINA RESULT:    -1.751      0.000      0.000
REMARK INTER + INTRA:          -6.128
REMARK INTER:                  -4.616
REMARK INTRA:                  -1.512
REMARK UNBOUND:                -1.512
REMARK SMILES CCCCCCCCCCCCCCCCCCCCCCCCCCCCCC(=O)[O-]
REMARK SMILES IDX 16 1 17 2 18 3 19 4 20 5 21 6 22 7 23 8 24 9 25 10 26 11
REMARK SMILES IDX 27 12 28 13 29 14 30 15 31 16 32 17 15 18 14 19 13 20 12 21
REMARK SMILES IDX 11 22 10 23 9 24 8 25 7 26 6 27 5 28 4 29 3 30 2 31 1 32
REMARK H PARENT
REMARK Flexibility Score: inf
ROOT
ATOM      1  C   UNL     1      50.747  47.751  23.203  1.00  0.00     0.000 C 
ENDROOT
BRANCH   1   2
ATOM      2  C   UNL     1      50.592  49.286  23.176  1.00  0.00     0.000 C 
BRANCH   2   3
ATOM      3  C   UNL     1      49.434  49.830  22.314  1.00  0.00     0.000 C 
BRANCH   3   4
ATOM      4  C   UNL     1      49.739  51.127  21.539  1.00  0.00     0.000 C 
BRANCH   4   5
ATOM      5  C   UNL     1      50.699  50.910  20.362  1.00  0.00     0.000 C 
BRANCH   5   6
ATOM      6  C   UNL     1      52.162  50.917  20.835  1.00  0.00     0.000 C 
BRANCH   6   7
ATOM      7  C   UNL     1      52.806  52.319  20.813  1.00  0.00     0.000 C 
BRANCH   7   8
ATOM      8  C   UNL     1      51.873  53.466  20.377  1.00  0.00     0.000 C 
BRANCH   8   9
ATOM      9  C   UNL     1      52.634  54.715  19.894  1.00  0.00     0.000 C 
BRANCH   9  10
ATOM     10  C   UNL     1      51.966  56.021  20.352  1.00  0.00     0.000 C 
BRANCH  10  11
ATOM     11  C   UNL     1      52.602  56.577  21.640  1.00  0.00     0.000 C 
BRANCH  11  12
ATOM     12  C   UNL     1      53.681  55.646  22.217  1.00  0.00     0.000 C 
BRANCH  12  13
ATOM     13  C   UNL     1      53.157  54.784  23.380  1.00  0.00     0.006 C 
BRANCH  13  14
ATOM     14  C   UNL     1      54.149  53.684  23.778  1.00  0.00     0.053 C 
BRANCH  14  15
ATOM     15  C   UNL     1      53.470  52.555  24.493  1.00  0.00     0.041 C 
ATOM     16  O   UNL     1      54.007  52.029  25.503  1.00  0.00    -0.550 OA
ATOM     17  O   UNL     1      52.257  52.063  24.025  1.00  0.00    -0.550 OA
ENDBRANCH  14  15
ENDBRANCH  13  14
ENDBRANCH  12  13
ENDBRANCH  11  12
ENDBRANCH  10  11
ENDBRANCH   9  10
ENDBRANCH   8   9
ENDBRANCH   7   8
ENDBRANCH   6   7
ENDBRANCH   5   6
ENDBRANCH   4   5
ENDBRANCH   3   4
ENDBRANCH   2   3
ENDBRANCH   1   2
BRANCH   1  18
ATOM     18  C   UNL     1      50.527  47.120  24.593  1.00  0.00     0.000 C 
BRANCH  18  19
ATOM     19  C   UNL     1      49.042  46.895  24.918  1.00  0.00     0.000 C 
BRANCH  19  20
ATOM     20  C   UNL     1      48.205  48.116  24.514  1.00  0.00     0.000 C 
BRANCH  20  21
ATOM     21  C   UNL     1      47.292  48.620  25.648  1.00  0.00     0.000 C 
BRANCH  21  22
ATOM     22  C   UNL     1      46.429  49.852  25.302  1.00  0.00     0.000 C 
BRANCH  22  23
ATOM     23  C   UNL     1      46.786  50.548  23.976  1.00  0.00     0.000 C 
BRANCH  23  24
ATOM     24  C   UNL     1      46.219  51.975  23.884  1.00  0.00    -0.000 C 
BRANCH  24  25
ATOM     25  C   UNL     1      45.883  52.578  25.261  1.00  0.00    -0.000 C 
BRANCH  25  26
ATOM     26  C   UNL     1      46.481  53.973  25.530  1.00  0.00    -0.000 C 
BRANCH  26  27
ATOM     27  C   UNL     1      47.428  53.998  26.742  1.00  0.00    -0.000 C 
BRANCH  27  28
ATOM     28  C   UNL     1      48.298  52.732  26.851  1.00  0.00    -0.000 C 
BRANCH  28  29
ATOM     29  C   UNL     1      49.285  52.519  25.688  1.00  0.00    -0.000 C 
BRANCH  29  30
ATOM     30  C   UNL     1      50.190  53.738  25.438  1.00  0.00    -0.000 C 
BRANCH  30  31
ATOM     31  C   UNL     1      49.885  54.434  24.102  1.00  0.00    -0.003 C 
ATOM     32  C   UNL     1      49.710  53.445  22.950  1.00  0.00     0.004 C 
ENDBRANCH  30  31
ENDBRANCH  29  30
ENDBRANCH  28  29
ENDBRANCH  27  28
ENDBRANCH  26  27
ENDBRANCH  25  26
ENDBRANCH  24  25
ENDBRANCH  23  24
ENDBRANCH  22  23
ENDBRANCH  21  22
ENDBRANCH  20  21
ENDBRANCH  19  20
ENDBRANCH  18  19
ENDBRANCH   1  18
TORSDOF 28
ENDMDL
MODEL 2
REMARK VINA RESULT:    -1.680      1.659      4.898
REMARK INTER + INTRA:          -5.942
REMARK INTER:                  -4.019
REMARK INTRA:                  -1.924
REMARK UNBOUND:                -1.512
REMARK SMILES CCCCCCCCCCCCCCCCCCCCCCCCCCCCCC(=O)[O-]
REMARK SMILES IDX 16 1 17 2 18 3 19 4 20 5 21 6 22 7 23 8 24 9 25 10 26 11
REMARK SMILES IDX 27 12 28 13 29 14 30 15 31 16 32 17 15 18 14 19 13 20 12 21
REMARK SMILES IDX 11 22 10 23 9 24 8 25 7 26 6 27 5 28 4 29 3 30 2 31 1 32
REMARK H PARENT
REMARK Flexibility Score: inf
ROOT
ATOM      1  C   UNL     1      48.769  53.216  26.449  1.00  0.00     0.000 C 
ENDROOT
BRANCH   1   2
ATOM      2  C   UNL     1      49.028  52.562  25.076  1.00  0.00     0.000 C 
BRANCH   2   3
ATOM      3  C   UNL     1      49.741  53.447  24.033  1.00  0.00     0.000 C 
BRANCH   3   4
ATOM      4  C   UNL     1      51.176  53.875  24.399  1.00  0.00     0.000 C 
BRANCH   4   5
ATOM      5  C   UNL     1      52.062  52.697  24.824  1.00  0.00     0.000 C 
BRANCH   5   6
ATOM      6  C   UNL     1      53.551  53.069  24.740  1.00  0.00     0.000 C 
BRANCH   6   7
ATOM      7  C   UNL     1      54.279  52.419  23.546  1.00  0.00     0.000 C 
BRANCH   7   8
ATOM      8  C   UNL     1      53.608  52.626  22.174  1.00  0.00     0.000 C 
BRANCH   8   9
ATOM      9  C   UNL     1      52.713  51.444  21.753  1.00  0.00     0.000 C 
BRANCH   9  10
ATOM     10  C   UNL     1      51.633  51.859  20.741  1.00  0.00     0.000 C 
BRANCH  10  11
ATOM     11  C   UNL     1      51.450  53.387  20.684  1.00  0.00     0.000 C 
BRANCH  11  12
ATOM     12  C   UNL     1      52.563  54.087  19.887  1.00  0.00     0.000 C 
BRANCH  12  13
ATOM     13  C   UNL     1      52.226  55.554  19.564  1.00  0.00     0.006 C 
BRANCH  13  14
ATOM     14  C   UNL     1      51.762  56.328  20.804  1.00  0.00     0.053 C 
BRANCH  14  15
ATOM     15  C   UNL     1      52.880  56.538  21.780  1.00  0.00     0.041 C 
ATOM     16  O   UNL     1      53.541  57.609  21.766  1.00  0.00    -0.550 OA
ATOM     17  O   UNL     1      53.211  55.537  22.686  1.00  0.00    -0.550 OA
ENDBRANCH  14  15
ENDBRANCH  13  14
ENDBRANCH  12  13
ENDBRANCH  11  12
ENDBRANCH  10  11
ENDBRANCH   9  10
ENDBRANCH   8   9
ENDBRANCH   7   8
ENDBRANCH   6   7
ENDBRANCH   5   6
ENDBRANCH   4   5
ENDBRANCH   3   4
ENDBRANCH   2   3
ENDBRANCH   1   2
BRANCH   1  18
ATOM     18  C   UNL     1      47.518  54.116  26.493  1.00  0.00     0.000 C 
BRANCH  18  19
ATOM     19  C   UNL     1      46.211  53.330  26.310  1.00  0.00     0.000 C 
BRANCH  19  20
ATOM     20  C   UNL     1      46.082  52.230  27.371  1.00  0.00     0.000 C 
BRANCH  20  21
ATOM     21  C   UNL     1      45.911  50.825  26.763  1.00  0.00     0.000 C 
BRANCH  21  22
ATOM     22  C   UNL     1      46.246  50.711  25.261  1.00  0.00     0.000 C 
BRANCH  22  23
ATOM     23  C   UNL     1      46.843  49.360  24.826  1.00  0.00     0.000 C 
BRANCH  23  24
ATOM     24  C   UNL     1      46.654  48.259  25.884  1.00  0.00    -0.000 C 
BRANCH  24  25
ATOM     25  C   UNL     1      47.501  47.003  25.601  1.00  0.00    -0.000 C 
BRANCH  25  26
ATOM     26  C   UNL     1      48.526  47.147  24.460  1.00  0.00    -0.000 C 
BRANCH  26  27
ATOM     27  C   UNL     1      49.971  46.875  24.911  1.00  0.00    -0.000 C 
BRANCH  27  28
ATOM     28  C   UNL     1      51.006  47.738  24.165  1.00  0.00    -0.000 C 
BRANCH  28  29
ATOM     29  C   UNL     1      50.490  48.402  22.875  1.00  0.00    -0.000 C 
BRANCH  29  30
ATOM     30  C   UNL     1      49.714  49.704  23.140  1.00  0.00    -0.000 C 
BRANCH  30  31
ATOM     31  C   UNL     1      49.216  50.366  21.845  1.00  0.00    -0.003 C 
ATOM     32  C   UNL     1      48.139  51.420  22.100  1.00  0.00     0.004 C 
ENDBRANCH  30  31
ENDBRANCH  29  30
ENDBRANCH  28  29
ENDBRANCH  27  28
ENDBRANCH  26  27
ENDBRANCH  25  26
ENDBRANCH  24  25
ENDBRANCH  23  24
ENDBRANCH  22  23
ENDBRANCH  21  22
ENDBRANCH  20  21
ENDBRANCH  19  20
ENDBRANCH  18  19
ENDBRANCH   1  18
TORSDOF 28
ENDMDL
MODEL 3
REMARK VINA RESULT:    -1.585      1.740      7.332
REMARK INTER + INTRA:          -5.691
REMARK INTER:                  -3.166
REMARK INTRA:                  -2.525
REMARK UNBOUND:                -1.512
REMARK SMILES CCCCCCCCCCCCCCCCCCCCCCCCCCCCCC(=O)[O-]
REMARK SMILES IDX 16 1 17 2 18 3 19 4 20 5 21 6 22 7 23 8 24 9 25 10 26 11
REMARK SMILES IDX 27 12 28 13 29 14 30 15 31 16 32 17 15 18 14 19 13 20 12 21
REMARK SMILES IDX 11 22 10 23 9 24 8 25 7 26 6 27 5 28 4 29 3 30 2 31 1 32
REMARK H PARENT
REMARK Flexibility Score: inf
ROOT
ATOM      1  C   UNL     1      49.365  52.914  26.210  1.00  0.00     0.000 C 
ENDROOT
BRANCH   1   2
ATOM      2  C   UNL     1      48.161  53.680  26.797  1.00  0.00     0.000 C 
BRANCH   2   3
ATOM      3  C   UNL     1      47.071  52.813  27.460  1.00  0.00     0.000 C 
BRANCH   3   4
ATOM      4  C   UNL     1      45.895  52.416  26.545  1.00  0.00     0.000 C 
BRANCH   4   5
ATOM      5  C   UNL     1      45.881  50.920  26.206  1.00  0.00     0.000 C 
BRANCH   5   6
ATOM      6  C   UNL     1      46.510  50.661  24.828  1.00  0.00     0.000 C 
BRANCH   6   7
ATOM      7  C   UNL     1      47.047  49.224  24.659  1.00  0.00     0.000 C 
BRANCH   7   8
ATOM      8  C   UNL     1      46.772  48.275  25.842  1.00  0.00     0.000 C 
BRANCH   8   9
ATOM      9  C   UNL     1      47.416  46.887  25.667  1.00  0.00     0.000 C 
BRANCH   9  10
ATOM     10  C   UNL     1      48.492  46.875  24.570  1.00  0.00     0.000 C 
BRANCH  10  11
ATOM     11  C   UNL     1      49.911  47.028  25.149  1.00  0.00     0.000 C 
BRANCH  11  12
ATOM     12  C   UNL     1      50.916  47.565  24.116  1.00  0.00     0.000 C 
BRANCH  12  13
ATOM     13  C   UNL     1      50.229  48.129  22.860  1.00  0.00     0.006 C 
BRANCH  13  14
ATOM     14  C   UNL     1      50.692  49.555  22.538  1.00  0.00     0.053 C 
BRANCH  14  15
ATOM     15  C   UNL     1      49.728  50.262  21.633  1.00  0.00     0.041 C 
ATOM     16  O   UNL     1      48.556  50.507  22.022  1.00  0.00    -0.550 OA
ATOM     17  O   UNL     1      50.116  50.623  20.348  1.00  0.00    -0.550 OA
ENDBRANCH  14  15
ENDBRANCH  13  14
ENDBRANCH  12  13
ENDBRANCH  11  12
ENDBRANCH  10  11
ENDBRANCH   9  10
ENDBRANCH   8   9
ENDBRANCH   7   8
ENDBRANCH   6   7
ENDBRANCH   5   6
ENDBRANCH   4   5
ENDBRANCH   3   4
ENDBRANCH   2   3
ENDBRANCH   1   2
BRANCH   1  18
ATOM     18  C   UNL     1      49.043  52.119  24.928  1.00  0.00     0.000 C 
BRANCH  18  19
ATOM     19  C   UNL     1      48.806  53.024  23.709  1.00  0.00     0.000 C 
BRANCH  19  20
ATOM     20  C   UNL     1      50.067  53.834  23.378  1.00  0.00     0.000 C 
BRANCH  20  21
ATOM     21  C   UNL     1      51.226  53.567  24.356  1.00  0.00     0.000 C 
BRANCH  21  22
ATOM     22  C   UNL     1      52.297  54.676  24.429  1.00  0.00     0.000 C 
BRANCH  22  23
ATOM     23  C   UNL     1      53.743  54.178  24.596  1.00  0.00     0.000 C 
BRANCH  23  24
ATOM     24  C   UNL     1      53.911  52.699  24.206  1.00  0.00    -0.000 C 
BRANCH  24  25
ATOM     25  C   UNL     1      54.202  52.504  22.705  1.00  0.00    -0.000 C 
BRANCH  25  26
ATOM     26  C   UNL     1      53.054  51.879  21.890  1.00  0.00    -0.000 C 
BRANCH  26  27
ATOM     27  C   UNL     1      52.869  52.535  20.510  1.00  0.00    -0.000 C 
BRANCH  27  28
ATOM     28  C   UNL     1      51.852  53.692  20.526  1.00  0.00    -0.000 C 
BRANCH  28  29
ATOM     29  C   UNL     1      52.405  55.050  20.060  1.00  0.00    -0.000 C 
BRANCH  29  30
ATOM     30  C   UNL     1      51.586  56.244  20.582  1.00  0.00    -0.000 C 
BRANCH  30  31
ATOM     31  C   UNL     1      52.402  57.157  21.511  1.00  0.00    -0.003 C 
ATOM     32  C   UNL     1      53.903  56.882  21.436  1.00  0.00     0.004 C 
ENDBRANCH  30  31
ENDBRANCH  29  30
ENDBRANCH  28  29
ENDBRANCH  27  28
ENDBRANCH  26  27
ENDBRANCH  25  26
ENDBRANCH  24  25
ENDBRANCH  23  24
ENDBRANCH  22  23
ENDBRANCH  21  22
ENDBRANCH  20  21
ENDBRANCH  19  20
ENDBRANCH  18  19
ENDBRANCH   1  18
TORSDOF 28
ENDMDL
MODEL 4
REMARK VINA RESULT:    -1.578      1.981      5.221
REMARK INTER + INTRA:          -5.672
REMARK INTER:                  -3.188
REMARK INTRA:                  -2.484
REMARK UNBOUND:                -1.512
REMARK SMILES CCCCCCCCCCCCCCCCCCCCCCCCCCCCCC(=O)[O-]
REMARK SMILES IDX 16 1 17 2 18 3 19 4 20 5 21 6 22 7 23 8 24 9 25 10 26 11
REMARK SMILES IDX 27 12 28 13 29 14 30 15 31 16 32 17 15 18 14 19 13 20 12 21
REMARK SMILES IDX 11 22 10 23 9 24 8 25 7 26 6 27 5 28 4 29 3 30 2 31 1 32
REMARK H PARENT
REMARK Flexibility Score: inf
ROOT
ATOM      1  C   UNL     1      52.396  54.489  25.099  1.00  0.00     0.000 C 
ENDROOT
BRANCH   1   2
ATOM      2  C   UNL     1      52.875  53.060  24.764  1.00  0.00     0.000 C 
BRANCH   2   3
ATOM      3  C   UNL     1      54.125  52.963  23.867  1.00  0.00     0.000 C 
BRANCH   3   4
ATOM      4  C   UNL     1      53.846  52.796  22.360  1.00  0.00     0.000 C 
BRANCH   4   5
ATOM      5  C   UNL     1      52.881  51.644  22.054  1.00  0.00     0.000 C 
BRANCH   5   6
ATOM      6  C   UNL     1      52.559  51.578  20.552  1.00  0.00     0.000 C 
BRANCH   6   7
ATOM      7  C   UNL     1      51.162  50.998  20.250  1.00  0.00     0.000 C 
BRANCH   7   8
ATOM      8  C   UNL     1      50.576  50.086  21.346  1.00  0.00     0.000 C 
BRANCH   8   9
ATOM      9  C   UNL     1      49.060  50.275  21.543  1.00  0.00     0.000 C 
BRANCH   9  10
ATOM     10  C   UNL     1      48.735  51.304  22.637  1.00  0.00     0.000 C 
BRANCH  10  11
ATOM     11  C   UNL     1      48.754  52.747  22.099  1.00  0.00     0.000 C 
BRANCH  11  12
ATOM     12  C   UNL     1      49.959  53.554  22.609  1.00  0.00     0.000 C 
BRANCH  12  13
ATOM     13  C   UNL     1      50.460  54.584  21.581  1.00  0.00     0.006 C 
BRANCH  13  14
ATOM     14  C   UNL     1      51.951  54.899  21.756  1.00  0.00     0.053 C 
BRANCH  14  15
ATOM     15  C   UNL     1      52.414  55.950  20.792  1.00  0.00     0.041 C 
ATOM     16  O   UNL     1      52.375  55.735  19.552  1.00  0.00    -0.550 OA
ATOM     17  O   UNL     1      52.916  57.157  21.265  1.00  0.00    -0.550 OA
ENDBRANCH  14  15
ENDBRANCH  13  14
ENDBRANCH  12  13
ENDBRANCH  11  12
ENDBRANCH  10  11
ENDBRANCH   9  10
ENDBRANCH   8   9
ENDBRANCH   7   8
ENDBRANCH   6   7
ENDBRANCH   5   6
ENDBRANCH   4   5
ENDBRANCH   3   4
ENDBRANCH   2   3
ENDBRANCH   1   2
BRANCH   1  18
ATOM     18  C   UNL     1      50.877  54.605  25.337  1.00  0.00     0.000 C 
BRANCH  18  19
ATOM     19  C   UNL     1      50.208  53.247  25.598  1.00  0.00     0.000 C 
BRANCH  19  20
ATOM     20  C   UNL     1      48.680  53.390  25.635  1.00  0.00     0.000 C 
BRANCH  20  21
ATOM     21  C   UNL     1      48.065  52.919  26.966  1.00  0.00     0.000 C 
BRANCH  21  22
ATOM     22  C   UNL     1      46.522  52.903  27.011  1.00  0.00     0.000 C 
BRANCH  22  23
ATOM     23  C   UNL     1      45.876  51.525  26.781  1.00  0.00     0.000 C 
BRANCH  23  24
ATOM     24  C   UNL     1      46.015  51.040  25.328  1.00  0.00    -0.000 C 
BRANCH  24  25
ATOM     25  C   UNL     1      46.571  49.606  25.225  1.00  0.00    -0.000 C 
BRANCH  25  26
ATOM     26  C   UNL     1      46.230  48.683  26.412  1.00  0.00    -0.000 C 
BRANCH  26  27
ATOM     27  C   UNL     1      47.165  47.467  26.515  1.00  0.00    -0.000 C 
BRANCH  27  28
ATOM     28  C   UNL     1      47.637  46.953  25.142  1.00  0.00    -0.000 C 
BRANCH  28  29
ATOM     29  C   UNL     1      49.164  46.876  24.965  1.00  0.00    -0.000 C 
BRANCH  29  30
ATOM     30  C   UNL     1      49.681  47.754  23.812  1.00  0.00    -0.000 C 
BRANCH  30  31
ATOM     31  C   UNL     1      51.111  47.386  23.387  1.00  0.00    -0.003 C 
ATOM     32  C   UNL     1      52.031  47.129  24.579  1.00  0.00     0.004 C 
ENDBRANCH  30  31
ENDBRANCH  29  30
ENDBRANCH  28  29
ENDBRANCH  27  28
ENDBRANCH  26  27
ENDBRANCH  25  26
ENDBRANCH  24  25
ENDBRANCH  23  24
ENDBRANCH  22  23
ENDBRANCH  21  22
ENDBRANCH  20  21
ENDBRANCH  19  20
ENDBRANCH  18  19
ENDBRANCH   1  18
TORSDOF 28
ENDMDL
MODEL 5
REMARK VINA RESULT:    -1.342      1.134      3.941
REMARK INTER + INTRA:          -5.050
REMARK INTER:                  -4.031
REMARK INTRA:                  -1.019
REMARK UNBOUND:                -1.512
REMARK SMILES CCCCCCCCCCCCCCCCCCCCCCCCCCCCCC(=O)[O-]
REMARK SMILES IDX 16 1 17 2 18 3 19 4 20 5 21 6 22 7 23 8 24 9 25 10 26 11
REMARK SMILES IDX 27 12 28 13 29 14 30 15 31 16 32 17 15 18 14 19 13 20 12 21
REMARK SMILES IDX 11 22 10 23 9 24 8 25 7 26 6 27 5 28 4 29 3 30 2 31 1 32
REMARK H PARENT
REMARK Flexibility Score: inf
ROOT
ATOM      1  C   UNL     1      49.966  53.435  24.818  1.00  0.00     0.000 C 
ENDROOT
BRANCH   1   2
ATOM      2  C   UNL     1      50.176  53.540  23.293  1.00  0.00     0.000 C 
BRANCH   2   3
ATOM      3  C   UNL     1      49.056  52.944  22.417  1.00  0.00     0.000 C 
BRANCH   3   4
ATOM      4  C   UNL     1      49.345  51.546  21.835  1.00  0.00     0.000 C 
BRANCH   4   5
ATOM      5  C   UNL     1      50.759  51.044  22.157  1.00  0.00     0.000 C 
BRANCH   5   6
ATOM      6  C   UNL     1      51.469  50.544  20.889  1.00  0.00     0.000 C 
BRANCH   6   7
ATOM      7  C   UNL     1      52.536  51.524  20.357  1.00  0.00     0.000 C 
BRANCH   7   8
ATOM      8  C   UNL     1      52.351  52.994  20.783  1.00  0.00     0.000 C 
BRANCH   8   9
ATOM      9  C   UNL     1      52.084  53.939  19.596  1.00  0.00     0.000 C 
BRANCH   9  10
ATOM     10  C   UNL     1      52.767  55.304  19.770  1.00  0.00     0.000 C 
BRANCH  10  11
ATOM     11  C   UNL     1      52.032  56.193  20.791  1.00  0.00     0.000 C 
BRANCH  11  12
ATOM     12  C   UNL     1      52.972  56.758  21.869  1.00  0.00     0.000 C 
BRANCH  12  13
ATOM     13  C   UNL     1      53.793  55.662  22.571  1.00  0.00     0.006 C 
BRANCH  13  14
ATOM     14  C   UNL     1      52.924  54.772  23.469  1.00  0.00     0.053 C 
BRANCH  14  15
ATOM     15  C   UNL     1      53.654  53.537  23.903  1.00  0.00     0.041 C 
ATOM     16  O   UNL     1      53.480  53.071  25.059  1.00  0.00    -0.550 OA
ATOM     17  O   UNL     1      54.551  52.919  23.040  1.00  0.00    -0.550 OA
ENDBRANCH  14  15
ENDBRANCH  13  14
ENDBRANCH  12  13
ENDBRANCH  11  12
ENDBRANCH  10  11
ENDBRANCH   9  10
ENDBRANCH   8   9
ENDBRANCH   7   8
ENDBRANCH   6   7
ENDBRANCH   5   6
ENDBRANCH   4   5
ENDBRANCH   3   4
ENDBRANCH   2   3
ENDBRANCH   1   2
BRANCH   1  18
ATOM     18  C   UNL     1      48.525  53.072  25.232  1.00  0.00     0.000 C 
BRANCH  18  19
ATOM     19  C   UNL     1      48.375  52.863  26.747  1.00  0.00     0.000 C 
BRANCH  19  20
ATOM     20  C   UNL     1      46.967  53.254  27.214  1.00  0.00     0.000 C 
BRANCH  20  21
ATOM     21  C   UNL     1      45.884  52.258  26.760  1.00  0.00     0.000 C 
BRANCH  21  22
ATOM     22  C   UNL     1      45.971  50.854  27.394  1.00  0.00     0.000 C 
BRANCH  22  23
ATOM     23  C   UNL     1      45.877  49.682  26.400  1.00  0.00     0.000 C 
BRANCH  23  24
ATOM     24  C   UNL     1      46.131  48.318  27.065  1.00  0.00    -0.000 C 
BRANCH  24  25
ATOM     25  C   UNL     1      46.785  47.298  26.113  1.00  0.00    -0.000 C 
BRANCH  25  26
ATOM     26  C   UNL     1      48.324  47.236  26.173  1.00  0.00    -0.000 C 
BRANCH  26  27
ATOM     27  C   UNL     1      48.978  47.161  24.783  1.00  0.00    -0.000 C 
BRANCH  27  28
ATOM     28  C   UNL     1      48.984  48.515  24.048  1.00  0.00    -0.000 C 
BRANCH  28  29
ATOM     29  C   UNL     1      47.602  49.013  23.590  1.00  0.00    -0.000 C 
BRANCH  29  30
ATOM     30  C   UNL     1      47.296  50.448  24.055  1.00  0.00    -0.000 C 
BRANCH  30  31
ATOM     31  C   UNL     1      46.104  51.067  23.309  1.00  0.00    -0.003 C 
ATOM     32  C   UNL     1      45.930  52.555  23.609  1.00  0.00     0.004 C 
ENDBRANCH  30  31
ENDBRANCH  29  30
ENDBRANCH  28  29
ENDBRANCH  27  28
ENDBRANCH  26  27
ENDBRANCH  25  26
ENDBRANCH  24  25
ENDBRANCH  23  24
ENDBRANCH  22  23
ENDBRANCH  21  22
ENDBRANCH  20  21
ENDBRANCH  19  20
ENDBRANCH  18  19
ENDBRANCH   1  18
TORSDOF 28
ENDMDL
MODEL 6
REMARK VINA RESULT:    -1.139      2.893      6.492
REMARK INTER + INTRA:          -4.515
REMARK INTER:                  -1.800
REMARK INTRA:                  -2.715
REMARK UNBOUND:                -1.512
REMARK SMILES CCCCCCCCCCCCCCCCCCCCCCCCCCCCCC(=O)[O-]
REMARK SMILES IDX 16 1 17 2 18 3 19 4 20 5 21 6 22 7 23 8 24 9 25 10 26 11
REMARK SMILES IDX 27 12 28 13 29 14 30 15 31 16 32 17 15 18 14 19 13 20 12 21
REMARK SMILES IDX 11 22 10 23 9 24 8 25 7 26 6 27 5 28 4 29 3 30 2 31 1 32
REMARK H PARENT
REMARK Flexibility Score: inf
ROOT
ATOM      1  C   UNL     1      45.875  52.911  25.689  1.00  0.00     0.000 C 
ENDROOT
BRANCH   1   2
ATOM      2  C   UNL     1      47.179  53.707  25.904  1.00  0.00     0.000 C 
BRANCH   2   3
ATOM      3  C   UNL     1      48.419  52.876  26.291  1.00  0.00     0.000 C 
BRANCH   3   4
ATOM      4  C   UNL     1      49.776  53.580  26.091  1.00  0.00     0.000 C 
BRANCH   4   5
ATOM      5  C   UNL     1      50.422  53.261  24.736  1.00  0.00     0.000 C 
BRANCH   5   6
ATOM      6  C   UNL     1      51.951  53.173  24.862  1.00  0.00     0.000 C 
BRANCH   6   7
ATOM      7  C   UNL     1      52.659  54.533  24.689  1.00  0.00     0.000 C 
BRANCH   7   8
ATOM      8  C   UNL     1      53.940  54.505  23.832  1.00  0.00     0.000 C 
BRANCH   8   9
ATOM      9  C   UNL     1      54.603  53.115  23.779  1.00  0.00     0.000 C 
BRANCH   9  10
ATOM     10  C   UNL     1      54.498  52.469  22.389  1.00  0.00     0.000 C 
BRANCH  10  11
ATOM     11  C   UNL     1      53.038  52.179  21.993  1.00  0.00     0.000 C 
BRANCH  11  12
ATOM     12  C   UNL     1      52.785  52.363  20.488  1.00  0.00     0.000 C 
BRANCH  12  13
ATOM     13  C   UNL     1      51.869  53.561  20.184  1.00  0.00     0.006 C 
BRANCH  13  14
ATOM     14  C   UNL     1      51.965  54.651  21.259  1.00  0.00     0.053 C 
BRANCH  14  15
ATOM     15  C   UNL     1      52.392  55.967  20.680  1.00  0.00     0.041 C 
ATOM     16  O   UNL     1      52.165  56.231  19.470  1.00  0.00    -0.550 OA
ATOM     17  O   UNL     1      53.067  56.889  21.471  1.00  0.00    -0.550 OA
ENDBRANCH  14  15
ENDBRANCH  13  14
ENDBRANCH  12  13
ENDBRANCH  11  12
ENDBRANCH  10  11
ENDBRANCH   9  10
ENDBRANCH   8   9
ENDBRANCH   7   8
ENDBRANCH   6   7
ENDBRANCH   5   6
ENDBRANCH   4   5
ENDBRANCH   3   4
ENDBRANCH   2   3
ENDBRANCH   1   2
BRANCH   1  18
ATOM     18  C   UNL     1      45.959  51.434  26.127  1.00  0.00     0.000 C 
BRANCH  18  19
ATOM     19  C   UNL     1      46.010  50.462  24.939  1.00  0.00     0.000 C 
BRANCH  19  20
ATOM     20  C   UNL     1      46.181  51.223  23.618  1.00  0.00     0.000 C 
BRANCH  20  21
ATOM     21  C   UNL     1      47.650  51.318  23.165  1.00  0.00     0.000 C 
BRANCH  21  22
ATOM     22  C   UNL     1      48.418  49.980  23.130  1.00  0.00     0.000 C 
BRANCH  22  23
ATOM     23  C   UNL     1      49.947  50.107  23.001  1.00  0.00     0.000 C 
BRANCH  23  24
ATOM     24  C   UNL     1      50.439  49.921  21.556  1.00  0.00    -0.000 C 
BRANCH  24  25
ATOM     25  C   UNL     1      49.650  50.767  20.539  1.00  0.00    -0.000 C 
BRANCH  25  26
ATOM     26  C   UNL     1      50.057  50.572  19.066  1.00  0.00    -0.000 C 
BRANCH  26  27
ATOM     27  C   UNL     1      49.082  49.674  18.285  1.00  0.00    -0.000 C 
BRANCH  27  28
ATOM     28  C   UNL     1      49.253  49.785  16.759  1.00  0.00    -0.000 C 
BRANCH  28  29
ATOM     29  C   UNL     1      49.916  48.569  16.088  1.00  0.00    -0.000 C 
BRANCH  29  30
ATOM     30  C   UNL     1      48.945  47.392  15.883  1.00  0.00    -0.000 C 
BRANCH  30  31
ATOM     31  C   UNL     1      47.474  47.838  15.877  1.00  0.00    -0.003 C 
ATOM     32  C   UNL     1      46.592  46.969  16.772  1.00  0.00     0.004 C 
ENDBRANCH  30  31
ENDBRANCH  29  30
ENDBRANCH  28  29
ENDBRANCH  27  28
ENDBRANCH  26  27
ENDBRANCH  25  26
ENDBRANCH  24  25
ENDBRANCH  23  24
ENDBRANCH  22  23
ENDBRANCH  21  22
ENDBRANCH  20  21
ENDBRANCH  19  20
ENDBRANCH  18  19
ENDBRANCH   1  18
TORSDOF 28
ENDMDL
MODEL 7
REMARK VINA RESULT:    -0.910      1.823      4.595
REMARK INTER + INTRA:          -3.912
REMARK INTER:                  -2.723
REMARK INTRA:                  -1.189
REMARK UNBOUND:                -1.512
REMARK SMILES CCCCCCCCCCCCCCCCCCCCCCCCCCCCCC(=O)[O-]
REMARK SMILES IDX 16 1 17 2 18 3 19 4 20 5 21 6 22 7 23 8 24 9 25 10 26 11
REMARK SMILES IDX 27 12 28 13 29 14 30 15 31 16 32 17 15 18 14 19 13 20 12 21
REMARK SMILES IDX 11 22 10 23 9 24 8 25 7 26 6 27 5 28 4 29 3 30 2 31 1 32
REMARK H PARENT
REMARK Flexibility Score: inf
ROOT
ATOM      1  C   UNL     1      52.227  51.068  21.121  1.00  0.00     0.000 C 
ENDROOT
BRANCH   1   2
ATOM      2  C   UNL     1      52.649  51.705  22.462  1.00  0.00     0.000 C 
BRANCH   2   3
ATOM      3  C   UNL     1      53.963  52.512  22.440  1.00  0.00     0.000 C 
BRANCH   3   4
ATOM      4  C   UNL     1      54.536  52.880  23.822  1.00  0.00     0.000 C 
BRANCH   4   5
ATOM      5  C   UNL     1      53.448  53.115  24.878  1.00  0.00     0.000 C 
BRANCH   5   6
ATOM      6  C   UNL     1      52.569  54.319  24.505  1.00  0.00     0.000 C 
BRANCH   6   7
ATOM      7  C   UNL     1      51.125  54.213  25.038  1.00  0.00     0.000 C 
BRANCH   7   8
ATOM      8  C   UNL     1      50.345  52.964  24.581  1.00  0.00     0.000 C 
BRANCH   8   9
ATOM      9  C   UNL     1      49.154  53.296  23.662  1.00  0.00     0.000 C 
BRANCH   9  10
ATOM     10  C   UNL     1      49.530  53.238  22.173  1.00  0.00     0.000 C 
BRANCH  10  11
ATOM     11  C   UNL     1      50.726  54.152  21.842  1.00  0.00     0.000 C 
BRANCH  11  12
ATOM     12  C   UNL     1      51.420  53.763  20.526  1.00  0.00     0.000 C 
BRANCH  12  13
ATOM     13  C   UNL     1      52.471  54.797  20.084  1.00  0.00     0.006 C 
BRANCH  13  14
ATOM     14  C   UNL     1      52.037  56.235  20.399  1.00  0.00     0.053 C 
BRANCH  14  15
ATOM     15  C   UNL     1      53.064  56.958  21.217  1.00  0.00     0.041 C 
ATOM     16  O   UNL     1      54.290  56.731  21.042  1.00  0.00    -0.550 OA
ATOM     17  O   UNL     1      52.666  57.863  22.194  1.00  0.00    -0.550 OA
ENDBRANCH  14  15
ENDBRANCH  13  14
ENDBRANCH  12  13
ENDBRANCH  11  12
ENDBRANCH  10  11
ENDBRANCH   9  10
ENDBRANCH   8   9
ENDBRANCH   7   8
ENDBRANCH   6   7
ENDBRANCH   5   6
ENDBRANCH   4   5
ENDBRANCH   3   4
ENDBRANCH   2   3
ENDBRANCH   1   2
BRANCH   1  18
ATOM     18  C   UNL     1      50.941  50.220  21.202  1.00  0.00     0.000 C 
BRANCH  18  19
ATOM     19  C   UNL     1      50.475  49.980  22.645  1.00  0.00     0.000 C 
BRANCH  19  20
ATOM     20  C   UNL     1      49.905  48.564  22.806  1.00  0.00     0.000 C 
BRANCH  20  21
ATOM     21  C   UNL     1      50.672  47.722  23.842  1.00  0.00     0.000 C 
BRANCH  21  22
ATOM     22  C   UNL     1      49.792  46.929  24.831  1.00  0.00     0.000 C 
BRANCH  22  23
ATOM     23  C   UNL     1      48.284  47.230  24.749  1.00  0.00     0.000 C 
BRANCH  23  24
ATOM     24  C   UNL     1      47.537  46.878  26.047  1.00  0.00    -0.000 C 
BRANCH  24  25
ATOM     25  C   UNL     1      46.675  48.039  26.578  1.00  0.00    -0.000 C 
BRANCH  25  26
ATOM     26  C   UNL     1      46.165  49.021  25.506  1.00  0.00    -0.000 C 
BRANCH  26  27
ATOM     27  C   UNL     1      47.281  49.895  24.910  1.00  0.00    -0.000 C 
BRANCH  27  28
ATOM     28  C   UNL     1      46.780  50.833  23.796  1.00  0.00    -0.000 C 
BRANCH  28  29
ATOM     29  C   UNL     1      45.965  52.045  24.283  1.00  0.00    -0.000 C 
BRANCH  29  30
ATOM     30  C   UNL     1      46.143  52.324  25.787  1.00  0.00    -0.000 C 
BRANCH  30  31
ATOM     31  C   UNL     1      47.087  53.505  26.058  1.00  0.00    -0.003 C 
ATOM     32  C   UNL     1      47.822  53.377  27.392  1.00  0.00     0.004 C 
ENDBRANCH  30  31
ENDBRANCH  29  30
ENDBRANCH  28  29
ENDBRANCH  27  28
ENDBRANCH  26  27
ENDBRANCH  25  26
ENDBRANCH  24  25
ENDBRANCH  23  24
ENDBRANCH  22  23
ENDBRANCH  21  22
ENDBRANCH  20  21
ENDBRANCH  19  20
ENDBRANCH  18  19
ENDBRANCH   1  18
TORSDOF 28
ENDMDL
MODEL 8
REMARK VINA RESULT:    -0.850      1.247      4.790
REMARK INTER + INTRA:          -3.753
REMARK INTER:                  -3.043
REMARK INTRA:                  -0.710
REMARK UNBOUND:                -1.512
REMARK SMILES CCCCCCCCCCCCCCCCCCCCCCCCCCCCCC(=O)[O-]
REMARK SMILES IDX 16 1 17 2 18 3 19 4 20 5 21 6 22 7 23 8 24 9 25 10 26 11
REMARK SMILES IDX 27 12 28 13 29 14 30 15 31 16 32 17 15 18 14 19 13 20 12 21
REMARK SMILES IDX 11 22 10 23 9 24 8 25 7 26 6 27 5 28 4 29 3 30 2 31 1 32
REMARK H PARENT
REMARK Flexibility Score: inf
ROOT
ATOM      1  C   UNL     1      45.971  53.378  24.761  1.00  0.00     0.000 C 
ENDROOT
BRANCH   1   2
ATOM      2  C   UNL     1      46.669  54.037  25.969  1.00  0.00     0.000 C 
BRANCH   2   3
ATOM      3  C   UNL     1      47.805  53.220  26.617  1.00  0.00     0.000 C 
BRANCH   3   4
ATOM      4  C   UNL     1      48.902  52.730  25.651  1.00  0.00     0.000 C 
BRANCH   4   5
ATOM      5  C   UNL     1      50.168  53.595  25.694  1.00  0.00     0.000 C 
BRANCH   5   6
ATOM      6  C   UNL     1      51.061  53.328  24.472  1.00  0.00     0.000 C 
BRANCH   6   7
ATOM      7  C   UNL     1      52.532  53.042  24.837  1.00  0.00     0.000 C 
BRANCH   7   8
ATOM      8  C   UNL     1      53.566  53.985  24.190  1.00  0.00     0.000 C 
BRANCH   8   9
ATOM      9  C   UNL     1      52.982  55.360  23.817  1.00  0.00     0.000 C 
BRANCH   9  10
ATOM     10  C   UNL     1      53.634  55.951  22.557  1.00  0.00     0.000 C 
BRANCH  10  11
ATOM     11  C   UNL     1      52.593  56.299  21.476  1.00  0.00     0.000 C 
BRANCH  11  12
ATOM     12  C   UNL     1      52.900  55.635  20.124  1.00  0.00     0.000 C 
BRANCH  12  13
ATOM     13  C   UNL     1      52.031  54.391  19.865  1.00  0.00     0.006 C 
BRANCH  13  14
ATOM     14  C   UNL     1      51.913  53.499  21.108  1.00  0.00     0.053 C 
BRANCH  14  15
ATOM     15  C   UNL     1      52.770  52.274  20.996  1.00  0.00     0.041 C 
ATOM     16  O   UNL     1      53.767  52.126  21.752  1.00  0.00    -0.550 OA
ATOM     17  O   UNL     1      52.485  51.309  20.037  1.00  0.00    -0.550 OA
ENDBRANCH  14  15
ENDBRANCH  13  14
ENDBRANCH  12  13
ENDBRANCH  11  12
ENDBRANCH  10  11
ENDBRANCH   9  10
ENDBRANCH   8   9
ENDBRANCH   7   8
ENDBRANCH   6   7
ENDBRANCH   5   6
ENDBRANCH   4   5
ENDBRANCH   3   4
ENDBRANCH   2   3
ENDBRANCH   1   2
BRANCH   1  18
ATOM     18  C   UNL     1      46.941  52.820  23.699  1.00  0.00     0.000 C 
BRANCH  18  19
ATOM     19  C   UNL     1      46.685  51.341  23.376  1.00  0.00     0.000 C 
BRANCH  19  20
ATOM     20  C   UNL     1      45.876  50.670  24.495  1.00  0.00     0.000 C 
BRANCH  20  21
ATOM     21  C   UNL     1      46.685  49.616  25.273  1.00  0.00     0.000 C 
BRANCH  21  22
ATOM     22  C   UNL     1      46.130  49.255  26.667  1.00  0.00     0.000 C 
BRANCH  22  23
ATOM     23  C   UNL     1      46.432  47.820  27.138  1.00  0.00     0.000 C 
BRANCH  23  24
ATOM     24  C   UNL     1      46.882  46.901  25.990  1.00  0.00    -0.000 C 
BRANCH  24  25
ATOM     25  C   UNL     1      48.411  46.877  25.804  1.00  0.00    -0.000 C 
BRANCH  25  26
ATOM     26  C   UNL     1      48.945  47.754  24.654  1.00  0.00    -0.000 C 
BRANCH  26  27
ATOM     27  C   UNL     1      50.220  47.187  24.008  1.00  0.00    -0.000 C 
BRANCH  27  28
ATOM     28  C   UNL     1      51.171  48.283  23.491  1.00  0.00    -0.000 C 
BRANCH  28  29
ATOM     29  C   UNL     1      50.571  49.701  23.457  1.00  0.00    -0.000 C 
BRANCH  29  30
ATOM     30  C   UNL     1      49.395  49.832  22.473  1.00  0.00    -0.000 C 
BRANCH  30  31
ATOM     31  C   UNL     1      49.758  50.657  21.228  1.00  0.00    -0.003 C 
ATOM     32  C   UNL     1      49.211  52.082  21.287  1.00  0.00     0.004 C 
ENDBRANCH  30  31
ENDBRANCH  29  30
ENDBRANCH  28  29
ENDBRANCH  27  28
ENDBRANCH  26  27
ENDBRANCH  25  26
ENDBRANCH  24  25
ENDBRANCH  23  24
ENDBRANCH  22  23
ENDBRANCH  21  22
ENDBRANCH  20  21
ENDBRANCH  19  20
ENDBRANCH  18  19
ENDBRANCH   1  18
TORSDOF 28
ENDMDL
