MODEL 1
REMARK VINA RESULT:    -5.077      0.000      0.000
REMARK INTER + INTRA:          -5.960
REMARK INTER:                  -5.819
REMARK INTRA:                  -0.141
REMARK UNBOUND:                -0.141
REMARK SMILES O=C([O-])C=Cc1ccc(O)cc1
REMARK SMILES IDX 6 1 7 2 12 3 8 4 11 5 9 6 5 7 4 8 2 9 1 10 3 11 10 12
REMARK H PARENT 10 13
REMARK Flexibility Score: inf
ROOT
ATOM      1  C   UNL     1      25.683  47.992  33.683  1.00  0.00    -0.025 A 
ATOM      2  C   UNL     1      26.651  49.011  33.643  1.00  0.00     0.012 A 
ATOM      3  C   UNL     1      24.902  47.842  34.847  1.00  0.00     0.012 A 
ATOM      4  C   UNL     1      26.853  49.844  34.746  1.00  0.00     0.047 A 
ATOM      5  C   UNL     1      25.108  48.678  35.949  1.00  0.00     0.047 A 
ATOM      6  C   UNL     1      26.084  49.677  35.904  1.00  0.00     0.115 A 
ENDROOT
BRANCH   1   7
ATOM      7  C   UNL     1      25.499  47.140  32.482  1.00  0.00     0.010 C 
ATOM      8  C   UNL     1      26.473  46.391  31.942  1.00  0.00     0.025 C 
BRANCH   8   9
ATOM      9  C   UNL     1      26.255  45.566  30.743  1.00  0.00     0.064 C 
ATOM     10  O   UNL     1      25.400  45.887  29.875  1.00  0.00    -0.545 OA
ATOM     11  O   UNL     1      27.007  44.412  30.564  1.00  0.00    -0.545 OA
ENDBRANCH   8   9
ENDBRANCH   1   7
BRANCH   6  12
ATOM     12  O   UNL     1      26.277  50.502  37.010  1.00  0.00    -0.508 OA
ATOM     13  H   UNL     1      25.562  51.151  37.319  1.00  0.00     0.293 HD
ENDBRANCH   6  12
TORSDOF 3
ENDMDL
MODEL 2
REMARK VINA RESULT:    -5.015      0.358      1.433
REMARK INTER + INTRA:          -5.889
REMARK INTER:                  -5.751
REMARK INTRA:                  -0.137
REMARK UNBOUND:                -0.141
REMARK SMILES O=C([O-])C=Cc1ccc(O)cc1
REMARK SMILES IDX 6 1 7 2 12 3 8 4 11 5 9 6 5 7 4 8 2 9 1 10 3 11 10 12
REMARK H PARENT 10 13
REMARK Flexibility Score: inf
ROOT
ATOM      1  C   UNL     1      25.592  48.177  33.585  1.00  0.00    -0.025 A 
ATOM      2  C   UNL     1      24.751  47.808  34.649  1.00  0.00     0.012 A 
ATOM      3  C   UNL     1      26.543  49.198  33.794  1.00  0.00     0.012 A 
ATOM      4  C   UNL     1      24.837  48.457  35.884  1.00  0.00     0.047 A 
ATOM      5  C   UNL     1      26.626  49.844  35.031  1.00  0.00     0.047 A 
ATOM      6  C   UNL     1      25.774  49.479  36.077  1.00  0.00     0.115 A 
ENDROOT
BRANCH   1   7
ATOM      7  C   UNL     1      25.468  47.451  32.297  1.00  0.00     0.010 C 
ATOM      8  C   UNL     1      26.260  46.430  31.938  1.00  0.00     0.025 C 
BRANCH   8   9
ATOM      9  C   UNL     1      26.114  45.739  30.646  1.00  0.00     0.064 C 
ATOM     10  O   UNL     1      25.151  45.994  29.875  1.00  0.00    -0.545 OA
ATOM     11  O   UNL     1      27.056  44.791  30.269  1.00  0.00    -0.545 OA
ENDBRANCH   8   9
ENDBRANCH   1   7
BRANCH   6  12
ATOM     12  O   UNL     1      25.870  50.134  37.304  1.00  0.00    -0.508 OA
ATOM     13  H   UNL     1      26.538  49.844  38.008  1.00  0.00     0.293 HD
ENDBRANCH   6  12
TORSDOF 3
ENDMDL
MODEL 3
REMARK VINA RESULT:    -4.644      1.248      5.790
REMARK INTER + INTRA:          -5.464
REMARK INTER:                  -5.325
REMARK INTRA:                  -0.139
REMARK UNBOUND:                -0.141
REMARK SMILES O=C([O-])C=Cc1ccc(O)cc1
REMARK SMILES IDX 6 1 7 2 12 3 8 4 11 5 9 6 5 7 4 8 2 9 1 10 3 11 10 12
REMARK H PARENT 10 13
REMARK Flexibility Score: inf
ROOT
ATOM      1  C   UNL     1      25.140  47.642  33.980  1.00  0.00    -0.025 A 
ATOM      2  C   UNL     1      26.335  47.150  33.425  1.00  0.00     0.012 A 
ATOM      3  C   UNL     1      23.963  47.596  33.206  1.00  0.00     0.012 A 
ATOM      4  C   UNL     1      26.361  46.647  32.122  1.00  0.00     0.047 A 
ATOM      5  C   UNL     1      23.993  47.091  31.902  1.00  0.00     0.047 A 
ATOM      6  C   UNL     1      25.189  46.619  31.356  1.00  0.00     0.115 A 
ENDROOT
BRANCH   1   7
ATOM      7  C   UNL     1      25.163  48.157  35.371  1.00  0.00     0.010 C 
ATOM      8  C   UNL     1      25.821  49.264  35.746  1.00  0.00     0.025 C 
BRANCH   8   9
ATOM      9  C   UNL     1      25.829  49.738  37.140  1.00  0.00     0.064 C 
ATOM     10  O   UNL     1      26.702  50.550  37.548  1.00  0.00    -0.545 OA
ATOM     11  O   UNL     1      24.857  49.283  38.021  1.00  0.00    -0.545 OA
ENDBRANCH   8   9
ENDBRANCH   1   7
BRANCH   6  12
ATOM     12  O   UNL     1      25.203  46.119  30.054  1.00  0.00    -0.508 OA
ATOM     13  H   UNL     1      25.512  45.176  29.852  1.00  0.00     0.293 HD
ENDBRANCH   6  12
TORSDOF 3
ENDMDL
MODEL 4
REMARK VINA RESULT:    -4.631     11.360     14.330
REMARK INTER + INTRA:          -5.449
REMARK INTER:                  -5.298
REMARK INTRA:                  -0.151
REMARK UNBOUND:                -0.141
REMARK SMILES O=C([O-])C=Cc1ccc(O)cc1
REMARK SMILES IDX 6 1 7 2 12 3 8 4 11 5 9 6 5 7 4 8 2 9 1 10 3 11 10 12
REMARK H PARENT 10 13
REMARK Flexibility Score: inf
ROOT
ATOM      1  C   UNL     1      21.039  48.463  45.044  1.00  0.00    -0.025 A 
ATOM      2  C   UNL     1      20.266  47.468  45.669  1.00  0.00     0.012 A 
ATOM      3  C   UNL     1      21.409  48.288  43.695  1.00  0.00     0.012 A 
ATOM      4  C   UNL     1      19.892  46.315  44.973  1.00  0.00     0.047 A 
ATOM      5  C   UNL     1      21.032  47.133  43.002  1.00  0.00     0.047 A 
ATOM      6  C   UNL     1      20.277  46.144  43.638  1.00  0.00     0.115 A 
ENDROOT
BRANCH   1   7
ATOM      7  C   UNL     1      21.401  49.673  45.823  1.00  0.00     0.010 C 
ATOM      8  C   UNL     1      21.112  49.838  47.122  1.00  0.00     0.025 C 
BRANCH   8   9
ATOM      9  C   UNL     1      21.479  51.058  47.860  1.00  0.00     0.064 C 
ATOM     10  O   UNL     1      20.606  51.895  48.213  1.00  0.00    -0.545 OA
ATOM     11  O   UNL     1      22.812  51.291  48.172  1.00  0.00    -0.545 OA
ENDBRANCH   8   9
ENDBRANCH   1   7
BRANCH   6  12
ATOM     12  O   UNL     1      19.910  44.998  42.934  1.00  0.00    -0.508 OA
ATOM     13  H   UNL     1      18.985  44.895  42.536  1.00  0.00     0.293 HD
ENDBRANCH   6  12
TORSDOF 3
ENDMDL
MODEL 5
REMARK VINA RESULT:    -4.457     11.746     13.473
REMARK INTER + INTRA:          -5.250
REMARK INTER:                  -5.115
REMARK INTRA:                  -0.135
REMARK UNBOUND:                -0.141
REMARK SMILES O=C([O-])C=Cc1ccc(O)cc1
REMARK SMILES IDX 6 1 7 2 12 3 8 4 11 5 9 6 5 7 4 8 2 9 1 10 3 11 10 12
REMARK H PARENT 10 13
REMARK Flexibility Score: inf
ROOT
ATOM      1  C   UNL     1      19.732  47.907  43.712  1.00  0.00    -0.025 A 
ATOM      2  C   UNL     1      20.879  47.790  44.516  1.00  0.00     0.012 A 
ATOM      3  C   UNL     1      19.349  46.811  42.913  1.00  0.00     0.012 A 
ATOM      4  C   UNL     1      21.640  46.619  44.506  1.00  0.00     0.047 A 
ATOM      5  C   UNL     1      20.114  45.640  42.905  1.00  0.00     0.047 A 
ATOM      6  C   UNL     1      21.260  45.541  43.697  1.00  0.00     0.115 A 
ENDROOT
BRANCH   1   7
ATOM      7  C   UNL     1      18.952  49.168  43.767  1.00  0.00     0.010 C 
ATOM      8  C   UNL     1      17.818  49.313  44.468  1.00  0.00     0.025 C 
BRANCH   8   9
ATOM      9  C   UNL     1      17.064  50.578  44.490  1.00  0.00     0.064 C 
ATOM     10  O   UNL     1      15.805  50.588  44.493  1.00  0.00    -0.545 OA
ATOM     11  O   UNL     1      17.755  51.782  44.509  1.00  0.00    -0.545 OA
ENDBRANCH   8   9
ENDBRANCH   1   7
BRANCH   6  12
ATOM     12  O   UNL     1      22.012  44.367  43.677  1.00  0.00    -0.508 OA
ATOM     13  H   UNL     1      21.701  43.531  44.158  1.00  0.00     0.293 HD
ENDBRANCH   6  12
TORSDOF 3
ENDMDL
MODEL 6
REMARK VINA RESULT:    -4.398     11.341     14.452
REMARK INTER + INTRA:          -5.181
REMARK INTER:                  -5.032
REMARK INTRA:                  -0.149
REMARK UNBOUND:                -0.141
REMARK SMILES O=C([O-])C=Cc1ccc(O)cc1
REMARK SMILES IDX 6 1 7 2 12 3 8 4 11 5 9 6 5 7 4 8 2 9 1 10 3 11 10 12
REMARK H PARENT 10 13
REMARK Flexibility Score: inf
ROOT
ATOM      1  C   UNL     1      21.712  49.682  46.013  1.00  0.00    -0.025 A 
ATOM      2  C   UNL     1      22.450  49.722  44.817  1.00  0.00     0.012 A 
ATOM      3  C   UNL     1      20.559  48.873  46.073  1.00  0.00     0.012 A 
ATOM      4  C   UNL     1      22.035  48.994  43.700  1.00  0.00     0.047 A 
ATOM      5  C   UNL     1      20.146  48.146  44.952  1.00  0.00     0.047 A 
ATOM      6  C   UNL     1      20.879  48.206  43.763  1.00  0.00     0.115 A 
ENDROOT
BRANCH   1   7
ATOM      7  C   UNL     1      22.201  50.464  47.176  1.00  0.00     0.010 C 
ATOM      8  C   UNL     1      23.478  50.842  47.337  1.00  0.00     0.025 C 
BRANCH   8   9
ATOM      9  C   UNL     1      23.928  51.610  48.509  1.00  0.00     0.064 C 
ATOM     10  O   UNL     1      23.512  52.780  48.722  1.00  0.00    -0.545 OA
ATOM     11  O   UNL     1      24.826  51.034  49.398  1.00  0.00    -0.545 OA
ENDBRANCH   8   9
ENDBRANCH   1   7
BRANCH   6  12
ATOM     12  O   UNL     1      20.455  47.475  42.655  1.00  0.00    -0.508 OA
ATOM     13  H   UNL     1      19.473  47.287  42.488  1.00  0.00     0.293 HD
ENDBRANCH   6  12
TORSDOF 3
ENDMDL
MODEL 7
REMARK VINA RESULT:    -4.368     13.013     14.606
REMARK INTER + INTRA:          -5.147
REMARK INTER:                  -5.012
REMARK INTRA:                  -0.135
REMARK UNBOUND:                -0.141
REMARK SMILES O=C([O-])C=Cc1ccc(O)cc1
REMARK SMILES IDX 6 1 7 2 12 3 8 4 11 5 9 6 5 7 4 8 2 9 1 10 3 11 10 12
REMARK H PARENT 10 13
REMARK Flexibility Score: inf
ROOT
ATOM      1  C   UNL     1      17.568  50.387  43.990  1.00  0.00    -0.025 A 
ATOM      2  C   UNL     1      16.273  50.034  44.406  1.00  0.00     0.012 A 
ATOM      3  C   UNL     1      17.849  50.438  42.609  1.00  0.00     0.012 A 
ATOM      4  C   UNL     1      15.287  49.714  43.469  1.00  0.00     0.047 A 
ATOM      5  C   UNL     1      16.859  50.117  41.675  1.00  0.00     0.047 A 
ATOM      6  C   UNL     1      15.579  49.752  42.100  1.00  0.00     0.115 A 
ENDROOT
BRANCH   1   7
ATOM      7  C   UNL     1      18.577  50.728  45.024  1.00  0.00     0.010 C 
ATOM      8  C   UNL     1      19.662  49.982  45.281  1.00  0.00     0.025 C 
BRANCH   8   9
ATOM      9  C   UNL     1      20.637  50.348  46.323  1.00  0.00     0.064 C 
ATOM     10  O   UNL     1      21.798  49.859  46.330  1.00  0.00    -0.545 OA
ATOM     11  O   UNL     1      20.270  51.247  47.314  1.00  0.00    -0.545 OA
ENDBRANCH   8   9
ENDBRANCH   1   7
BRANCH   6  12
ATOM     12  O   UNL     1      14.604  49.435  41.156  1.00  0.00    -0.508 OA
ATOM     13  H   UNL     1      13.618  49.442  41.389  1.00  0.00     0.293 HD
ENDBRANCH   6  12
TORSDOF 3
ENDMDL
MODEL 8
REMARK VINA RESULT:    -4.353     13.072     14.616
REMARK INTER + INTRA:          -5.131
REMARK INTER:                  -4.989
REMARK INTRA:                  -0.141
REMARK UNBOUND:                -0.141
REMARK SMILES O=C([O-])C=Cc1ccc(O)cc1
REMARK SMILES IDX 6 1 7 2 12 3 8 4 11 5 9 6 5 7 4 8 2 9 1 10 3 11 10 12
REMARK H PARENT 10 13
REMARK Flexibility Score: inf
ROOT
ATOM      1  C   UNL     1      17.421  50.436  44.127  1.00  0.00    -0.025 A 
ATOM      2  C   UNL     1      17.795  50.445  42.771  1.00  0.00     0.012 A 
ATOM      3  C   UNL     1      16.107  50.055  44.467  1.00  0.00     0.012 A 
ATOM      4  C   UNL     1      16.874  50.105  41.777  1.00  0.00     0.047 A 
ATOM      5  C   UNL     1      15.189  49.716  43.469  1.00  0.00     0.047 A 
ATOM      6  C   UNL     1      15.566  49.742  42.124  1.00  0.00     0.115 A 
ENDROOT
BRANCH   1   7
ATOM      7  C   UNL     1      18.439  50.795  45.146  1.00  0.00     0.010 C 
ATOM      8  C   UNL     1      19.554  50.083  45.368  1.00  0.00     0.025 C 
BRANCH   8   9
ATOM      9  C   UNL     1      20.537  50.464  46.396  1.00  0.00     0.064 C 
ATOM     10  O   UNL     1      20.259  51.317  47.281  1.00  0.00    -0.545 OA
ATOM     11  O   UNL     1      21.793  49.873  46.390  1.00  0.00    -0.545 OA
ENDBRANCH   8   9
ENDBRANCH   1   7
BRANCH   6  12
ATOM     12  O   UNL     1      14.639  49.402  41.140  1.00  0.00    -0.508 OA
ATOM     13  H   UNL     1      14.553  49.938  40.285  1.00  0.00     0.293 HD
ENDBRANCH   6  12
TORSDOF 3
ENDMDL
MODEL 9
REMARK VINA RESULT:    -4.331     12.187     13.821
REMARK INTER + INTRA:          -5.105
REMARK INTER:                  -4.968
REMARK INTRA:                  -0.138
REMARK UNBOUND:                -0.141
REMARK SMILES O=C([O-])C=Cc1ccc(O)cc1
REMARK SMILES IDX 6 1 7 2 12 3 8 4 11 5 9 6 5 7 4 8 2 9 1 10 3 11 10 12
REMARK H PARENT 10 13
REMARK Flexibility Score: inf
ROOT
ATOM      1  C   UNL     1      17.318  49.755  43.163  1.00  0.00    -0.025 A 
ATOM      2  C   UNL     1      16.419  49.759  44.244  1.00  0.00     0.012 A 
ATOM      3  C   UNL     1      16.802  49.727  41.851  1.00  0.00     0.012 A 
ATOM      4  C   UNL     1      15.041  49.711  44.024  1.00  0.00     0.047 A 
ATOM      5  C   UNL     1      15.421  49.680  41.635  1.00  0.00     0.047 A 
ATOM      6  C   UNL     1      14.538  49.669  42.717  1.00  0.00     0.115 A 
ENDROOT
BRANCH   1   7
ATOM      7  C   UNL     1      18.773  49.816  43.448  1.00  0.00     0.010 C 
ATOM      8  C   UNL     1      19.493  48.770  43.881  1.00  0.00     0.025 C 
BRANCH   8   9
ATOM      9  C   UNL     1      20.934  48.872  44.165  1.00  0.00     0.064 C 
ATOM     10  O   UNL     1      21.589  49.901  43.851  1.00  0.00    -0.545 OA
ATOM     11  O   UNL     1      21.582  47.815  44.789  1.00  0.00    -0.545 OA
ENDBRANCH   8   9
ENDBRANCH   1   7
BRANCH   6  12
ATOM     12  O   UNL     1      13.164  49.622  42.485  1.00  0.00    -0.508 OA
ATOM     13  H   UNL     1      12.788  49.369  41.579  1.00  0.00     0.293 HD
ENDBRANCH   6  12
TORSDOF 3
ENDMDL
