MODEL 1
REMARK VINA RESULT:    -6.546      0.000      0.000
REMARK INTER + INTRA:          -8.015
REMARK INTER:                  -7.886
REMARK INTRA:                  -0.130
REMARK UNBOUND:                -0.130
REMARK SMILES O=c1c(O)c(-c2ccc(O)c(O)c2)oc2cc(O)cc(O)c12
REMARK SMILES IDX 5 1 3 2 2 3 1 4 22 5 20 6 19 7 17 8 16 9 15 10 14 11 6 12
REMARK SMILES IDX 7 13 8 14 9 15 13 16 11 17 10 18 12 20 4 22 21 24 18 26
REMARK H PARENT 10 19 12 21 4 23 21 25 18 27
REMARK Flexibility Score: inf
ROOT
ATOM      1  C   UNL     1      14.870  15.526  12.614  1.00  0.00     0.180 A 
ATOM      2  C   UNL     1      15.807  14.582  12.157  1.00  0.00     0.208 A 
ATOM      3  C   UNL     1      16.777  14.098  13.051  1.00  0.00     0.238 A 
ATOM      4  O   UNL     1      17.657  13.311  12.615  1.00  0.00    -0.285 OA
ATOM      5  C   UNL     1      16.764  14.521  14.402  1.00  0.00     0.111 A 
ATOM      6  C   UNL     1      17.672  14.062  15.405  1.00  0.00     0.134 A 
ATOM      7  C   UNL     1      17.632  14.630  16.684  1.00  0.00     0.093 A 
ATOM      8  C   UNL     1      16.679  15.592  17.016  1.00  0.00     0.123 A 
ATOM      9  C   UNL     1      15.752  16.008  16.060  1.00  0.00     0.094 A 
ATOM     10  C   UNL     1      15.790  15.488  14.764  1.00  0.00     0.146 A 
ATOM     11  O   UNL     1      14.904  15.927  13.879  1.00  0.00    -0.452 OA
ENDROOT
BRANCH   1  12
ATOM     12  C   UNL     1      13.827  16.092  11.730  1.00  0.00     0.025 A 
ATOM     13  C   UNL     1      14.162  16.802  10.563  1.00  0.00     0.016 A 
ATOM     14  C   UNL     1      13.160  17.349   9.757  1.00  0.00     0.051 A 
ATOM     15  C   UNL     1      11.812  17.207  10.111  1.00  0.00     0.157 A 
ATOM     16  C   UNL     1      12.475  15.972  12.091  1.00  0.00     0.062 A 
ATOM     17  C   UNL     1      11.469  16.520  11.282  1.00  0.00     0.158 A 
BRANCH  15  18
ATOM     18  O   UNL     1      10.810  17.749   9.309  1.00  0.00    -0.504 OA
ATOM     19  H   UNL     1      10.801  17.610   8.305  1.00  0.00     0.293 HD
ENDBRANCH  15  18
BRANCH  17  20
ATOM     20  O   UNL     1      10.128  16.387  11.637  1.00  0.00    -0.504 OA
ATOM     21  H   UNL     1       9.846  16.235  12.598  1.00  0.00     0.293 HD
ENDBRANCH  17  20
ENDBRANCH   1  12
BRANCH   2  22
ATOM     22  O   UNL     1      15.754  14.120  10.840  1.00  0.00    -0.502 OA
ATOM     23  H   UNL     1      16.058  14.682  10.054  1.00  0.00     0.293 HD
ENDBRANCH   2  22
BRANCH   6  24
ATOM     24  O   UNL     1      18.606  13.042  15.207  1.00  0.00    -0.507 OA
ATOM     25  H   UNL     1      19.240  12.693  15.910  1.00  0.00     0.293 HD
ENDBRANCH   6  24
BRANCH   8  26
ATOM     26  O   UNL     1      16.658  16.123  18.304  1.00  0.00    -0.508 OA
ATOM     27  H   UNL     1      17.300  15.804  19.020  1.00  0.00     0.293 HD
ENDBRANCH   8  26
TORSDOF 6
ENDMDL
MODEL 2
REMARK VINA RESULT:    -6.474      1.511      6.876
REMARK INTER + INTRA:          -7.929
REMARK INTER:                  -7.919
REMARK INTRA:                  -0.010
REMARK UNBOUND:                -0.130
REMARK SMILES O=c1c(O)c(-c2ccc(O)c(O)c2)oc2cc(O)cc(O)c12
REMARK SMILES IDX 5 1 3 2 2 3 1 4 22 5 20 6 19 7 17 8 16 9 15 10 14 11 6 12
REMARK SMILES IDX 7 13 8 14 9 15 13 16 11 17 10 18 12 20 4 22 21 24 18 26
REMARK H PARENT 10 19 12 21 4 23 21 25 18 27
REMARK Flexibility Score: inf
ROOT
ATOM      1  C   UNL     1      15.691  15.813  13.244  1.00  0.00     0.180 A 
ATOM      2  C   UNL     1      16.493  16.270  12.184  1.00  0.00     0.208 A 
ATOM      3  C   UNL     1      15.874  16.706  11.001  1.00  0.00     0.238 A 
ATOM      4  O   UNL     1      16.601  17.042  10.029  1.00  0.00    -0.285 OA
ATOM      5  C   UNL     1      14.461  16.734  10.913  1.00  0.00     0.111 A 
ATOM      6  C   UNL     1      13.727  17.198   9.779  1.00  0.00     0.134 A 
ATOM      7  C   UNL     1      12.332  17.079   9.765  1.00  0.00     0.093 A 
ATOM      8  C   UNL     1      11.640  16.574  10.864  1.00  0.00     0.123 A 
ATOM      9  C   UNL     1      12.343  16.168  11.999  1.00  0.00     0.094 A 
ATOM     10  C   UNL     1      13.738  16.238  12.030  1.00  0.00     0.146 A 
ATOM     11  O   UNL     1      14.370  15.821  13.120  1.00  0.00    -0.452 OA
ENDROOT
BRANCH   1  12
ATOM     12  C   UNL     1      16.269  15.325  14.516  1.00  0.00     0.025 A 
ATOM     13  C   UNL     1      15.890  15.878  15.753  1.00  0.00     0.016 A 
ATOM     14  C   UNL     1      16.467  15.418  16.939  1.00  0.00     0.051 A 
ATOM     15  C   UNL     1      17.439  14.409  16.907  1.00  0.00     0.157 A 
ATOM     16  C   UNL     1      17.259  14.329  14.490  1.00  0.00     0.062 A 
ATOM     17  C   UNL     1      17.838  13.866  15.680  1.00  0.00     0.158 A 
BRANCH  15  18
ATOM     18  O   UNL     1      18.015  13.946  18.088  1.00  0.00    -0.504 OA
ATOM     19  H   UNL     1      18.733  13.231  18.084  1.00  0.00     0.293 HD
ENDBRANCH  15  18
BRANCH  17  20
ATOM     20  O   UNL     1      18.810  12.868  15.650  1.00  0.00    -0.504 OA
ATOM     21  H   UNL     1      19.665  12.945  16.188  1.00  0.00     0.293 HD
ENDBRANCH  17  20
ENDBRANCH   1  12
BRANCH   2  22
ATOM     22  O   UNL     1      17.884  16.306  12.318  1.00  0.00    -0.502 OA
ATOM     23  H   UNL     1      18.341  16.410  13.216  1.00  0.00     0.293 HD
ENDBRANCH   2  22
BRANCH   6  24
ATOM     24  O   UNL     1      14.311  17.803   8.663  1.00  0.00    -0.507 OA
ATOM     25  H   UNL     1      13.981  18.649   8.224  1.00  0.00     0.293 HD
ENDBRANCH   6  24
BRANCH   8  26
ATOM     26  O   UNL     1      10.250  16.486  10.822  1.00  0.00    -0.508 OA
ATOM     27  H   UNL     1       9.662  17.289  11.013  1.00  0.00     0.293 HD
ENDBRANCH   8  26
TORSDOF 6
ENDMDL
MODEL 3
REMARK VINA RESULT:    -6.400      1.580      6.816
REMARK INTER + INTRA:          -7.839
REMARK INTER:                  -7.760
REMARK INTRA:                  -0.078
REMARK UNBOUND:                -0.130
REMARK SMILES O=c1c(O)c(-c2ccc(O)c(O)c2)oc2cc(O)cc(O)c12
REMARK SMILES IDX 5 1 3 2 2 3 1 4 22 5 20 6 19 7 17 8 16 9 15 10 14 11 6 12
REMARK SMILES IDX 7 13 8 14 9 15 13 16 11 17 10 18 12 20 4 22 21 24 18 26
REMARK H PARENT 10 19 12 21 4 23 21 25 18 27
REMARK Flexibility Score: inf
ROOT
ATOM      1  C   UNL     1      15.554  15.113  11.798  1.00  0.00     0.180 A 
ATOM      2  C   UNL     1      15.924  15.592  10.530  1.00  0.00     0.208 A 
ATOM      3  C   UNL     1      14.958  16.228   9.733  1.00  0.00     0.238 A 
ATOM      4  O   UNL     1      15.278  16.587   8.570  1.00  0.00    -0.285 OA
ATOM      5  C   UNL     1      13.649  16.427  10.236  1.00  0.00     0.111 A 
ATOM      6  C   UNL     1      12.603  17.099   9.533  1.00  0.00     0.134 A 
ATOM      7  C   UNL     1      11.318  17.142  10.088  1.00  0.00     0.093 A 
ATOM      8  C   UNL     1      11.054  16.598  11.344  1.00  0.00     0.123 A 
ATOM      9  C   UNL     1      12.082  15.988  12.063  1.00  0.00     0.094 A 
ATOM     10  C   UNL     1      13.367  15.894  11.521  1.00  0.00     0.146 A 
ATOM     11  O   UNL     1      14.311  15.286  12.230  1.00  0.00    -0.452 OA
ENDROOT
BRANCH   1  12
ATOM     12  C   UNL     1      16.511  14.421  12.690  1.00  0.00     0.025 A 
ATOM     13  C   UNL     1      17.225  13.288  12.261  1.00  0.00     0.016 A 
ATOM     14  C   UNL     1      18.105  12.636  13.128  1.00  0.00     0.051 A 
ATOM     15  C   UNL     1      18.275  13.098  14.440  1.00  0.00     0.157 A 
ATOM     16  C   UNL     1      16.670  14.866  14.013  1.00  0.00     0.062 A 
ATOM     17  C   UNL     1      17.554  14.213  14.884  1.00  0.00     0.158 A 
BRANCH  15  18
ATOM     18  O   UNL     1      19.154  12.452  15.307  1.00  0.00    -0.504 OA
ATOM     19  H   UNL     1      20.158  12.501  15.179  1.00  0.00     0.293 HD
ENDBRANCH  15  18
BRANCH  17  20
ATOM     20  O   UNL     1      17.719  14.666  16.192  1.00  0.00    -0.504 OA
ATOM     21  H   UNL     1      16.925  14.892  16.779  1.00  0.00     0.293 HD
ENDBRANCH  17  20
ENDBRANCH   1  12
BRANCH   2  22
ATOM     22  O   UNL     1      17.241  15.454  10.083  1.00  0.00    -0.502 OA
ATOM     23  H   UNL     1      17.578  14.610   9.638  1.00  0.00     0.293 HD
ENDBRANCH   2  22
BRANCH   6  24
ATOM     24  O   UNL     1      12.776  17.755   8.312  1.00  0.00    -0.507 OA
ATOM     25  H   UNL     1      13.629  17.764   7.776  1.00  0.00     0.293 HD
ENDBRANCH   6  24
BRANCH   8  26
ATOM     26  O   UNL     1       9.768  16.675  11.871  1.00  0.00    -0.508 OA
ATOM     27  H   UNL     1       8.963  16.863  11.284  1.00  0.00     0.293 HD
ENDBRANCH   8  26
TORSDOF 6
ENDMDL
MODEL 4
REMARK VINA RESULT:    -6.276      3.787      6.418
REMARK INTER + INTRA:          -7.690
REMARK INTER:                  -7.418
REMARK INTRA:                  -0.272
REMARK UNBOUND:                -0.130
REMARK SMILES O=c1c(O)c(-c2ccc(O)c(O)c2)oc2cc(O)cc(O)c12
REMARK SMILES IDX 5 1 3 2 2 3 1 4 22 5 20 6 19 7 17 8 16 9 15 10 14 11 6 12
REMARK SMILES IDX 7 13 8 14 9 15 13 16 11 17 10 18 12 20 4 22 21 24 18 26
REMARK H PARENT 10 19 12 21 4 23 21 25 18 27
REMARK Flexibility Score: inf
ROOT
ATOM      1  C   UNL     1      17.109  13.507  17.374  1.00  0.00     0.180 A 
ATOM      2  C   UNL     1      17.949  13.915  18.425  1.00  0.00     0.208 A 
ATOM      3  C   UNL     1      18.141  13.052  19.517  1.00  0.00     0.238 A 
ATOM      4  O   UNL     1      18.834  13.455  20.488  1.00  0.00    -0.285 OA
ATOM      5  C   UNL     1      17.537  11.771  19.518  1.00  0.00     0.111 A 
ATOM      6  C   UNL     1      17.700  10.798  20.551  1.00  0.00     0.134 A 
ATOM      7  C   UNL     1      16.968   9.606  20.496  1.00  0.00     0.093 A 
ATOM      8  C   UNL     1      16.131   9.321  19.418  1.00  0.00     0.123 A 
ATOM      9  C   UNL     1      16.007  10.241  18.376  1.00  0.00     0.094 A 
ATOM     10  C   UNL     1      16.694  11.457  18.420  1.00  0.00     0.146 A 
ATOM     11  O   UNL     1      16.531  12.313  17.419  1.00  0.00    -0.452 OA
ENDROOT
BRANCH   1  12
ATOM     12  C   UNL     1      16.846  14.365  16.197  1.00  0.00     0.025 A 
ATOM     13  C   UNL     1      17.495  14.142  14.969  1.00  0.00     0.016 A 
ATOM     14  C   UNL     1      17.249  14.980  13.878  1.00  0.00     0.051 A 
ATOM     15  C   UNL     1      16.363  16.059  14.001  1.00  0.00     0.157 A 
ATOM     16  C   UNL     1      15.976  15.461  16.320  1.00  0.00     0.062 A 
ATOM     17  C   UNL     1      15.728  16.302  15.225  1.00  0.00     0.158 A 
BRANCH  15  18
ATOM     18  O   UNL     1      16.114  16.895  12.915  1.00  0.00    -0.504 OA
ATOM     19  H   UNL     1      16.814  17.544  12.573  1.00  0.00     0.293 HD
ENDBRANCH  15  18
BRANCH  17  20
ATOM     20  O   UNL     1      14.854  17.380  15.348  1.00  0.00    -0.504 OA
ATOM     21  H   UNL     1      14.847  18.136  14.674  1.00  0.00     0.293 HD
ENDBRANCH  17  20
ENDBRANCH   1  12
BRANCH   2  22
ATOM     22  O   UNL     1      18.597  15.152  18.369  1.00  0.00    -0.502 OA
ATOM     23  H   UNL     1      18.202  15.991  18.774  1.00  0.00     0.293 HD
ENDBRANCH   2  22
BRANCH   6  24
ATOM     24  O   UNL     1      18.577  10.940  21.630  1.00  0.00    -0.507 OA
ATOM     25  H   UNL     1      19.516  11.302  21.568  1.00  0.00     0.293 HD
ENDBRANCH   6  24
BRANCH   8  26
ATOM     26  O   UNL     1      15.432   8.117  19.389  1.00  0.00    -0.508 OA
ATOM     27  H   UNL     1      14.840   7.828  20.159  1.00  0.00     0.293 HD
ENDBRANCH   8  26
TORSDOF 6
ENDMDL
MODEL 5
REMARK VINA RESULT:    -6.268      2.041      2.268
REMARK INTER + INTRA:          -7.680
REMARK INTER:                  -7.362
REMARK INTRA:                  -0.318
REMARK UNBOUND:                -0.130
REMARK SMILES O=c1c(O)c(-c2ccc(O)c(O)c2)oc2cc(O)cc(O)c12
REMARK SMILES IDX 5 1 3 2 2 3 1 4 22 5 20 6 19 7 17 8 16 9 15 10 14 11 6 12
REMARK SMILES IDX 7 13 8 14 9 15 13 16 11 17 10 18 12 20 4 22 21 24 18 26
REMARK H PARENT 10 19 12 21 4 23 21 25 18 27
REMARK Flexibility Score: inf
ROOT
ATOM      1  C   UNL     1      13.985  14.143  12.365  1.00  0.00     0.180 A 
ATOM      2  C   UNL     1      13.861  12.763  12.127  1.00  0.00     0.208 A 
ATOM      3  C   UNL     1      14.647  11.870  12.873  1.00  0.00     0.238 A 
ATOM      4  O   UNL     1      14.585  10.642  12.603  1.00  0.00    -0.285 OA
ATOM      5  C   UNL     1      15.506  12.362  13.886  1.00  0.00     0.111 A 
ATOM      6  C   UNL     1      16.315  11.545  14.733  1.00  0.00     0.134 A 
ATOM      7  C   UNL     1      17.205  12.149  15.628  1.00  0.00     0.093 A 
ATOM      8  C   UNL     1      17.272  13.536  15.755  1.00  0.00     0.123 A 
ATOM      9  C   UNL     1      16.447  14.343  14.971  1.00  0.00     0.094 A 
ATOM     10  C   UNL     1      15.574  13.771  14.040  1.00  0.00     0.146 A 
ATOM     11  O   UNL     1      14.823  14.576  13.299  1.00  0.00    -0.452 OA
ENDROOT
BRANCH   1  12
ATOM     12  C   UNL     1      13.201  15.147  11.612  1.00  0.00     0.025 A 
ATOM     13  C   UNL     1      13.740  15.807  10.492  1.00  0.00     0.016 A 
ATOM     14  C   UNL     1      12.991  16.768   9.811  1.00  0.00     0.051 A 
ATOM     15  C   UNL     1      11.699  17.095  10.244  1.00  0.00     0.157 A 
ATOM     16  C   UNL     1      11.914  15.494  12.053  1.00  0.00     0.062 A 
ATOM     17  C   UNL     1      11.161  16.458  11.369  1.00  0.00     0.158 A 
BRANCH  15  18
ATOM     18  O   UNL     1      10.948  18.052   9.565  1.00  0.00    -0.504 OA
ATOM     19  H   UNL     1      11.299  18.990   9.410  1.00  0.00     0.293 HD
ENDBRANCH  15  18
BRANCH  17  20
ATOM     20  O   UNL     1       9.879  16.790  11.803  1.00  0.00    -0.504 OA
ATOM     21  H   UNL     1       9.462  16.348  12.613  1.00  0.00     0.293 HD
ENDBRANCH  17  20
ENDBRANCH   1  12
BRANCH   2  22
ATOM     22  O   UNL     1      12.951  12.292  11.177  1.00  0.00    -0.502 OA
ATOM     23  H   UNL     1      12.859  11.309  10.952  1.00  0.00     0.293 HD
ENDBRANCH   2  22
BRANCH   6  24
ATOM     24  O   UNL     1      16.265  10.148  14.754  1.00  0.00    -0.507 OA
ATOM     25  H   UNL     1      17.065   9.542  14.842  1.00  0.00     0.293 HD
ENDBRANCH   6  24
BRANCH   8  26
ATOM     26  O   UNL     1      18.157  14.102  16.668  1.00  0.00    -0.508 OA
ATOM     27  H   UNL     1      19.001  14.576  16.366  1.00  0.00     0.293 HD
ENDBRANCH   8  26
TORSDOF 6
ENDMDL
MODEL 6
REMARK VINA RESULT:    -6.161      2.450      6.821
REMARK INTER + INTRA:          -7.551
REMARK INTER:                  -7.557
REMARK INTRA:                   0.006
REMARK UNBOUND:                -0.130
REMARK SMILES O=c1c(O)c(-c2ccc(O)c(O)c2)oc2cc(O)cc(O)c12
REMARK SMILES IDX 5 1 3 2 2 3 1 4 22 5 20 6 19 7 17 8 16 9 15 10 14 11 6 12
REMARK SMILES IDX 7 13 8 14 9 15 13 16 11 17 10 18 12 20 4 22 21 24 18 26
REMARK H PARENT 10 19 12 21 4 23 21 25 18 27
REMARK Flexibility Score: inf
ROOT
ATOM      1  C   UNL     1      17.011  15.706  12.240  1.00  0.00     0.180 A 
ATOM      2  C   UNL     1      18.168  15.903  11.466  1.00  0.00     0.208 A 
ATOM      3  C   UNL     1      18.037  16.411  10.163  1.00  0.00     0.238 A 
ATOM      4  O   UNL     1      19.069  16.514   9.450  1.00  0.00    -0.285 OA
ATOM      5  C   UNL     1      16.759  16.770   9.671  1.00  0.00     0.111 A 
ATOM      6  C   UNL     1      16.514  17.336   8.383  1.00  0.00     0.134 A 
ATOM      7  C   UNL     1      15.196  17.552   7.963  1.00  0.00     0.093 A 
ATOM      8  C   UNL     1      14.118  17.284   8.805  1.00  0.00     0.123 A 
ATOM      9  C   UNL     1      14.348  16.782  10.086  1.00  0.00     0.094 A 
ATOM     10  C   UNL     1      15.650  16.520  10.521  1.00  0.00     0.146 A 
ATOM     11  O   UNL     1      15.823  16.022  11.739  1.00  0.00    -0.452 OA
ENDROOT
BRANCH   1  12
ATOM     12  C   UNL     1      17.065  15.162  13.615  1.00  0.00     0.025 A 
ATOM     13  C   UNL     1      17.809  14.007  13.917  1.00  0.00     0.016 A 
ATOM     14  C   UNL     1      17.826  13.497  15.217  1.00  0.00     0.051 A 
ATOM     15  C   UNL     1      17.090  14.125  16.232  1.00  0.00     0.157 A 
ATOM     16  C   UNL     1      16.313  15.774  14.632  1.00  0.00     0.062 A 
ATOM     17  C   UNL     1      16.330  15.264  15.938  1.00  0.00     0.158 A 
BRANCH  15  18
ATOM     18  O   UNL     1      17.106  13.620  17.531  1.00  0.00    -0.504 OA
ATOM     19  H   UNL     1      17.972  13.510  18.046  1.00  0.00     0.293 HD
ENDBRANCH  15  18
BRANCH  17  20
ATOM     20  O   UNL     1      15.594  15.881  16.946  1.00  0.00    -0.504 OA
ATOM     21  H   UNL     1      15.947  16.692  17.440  1.00  0.00     0.293 HD
ENDBRANCH  17  20
ENDBRANCH   1  12
BRANCH   2  22
ATOM     22  O   UNL     1      19.427  15.614  11.998  1.00  0.00    -0.502 OA
ATOM     23  H   UNL     1      19.840  14.691  11.949  1.00  0.00     0.293 HD
ENDBRANCH   2  22
BRANCH   6  24
ATOM     24  O   UNL     1      17.521  17.725   7.495  1.00  0.00    -0.507 OA
ATOM     25  H   UNL     1      17.433  18.454   6.804  1.00  0.00     0.293 HD
ENDBRANCH   6  24
BRANCH   8  26
ATOM     26  O   UNL     1      12.821  17.528   8.361  1.00  0.00    -0.508 OA
ATOM     27  H   UNL     1      12.249  16.791   7.963  1.00  0.00     0.293 HD
ENDBRANCH   8  26
TORSDOF 6
ENDMDL
MODEL 7
REMARK VINA RESULT:    -6.089      1.642      3.586
REMARK INTER + INTRA:          -7.465
REMARK INTER:                  -7.217
REMARK INTRA:                  -0.248
REMARK UNBOUND:                -0.130
REMARK SMILES O=c1c(O)c(-c2ccc(O)c(O)c2)oc2cc(O)cc(O)c12
REMARK SMILES IDX 5 1 3 2 2 3 1 4 22 5 20 6 19 7 17 8 16 9 15 10 14 11 6 12
REMARK SMILES IDX 7 13 8 14 9 15 13 16 11 17 10 18 12 20 4 22 21 24 18 26
REMARK H PARENT 10 19 12 21 4 23 21 25 18 27
REMARK Flexibility Score: inf
ROOT
ATOM      1  C   UNL     1      14.637  15.227  12.175  1.00  0.00     0.180 A 
ATOM      2  C   UNL     1      15.166  15.733  13.376  1.00  0.00     0.208 A 
ATOM      3  C   UNL     1      16.211  15.037  14.006  1.00  0.00     0.238 A 
ATOM      4  O   UNL     1      16.628  15.455  15.118  1.00  0.00    -0.285 OA
ATOM      5  C   UNL     1      16.752  13.877  13.401  1.00  0.00     0.111 A 
ATOM      6  C   UNL     1      17.842  13.119  13.928  1.00  0.00     0.134 A 
ATOM      7  C   UNL     1      18.222  11.928  13.297  1.00  0.00     0.093 A 
ATOM      8  C   UNL     1      17.599  11.501  12.126  1.00  0.00     0.123 A 
ATOM      9  C   UNL     1      16.570  12.262  11.571  1.00  0.00     0.094 A 
ATOM     10  C   UNL     1      16.141  13.436  12.198  1.00  0.00     0.146 A 
ATOM     11  O   UNL     1      15.144  14.119  11.649  1.00  0.00    -0.452 OA
ENDROOT
BRANCH   1  12
ATOM     12  C   UNL     1      13.528  15.895  11.459  1.00  0.00     0.025 A 
ATOM     13  C   UNL     1      12.215  15.878  11.964  1.00  0.00     0.016 A 
ATOM     14  C   UNL     1      11.179  16.494  11.259  1.00  0.00     0.051 A 
ATOM     15  C   UNL     1      11.435  17.124  10.033  1.00  0.00     0.157 A 
ATOM     16  C   UNL     1      13.774  16.510  10.221  1.00  0.00     0.062 A 
ATOM     17  C   UNL     1      12.735  17.129   9.512  1.00  0.00     0.158 A 
BRANCH  15  18
ATOM     18  O   UNL     1      10.404  17.742   9.328  1.00  0.00    -0.504 OA
ATOM     19  H   UNL     1      10.577  18.237   8.461  1.00  0.00     0.293 HD
ENDBRANCH  15  18
BRANCH  17  20
ATOM     20  O   UNL     1      12.986  17.750   8.290  1.00  0.00    -0.504 OA
ATOM     21  H   UNL     1      13.224  18.733   8.233  1.00  0.00     0.293 HD
ENDBRANCH  17  20
ENDBRANCH   1  12
BRANCH   2  22
ATOM     22  O   UNL     1      14.670  16.921  13.917  1.00  0.00    -0.502 OA
ATOM     23  H   UNL     1      14.379  16.999  14.884  1.00  0.00     0.293 HD
ENDBRANCH   2  22
BRANCH   6  24
ATOM     24  O   UNL     1      18.594  13.500  15.043  1.00  0.00    -0.507 OA
ATOM     25  H   UNL     1      19.320  12.945  15.467  1.00  0.00     0.293 HD
ENDBRANCH   6  24
BRANCH   8  26
ATOM     26  O   UNL     1      18.015  10.320  11.516  1.00  0.00    -0.508 OA
ATOM     27  H   UNL     1      18.003  10.210  10.508  1.00  0.00     0.293 HD
ENDBRANCH   8  26
TORSDOF 6
ENDMDL
MODEL 8
REMARK VINA RESULT:    -6.068      1.379      2.868
REMARK INTER + INTRA:          -7.440
REMARK INTER:                  -7.135
REMARK INTRA:                  -0.304
REMARK UNBOUND:                -0.130
REMARK SMILES O=c1c(O)c(-c2ccc(O)c(O)c2)oc2cc(O)cc(O)c12
REMARK SMILES IDX 5 1 3 2 2 3 1 4 22 5 20 6 19 7 17 8 16 9 15 10 14 11 6 12
REMARK SMILES IDX 7 13 8 14 9 15 13 16 11 17 10 18 12 20 4 22 21 24 18 26
REMARK H PARENT 10 19 12 21 4 23 21 25 18 27
REMARK Flexibility Score: inf
ROOT
ATOM      1  C   UNL     1      14.920  15.546  13.147  1.00  0.00     0.180 A 
ATOM      2  C   UNL     1      15.181  16.267  14.325  1.00  0.00     0.208 A 
ATOM      3  C   UNL     1      15.994  15.687  15.313  1.00  0.00     0.238 A 
ATOM      4  O   UNL     1      16.162  16.308  16.395  1.00  0.00    -0.285 OA
ATOM      5  C   UNL     1      16.582  14.419  15.087  1.00  0.00     0.111 A 
ATOM      6  C   UNL     1      17.459  13.757  15.999  1.00  0.00     0.134 A 
ATOM      7  C   UNL     1      17.895  12.457  15.715  1.00  0.00     0.093 A 
ATOM      8  C   UNL     1      17.541  11.820  14.527  1.00  0.00     0.123 A 
ATOM      9  C   UNL     1      16.730  12.479  13.603  1.00  0.00     0.094 A 
ATOM     10  C   UNL     1      16.246  13.762  13.874  1.00  0.00     0.146 A 
ATOM     11  O   UNL     1      15.459  14.345  12.978  1.00  0.00    -0.452 OA
ENDROOT
BRANCH   1  12
ATOM     12  C   UNL     1      14.062  16.083  12.068  1.00  0.00     0.025 A 
ATOM     13  C   UNL     1      14.612  16.742  10.954  1.00  0.00     0.016 A 
ATOM     14  C   UNL     1      13.782  17.262   9.958  1.00  0.00     0.051 A 
ATOM     15  C   UNL     1      12.389  17.144  10.067  1.00  0.00     0.157 A 
ATOM     16  C   UNL     1      12.665  15.986  12.181  1.00  0.00     0.062 A 
ATOM     17  C   UNL     1      11.830  16.507  11.182  1.00  0.00     0.158 A 
BRANCH  15  18
ATOM     18  O   UNL     1      11.558  17.659   9.075  1.00  0.00    -0.504 OA
ATOM     19  H   UNL     1      11.495  18.656   8.900  1.00  0.00     0.293 HD
ENDBRANCH  15  18
BRANCH  17  20
ATOM     20  O   UNL     1      10.446  16.397  11.291  1.00  0.00    -0.504 OA
ATOM     21  H   UNL     1       9.982  15.497  11.273  1.00  0.00     0.293 HD
ENDBRANCH  17  20
ENDBRANCH   1  12
BRANCH   2  22
ATOM     22  O   UNL     1      14.654  17.550  14.496  1.00  0.00    -0.502 OA
ATOM     23  H   UNL     1      14.307  18.103  13.722  1.00  0.00     0.293 HD
ENDBRANCH   2  22
BRANCH   6  24
ATOM     24  O   UNL     1      17.948  14.334  17.174  1.00  0.00    -0.507 OA
ATOM     25  H   UNL     1      17.669  15.232  17.537  1.00  0.00     0.293 HD
ENDBRANCH   6  24
BRANCH   8  26
ATOM     26  O   UNL     1      18.008  10.534  14.270  1.00  0.00    -0.508 OA
ATOM     27  H   UNL     1      18.939  10.241  14.546  1.00  0.00     0.293 HD
ENDBRANCH   8  26
TORSDOF 6
ENDMDL
MODEL 9
REMARK VINA RESULT:    -5.940      3.173      7.108
REMARK INTER + INTRA:          -7.285
REMARK INTER:                  -6.968
REMARK INTRA:                  -0.316
REMARK UNBOUND:                -0.130
REMARK SMILES O=c1c(O)c(-c2ccc(O)c(O)c2)oc2cc(O)cc(O)c12
REMARK SMILES IDX 5 1 3 2 2 3 1 4 22 5 20 6 19 7 17 8 16 9 15 10 14 11 6 12
REMARK SMILES IDX 7 13 8 14 9 15 13 16 11 17 10 18 12 20 4 22 21 24 18 26
REMARK H PARENT 10 19 12 21 4 23 21 25 18 27
REMARK Flexibility Score: inf
ROOT
ATOM      1  C   UNL     1      13.920  13.803  11.106  1.00  0.00     0.180 A 
ATOM      2  C   UNL     1      12.692  14.467  10.937  1.00  0.00     0.208 A 
ATOM      3  C   UNL     1      12.631  15.577  10.079  1.00  0.00     0.238 A 
ATOM      4  O   UNL     1      11.547  16.210   9.991  1.00  0.00    -0.285 OA
ATOM      5  C   UNL     1      13.782  15.975   9.357  1.00  0.00     0.111 A 
ATOM      6  C   UNL     1      13.822  17.057   8.426  1.00  0.00     0.134 A 
ATOM      7  C   UNL     1      15.044  17.427   7.851  1.00  0.00     0.093 A 
ATOM      8  C   UNL     1      16.213  16.717   8.121  1.00  0.00     0.123 A 
ATOM      9  C   UNL     1      16.175  15.623   8.987  1.00  0.00     0.094 A 
ATOM     10  C   UNL     1      14.978  15.253   9.607  1.00  0.00     0.146 A 
ATOM     11  O   UNL     1      14.990  14.220  10.440  1.00  0.00    -0.452 OA
ENDROOT
BRANCH   1  12
ATOM     12  C   UNL     1      14.069  12.635  12.003  1.00  0.00     0.025 A 
ATOM     13  C   UNL     1      13.758  11.334  11.569  1.00  0.00     0.016 A 
ATOM     14  C   UNL     1      13.883  10.249  12.440  1.00  0.00     0.051 A 
ATOM     15  C   UNL     1      14.306  10.450  13.761  1.00  0.00     0.157 A 
ATOM     16  C   UNL     1      14.472  12.832  13.334  1.00  0.00     0.062 A 
ATOM     17  C   UNL     1      14.599  11.744  14.209  1.00  0.00     0.158 A 
BRANCH  15  18
ATOM     18  O   UNL     1      14.434   9.370  14.633  1.00  0.00    -0.504 OA
ATOM     19  H   UNL     1      14.758   9.493  15.585  1.00  0.00     0.293 HD
ENDBRANCH  15  18
BRANCH  17  20
ATOM     20  O   UNL     1      15.013  11.941  15.525  1.00  0.00    -0.504 OA
ATOM     21  H   UNL     1      14.347  12.102  16.272  1.00  0.00     0.293 HD
ENDBRANCH  17  20
ENDBRANCH   1  12
BRANCH   2  22
ATOM     22  O   UNL     1      11.550  14.011  11.600  1.00  0.00    -0.502 OA
ATOM     23  H   UNL     1      10.620  14.114  11.213  1.00  0.00     0.293 HD
ENDBRANCH   2  22
BRANCH   6  24
ATOM     24  O   UNL     1      12.699  17.779   8.015  1.00  0.00    -0.507 OA
ATOM     25  H   UNL     1      12.719  18.707   7.622  1.00  0.00     0.293 HD
ENDBRANCH   6  24
BRANCH   8  26
ATOM     26  O   UNL     1      17.407  17.102   7.517  1.00  0.00    -0.508 OA
ATOM     27  H   UNL     1      17.624  18.077   7.343  1.00  0.00     0.293 HD
ENDBRANCH   8  26
TORSDOF 6
ENDMDL
