MODEL 1
REMARK VINA RESULT:    62.817      0.000      0.000
REMARK INTER + INTRA:          85.820
REMARK INTER:                  86.687
REMARK INTRA:                  -0.867
REMARK UNBOUND:                -0.867
REMARK SMILES CC[C@@H](CC[C@@H](C)[C@@H]1CC[C@H]2[C@@H]3CC=C4C[C@H](O)CC[C@]4(C)[C@@H]3CC[C@]21C)C(C)C
REMARK SMILES IDX 5 1 4 2 3 3 2 4 1 5 28 6 29 7 30 8 6 9 7 10 8 11 9 12 26 13
REMARK SMILES IDX 10 14 11 15 25 16 27 17 12 18 24 19 23 20 13 21 21 22 14 23
REMARK SMILES IDX 15 24 20 25 22 26 16 27 19 28 17 29 18 30
REMARK H PARENT 18 31
REMARK Flexibility Score: inf
ROOT
ATOM      1  C   UNL     1      21.076  16.095  29.001  1.00  0.00     0.004 C 
ENDROOT
BRANCH   1   2
ATOM      2  C   UNL     1      21.163  14.549  29.190  1.00  0.00     0.004 C 
BRANCH   2   3
ATOM      3  C   UNL     1      20.352  13.954  30.380  1.00  0.00    -0.009 C 
BRANCH   3   4
ATOM      4  C   UNL     1      18.846  13.724  30.040  1.00  0.00     0.000 C 
ATOM      5  C   UNL     1      18.454  12.245  30.024  1.00  0.00     0.004 C 
ENDBRANCH   3   4
BRANCH   3   6
ATOM      6  C   UNL     1      20.612  14.721  31.725  1.00  0.00    -0.014 C 
ATOM      7  C   UNL     1      19.436  14.701  32.714  1.00  0.00     0.007 C 
ATOM      8  C   UNL     1      21.895  14.249  32.423  1.00  0.00     0.007 C 
ENDBRANCH   3   6
ENDBRANCH   2   3
ENDBRANCH   1   2
BRANCH   1   9
ATOM      9  C   UNL     1      20.310  16.535  27.709  1.00  0.00    -0.011 C 
ATOM     10  C   UNL     1      21.188  17.371  26.753  1.00  0.00     0.008 C 
BRANCH   9  11
ATOM     11  C   UNL     1      19.524  15.388  26.967  1.00  0.00    -0.002 C 
ATOM     12  C   UNL     1      20.076  15.118  25.557  1.00  0.00     0.005 C 
ATOM     13  C   UNL     1      17.935  15.380  26.835  1.00  0.00    -0.026 C 
ATOM     14  C   UNL     1      18.939  14.496  24.779  1.00  0.00     0.005 C 
ATOM     15  C   UNL     1      17.688  15.197  25.303  1.00  0.00    -0.001 C 
ATOM     16  C   UNL     1      17.377  14.168  27.641  1.00  0.00     0.007 C 
ATOM     17  C   UNL     1      17.226  16.664  27.340  1.00  0.00     0.012 C 
ATOM     18  C   UNL     1      16.379  14.466  24.845  1.00  0.00     0.000 C 
ATOM     19  C   UNL     1      15.981  13.715  27.211  1.00  0.00     0.005 C 
ATOM     20  C   UNL     1      16.002  13.250  25.733  1.00  0.00     0.003 C 
ATOM     21  C   UNL     1      15.194  15.456  24.639  1.00  0.00     0.031 C 
ATOM     22  C   UNL     1      14.665  12.579  25.221  1.00  0.00    -0.008 C 
ATOM     23  C   UNL     1      13.810  14.907  24.906  1.00  0.00    -0.027 C 
ATOM     24  C   UNL     1      13.545  13.621  25.226  1.00  0.00    -0.065 C 
ATOM     25  C   UNL     1      14.296  11.322  26.085  1.00  0.00     0.014 C 
ATOM     26  C   UNL     1      14.842  12.091  23.754  1.00  0.00     0.016 C 
ATOM     27  C   UNL     1      12.093  13.183  25.287  1.00  0.00     0.063 C 
ATOM     28  C   UNL     1      12.835  10.878  25.939  1.00  0.00     0.033 C 
ATOM     29  C   UNL     1      11.879  12.035  26.276  1.00  0.00     0.118 C 
BRANCH  29  30
ATOM     30  O   UNL     1      12.060  12.511  27.586  1.00  0.00    -0.393 OA
ATOM     31  H   UNL     1      12.990  12.870  27.656  1.00  0.00     0.210 HD
ENDBRANCH  29  30
ENDBRANCH   9  11
ENDBRANCH   1   9
TORSDOF 7
ENDMDL
