MODEL 1
REMARK VINA RESULT:    -5.632      0.000      0.000
REMARK INTER + INTRA:          -6.883
REMARK INTER:                  -6.620
REMARK INTRA:                  -0.263
REMARK UNBOUND:                -0.263
REMARK SMILES O=c1cc(-c2ccc(O)c(O)c2)oc2cc(O)cc(O)c12
REMARK SMILES IDX 4 1 3 2 2 3 1 4 21 5 19 6 18 7 16 8 15 9 14 10 13 11 5 12
REMARK SMILES IDX 6 13 7 14 8 15 12 16 10 17 9 18 11 20 20 22 17 24
REMARK H PARENT 9 19 11 21 20 23 17 25
REMARK Flexibility Score: inf
ROOT
ATOM      1  C   UNL     1       3.259  -8.284   7.962  1.00  0.00     0.138 A 
ATOM      2  C   UNL     1       4.363  -8.574   8.777  1.00  0.00     0.100 A 
ATOM      3  C   UNL     1       5.538  -9.059   8.200  1.00  0.00     0.197 A 
ATOM      4  O   UNL     1       6.490  -9.368   8.962  1.00  0.00    -0.289 OA
ATOM      5  C   UNL     1       5.616  -9.223   6.796  1.00  0.00     0.107 A 
ATOM      6  C   UNL     1       6.776  -9.670   6.094  1.00  0.00     0.134 A 
ATOM      7  C   UNL     1       6.699  -9.906   4.716  1.00  0.00     0.093 A 
ATOM      8  C   UNL     1       5.527  -9.654   4.005  1.00  0.00     0.123 A 
ATOM      9  C   UNL     1       4.403  -9.164   4.673  1.00  0.00     0.094 A 
ATOM     10  C   UNL     1       4.437  -8.952   6.053  1.00  0.00     0.146 A 
ATOM     11  O   UNL     1       3.341  -8.499   6.653  1.00  0.00    -0.456 OA
ENDROOT
BRANCH   1  12
ATOM     12  C   UNL     1       1.986  -7.766   8.523  1.00  0.00     0.021 A 
ATOM     13  C   UNL     1       1.754  -6.380   8.547  1.00  0.00     0.016 A 
ATOM     14  C   UNL     1       0.568  -5.866   9.077  1.00  0.00     0.051 A 
ATOM     15  C   UNL     1      -0.403  -6.724   9.599  1.00  0.00     0.157 A 
ATOM     16  C   UNL     1       1.010  -8.626   9.062  1.00  0.00     0.062 A 
ATOM     17  C   UNL     1      -0.181  -8.111   9.595  1.00  0.00     0.158 A 
BRANCH  15  18
ATOM     18  O   UNL     1      -1.578  -6.183  10.118  1.00  0.00    -0.504 OA
ATOM     19  H   UNL     1      -2.295  -6.759  10.544  1.00  0.00     0.293 HD
ENDBRANCH  15  18
BRANCH  17  20
ATOM     20  O   UNL     1      -1.142  -8.971  10.125  1.00  0.00    -0.504 OA
ATOM     21  H   UNL     1      -1.131  -9.965   9.928  1.00  0.00     0.293 HD
ENDBRANCH  17  20
ENDBRANCH   1  12
BRANCH   6  22
ATOM     22  O   UNL     1       8.023  -9.872   6.694  1.00  0.00    -0.507 OA
ATOM     23  H   UNL     1       8.463 -10.770   6.819  1.00  0.00     0.293 HD
ENDBRANCH   6  22
BRANCH   8  24
ATOM     24  O   UNL     1       5.492  -9.885   2.632  1.00  0.00    -0.508 OA
ATOM     25  H   UNL     1       6.018  -9.312   1.983  1.00  0.00     0.293 HD
ENDBRANCH   8  24
TORSDOF 5
ENDMDL
MODEL 2
REMARK VINA RESULT:    -5.385     20.074     22.655
REMARK INTER + INTRA:          -6.593
REMARK INTER:                  -6.323
REMARK INTRA:                  -0.270
REMARK UNBOUND:                -0.263
REMARK SMILES O=c1cc(-c2ccc(O)c(O)c2)oc2cc(O)cc(O)c12
REMARK SMILES IDX 4 1 3 2 2 3 1 4 21 5 19 6 18 7 16 8 15 9 14 10 13 11 5 12
REMARK SMILES IDX 6 13 7 14 8 15 12 16 10 17 9 18 11 20 20 22 17 24
REMARK H PARENT 9 19 11 21 20 23 17 25
REMARK Flexibility Score: inf
ROOT
ATOM      1  C   UNL     1       7.858   5.516  -8.411  1.00  0.00     0.138 A 
ATOM      2  C   UNL     1       8.532   6.394  -7.550  1.00  0.00     0.100 A 
ATOM      3  C   UNL     1       7.947   7.616  -7.213  1.00  0.00     0.197 A 
ATOM      4  O   UNL     1       8.602   8.409  -6.488  1.00  0.00    -0.289 OA
ATOM      5  C   UNL     1       6.665   7.944  -7.716  1.00  0.00     0.107 A 
ATOM      6  C   UNL     1       5.953   9.142  -7.407  1.00  0.00     0.134 A 
ATOM      7  C   UNL     1       4.742   9.411  -8.056  1.00  0.00     0.093 A 
ATOM      8  C   UNL     1       4.188   8.502  -8.956  1.00  0.00     0.123 A 
ATOM      9  C   UNL     1       4.849   7.302  -9.224  1.00  0.00     0.094 A 
ATOM     10  C   UNL     1       6.076   7.019  -8.619  1.00  0.00     0.146 A 
ATOM     11  O   UNL     1       6.680   5.873  -8.913  1.00  0.00    -0.456 OA
ENDROOT
BRANCH   1  12
ATOM     12  C   UNL     1       8.434   4.205  -8.802  1.00  0.00     0.021 A 
ATOM     13  C   UNL     1       9.485   4.162  -9.734  1.00  0.00     0.016 A 
ATOM     14  C   UNL     1      10.039   2.940 -10.124  1.00  0.00     0.051 A 
ATOM     15  C   UNL     1       9.550   1.742  -9.598  1.00  0.00     0.157 A 
ATOM     16  C   UNL     1       7.936   2.994  -8.283  1.00  0.00     0.062 A 
ATOM     17  C   UNL     1       8.491   1.767  -8.675  1.00  0.00     0.158 A 
BRANCH  15  18
ATOM     18  O   UNL     1      10.125   0.538 -10.004  1.00  0.00    -0.504 OA
ATOM     19  H   UNL     1      10.656  -0.046  -9.370  1.00  0.00     0.293 HD
ENDBRANCH  15  18
BRANCH  17  20
ATOM     20  O   UNL     1       7.992   0.574  -8.156  1.00  0.00    -0.504 OA
ATOM     21  H   UNL     1       7.134   0.160  -8.503  1.00  0.00     0.293 HD
ENDBRANCH  17  20
ENDBRANCH   1  12
BRANCH   6  22
ATOM     22  O   UNL     1       6.376  10.079  -6.459  1.00  0.00    -0.507 OA
ATOM     23  H   UNL     1       7.323  10.408  -6.358  1.00  0.00     0.293 HD
ENDBRANCH   6  22
BRANCH   8  24
ATOM     24  O   UNL     1       2.974   8.796  -9.572  1.00  0.00    -0.508 OA
ATOM     25  H   UNL     1       2.603   8.218 -10.317  1.00  0.00     0.293 HD
ENDBRANCH   8  24
TORSDOF 5
ENDMDL
MODEL 3
REMARK VINA RESULT:    -5.231     22.087     24.107
REMARK INTER + INTRA:          -6.411
REMARK INTER:                  -6.124
REMARK INTRA:                  -0.287
REMARK UNBOUND:                -0.263
REMARK SMILES O=c1cc(-c2ccc(O)c(O)c2)oc2cc(O)cc(O)c12
REMARK SMILES IDX 4 1 3 2 2 3 1 4 21 5 19 6 18 7 16 8 15 9 14 10 13 11 5 12
REMARK SMILES IDX 6 13 7 14 8 15 12 16 10 17 9 18 11 20 20 22 17 24
REMARK H PARENT 9 19 11 21 20 23 17 25
REMARK Flexibility Score: inf
ROOT
ATOM      1  C   UNL     1       1.391   8.064  -9.003  1.00  0.00     0.138 A 
ATOM      2  C   UNL     1       0.577   9.170  -9.286  1.00  0.00     0.100 A 
ATOM      3  C   UNL     1      -0.799   8.994  -9.438  1.00  0.00     0.197 A 
ATOM      4  O   UNL     1      -1.495   9.994  -9.752  1.00  0.00    -0.289 OA
ATOM      5  C   UNL     1      -1.365   7.707  -9.273  1.00  0.00     0.107 A 
ATOM      6  C   UNL     1      -2.760   7.416  -9.364  1.00  0.00     0.134 A 
ATOM      7  C   UNL     1      -3.192   6.085  -9.299  1.00  0.00     0.093 A 
ATOM      8  C   UNL     1      -2.290   5.043  -9.087  1.00  0.00     0.123 A 
ATOM      9  C   UNL     1      -0.930   5.323  -8.942  1.00  0.00     0.094 A 
ATOM     10  C   UNL     1      -0.463   6.636  -9.036  1.00  0.00     0.146 A 
ATOM     11  O   UNL     1       0.840   6.858  -8.908  1.00  0.00    -0.456 OA
ENDROOT
BRANCH   1  12
ATOM     12  C   UNL     1       2.860   8.195  -8.830  1.00  0.00     0.021 A 
ATOM     13  C   UNL     1       3.369   9.168  -7.953  1.00  0.00     0.016 A 
ATOM     14  C   UNL     1       4.747   9.317  -7.780  1.00  0.00     0.051 A 
ATOM     15  C   UNL     1       5.640   8.505  -8.483  1.00  0.00     0.157 A 
ATOM     16  C   UNL     1       3.764   7.388  -9.547  1.00  0.00     0.062 A 
ATOM     17  C   UNL     1       5.148   7.537  -9.373  1.00  0.00     0.158 A 
BRANCH  15  18
ATOM     18  O   UNL     1       7.010   8.676  -8.287  1.00  0.00    -0.504 OA
ATOM     19  H   UNL     1       7.529   8.130  -7.609  1.00  0.00     0.293 HD
ENDBRANCH  15  18
BRANCH  17  20
ATOM     20  O   UNL     1       6.035   6.732 -10.086  1.00  0.00    -0.504 OA
ATOM     21  H   UNL     1       6.122   6.799 -11.094  1.00  0.00     0.293 HD
ENDBRANCH  17  20
ENDBRANCH   1  12
BRANCH   6  22
ATOM     22  O   UNL     1      -3.755   8.390  -9.492  1.00  0.00    -0.507 OA
ATOM     23  H   UNL     1      -4.076   8.986  -8.747  1.00  0.00     0.293 HD
ENDBRANCH   6  22
BRANCH   8  24
ATOM     24  O   UNL     1      -2.757   3.733  -9.012  1.00  0.00    -0.508 OA
ATOM     25  H   UNL     1      -2.337   3.055  -8.388  1.00  0.00     0.293 HD
ENDBRANCH   8  24
TORSDOF 5
ENDMDL
MODEL 4
REMARK VINA RESULT:    -4.392      1.787      7.185
REMARK INTER + INTRA:          -5.425
REMARK INTER:                  -5.161
REMARK INTRA:                  -0.264
REMARK UNBOUND:                -0.263
REMARK SMILES O=c1cc(-c2ccc(O)c(O)c2)oc2cc(O)cc(O)c12
REMARK SMILES IDX 4 1 3 2 2 3 1 4 21 5 19 6 18 7 16 8 15 9 14 10 13 11 5 12
REMARK SMILES IDX 6 13 7 14 8 15 12 16 10 17 9 18 11 20 20 22 17 24
REMARK H PARENT 9 19 11 21 20 23 17 25
REMARK Flexibility Score: inf
ROOT
ATOM      1  C   UNL     1       3.194  -8.635   6.534  1.00  0.00     0.138 A 
ATOM      2  C   UNL     1       2.165  -9.506   6.919  1.00  0.00     0.100 A 
ATOM      3  C   UNL     1       1.238  -9.098   7.879  1.00  0.00     0.197 A 
ATOM      4  O   UNL     1       0.363  -9.924   8.248  1.00  0.00    -0.289 OA
ATOM      5  C   UNL     1       1.325  -7.798   8.432  1.00  0.00     0.107 A 
ATOM      6  C   UNL     1       0.411  -7.260   9.387  1.00  0.00     0.134 A 
ATOM      7  C   UNL     1       0.665  -6.004   9.952  1.00  0.00     0.093 A 
ATOM      8  C   UNL     1       1.762  -5.242   9.553  1.00  0.00     0.123 A 
ATOM      9  C   UNL     1       2.632  -5.736   8.579  1.00  0.00     0.094 A 
ATOM     10  C   UNL     1       2.426  -7.000   8.022  1.00  0.00     0.146 A 
ATOM     11  O   UNL     1       3.285  -7.440   7.110  1.00  0.00    -0.456 OA
ENDROOT
BRANCH   1  12
ATOM     12  C   UNL     1       4.206  -9.017   5.517  1.00  0.00     0.021 A 
ATOM     13  C   UNL     1       5.364  -9.704   5.918  1.00  0.00     0.016 A 
ATOM     14  C   UNL     1       6.335 -10.068   4.982  1.00  0.00     0.051 A 
ATOM     15  C   UNL     1       6.171  -9.746   3.633  1.00  0.00     0.157 A 
ATOM     16  C   UNL     1       4.051  -8.683   4.157  1.00  0.00     0.062 A 
ATOM     17  C   UNL     1       5.026  -9.048   3.217  1.00  0.00     0.158 A 
BRANCH  15  18
ATOM     18  O   UNL     1       7.156 -10.125   2.721  1.00  0.00    -0.504 OA
ATOM     19  H   UNL     1       7.663  -9.448   2.163  1.00  0.00     0.293 HD
ENDBRANCH  15  18
BRANCH  17  20
ATOM     20  O   UNL     1       4.864  -8.713   1.873  1.00  0.00    -0.504 OA
ATOM     21  H   UNL     1       4.712  -9.421   1.164  1.00  0.00     0.293 HD
ENDBRANCH  17  20
ENDBRANCH   1  12
BRANCH   6  22
ATOM     22  O   UNL     1      -0.763  -7.902   9.794  1.00  0.00    -0.507 OA
ATOM     23  H   UNL     1      -1.639  -7.870   9.297  1.00  0.00     0.293 HD
ENDBRANCH   6  22
BRANCH   8  24
ATOM     24  O   UNL     1       1.974  -3.989  10.125  1.00  0.00    -0.508 OA
ATOM     25  H   UNL     1       1.456  -3.173   9.822  1.00  0.00     0.293 HD
ENDBRANCH   8  24
TORSDOF 5
ENDMDL
MODEL 5
REMARK VINA RESULT:    -4.376     22.434     24.321
REMARK INTER + INTRA:          -5.407
REMARK INTER:                  -5.118
REMARK INTRA:                  -0.288
REMARK UNBOUND:                -0.263
REMARK SMILES O=c1cc(-c2ccc(O)c(O)c2)oc2cc(O)cc(O)c12
REMARK SMILES IDX 4 1 3 2 2 3 1 4 21 5 19 6 18 7 16 8 15 9 14 10 13 11 5 12
REMARK SMILES IDX 6 13 7 14 8 15 12 16 10 17 9 18 11 20 20 22 17 24
REMARK H PARENT 9 19 11 21 20 23 17 25
REMARK Flexibility Score: inf
ROOT
ATOM      1  C   UNL     1       0.956   7.288  -9.380  1.00  0.00     0.138 A 
ATOM      2  C   UNL     1       0.764   5.901  -9.452  1.00  0.00     0.100 A 
ATOM      3  C   UNL     1      -0.527   5.389  -9.592  1.00  0.00     0.197 A 
ATOM      4  O   UNL     1      -0.673   4.139  -9.592  1.00  0.00    -0.289 OA
ATOM      5  C   UNL     1      -1.627   6.273  -9.693  1.00  0.00     0.107 A 
ATOM      6  C   UNL     1      -2.982   5.866  -9.881  1.00  0.00     0.134 A 
ATOM      7  C   UNL     1      -4.001   6.826  -9.849  1.00  0.00     0.093 A 
ATOM      8  C   UNL     1      -3.711   8.181  -9.699  1.00  0.00     0.123 A 
ATOM      9  C   UNL     1      -2.384   8.596  -9.570  1.00  0.00     0.094 A 
ATOM     10  C   UNL     1      -1.348   7.660  -9.563  1.00  0.00     0.146 A 
ATOM     11  O   UNL     1      -0.100   8.094  -9.423  1.00  0.00    -0.456 OA
ENDROOT
BRANCH   1  12
ATOM     12  C   UNL     1       2.307   7.886  -9.232  1.00  0.00     0.021 A 
ATOM     13  C   UNL     1       2.447   9.124  -8.583  1.00  0.00     0.016 A 
ATOM     14  C   UNL     1       3.706   9.712  -8.437  1.00  0.00     0.051 A 
ATOM     15  C   UNL     1       4.844   9.079  -8.944  1.00  0.00     0.157 A 
ATOM     16  C   UNL     1       3.455   7.258  -9.752  1.00  0.00     0.062 A 
ATOM     17  C   UNL     1       4.720   7.848  -9.607  1.00  0.00     0.158 A 
BRANCH  15  18
ATOM     18  O   UNL     1       6.088   9.689  -8.781  1.00  0.00    -0.504 OA
ATOM     19  H   UNL     1       6.942   9.153  -8.684  1.00  0.00     0.293 HD
ENDBRANCH  15  18
BRANCH  17  20
ATOM     20  O   UNL     1       5.850   7.218 -10.125  1.00  0.00    -0.504 OA
ATOM     21  H   UNL     1       6.460   6.656  -9.542  1.00  0.00     0.293 HD
ENDBRANCH  17  20
ENDBRANCH   1  12
BRANCH   6  22
ATOM     22  O   UNL     1      -3.375   4.546 -10.123  1.00  0.00    -0.507 OA
ATOM     23  H   UNL     1      -2.812   3.733  -9.931  1.00  0.00     0.293 HD
ENDBRANCH   6  22
BRANCH   8  24
ATOM     24  O   UNL     1      -4.749   9.110  -9.688  1.00  0.00    -0.508 OA
ATOM     25  H   UNL     1      -5.504   9.069 -10.362  1.00  0.00     0.293 HD
ENDBRANCH   8  24
TORSDOF 5
ENDMDL
MODEL 6
REMARK VINA RESULT:    -4.366     21.786     23.059
REMARK INTER + INTRA:          -5.395
REMARK INTER:                  -5.128
REMARK INTRA:                  -0.267
REMARK UNBOUND:                -0.263
REMARK SMILES O=c1cc(-c2ccc(O)c(O)c2)oc2cc(O)cc(O)c12
REMARK SMILES IDX 4 1 3 2 2 3 1 4 21 5 19 6 18 7 16 8 15 9 14 10 13 11 5 12
REMARK SMILES IDX 6 13 7 14 8 15 12 16 10 17 9 18 11 20 20 22 17 24
REMARK H PARENT 9 19 11 21 20 23 17 25
REMARK Flexibility Score: inf
ROOT
ATOM      1  C   UNL     1       4.120   8.567  -8.248  1.00  0.00     0.138 A 
ATOM      2  C   UNL     1       4.841   9.520  -7.513  1.00  0.00     0.100 A 
ATOM      3  C   UNL     1       6.175   9.274  -7.187  1.00  0.00     0.197 A 
ATOM      4  O   UNL     1       6.778  10.119  -6.474  1.00  0.00    -0.289 OA
ATOM      5  C   UNL     1       6.799   8.082  -7.628  1.00  0.00     0.107 A 
ATOM      6  C   UNL     1       8.166   7.746  -7.390  1.00  0.00     0.134 A 
ATOM      7  C   UNL     1       8.642   6.485  -7.774  1.00  0.00     0.093 A 
ATOM      8  C   UNL     1       7.821   5.576  -8.438  1.00  0.00     0.123 A 
ATOM      9  C   UNL     1       6.497   5.917  -8.724  1.00  0.00     0.094 A 
ATOM     10  C   UNL     1       5.983   7.152  -8.324  1.00  0.00     0.146 A 
ATOM     11  O   UNL     1       4.714   7.432  -8.602  1.00  0.00    -0.456 OA
ENDROOT
BRANCH   1  12
ATOM     12  C   UNL     1       2.699   8.778  -8.623  1.00  0.00     0.021 A 
ATOM     13  C   UNL     1       2.388   9.590  -9.727  1.00  0.00     0.016 A 
ATOM     14  C   UNL     1       1.059   9.810 -10.095  1.00  0.00     0.051 A 
ATOM     15  C   UNL     1       0.018   9.232  -9.365  1.00  0.00     0.157 A 
ATOM     16  C   UNL     1       1.646   8.207  -7.882  1.00  0.00     0.062 A 
ATOM     17  C   UNL     1       0.311   8.429  -8.251  1.00  0.00     0.158 A 
BRANCH  15  18
ATOM     18  O   UNL     1      -1.299   9.468  -9.758  1.00  0.00    -0.504 OA
ATOM     19  H   UNL     1      -1.531   9.822 -10.678  1.00  0.00     0.293 HD
ENDBRANCH  15  18
BRANCH  17  20
ATOM     20  O   UNL     1      -0.724   7.859  -7.511  1.00  0.00    -0.504 OA
ATOM     21  H   UNL     1      -0.619   6.960  -7.054  1.00  0.00     0.293 HD
ENDBRANCH  17  20
ENDBRANCH   1  12
BRANCH   6  22
ATOM     22  O   UNL     1       9.095   8.613  -6.809  1.00  0.00    -0.507 OA
ATOM     23  H   UNL     1      10.045   8.369  -6.577  1.00  0.00     0.293 HD
ENDBRANCH   6  22
BRANCH   8  24
ATOM     24  O   UNL     1       8.332   4.337  -8.819  1.00  0.00    -0.508 OA
ATOM     25  H   UNL     1       9.175   4.260  -9.376  1.00  0.00     0.293 HD
ENDBRANCH   8  24
TORSDOF 5
ENDMDL
MODEL 7
REMARK VINA RESULT:    -4.259     22.539     23.350
REMARK INTER + INTRA:          -5.269
REMARK INTER:                  -4.998
REMARK INTRA:                  -0.271
REMARK UNBOUND:                -0.263
REMARK SMILES O=c1cc(-c2ccc(O)c(O)c2)oc2cc(O)cc(O)c12
REMARK SMILES IDX 4 1 3 2 2 3 1 4 21 5 19 6 18 7 16 8 15 9 14 10 13 11 5 12
REMARK SMILES IDX 6 13 7 14 8 15 12 16 10 17 9 18 11 20 20 22 17 24
REMARK H PARENT 9 19 11 21 20 23 17 25
REMARK Flexibility Score: inf
ROOT
ATOM      1  C   UNL     1       4.088   8.375  -8.540  1.00  0.00     0.138 A 
ATOM      2  C   UNL     1       4.864   7.583  -9.399  1.00  0.00     0.100 A 
ATOM      3  C   UNL     1       6.224   7.411  -9.138  1.00  0.00     0.197 A 
ATOM      4  O   UNL     1       6.906   6.746  -9.960  1.00  0.00    -0.289 OA
ATOM      5  C   UNL     1       6.802   8.009  -7.993  1.00  0.00     0.107 A 
ATOM      6  C   UNL     1       8.169   7.867  -7.605  1.00  0.00     0.134 A 
ATOM      7  C   UNL     1       8.656   8.601  -6.516  1.00  0.00     0.093 A 
ATOM      8  C   UNL     1       7.815   9.422  -5.766  1.00  0.00     0.123 A 
ATOM      9  C   UNL     1       6.465   9.525  -6.104  1.00  0.00     0.094 A 
ATOM     10  C   UNL     1       5.956   8.833  -7.205  1.00  0.00     0.146 A 
ATOM     11  O   UNL     1       4.668   8.970  -7.502  1.00  0.00    -0.456 OA
ENDROOT
BRANCH   1  12
ATOM     12  C   UNL     1       2.638   8.591  -8.769  1.00  0.00     0.021 A 
ATOM     13  C   UNL     1       2.217   9.326  -9.891  1.00  0.00     0.016 A 
ATOM     14  C   UNL     1       0.858   9.550 -10.125  1.00  0.00     0.051 A 
ATOM     15  C   UNL     1      -0.103   9.054  -9.241  1.00  0.00     0.157 A 
ATOM     16  C   UNL     1       1.666   8.104  -7.874  1.00  0.00     0.062 A 
ATOM     17  C   UNL     1       0.301   8.329  -8.108  1.00  0.00     0.158 A 
BRANCH  15  18
ATOM     18  O   UNL     1      -1.452   9.292  -9.502  1.00  0.00    -0.504 OA
ATOM     19  H   UNL     1      -2.170   8.608  -9.293  1.00  0.00     0.293 HD
ENDBRANCH  15  18
BRANCH  17  20
ATOM     20  O   UNL     1      -0.653   7.841  -7.216  1.00  0.00    -0.504 OA
ATOM     21  H   UNL     1      -1.043   8.423  -6.484  1.00  0.00     0.293 HD
ENDBRANCH  17  20
ENDBRANCH   1  12
BRANCH   6  22
ATOM     22  O   UNL     1       9.075   7.008  -8.235  1.00  0.00    -0.507 OA
ATOM     23  H   UNL     1       9.513   6.213  -7.798  1.00  0.00     0.293 HD
ENDBRANCH   6  22
BRANCH   8  24
ATOM     24  O   UNL     1       8.331  10.125  -4.679  1.00  0.00    -0.508 OA
ATOM     25  H   UNL     1       8.808   9.653  -3.920  1.00  0.00     0.293 HD
ENDBRANCH   8  24
TORSDOF 5
ENDMDL
MODEL 8
REMARK VINA RESULT:    -4.041     21.357     23.052
REMARK INTER + INTRA:          -5.012
REMARK INTER:                  -4.701
REMARK INTRA:                  -0.311
REMARK UNBOUND:                -0.263
REMARK SMILES O=c1cc(-c2ccc(O)c(O)c2)oc2cc(O)cc(O)c12
REMARK SMILES IDX 4 1 3 2 2 3 1 4 21 5 19 6 18 7 16 8 15 9 14 10 13 11 5 12
REMARK SMILES IDX 6 13 7 14 8 15 12 16 10 17 9 18 11 20 20 22 17 24
REMARK H PARENT 9 19 11 21 20 23 17 25
REMARK Flexibility Score: inf
ROOT
ATOM      1  C   UNL     1       5.044   7.520  -9.434  1.00  0.00     0.138 A 
ATOM      2  C   UNL     1       6.145   8.352  -9.681  1.00  0.00     0.100 A 
ATOM      3  C   UNL     1       7.437   7.862  -9.488  1.00  0.00     0.197 A 
ATOM      4  O   UNL     1       8.403   8.651  -9.658  1.00  0.00    -0.289 OA
ATOM      5  C   UNL     1       7.627   6.521  -9.077  1.00  0.00     0.107 A 
ATOM      6  C   UNL     1       8.899   5.901  -8.889  1.00  0.00     0.134 A 
ATOM      7  C   UNL     1       8.963   4.603  -8.368  1.00  0.00     0.093 A 
ATOM      8  C   UNL     1       7.804   3.881  -8.085  1.00  0.00     0.123 A 
ATOM      9  C   UNL     1       6.555   4.458  -8.317  1.00  0.00     0.094 A 
ATOM     10  C   UNL     1       6.457   5.764  -8.803  1.00  0.00     0.146 A 
ATOM     11  O   UNL     1       5.249   6.282  -8.996  1.00  0.00    -0.456 OA
ENDROOT
BRANCH   1  12
ATOM     12  C   UNL     1       3.648   7.989  -9.623  1.00  0.00     0.021 A 
ATOM     13  C   UNL     1       3.374   9.368  -9.606  1.00  0.00     0.016 A 
ATOM     14  C   UNL     1       2.069   9.835  -9.774  1.00  0.00     0.051 A 
ATOM     15  C   UNL     1       1.014   8.936  -9.953  1.00  0.00     0.157 A 
ATOM     16  C   UNL     1       2.580   7.087  -9.791  1.00  0.00     0.062 A 
ATOM     17  C   UNL     1       1.268   7.555  -9.958  1.00  0.00     0.158 A 
BRANCH  15  18
ATOM     18  O   UNL     1      -0.278   9.433 -10.120  1.00  0.00    -0.504 OA
ATOM     19  H   UNL     1      -0.530  10.029 -10.900  1.00  0.00     0.293 HD
ENDBRANCH  15  18
BRANCH  17  20
ATOM     20  O   UNL     1       0.218   6.654 -10.124  1.00  0.00    -0.504 OA
ATOM     21  H   UNL     1       0.303   5.682  -9.851  1.00  0.00     0.293 HD
ENDBRANCH  17  20
ENDBRANCH   1  12
BRANCH   6  22
ATOM     22  O   UNL     1      10.118   6.502  -9.219  1.00  0.00    -0.507 OA
ATOM     23  H   UNL     1      10.911   6.019  -9.611  1.00  0.00     0.293 HD
ENDBRANCH   6  22
BRANCH   8  24
ATOM     24  O   UNL     1       7.906   2.586  -7.582  1.00  0.00    -0.508 OA
ATOM     25  H   UNL     1       7.542   1.789  -8.090  1.00  0.00     0.293 HD
ENDBRANCH   8  24
TORSDOF 5
ENDMDL
