MODEL 1
REMARK VINA RESULT:    -2.566      0.000      0.000
REMARK INTER + INTRA:          -3.301
REMARK INTER:                  -3.090
REMARK INTRA:                  -0.211
REMARK UNBOUND:                -0.211
REMARK SMILES O=c1c(O)c(-c2ccc(O)c(O)c2)oc2cc(O)cc(O)c12
REMARK SMILES IDX 5 1 3 2 2 3 1 4 22 5 20 6 19 7 17 8 16 9 15 10 14 11 6 12
REMARK SMILES IDX 7 13 8 14 9 15 13 16 11 17 10 18 12 20 4 22 21 24 18 26
REMARK H PARENT 10 19 12 21 4 23 21 25 18 27
REMARK Flexibility Score: inf
ROOT
ATOM      1  C   UNL     1       9.517 -17.003   7.929  1.00  0.00     0.180 A 
ATOM      2  C   UNL     1       9.942 -17.597   6.728  1.00  0.00     0.208 A 
ATOM      3  C   UNL     1      11.315 -17.641   6.439  1.00  0.00     0.238 A 
ATOM      4  O   UNL     1      11.685 -18.125   5.337  1.00  0.00    -0.285 OA
ATOM      5  C   UNL     1      12.246 -17.105   7.361  1.00  0.00     0.111 A 
ATOM      6  C   UNL     1      13.663 -17.132   7.189  1.00  0.00     0.134 A 
ATOM      7  C   UNL     1      14.482 -16.457   8.103  1.00  0.00     0.093 A 
ATOM      8  C   UNL     1      13.940 -15.811   9.217  1.00  0.00     0.123 A 
ATOM      9  C   UNL     1      12.563 -15.830   9.424  1.00  0.00     0.094 A 
ATOM     10  C   UNL     1      11.717 -16.465   8.511  1.00  0.00     0.146 A 
ATOM     11  O   UNL     1      10.410 -16.451   8.742  1.00  0.00    -0.452 OA
ENDROOT
BRANCH   1  12
ATOM     12  C   UNL     1       8.088 -16.941   8.315  1.00  0.00     0.025 A 
ATOM     13  C   UNL     1       7.409 -18.124   8.644  1.00  0.00     0.016 A 
ATOM     14  C   UNL     1       6.056 -18.091   8.990  1.00  0.00     0.051 A 
ATOM     15  C   UNL     1       5.357 -16.876   8.998  1.00  0.00     0.157 A 
ATOM     16  C   UNL     1       7.379 -15.726   8.303  1.00  0.00     0.062 A 
ATOM     17  C   UNL     1       6.022 -15.690   8.648  1.00  0.00     0.158 A 
BRANCH  15  18
ATOM     18  O   UNL     1       4.008 -16.846   9.345  1.00  0.00    -0.504 OA
ATOM     19  H   UNL     1       3.308 -16.453   8.727  1.00  0.00     0.293 HD
ENDBRANCH  15  18
BRANCH  17  20
ATOM     20  O   UNL     1       5.352 -14.467   8.632  1.00  0.00    -0.504 OA
ATOM     21  H   UNL     1       5.512 -13.775   7.909  1.00  0.00     0.293 HD
ENDBRANCH  17  20
ENDBRANCH   1  12
BRANCH   2  22
ATOM     22  O   UNL     1       9.004 -18.100   5.822  1.00  0.00    -0.502 OA
ATOM     23  H   UNL     1       8.580 -19.013   5.928  1.00  0.00     0.293 HD
ENDBRANCH   2  22
BRANCH   6  24
ATOM     24  O   UNL     1      14.312 -17.825   6.162  1.00  0.00    -0.507 OA
ATOM     25  H   UNL     1      14.639 -17.408   5.305  1.00  0.00     0.293 HD
ENDBRANCH   6  24
BRANCH   8  26
ATOM     26  O   UNL     1      14.763 -15.155  10.129  1.00  0.00    -0.508 OA
ATOM     27  H   UNL     1      14.820 -15.449  11.098  1.00  0.00     0.293 HD
ENDBRANCH   8  26
TORSDOF 6
ENDMDL
MODEL 2
REMARK VINA RESULT:    -2.094      1.801      6.640
REMARK INTER + INTRA:          -2.733
REMARK INTER:                  -2.407
REMARK INTRA:                  -0.327
REMARK UNBOUND:                -0.211
REMARK SMILES O=c1c(O)c(-c2ccc(O)c(O)c2)oc2cc(O)cc(O)c12
REMARK SMILES IDX 5 1 3 2 2 3 1 4 22 5 20 6 19 7 17 8 16 9 15 10 14 11 6 12
REMARK SMILES IDX 7 13 8 14 9 15 13 16 11 17 10 18 12 20 4 22 21 24 18 26
REMARK H PARENT 10 19 12 21 4 23 21 25 18 27
REMARK Flexibility Score: inf
ROOT
ATOM      1  C   UNL     1       9.795 -17.303   7.831  1.00  0.00     0.180 A 
ATOM      2  C   UNL     1       9.151 -17.559   6.608  1.00  0.00     0.208 A 
ATOM      3  C   UNL     1       7.772 -17.823   6.606  1.00  0.00     0.238 A 
ATOM      4  O   UNL     1       7.212 -18.106   5.515  1.00  0.00    -0.285 OA
ATOM      5  C   UNL     1       7.052 -17.813   7.825  1.00  0.00     0.111 A 
ATOM      6  C   UNL     1       5.645 -18.029   7.937  1.00  0.00     0.134 A 
ATOM      7  C   UNL     1       5.060 -18.125   9.205  1.00  0.00     0.093 A 
ATOM      8  C   UNL     1       5.819 -17.950  10.365  1.00  0.00     0.123 A 
ATOM      9  C   UNL     1       7.182 -17.681  10.264  1.00  0.00     0.094 A 
ATOM     10  C   UNL     1       7.801 -17.614   9.013  1.00  0.00     0.146 A 
ATOM     11  O   UNL     1       9.104 -17.365   8.963  1.00  0.00    -0.452 OA
ENDROOT
BRANCH   1  12
ATOM     12  C   UNL     1      11.240 -16.992   7.911  1.00  0.00     0.025 A 
ATOM     13  C   UNL     1      12.165 -18.037   8.065  1.00  0.00     0.016 A 
ATOM     14  C   UNL     1      13.531 -17.764   8.163  1.00  0.00     0.051 A 
ATOM     15  C   UNL     1      13.993 -16.441   8.124  1.00  0.00     0.157 A 
ATOM     16  C   UNL     1      11.705 -15.664   7.893  1.00  0.00     0.062 A 
ATOM     17  C   UNL     1      13.074 -15.387   7.993  1.00  0.00     0.158 A 
BRANCH  15  18
ATOM     18  O   UNL     1      15.357 -16.173   8.220  1.00  0.00    -0.504 OA
ATOM     19  H   UNL     1      15.769 -15.813   9.074  1.00  0.00     0.293 HD
ENDBRANCH  15  18
BRANCH  17  20
ATOM     20  O   UNL     1      13.500 -14.060   7.965  1.00  0.00    -0.504 OA
ATOM     21  H   UNL     1      14.070 -13.694   7.212  1.00  0.00     0.293 HD
ENDBRANCH  17  20
ENDBRANCH   1  12
BRANCH   2  22
ATOM     22  O   UNL     1       9.885 -17.587   5.419  1.00  0.00    -0.502 OA
ATOM     23  H   UNL     1       9.919 -18.401   4.819  1.00  0.00     0.293 HD
ENDBRANCH   2  22
BRANCH   6  24
ATOM     24  O   UNL     1       4.781 -18.125   6.841  1.00  0.00    -0.507 OA
ATOM     25  H   UNL     1       3.852 -17.734   6.806  1.00  0.00     0.293 HD
ENDBRANCH   6  24
BRANCH   8  26
ATOM     26  O   UNL     1       5.226 -18.032  11.623  1.00  0.00    -0.508 OA
ATOM     27  H   UNL     1       5.750 -18.336  12.436  1.00  0.00     0.293 HD
ENDBRANCH   8  26
TORSDOF 6
ENDMDL
MODEL 3
REMARK VINA RESULT:    -1.669      1.202      1.423
REMARK INTER + INTRA:          -2.221
REMARK INTER:                  -2.633
REMARK INTRA:                   0.412
REMARK UNBOUND:                -0.211
REMARK SMILES O=c1c(O)c(-c2ccc(O)c(O)c2)oc2cc(O)cc(O)c12
REMARK SMILES IDX 5 1 3 2 2 3 1 4 22 5 20 6 19 7 17 8 16 9 15 10 14 11 6 12
REMARK SMILES IDX 7 13 8 14 9 15 13 16 11 17 10 18 12 20 4 22 21 24 18 26
REMARK H PARENT 10 19 12 21 4 23 21 25 18 27
REMARK Flexibility Score: inf
ROOT
ATOM      1  C   UNL     1       9.449 -17.429   7.993  1.00  0.00     0.180 A 
ATOM      2  C   UNL     1       9.906 -17.702   6.692  1.00  0.00     0.208 A 
ATOM      3  C   UNL     1      11.264 -17.510   6.392  1.00  0.00     0.238 A 
ATOM      4  O   UNL     1      11.656 -17.703   5.212  1.00  0.00    -0.285 OA
ATOM      5  C   UNL     1      12.150 -17.062   7.401  1.00  0.00     0.111 A 
ATOM      6  C   UNL     1      13.553 -16.871   7.220  1.00  0.00     0.134 A 
ATOM      7  C   UNL     1      14.311 -16.300   8.250  1.00  0.00     0.093 A 
ATOM      8  C   UNL     1      13.729 -15.975   9.478  1.00  0.00     0.123 A 
ATOM      9  C   UNL     1      12.372 -16.212   9.684  1.00  0.00     0.094 A 
ATOM     10  C   UNL     1      11.583 -16.747   8.663  1.00  0.00     0.146 A 
ATOM     11  O   UNL     1      10.292 -16.948   8.899  1.00  0.00    -0.452 OA
ENDROOT
BRANCH   1  12
ATOM     12  C   UNL     1       8.037 -17.632   8.391  1.00  0.00     0.025 A 
ATOM     13  C   UNL     1       7.032 -17.605   7.411  1.00  0.00     0.016 A 
ATOM     14  C   UNL     1       5.691 -17.772   7.768  1.00  0.00     0.051 A 
ATOM     15  C   UNL     1       5.334 -17.954   9.111  1.00  0.00     0.157 A 
ATOM     16  C   UNL     1       7.673 -17.794   9.740  1.00  0.00     0.062 A 
ATOM     17  C   UNL     1       6.330 -17.960  10.101  1.00  0.00     0.158 A 
BRANCH  15  18
ATOM     18  O   UNL     1       3.996 -18.123   9.462  1.00  0.00    -0.504 OA
ATOM     19  H   UNL     1       3.257 -18.097   8.769  1.00  0.00     0.293 HD
ENDBRANCH  15  18
BRANCH  17  20
ATOM     20  O   UNL     1       6.006 -18.125  11.447  1.00  0.00    -0.504 OA
ATOM     21  H   UNL     1       6.484 -17.617  12.181  1.00  0.00     0.293 HD
ENDBRANCH  17  20
ENDBRANCH   1  12
BRANCH   2  22
ATOM     22  O   UNL     1       9.008 -18.122   5.705  1.00  0.00    -0.502 OA
ATOM     23  H   UNL     1       8.166 -17.608   5.481  1.00  0.00     0.293 HD
ENDBRANCH   2  22
BRANCH   6  24
ATOM     24  O   UNL     1      14.250 -17.247   6.067  1.00  0.00    -0.507 OA
ATOM     25  H   UNL     1      14.707 -18.136   5.937  1.00  0.00     0.293 HD
ENDBRANCH   6  24
BRANCH   8  26
ATOM     26  O   UNL     1      14.493 -15.422  10.503  1.00  0.00    -0.508 OA
ATOM     27  H   UNL     1      14.076 -14.834  11.216  1.00  0.00     0.293 HD
ENDBRANCH   8  26
TORSDOF 6
ENDMDL
MODEL 4
REMARK VINA RESULT:    -1.418      2.477      3.078
REMARK INTER + INTRA:          -1.919
REMARK INTER:                  -1.966
REMARK INTRA:                   0.046
REMARK UNBOUND:                -0.211
REMARK SMILES O=c1c(O)c(-c2ccc(O)c(O)c2)oc2cc(O)cc(O)c12
REMARK SMILES IDX 5 1 3 2 2 3 1 4 22 5 20 6 19 7 17 8 16 9 15 10 14 11 6 12
REMARK SMILES IDX 7 13 8 14 9 15 13 16 11 17 10 18 12 20 4 22 21 24 18 26
REMARK H PARENT 10 19 12 21 4 23 21 25 18 27
REMARK Flexibility Score: inf
ROOT
ATOM      1  C   UNL     1       9.727 -16.249   8.249  1.00  0.00     0.180 A 
ATOM      2  C   UNL     1      10.858 -16.911   8.758  1.00  0.00     0.208 A 
ATOM      3  C   UNL     1      12.129 -16.355   8.540  1.00  0.00     0.238 A 
ATOM      4  O   UNL     1      13.140 -16.981   8.950  1.00  0.00    -0.285 OA
ATOM      5  C   UNL     1      12.251 -15.137   7.830  1.00  0.00     0.111 A 
ATOM      6  C   UNL     1      13.486 -14.463   7.584  1.00  0.00     0.134 A 
ATOM      7  C   UNL     1      13.503 -13.332   6.759  1.00  0.00     0.093 A 
ATOM      8  C   UNL     1      12.322 -12.813   6.223  1.00  0.00     0.123 A 
ATOM      9  C   UNL     1      11.105 -13.430   6.505  1.00  0.00     0.094 A 
ATOM     10  C   UNL     1      11.060 -14.581   7.296  1.00  0.00     0.146 A 
ATOM     11  O   UNL     1       9.881 -15.143   7.531  1.00  0.00    -0.452 OA
ENDROOT
BRANCH   1  12
ATOM     12  C   UNL     1       8.353 -16.760   8.460  1.00  0.00     0.025 A 
ATOM     13  C   UNL     1       7.437 -16.737   7.397  1.00  0.00     0.016 A 
ATOM     14  C   UNL     1       6.129 -17.194   7.580  1.00  0.00     0.051 A 
ATOM     15  C   UNL     1       5.714 -17.668   8.832  1.00  0.00     0.157 A 
ATOM     16  C   UNL     1       7.927 -17.216   9.721  1.00  0.00     0.062 A 
ATOM     17  C   UNL     1       6.617 -17.674   9.907  1.00  0.00     0.158 A 
BRANCH  15  18
ATOM     18  O   UNL     1       4.410 -18.125   9.010  1.00  0.00    -0.504 OA
ATOM     19  H   UNL     1       4.055 -18.377   9.926  1.00  0.00     0.293 HD
ENDBRANCH  15  18
BRANCH  17  20
ATOM     20  O   UNL     1       6.231 -18.125  11.169  1.00  0.00    -0.504 OA
ATOM     21  H   UNL     1       6.904 -18.444  11.855  1.00  0.00     0.293 HD
ENDBRANCH  17  20
ENDBRANCH   1  12
BRANCH   2  22
ATOM     22  O   UNL     1      10.715 -18.125   9.437  1.00  0.00    -0.502 OA
ATOM     23  H   UNL     1       9.845 -18.408   9.868  1.00  0.00     0.293 HD
ENDBRANCH   2  22
BRANCH   6  24
ATOM     24  O   UNL     1      14.708 -14.844   8.147  1.00  0.00    -0.507 OA
ATOM     25  H   UNL     1      15.357 -14.215   8.591  1.00  0.00     0.293 HD
ENDBRANCH   6  24
BRANCH   8  26
ATOM     26  O   UNL     1      12.345 -11.678   5.415  1.00  0.00    -0.508 OA
ATOM     27  H   UNL     1      13.188 -11.391   4.930  1.00  0.00     0.293 HD
ENDBRANCH   8  26
TORSDOF 6
ENDMDL
MODEL 5
REMARK VINA RESULT:     0.187      1.676      1.979
REMARK INTER + INTRA:           0.015
REMARK INTER:                  -0.441
REMARK INTRA:                   0.457
REMARK UNBOUND:                -0.211
REMARK SMILES O=c1c(O)c(-c2ccc(O)c(O)c2)oc2cc(O)cc(O)c12
REMARK SMILES IDX 5 1 3 2 2 3 1 4 22 5 20 6 19 7 17 8 16 9 15 10 14 11 6 12
REMARK SMILES IDX 7 13 8 14 9 15 13 16 11 17 10 18 12 20 4 22 21 24 18 26
REMARK H PARENT 10 19 12 21 4 23 21 25 18 27
REMARK Flexibility Score: inf
ROOT
ATOM      1  C   UNL     1      10.250 -16.156   7.566  1.00  0.00     0.180 A 
ATOM      2  C   UNL     1      10.864 -17.099   6.723  1.00  0.00     0.208 A 
ATOM      3  C   UNL     1      12.234 -16.970   6.441  1.00  0.00     0.238 A 
ATOM      4  O   UNL     1      12.766 -17.784   5.642  1.00  0.00    -0.285 OA
ATOM      5  C   UNL     1      12.974 -15.909   7.018  1.00  0.00     0.111 A 
ATOM      6  C   UNL     1      14.375 -15.705   6.832  1.00  0.00     0.134 A 
ATOM      7  C   UNL     1      14.978 -14.550   7.345  1.00  0.00     0.093 A 
ATOM      8  C   UNL     1      14.244 -13.624   8.090  1.00  0.00     0.123 A 
ATOM      9  C   UNL     1      12.889 -13.845   8.326  1.00  0.00     0.094 A 
ATOM     10  C   UNL     1      12.252 -14.970   7.798  1.00  0.00     0.146 A 
ATOM     11  O   UNL     1      10.957 -15.137   8.038  1.00  0.00    -0.452 OA
ENDROOT
BRANCH   1  12
ATOM     12  C   UNL     1       8.816 -16.241   7.929  1.00  0.00     0.025 A 
ATOM     13  C   UNL     1       8.322 -15.448   8.976  1.00  0.00     0.016 A 
ATOM     14  C   UNL     1       6.977 -15.528   9.350  1.00  0.00     0.051 A 
ATOM     15  C   UNL     1       6.111 -16.412   8.691  1.00  0.00     0.157 A 
ATOM     16  C   UNL     1       7.950 -17.142   7.284  1.00  0.00     0.062 A 
ATOM     17  C   UNL     1       6.603 -17.225   7.657  1.00  0.00     0.158 A 
BRANCH  15  18
ATOM     18  O   UNL     1       4.771 -16.487   9.065  1.00  0.00    -0.504 OA
ATOM     19  H   UNL     1       4.048 -16.743   8.402  1.00  0.00     0.293 HD
ENDBRANCH  15  18
BRANCH  17  20
ATOM     20  O   UNL     1       5.771 -18.125   6.992  1.00  0.00    -0.504 OA
ATOM     21  H   UNL     1       5.433 -18.972   7.433  1.00  0.00     0.293 HD
ENDBRANCH  17  20
ENDBRANCH   1  12
BRANCH   2  22
ATOM     22  O   UNL     1      10.110 -18.125   6.146  1.00  0.00    -0.502 OA
ATOM     23  H   UNL     1       9.233 -18.442   6.540  1.00  0.00     0.293 HD
ENDBRANCH   2  22
BRANCH   6  24
ATOM     24  O   UNL     1      15.217 -16.614   6.183  1.00  0.00    -0.507 OA
ATOM     25  H   UNL     1      15.929 -17.163   6.637  1.00  0.00     0.293 HD
ENDBRANCH   6  24
BRANCH   8  26
ATOM     26  O   UNL     1      14.855 -12.485   8.610  1.00  0.00    -0.508 OA
ATOM     27  H   UNL     1      14.376 -11.881   9.269  1.00  0.00     0.293 HD
ENDBRANCH   8  26
TORSDOF 6
ENDMDL
