MODEL 1
REMARK VINA RESULT:    -6.537      0.000      0.000
REMARK INTER + INTRA:          -8.198
REMARK INTER:                  -7.874
REMARK INTRA:                  -0.324
REMARK UNBOUND:                -0.324
REMARK SMILES O=c1c(O)c(-c2ccc(O)c(O)c2)oc2cc(O)cc(O)c12
REMARK SMILES IDX 5 1 3 2 2 3 1 4 22 5 20 6 19 7 17 8 16 9 15 10 14 11 6 12
REMARK SMILES IDX 7 13 8 14 9 15 13 16 11 17 10 18 12 20 4 22 21 24 18 26
REMARK H PARENT 10 19 12 21 4 23 21 25 18 27
REMARK Flexibility Score: inf
ROOT
ATOM      1  C   UNL     1     179.257 181.639 175.426  1.00  0.00     0.180 A 
ATOM      2  C   UNL     1     178.044 181.169 174.894  1.00  0.00     0.208 A 
ATOM      3  C   UNL     1     177.441 181.880 173.845  1.00  0.00     0.238 A 
ATOM      4  O   UNL     1     176.383 181.426 173.337  1.00  0.00    -0.285 OA
ATOM      5  C   UNL     1     178.048 183.060 173.352  1.00  0.00     0.111 A 
ATOM      6  C   UNL     1     177.503 183.882 172.320  1.00  0.00     0.134 A 
ATOM      7  C   UNL     1     178.255 184.954 171.822  1.00  0.00     0.093 A 
ATOM      8  C   UNL     1     179.500 185.273 172.362  1.00  0.00     0.123 A 
ATOM      9  C   UNL     1     180.015 184.512 173.413  1.00  0.00     0.094 A 
ATOM     10  C   UNL     1     179.305 183.415 173.906  1.00  0.00     0.146 A 
ATOM     11  O   UNL     1     179.836 182.711 174.899  1.00  0.00    -0.452 OA
ENDROOT
BRANCH   1  12
ATOM     12  C   UNL     1     179.942 180.957 176.549  1.00  0.00     0.025 A 
ATOM     13  C   UNL     1     180.884 179.938 176.322  1.00  0.00     0.016 A 
ATOM     14  C   UNL     1     181.499 179.292 177.397  1.00  0.00     0.051 A 
ATOM     15  C   UNL     1     181.174 179.644 178.714  1.00  0.00     0.157 A 
ATOM     16  C   UNL     1     179.604 181.291 177.871  1.00  0.00     0.062 A 
ATOM     17  C   UNL     1     180.219 180.646 178.950  1.00  0.00     0.158 A 
BRANCH  15  18
ATOM     18  O   UNL     1     181.791 178.999 179.784  1.00  0.00    -0.504 OA
ATOM     19  H   UNL     1     181.626 178.018 179.979  1.00  0.00     0.293 HD
ENDBRANCH  15  18
BRANCH  17  20
ATOM     20  O   UNL     1     179.868 181.015 180.248  1.00  0.00    -0.504 OA
ATOM     21  H   UNL     1     178.971 180.772 180.653  1.00  0.00     0.293 HD
ENDBRANCH  17  20
ENDBRANCH   1  12
BRANCH   2  22
ATOM     22  O   UNL     1     177.473 179.990 175.380  1.00  0.00    -0.502 OA
ATOM     23  H   UNL     1     176.733 179.502 174.890  1.00  0.00     0.293 HD
ENDBRANCH   2  22
BRANCH   6  24
ATOM     24  O   UNL     1     176.228 183.706 171.774  1.00  0.00    -0.507 OA
ATOM     25  H   UNL     1     176.042 183.504 170.803  1.00  0.00     0.293 HD
ENDBRANCH   6  24
BRANCH   8  26
ATOM     26  O   UNL     1     180.212 186.356 171.853  1.00  0.00    -0.508 OA
ATOM     27  H   UNL     1     180.690 186.304 170.961  1.00  0.00     0.293 HD
ENDBRANCH   8  26
TORSDOF 6
ENDMDL
MODEL 2
REMARK VINA RESULT:    -6.520      4.091      6.568
REMARK INTER + INTRA:          -8.178
REMARK INTER:                  -7.855
REMARK INTRA:                  -0.323
REMARK UNBOUND:                -0.324
REMARK SMILES O=c1c(O)c(-c2ccc(O)c(O)c2)oc2cc(O)cc(O)c12
REMARK SMILES IDX 5 1 3 2 2 3 1 4 22 5 20 6 19 7 17 8 16 9 15 10 14 11 6 12
REMARK SMILES IDX 7 13 8 14 9 15 13 16 11 17 10 18 12 20 4 22 21 24 18 26
REMARK H PARENT 10 19 12 21 4 23 21 25 18 27
REMARK Flexibility Score: inf
ROOT
ATOM      1  C   UNL     1     181.483 179.102 175.426  1.00  0.00     0.180 A 
ATOM      2  C   UNL     1     182.698 179.563 174.892  1.00  0.00     0.208 A 
ATOM      3  C   UNL     1     183.297 178.847 173.845  1.00  0.00     0.238 A 
ATOM      4  O   UNL     1     184.358 179.294 173.335  1.00  0.00    -0.285 OA
ATOM      5  C   UNL     1     182.683 177.669 173.356  1.00  0.00     0.111 A 
ATOM      6  C   UNL     1     183.223 176.841 172.326  1.00  0.00     0.134 A 
ATOM      7  C   UNL     1     182.465 175.772 171.831  1.00  0.00     0.093 A 
ATOM      8  C   UNL     1     181.219 175.461 172.372  1.00  0.00     0.123 A 
ATOM      9  C   UNL     1     180.708 176.227 173.421  1.00  0.00     0.094 A 
ATOM     10  C   UNL     1     181.425 177.322 173.911  1.00  0.00     0.146 A 
ATOM     11  O   UNL     1     180.898 178.032 174.902  1.00  0.00    -0.452 OA
ENDROOT
BRANCH   1  12
ATOM     12  C   UNL     1     180.803 179.791 176.548  1.00  0.00     0.025 A 
ATOM     13  C   UNL     1     179.895 180.840 176.320  1.00  0.00     0.016 A 
ATOM     14  C   UNL     1     179.284 181.492 177.393  1.00  0.00     0.051 A 
ATOM     15  C   UNL     1     179.579 181.114 178.711  1.00  0.00     0.157 A 
ATOM     16  C   UNL     1     181.111 179.430 177.870  1.00  0.00     0.062 A 
ATOM     17  C   UNL     1     180.500 180.081 178.948  1.00  0.00     0.158 A 
BRANCH  15  18
ATOM     18  O   UNL     1     178.966 181.765 179.780  1.00  0.00    -0.504 OA
ATOM     19  H   UNL     1     178.049 181.490 180.114  1.00  0.00     0.293 HD
ENDBRANCH  15  18
BRANCH  17  20
ATOM     20  O   UNL     1     180.821 179.685 180.247  1.00  0.00    -0.504 OA
ATOM     21  H   UNL     1     180.485 180.187 181.061  1.00  0.00     0.293 HD
ENDBRANCH  17  20
ENDBRANCH   1  12
BRANCH   2  22
ATOM     22  O   UNL     1     183.276 180.741 175.375  1.00  0.00    -0.502 OA
ATOM     23  H   UNL     1     184.270 180.925 175.311  1.00  0.00     0.293 HD
ENDBRANCH   2  22
BRANCH   6  24
ATOM     24  O   UNL     1     184.499 177.008 171.778  1.00  0.00    -0.507 OA
ATOM     25  H   UNL     1     185.195 177.649 172.127  1.00  0.00     0.293 HD
ENDBRANCH   6  24
BRANCH   8  26
ATOM     26  O   UNL     1     180.500 174.380 171.867  1.00  0.00    -0.508 OA
ATOM     27  H   UNL     1     179.495 174.421 171.750  1.00  0.00     0.293 HD
ENDBRANCH   8  26
TORSDOF 6
ENDMDL
MODEL 3
REMARK VINA RESULT:    -6.400      4.017      6.581
REMARK INTER + INTRA:          -8.034
REMARK INTER:                  -7.708
REMARK INTRA:                  -0.326
REMARK UNBOUND:                -0.324
REMARK SMILES O=c1c(O)c(-c2ccc(O)c(O)c2)oc2cc(O)cc(O)c12
REMARK SMILES IDX 5 1 3 2 2 3 1 4 22 5 20 6 19 7 17 8 16 9 15 10 14 11 6 12
REMARK SMILES IDX 7 13 8 14 9 15 13 16 11 17 10 18 12 20 4 22 21 24 18 26
REMARK H PARENT 10 19 12 21 4 23 21 25 18 27
REMARK Flexibility Score: inf
ROOT
ATOM      1  C   UNL     1     182.483 179.560 174.883  1.00  0.00     0.180 A 
ATOM      2  C   UNL     1     182.697 179.217 176.229  1.00  0.00     0.208 A 
ATOM      3  C   UNL     1     181.745 179.597 177.188  1.00  0.00     0.238 A 
ATOM      4  O   UNL     1     181.916 179.240 178.383  1.00  0.00    -0.285 OA
ATOM      5  C   UNL     1     180.601 180.330 176.793  1.00  0.00     0.111 A 
ATOM      6  C   UNL     1     179.593 180.803 177.687  1.00  0.00     0.134 A 
ATOM      7  C   UNL     1     178.438 181.404 177.169  1.00  0.00     0.093 A 
ATOM      8  C   UNL     1     178.285 181.609 175.799  1.00  0.00     0.123 A 
ATOM      9  C   UNL     1     179.292 181.204 174.921  1.00  0.00     0.094 A 
ATOM     10  C   UNL     1     180.439 180.569 175.404  1.00  0.00     0.146 A 
ATOM     11  O   UNL     1     181.367 180.190 174.534  1.00  0.00    -0.452 OA
ENDROOT
BRANCH   1  12
ATOM     12  C   UNL     1     183.452 179.215 173.817  1.00  0.00     0.025 A 
ATOM     13  C   UNL     1     184.571 180.025 173.556  1.00  0.00     0.016 A 
ATOM     14  C   UNL     1     185.459 179.694 172.530  1.00  0.00     0.051 A 
ATOM     15  C   UNL     1     185.237 178.557 171.741  1.00  0.00     0.157 A 
ATOM     16  C   UNL     1     183.222 178.089 173.011  1.00  0.00     0.062 A 
ATOM     17  C   UNL     1     184.111 177.753 171.982  1.00  0.00     0.158 A 
BRANCH  15  18
ATOM     18  O   UNL     1     186.126 178.228 170.720  1.00  0.00    -0.504 OA
ATOM     19  H   UNL     1     186.680 177.380 170.751  1.00  0.00     0.293 HD
ENDBRANCH  15  18
BRANCH  17  20
ATOM     20  O   UNL     1     183.856 176.619 171.212  1.00  0.00    -0.504 OA
ATOM     21  H   UNL     1     184.518 176.275 170.525  1.00  0.00     0.293 HD
ENDBRANCH  17  20
ENDBRANCH   1  12
BRANCH   2  22
ATOM     22  O   UNL     1     183.822 178.473 176.594  1.00  0.00    -0.502 OA
ATOM     23  H   UNL     1     184.139 177.670 176.064  1.00  0.00     0.293 HD
ENDBRANCH   2  22
BRANCH   6  24
ATOM     24  O   UNL     1     179.689 180.731 179.080  1.00  0.00    -0.507 OA
ATOM     25  H   UNL     1     179.912 181.509 179.681  1.00  0.00     0.293 HD
ENDBRANCH   6  24
BRANCH   8  26
ATOM     26  O   UNL     1     177.131 182.225 175.321  1.00  0.00    -0.508 OA
ATOM     27  H   UNL     1     176.449 181.718 174.769  1.00  0.00     0.293 HD
ENDBRANCH   8  26
TORSDOF 6
ENDMDL
MODEL 4
REMARK VINA RESULT:    -6.394      1.993      6.874
REMARK INTER + INTRA:          -8.026
REMARK INTER:                  -7.697
REMARK INTRA:                  -0.328
REMARK UNBOUND:                -0.324
REMARK SMILES O=c1c(O)c(-c2ccc(O)c(O)c2)oc2cc(O)cc(O)c12
REMARK SMILES IDX 5 1 3 2 2 3 1 4 22 5 20 6 19 7 17 8 16 9 15 10 14 11 6 12
REMARK SMILES IDX 7 13 8 14 9 15 13 16 11 17 10 18 12 20 4 22 21 24 18 26
REMARK H PARENT 10 19 12 21 4 23 21 25 18 27
REMARK Flexibility Score: inf
ROOT
ATOM      1  C   UNL     1     178.220 181.148 174.881  1.00  0.00     0.180 A 
ATOM      2  C   UNL     1     177.974 181.499 176.220  1.00  0.00     0.208 A 
ATOM      3  C   UNL     1     178.904 181.128 177.203  1.00  0.00     0.238 A 
ATOM      4  O   UNL     1     178.705 181.492 178.392  1.00  0.00    -0.285 OA
ATOM      5  C   UNL     1     180.060 180.396 176.840  1.00  0.00     0.111 A 
ATOM      6  C   UNL     1     181.047 179.932 177.760  1.00  0.00     0.134 A 
ATOM      7  C   UNL     1     182.216 179.331 177.273  1.00  0.00     0.093 A 
ATOM      8  C   UNL     1     182.401 179.118 175.908  1.00  0.00     0.123 A 
ATOM      9  C   UNL     1     181.414 179.514 175.004  1.00  0.00     0.094 A 
ATOM     10  C   UNL     1     180.255 180.149 175.456  1.00  0.00     0.146 A 
ATOM     11  O   UNL     1     179.345 180.519 174.563  1.00  0.00    -0.452 OA
ENDROOT
BRANCH   1  12
ATOM     12  C   UNL     1     177.275 181.483 173.791  1.00  0.00     0.025 A 
ATOM     13  C   UNL     1     176.175 180.658 173.497  1.00  0.00     0.016 A 
ATOM     14  C   UNL     1     175.310 180.980 172.449  1.00  0.00     0.051 A 
ATOM     15  C   UNL     1     175.537 182.124 171.670  1.00  0.00     0.157 A 
ATOM     16  C   UNL     1     177.510 182.616 172.995  1.00  0.00     0.062 A 
ATOM     17  C   UNL     1     176.645 182.943 171.944  1.00  0.00     0.158 A 
BRANCH  15  18
ATOM     18  O   UNL     1     174.672 182.444 170.627  1.00  0.00    -0.504 OA
ATOM     19  H   UNL     1     173.991 181.779 170.278  1.00  0.00     0.293 HD
ENDBRANCH  15  18
BRANCH  17  20
ATOM     20  O   UNL     1     176.903 184.084 171.185  1.00  0.00    -0.504 OA
ATOM     21  H   UNL     1     177.845 184.360 170.932  1.00  0.00     0.293 HD
ENDBRANCH  17  20
ENDBRANCH   1  12
BRANCH   2  22
ATOM     22  O   UNL     1     176.838 182.242 176.554  1.00  0.00    -0.502 OA
ATOM     23  H   UNL     1     176.435 182.930 175.930  1.00  0.00     0.293 HD
ENDBRANCH   2  22
BRANCH   6  24
ATOM     24  O   UNL     1     180.919 180.012 179.150  1.00  0.00    -0.507 OA
ATOM     25  H   UNL     1     180.204 180.535 179.631  1.00  0.00     0.293 HD
ENDBRANCH   6  24
BRANCH   8  26
ATOM     26  O   UNL     1     183.568 178.502 175.461  1.00  0.00    -0.508 OA
ATOM     27  H   UNL     1     184.230 178.090 176.108  1.00  0.00     0.293 HD
ENDBRANCH   8  26
TORSDOF 6
ENDMDL
MODEL 5
REMARK VINA RESULT:    -6.119      1.272      2.915
REMARK INTER + INTRA:          -7.694
REMARK INTER:                  -7.361
REMARK INTRA:                  -0.334
REMARK UNBOUND:                -0.324
REMARK SMILES O=c1c(O)c(-c2ccc(O)c(O)c2)oc2cc(O)cc(O)c12
REMARK SMILES IDX 5 1 3 2 2 3 1 4 22 5 20 6 19 7 17 8 16 9 15 10 14 11 6 12
REMARK SMILES IDX 7 13 8 14 9 15 13 16 11 17 10 18 12 20 4 22 21 24 18 26
REMARK H PARENT 10 19 12 21 4 23 21 25 18 27
REMARK Flexibility Score: inf
ROOT
ATOM      1  C   UNL     1     180.032 182.433 175.076  1.00  0.00     0.180 A 
ATOM      2  C   UNL     1     180.805 183.529 174.656  1.00  0.00     0.208 A 
ATOM      3  C   UNL     1     180.371 184.287 173.558  1.00  0.00     0.238 A 
ATOM      4  O   UNL     1     181.038 185.299 173.220  1.00  0.00    -0.285 OA
ATOM      5  C   UNL     1     179.180 183.929 172.881  1.00  0.00     0.111 A 
ATOM      6  C   UNL     1     178.668 184.601 171.730  1.00  0.00     0.134 A 
ATOM      7  C   UNL     1     177.413 184.243 171.223  1.00  0.00     0.093 A 
ATOM      8  C   UNL     1     176.682 183.195 171.782  1.00  0.00     0.123 A 
ATOM      9  C   UNL     1     177.201 182.492 172.871  1.00  0.00     0.094 A 
ATOM     10  C   UNL     1     178.434 182.850 173.422  1.00  0.00     0.146 A 
ATOM     11  O   UNL     1     178.886 182.163 174.463  1.00  0.00    -0.452 OA
ENDROOT
BRANCH   1  12
ATOM     12  C   UNL     1     180.437 181.572 176.212  1.00  0.00     0.025 A 
ATOM     13  C   UNL     1     181.283 180.464 176.026  1.00  0.00     0.016 A 
ATOM     14  C   UNL     1     181.632 179.652 177.107  1.00  0.00     0.051 A 
ATOM     15  C   UNL     1     181.132 179.925 178.388  1.00  0.00     0.157 A 
ATOM     16  C   UNL     1     179.921 181.830 177.493  1.00  0.00     0.062 A 
ATOM     17  C   UNL     1     180.270 181.018 178.579  1.00  0.00     0.158 A 
BRANCH  15  18
ATOM     18  O   UNL     1     181.483 179.114 179.465  1.00  0.00    -0.504 OA
ATOM     19  H   UNL     1     180.783 178.632 180.017  1.00  0.00     0.293 HD
ENDBRANCH  15  18
BRANCH  17  20
ATOM     20  O   UNL     1     179.749 181.314 179.839  1.00  0.00    -0.504 OA
ATOM     21  H   UNL     1     178.859 181.783 179.957  1.00  0.00     0.293 HD
ENDBRANCH  17  20
ENDBRANCH   1  12
BRANCH   2  22
ATOM     22  O   UNL     1     181.966 183.879 175.352  1.00  0.00    -0.502 OA
ATOM     23  H   UNL     1     182.641 183.191 175.663  1.00  0.00     0.293 HD
ENDBRANCH   2  22
BRANCH   6  24
ATOM     24  O   UNL     1     179.359 185.601 171.039  1.00  0.00    -0.507 OA
ATOM     25  H   UNL     1     179.046 186.554 170.942  1.00  0.00     0.293 HD
ENDBRANCH   6  24
BRANCH   8  26
ATOM     26  O   UNL     1     175.444 182.855 171.241  1.00  0.00    -0.508 OA
ATOM     27  H   UNL     1     174.753 183.561 171.016  1.00  0.00     0.293 HD
ENDBRANCH   8  26
TORSDOF 6
ENDMDL
MODEL 6
REMARK VINA RESULT:    -6.108      4.273      6.000
REMARK INTER + INTRA:          -7.681
REMARK INTER:                  -7.348
REMARK INTRA:                  -0.333
REMARK UNBOUND:                -0.324
REMARK SMILES O=c1c(O)c(-c2ccc(O)c(O)c2)oc2cc(O)cc(O)c12
REMARK SMILES IDX 5 1 3 2 2 3 1 4 22 5 20 6 19 7 17 8 16 9 15 10 14 11 6 12
REMARK SMILES IDX 7 13 8 14 9 15 13 16 11 17 10 18 12 20 4 22 21 24 18 26
REMARK H PARENT 10 19 12 21 4 23 21 25 18 27
REMARK Flexibility Score: inf
ROOT
ATOM      1  C   UNL     1     180.726 178.329 175.094  1.00  0.00     0.180 A 
ATOM      2  C   UNL     1     179.955 177.234 174.664  1.00  0.00     0.208 A 
ATOM      3  C   UNL     1     180.395 176.484 173.563  1.00  0.00     0.238 A 
ATOM      4  O   UNL     1     179.730 175.473 173.215  1.00  0.00    -0.285 OA
ATOM      5  C   UNL     1     181.588 176.847 172.893  1.00  0.00     0.111 A 
ATOM      6  C   UNL     1     182.105 176.183 171.740  1.00  0.00     0.134 A 
ATOM      7  C   UNL     1     183.362 176.546 171.240  1.00  0.00     0.093 A 
ATOM      8  C   UNL     1     184.090 177.590 171.809  1.00  0.00     0.123 A 
ATOM      9  C   UNL     1     183.565 178.286 172.900  1.00  0.00     0.094 A 
ATOM     10  C   UNL     1     182.331 177.923 173.444  1.00  0.00     0.146 A 
ATOM     11  O   UNL     1     181.874 178.604 174.487  1.00  0.00    -0.452 OA
ENDROOT
BRANCH   1  12
ATOM     12  C   UNL     1     180.316 179.182 176.234  1.00  0.00     0.025 A 
ATOM     13  C   UNL     1     179.457 180.281 176.053  1.00  0.00     0.016 A 
ATOM     14  C   UNL     1     179.104 181.087 177.138  1.00  0.00     0.051 A 
ATOM     15  C   UNL     1     179.610 180.815 178.416  1.00  0.00     0.157 A 
ATOM     16  C   UNL     1     180.838 178.926 177.512  1.00  0.00     0.062 A 
ATOM     17  C   UNL     1     180.484 179.731 178.602  1.00  0.00     0.158 A 
BRANCH  15  18
ATOM     18  O   UNL     1     179.254 181.619 179.497  1.00  0.00    -0.504 OA
ATOM     19  H   UNL     1     179.151 182.623 179.401  1.00  0.00     0.293 HD
ENDBRANCH  15  18
BRANCH  17  20
ATOM     20  O   UNL     1     181.012 179.437 179.859  1.00  0.00    -0.504 OA
ATOM     21  H   UNL     1     180.611 178.725 180.458  1.00  0.00     0.293 HD
ENDBRANCH  17  20
ENDBRANCH   1  12
BRANCH   2  22
ATOM     22  O   UNL     1     178.792 176.879 175.353  1.00  0.00    -0.502 OA
ATOM     23  H   UNL     1     178.062 176.316 174.934  1.00  0.00     0.293 HD
ENDBRANCH   2  22
BRANCH   6  24
ATOM     24  O   UNL     1     181.418 175.187 171.039  1.00  0.00    -0.507 OA
ATOM     25  H   UNL     1     180.438 175.222 170.803  1.00  0.00     0.293 HD
ENDBRANCH   6  24
BRANCH   8  26
ATOM     26  O   UNL     1     185.329 177.935 171.275  1.00  0.00    -0.508 OA
ATOM     27  H   UNL     1     185.463 178.798 170.762  1.00  0.00     0.293 HD
ENDBRANCH   8  26
TORSDOF 6
ENDMDL
MODEL 7
REMARK VINA RESULT:    -6.081      2.328      3.102
REMARK INTER + INTRA:          -7.649
REMARK INTER:                  -7.397
REMARK INTRA:                  -0.252
REMARK UNBOUND:                -0.324
REMARK SMILES O=c1c(O)c(-c2ccc(O)c(O)c2)oc2cc(O)cc(O)c12
REMARK SMILES IDX 5 1 3 2 2 3 1 4 22 5 20 6 19 7 17 8 16 9 15 10 14 11 6 12
REMARK SMILES IDX 7 13 8 14 9 15 13 16 11 17 10 18 12 20 4 22 21 24 18 26
REMARK H PARENT 10 19 12 21 4 23 21 25 18 27
REMARK Flexibility Score: inf
ROOT
ATOM      1  C   UNL     1     180.984 182.192 175.356  1.00  0.00     0.180 A 
ATOM      2  C   UNL     1     179.942 182.512 174.469  1.00  0.00     0.208 A 
ATOM      3  C   UNL     1     180.202 183.379 173.397  1.00  0.00     0.238 A 
ATOM      4  O   UNL     1     179.279 183.619 172.576  1.00  0.00    -0.285 OA
ATOM      5  C   UNL     1     181.496 183.929 173.233  1.00  0.00     0.111 A 
ATOM      6  C   UNL     1     181.861 184.851 172.207  1.00  0.00     0.134 A 
ATOM      7  C   UNL     1     183.203 185.228 172.062  1.00  0.00     0.093 A 
ATOM      8  C   UNL     1     184.179 184.769 172.946  1.00  0.00     0.123 A 
ATOM      9  C   UNL     1     183.822 183.915 173.991  1.00  0.00     0.094 A 
ATOM     10  C   UNL     1     182.498 183.492 174.138  1.00  0.00     0.146 A 
ATOM     11  O   UNL     1     182.203 182.671 175.138  1.00  0.00    -0.452 OA
ENDROOT
BRANCH   1  12
ATOM     12  C   UNL     1     180.781 181.304 176.524  1.00  0.00     0.025 A 
ATOM     13  C   UNL     1     181.243 179.975 176.522  1.00  0.00     0.016 A 
ATOM     14  C   UNL     1     181.019 179.148 177.625  1.00  0.00     0.051 A 
ATOM     15  C   UNL     1     180.320 179.630 178.741  1.00  0.00     0.157 A 
ATOM     16  C   UNL     1     180.063 181.775 177.635  1.00  0.00     0.062 A 
ATOM     17  C   UNL     1     179.837 180.949 178.743  1.00  0.00     0.158 A 
BRANCH  15  18
ATOM     18  O   UNL     1     180.099 178.803 179.840  1.00  0.00    -0.504 OA
ATOM     19  H   UNL     1     180.185 179.148 180.790  1.00  0.00     0.293 HD
ENDBRANCH  15  18
BRANCH  17  20
ATOM     20  O   UNL     1     179.132 181.458 179.833  1.00  0.00    -0.504 OA
ATOM     21  H   UNL     1     179.425 181.290 180.789  1.00  0.00     0.293 HD
ENDBRANCH  17  20
ENDBRANCH   1  12
BRANCH   2  22
ATOM     22  O   UNL     1     178.677 181.940 174.636  1.00  0.00    -0.502 OA
ATOM     23  H   UNL     1     178.037 181.802 173.864  1.00  0.00     0.293 HD
ENDBRANCH   2  22
BRANCH   6  24
ATOM     24  O   UNL     1     180.949 185.441 171.327  1.00  0.00    -0.507 OA
ATOM     25  H   UNL     1     181.172 185.760 170.397  1.00  0.00     0.293 HD
ENDBRANCH   6  24
BRANCH   8  26
ATOM     26  O   UNL     1     185.500 185.178 172.782  1.00  0.00    -0.508 OA
ATOM     27  H   UNL     1     185.742 186.155 172.669  1.00  0.00     0.293 HD
ENDBRANCH   8  26
TORSDOF 6
ENDMDL
MODEL 8
REMARK VINA RESULT:    -5.984      5.719      8.323
REMARK INTER + INTRA:          -7.532
REMARK INTER:                  -7.217
REMARK INTRA:                  -0.316
REMARK UNBOUND:                -0.324
REMARK SMILES O=c1c(O)c(-c2ccc(O)c(O)c2)oc2cc(O)cc(O)c12
REMARK SMILES IDX 5 1 3 2 2 3 1 4 22 5 20 6 19 7 17 8 16 9 15 10 14 11 6 12
REMARK SMILES IDX 7 13 8 14 9 15 13 16 11 17 10 18 12 20 4 22 21 24 18 26
REMARK H PARENT 10 19 12 21 4 23 21 25 18 27
REMARK Flexibility Score: inf
ROOT
ATOM      1  C   UNL     1     177.577 176.657 172.286  1.00  0.00     0.180 A 
ATOM      2  C   UNL     1     178.800 176.275 172.862  1.00  0.00     0.208 A 
ATOM      3  C   UNL     1     179.353 177.071 173.877  1.00  0.00     0.238 A 
ATOM      4  O   UNL     1     180.422 176.696 174.426  1.00  0.00    -0.285 OA
ATOM      5  C   UNL     1     178.685 178.249 174.291  1.00  0.00     0.111 A 
ATOM      6  C   UNL     1     179.175 179.153 175.281  1.00  0.00     0.134 A 
ATOM      7  C   UNL     1     178.367 180.216 175.705  1.00  0.00     0.093 A 
ATOM      8  C   UNL     1     177.119 180.446 175.129  1.00  0.00     0.123 A 
ATOM      9  C   UNL     1     176.656 179.603 174.117  1.00  0.00     0.094 A 
ATOM     10  C   UNL     1     177.423 178.513 173.699  1.00  0.00     0.146 A 
ATOM     11  O   UNL     1     176.942 177.730 172.742  1.00  0.00    -0.452 OA
ENDROOT
BRANCH   1  12
ATOM     12  C   UNL     1     176.943 175.881 171.195  1.00  0.00     0.025 A 
ATOM     13  C   UNL     1     177.353 176.029 169.858  1.00  0.00     0.016 A 
ATOM     14  C   UNL     1     176.724 175.305 168.842  1.00  0.00     0.051 A 
ATOM     15  C   UNL     1     175.670 174.432 169.143  1.00  0.00     0.157 A 
ATOM     16  C   UNL     1     175.872 175.021 171.489  1.00  0.00     0.062 A 
ATOM     17  C   UNL     1     175.240 174.293 170.473  1.00  0.00     0.158 A 
BRANCH  15  18
ATOM     18  O   UNL     1     175.046 173.710 168.128  1.00  0.00    -0.504 OA
ATOM     19  H   UNL     1     175.580 173.222 167.418  1.00  0.00     0.293 HD
ENDBRANCH  15  18
BRANCH  17  20
ATOM     20  O   UNL     1     174.190 173.439 170.806  1.00  0.00    -0.504 OA
ATOM     21  H   UNL     1     174.013 172.580 170.298  1.00  0.00     0.293 HD
ENDBRANCH  17  20
ENDBRANCH   1  12
BRANCH   2  22
ATOM     22  O   UNL     1     179.432 175.096 172.454  1.00  0.00    -0.502 OA
ATOM     23  H   UNL     1     179.662 174.909 171.486  1.00  0.00     0.293 HD
ENDBRANCH   2  22
BRANCH   6  24
ATOM     24  O   UNL     1     180.446 179.067 175.856  1.00  0.00    -0.507 OA
ATOM     25  H   UNL     1     180.640 179.170 176.840  1.00  0.00     0.293 HD
ENDBRANCH   6  24
BRANCH   8  26
ATOM     26  O   UNL     1     176.350 181.523 175.564  1.00  0.00    -0.508 OA
ATOM     27  H   UNL     1     176.501 181.950 176.470  1.00  0.00     0.293 HD
ENDBRANCH   8  26
TORSDOF 6
ENDMDL
MODEL 9
REMARK VINA RESULT:    -5.974      4.238      8.249
REMARK INTER + INTRA:          -7.520
REMARK INTER:                  -7.198
REMARK INTRA:                  -0.322
REMARK UNBOUND:                -0.324
REMARK SMILES O=c1c(O)c(-c2ccc(O)c(O)c2)oc2cc(O)cc(O)c12
REMARK SMILES IDX 5 1 3 2 2 3 1 4 22 5 20 6 19 7 17 8 16 9 15 10 14 11 6 12
REMARK SMILES IDX 7 13 8 14 9 15 13 16 11 17 10 18 12 20 4 22 21 24 18 26
REMARK H PARENT 10 19 12 21 4 23 21 25 18 27
REMARK Flexibility Score: inf
ROOT
ATOM      1  C   UNL     1     183.120 184.100 172.257  1.00  0.00     0.180 A 
ATOM      2  C   UNL     1     181.891 184.480 172.826  1.00  0.00     0.208 A 
ATOM      3  C   UNL     1     181.336 183.685 173.840  1.00  0.00     0.238 A 
ATOM      4  O   UNL     1     180.263 184.058 174.383  1.00  0.00    -0.285 OA
ATOM      5  C   UNL     1     182.006 182.511 174.262  1.00  0.00     0.111 A 
ATOM      6  C   UNL     1     181.514 181.608 175.253  1.00  0.00     0.134 A 
ATOM      7  C   UNL     1     182.323 180.549 175.684  1.00  0.00     0.093 A 
ATOM      8  C   UNL     1     183.575 180.321 175.116  1.00  0.00     0.123 A 
ATOM      9  C   UNL     1     184.040 181.162 174.103  1.00  0.00     0.094 A 
ATOM     10  C   UNL     1     183.272 182.249 173.678  1.00  0.00     0.146 A 
ATOM     11  O   UNL     1     183.756 183.030 172.720  1.00  0.00    -0.452 OA
ENDROOT
BRANCH   1  12
ATOM     12  C   UNL     1     183.756 184.874 171.167  1.00  0.00     0.025 A 
ATOM     13  C   UNL     1     183.376 184.698 169.825  1.00  0.00     0.016 A 
ATOM     14  C   UNL     1     184.007 185.421 168.811  1.00  0.00     0.051 A 
ATOM     15  C   UNL     1     185.036 186.322 169.118  1.00  0.00     0.157 A 
ATOM     16  C   UNL     1     184.803 185.762 171.469  1.00  0.00     0.062 A 
ATOM     17  C   UNL     1     185.437 186.489 170.455  1.00  0.00     0.158 A 
BRANCH  15  18
ATOM     18  O   UNL     1     185.663 187.043 168.105  1.00  0.00    -0.504 OA
ATOM     19  H   UNL     1     186.508 187.575 168.276  1.00  0.00     0.293 HD
ENDBRANCH  15  18
BRANCH  17  20
ATOM     20  O   UNL     1     186.462 187.372 170.795  1.00  0.00    -0.504 OA
ATOM     21  H   UNL     1     186.276 188.320 171.101  1.00  0.00     0.293 HD
ENDBRANCH  17  20
ENDBRANCH   1  12
BRANCH   2  22
ATOM     22  O   UNL     1     181.258 185.655 172.411  1.00  0.00    -0.502 OA
ATOM     23  H   UNL     1     181.600 186.213 171.638  1.00  0.00     0.293 HD
ENDBRANCH   2  22
BRANCH   6  24
ATOM     24  O   UNL     1     180.239 181.692 175.820  1.00  0.00    -0.507 OA
ATOM     25  H   UNL     1     180.025 182.160 176.687  1.00  0.00     0.293 HD
ENDBRANCH   6  24
BRANCH   8  26
ATOM     26  O   UNL     1     184.345 179.248 175.558  1.00  0.00    -0.508 OA
ATOM     27  H   UNL     1     185.353 179.317 175.635  1.00  0.00     0.293 HD
ENDBRANCH   8  26
TORSDOF 6
ENDMDL
