MODEL 1
REMARK VINA RESULT:    -6.664      0.000      0.000
REMARK INTER + INTRA:          -6.858
REMARK INTER:                  -6.858
REMARK INTRA:                   0.000
REMARK UNBOUND:                 0.000
REMARK SMILES O=c1ccc2ccc(O)cc2o1
REMARK SMILES IDX 6 1 7 2 8 3 10 4 11 5 5 6 4 7 3 8 2 9 1 10 12 11 9 12
REMARK H PARENT 9 13
REMARK Flexibility Score: inf
ROOT
ATOM      1  C   UNL     1     -12.500  62.844  39.032  1.00  0.00     0.016 A 
ATOM      2  C   UNL     1     -11.358  62.258  39.587  1.00  0.00     0.047 A 
ATOM      3  C   UNL     1     -11.409  60.950  40.095  1.00  0.00     0.119 A 
ATOM      4  C   UNL     1     -12.608  60.229  40.045  1.00  0.00     0.094 A 
ATOM      5  C   UNL     1     -13.755  60.806  39.490  1.00  0.00     0.142 A 
ATOM      6  C   UNL     1     -13.701  62.123  38.980  1.00  0.00     0.018 A 
ATOM      7  C   UNL     1     -14.863  62.673  38.432  1.00  0.00     0.019 A 
ATOM      8  C   UNL     1     -16.033  61.915  38.404  1.00  0.00     0.094 A 
ATOM      9  C   UNL     1     -16.012  60.617  38.928  1.00  0.00     0.336 A 
ATOM     10  O   UNL     1     -17.058  59.917  38.912  1.00  0.00    -0.246 OA
ATOM     11  O   UNL     1     -14.893  60.117  39.444  1.00  0.00    -0.423 OA
ENDROOT
BRANCH   3  12
ATOM     12  O   UNL     1     -10.276  60.361  40.651  1.00  0.00    -0.508 OA
ATOM     13  H   UNL     1     -10.339  59.751  41.457  1.00  0.00     0.293 HD
ENDBRANCH   3  12
TORSDOF 1
ENDMDL
MODEL 2
REMARK VINA RESULT:    -6.256      0.994      4.269
REMARK INTER + INTRA:          -6.439
REMARK INTER:                  -6.439
REMARK INTRA:                   0.000
REMARK UNBOUND:                 0.000
REMARK SMILES O=c1ccc2ccc(O)cc2o1
REMARK SMILES IDX 6 1 7 2 8 3 10 4 11 5 5 6 4 7 3 8 2 9 1 10 12 11 9 12
REMARK H PARENT 9 13
REMARK Flexibility Score: inf
ROOT
ATOM      1  C   UNL     1     -14.681  62.893  38.504  1.00  0.00     0.016 A 
ATOM      2  C   UNL     1     -15.659  61.921  38.273  1.00  0.00     0.047 A 
ATOM      3  C   UNL     1     -15.363  60.561  38.459  1.00  0.00     0.119 A 
ATOM      4  C   UNL     1     -14.083  60.177  38.877  1.00  0.00     0.094 A 
ATOM      5  C   UNL     1     -13.098  61.143  39.111  1.00  0.00     0.142 A 
ATOM      6  C   UNL     1     -13.399  62.511  38.923  1.00  0.00     0.018 A 
ATOM      7  C   UNL     1     -12.396  63.453  39.165  1.00  0.00     0.019 A 
ATOM      8  C   UNL     1     -11.137  63.021  39.580  1.00  0.00     0.094 A 
ATOM      9  C   UNL     1     -10.911  61.650  39.745  1.00  0.00     0.336 A 
ATOM     10  O   UNL     1      -9.781  61.240  40.120  1.00  0.00    -0.246 OA
ATOM     11  O   UNL     1     -11.883  60.773  39.508  1.00  0.00    -0.423 OA
ENDROOT
BRANCH   3  12
ATOM     12  O   UNL     1     -16.332  59.587  38.230  1.00  0.00    -0.508 OA
ATOM     13  H   UNL     1     -16.696  59.016  38.983  1.00  0.00     0.293 HD
ENDBRANCH   3  12
TORSDOF 1
ENDMDL
MODEL 3
REMARK VINA RESULT:    -6.149     17.994     18.895
REMARK INTER + INTRA:          -6.329
REMARK INTER:                  -6.329
REMARK INTRA:                   0.000
REMARK UNBOUND:                 0.000
REMARK SMILES O=c1ccc2ccc(O)cc2o1
REMARK SMILES IDX 6 1 7 2 8 3 10 4 11 5 5 6 4 7 3 8 2 9 1 10 12 11 9 12
REMARK H PARENT 9 13
REMARK Flexibility Score: inf
ROOT
ATOM      1  C   UNL     1     -11.512  51.360  53.256  1.00  0.00     0.016 A 
ATOM      2  C   UNL     1     -10.315  51.492  53.969  1.00  0.00     0.047 A 
ATOM      3  C   UNL     1      -9.904  50.484  54.854  1.00  0.00     0.119 A 
ATOM      4  C   UNL     1     -10.694  49.341  55.025  1.00  0.00     0.094 A 
ATOM      5  C   UNL     1     -11.892  49.200  54.316  1.00  0.00     0.142 A 
ATOM      6  C   UNL     1     -12.304  50.216  53.425  1.00  0.00     0.018 A 
ATOM      7  C   UNL     1     -13.504  50.047  52.731  1.00  0.00     0.019 A 
ATOM      8  C   UNL     1     -14.256  48.891  52.935  1.00  0.00     0.094 A 
ATOM      9  C   UNL     1     -13.787  47.926  53.833  1.00  0.00     0.336 A 
ATOM     10  O   UNL     1     -14.451  46.875  54.030  1.00  0.00    -0.246 OA
ATOM     11  O   UNL     1     -12.640  48.111  54.482  1.00  0.00    -0.423 OA
ENDROOT
BRANCH   3  12
ATOM     12  O   UNL     1      -8.714  50.609  55.568  1.00  0.00    -0.508 OA
ATOM     13  H   UNL     1      -8.567  51.369  56.222  1.00  0.00     0.293 HD
ENDBRANCH   3  12
TORSDOF 1
ENDMDL
MODEL 4
REMARK VINA RESULT:    -6.092     18.102     19.948
REMARK INTER + INTRA:          -6.270
REMARK INTER:                  -6.270
REMARK INTRA:                   0.000
REMARK UNBOUND:                 0.000
REMARK SMILES O=c1ccc2ccc(O)cc2o1
REMARK SMILES IDX 6 1 7 2 8 3 10 4 11 5 5 6 4 7 3 8 2 9 1 10 12 11 9 12
REMARK H PARENT 9 13
REMARK Flexibility Score: inf
ROOT
ATOM      1  C   UNL     1     -12.293  48.858  54.391  1.00  0.00     0.016 A 
ATOM      2  C   UNL     1     -12.802  49.867  53.566  1.00  0.00     0.047 A 
ATOM      3  C   UNL     1     -12.006  50.971  53.226  1.00  0.00     0.119 A 
ATOM      4  C   UNL     1     -10.697  51.065  53.713  1.00  0.00     0.094 A 
ATOM      5  C   UNL     1     -10.179  50.061  54.539  1.00  0.00     0.142 A 
ATOM      6  C   UNL     1     -10.983  48.949  54.880  1.00  0.00     0.018 A 
ATOM      7  C   UNL     1     -10.439  47.962  55.706  1.00  0.00     0.019 A 
ATOM      8  C   UNL     1      -9.129  48.100  56.166  1.00  0.00     0.094 A 
ATOM      9  C   UNL     1      -8.392  49.227  55.787  1.00  0.00     0.336 A 
ATOM     10  O   UNL     1      -7.209  49.369  56.192  1.00  0.00    -0.246 OA
ATOM     11  O   UNL     1      -8.934  50.153  55.000  1.00  0.00    -0.423 OA
ENDROOT
BRANCH   3  12
ATOM     12  O   UNL     1     -12.506  51.980  52.405  1.00  0.00    -0.508 OA
ATOM     13  H   UNL     1     -12.013  52.278  51.573  1.00  0.00     0.293 HD
ENDBRANCH   3  12
TORSDOF 1
ENDMDL
MODEL 5
REMARK VINA RESULT:    -6.079      1.855      2.692
REMARK INTER + INTRA:          -6.257
REMARK INTER:                  -6.257
REMARK INTRA:                   0.000
REMARK UNBOUND:                 0.000
REMARK SMILES O=c1ccc2ccc(O)cc2o1
REMARK SMILES IDX 6 1 7 2 8 3 10 4 11 5 5 6 4 7 3 8 2 9 1 10 12 11 9 12
REMARK H PARENT 9 13
REMARK Flexibility Score: inf
ROOT
ATOM      1  C   UNL     1     -11.154  60.740  40.396  1.00  0.00     0.016 A 
ATOM      2  C   UNL     1      -9.968  61.457  40.211  1.00  0.00     0.047 A 
ATOM      3  C   UNL     1      -9.973  62.658  39.485  1.00  0.00     0.119 A 
ATOM      4  C   UNL     1     -11.170  63.140  38.943  1.00  0.00     0.094 A 
ATOM      5  C   UNL     1     -12.362  62.430  39.122  1.00  0.00     0.142 A 
ATOM      6  C   UNL     1     -12.354  61.221  39.854  1.00  0.00     0.018 A 
ATOM      7  C   UNL     1     -13.559  60.533  40.018  1.00  0.00     0.019 A 
ATOM      8  C   UNL     1     -14.726  61.054  39.459  1.00  0.00     0.094 A 
ATOM      9  C   UNL     1     -14.658  62.257  38.747  1.00  0.00     0.336 A 
ATOM     10  O   UNL     1     -15.700  62.743  38.235  1.00  0.00    -0.246 OA
ATOM     11  O   UNL     1     -13.498  62.891  38.605  1.00  0.00    -0.423 OA
ENDROOT
BRANCH   3  12
ATOM     12  O   UNL     1      -8.795  63.377  39.296  1.00  0.00    -0.508 OA
ATOM     13  H   UNL     1      -8.636  64.264  39.761  1.00  0.00     0.293 HD
ENDBRANCH   3  12
TORSDOF 1
ENDMDL
MODEL 6
REMARK VINA RESULT:    -6.043     17.731     19.146
REMARK INTER + INTRA:          -6.219
REMARK INTER:                  -6.219
REMARK INTRA:                   0.000
REMARK UNBOUND:                 0.000
REMARK SMILES O=c1ccc2ccc(O)cc2o1
REMARK SMILES IDX 6 1 7 2 8 3 10 4 11 5 5 6 4 7 3 8 2 9 1 10 12 11 9 12
REMARK H PARENT 9 13
REMARK Flexibility Score: inf
ROOT
ATOM      1  C   UNL     1     -13.088  47.643  54.428  1.00  0.00     0.016 A 
ATOM      2  C   UNL     1     -14.307  47.530  53.750  1.00  0.00     0.047 A 
ATOM      3  C   UNL     1     -14.748  48.565  52.911  1.00  0.00     0.119 A 
ATOM      4  C   UNL     1     -13.966  49.714  52.750  1.00  0.00     0.094 A 
ATOM      5  C   UNL     1     -12.745  49.836  53.424  1.00  0.00     0.142 A 
ATOM      6  C   UNL     1     -12.303  48.793  54.269  1.00  0.00     0.018 A 
ATOM      7  C   UNL     1     -11.080  48.943  54.928  1.00  0.00     0.019 A 
ATOM      8  C   UNL     1     -10.337  50.106  54.736  1.00  0.00     0.094 A 
ATOM      9  C   UNL     1     -10.837  51.098  53.884  1.00  0.00     0.336 A 
ATOM     10  O   UNL     1     -10.180  52.155  53.697  1.00  0.00    -0.246 OA
ATOM     11  O   UNL     1     -12.004  50.931  53.268  1.00  0.00    -0.423 OA
ENDROOT
BRANCH   3  12
ATOM     12  O   UNL     1     -15.961  48.460  52.233  1.00  0.00    -0.508 OA
ATOM     13  H   UNL     1     -16.732  47.922  52.611  1.00  0.00     0.293 HD
ENDBRANCH   3  12
TORSDOF 1
ENDMDL
MODEL 7
REMARK VINA RESULT:    -5.844      1.964      4.966
REMARK INTER + INTRA:          -6.015
REMARK INTER:                  -6.015
REMARK INTRA:                   0.000
REMARK UNBOUND:                 0.000
REMARK SMILES O=c1ccc2ccc(O)cc2o1
REMARK SMILES IDX 6 1 7 2 8 3 10 4 11 5 5 6 4 7 3 8 2 9 1 10 12 11 9 12
REMARK H PARENT 9 13
REMARK Flexibility Score: inf
ROOT
ATOM      1  C   UNL     1     -12.632  60.126  39.761  1.00  0.00     0.016 A 
ATOM      2  C   UNL     1     -13.964  60.229  39.347  1.00  0.00     0.047 A 
ATOM      3  C   UNL     1     -14.482  61.466  38.933  1.00  0.00     0.119 A 
ATOM      4  C   UNL     1     -13.664  62.601  38.936  1.00  0.00     0.094 A 
ATOM      5  C   UNL     1     -12.330  62.508  39.348  1.00  0.00     0.142 A 
ATOM      6  C   UNL     1     -11.810  61.261  39.764  1.00  0.00     0.018 A 
ATOM      7  C   UNL     1     -10.475  61.198  40.171  1.00  0.00     0.019 A 
ATOM      8  C   UNL     1      -9.699  62.357  40.155  1.00  0.00     0.094 A 
ATOM      9  C   UNL     1     -10.281  63.557  39.731  1.00  0.00     0.336 A 
ATOM     10  O   UNL     1      -9.597  64.613  39.709  1.00  0.00    -0.246 OA
ATOM     11  O   UNL     1     -11.555  63.589  39.349  1.00  0.00    -0.423 OA
ENDROOT
BRANCH   3  12
ATOM     12  O   UNL     1     -15.808  61.576  38.520  1.00  0.00    -0.508 OA
ATOM     13  H   UNL     1     -16.564  61.676  39.188  1.00  0.00     0.293 HD
ENDBRANCH   3  12
TORSDOF 1
ENDMDL
MODEL 8
REMARK VINA RESULT:    -5.794      3.332      6.256
REMARK INTER + INTRA:          -5.964
REMARK INTER:                  -5.964
REMARK INTRA:                   0.000
REMARK UNBOUND:                 0.000
REMARK SMILES O=c1ccc2ccc(O)cc2o1
REMARK SMILES IDX 6 1 7 2 8 3 10 4 11 5 5 6 4 7 3 8 2 9 1 10 12 11 9 12
REMARK H PARENT 9 13
REMARK Flexibility Score: inf
ROOT
ATOM      1  C   UNL     1     -10.955  62.834  38.480  1.00  0.00     0.016 A 
ATOM      2  C   UNL     1     -11.513  61.902  39.362  1.00  0.00     0.047 A 
ATOM      3  C   UNL     1     -10.926  61.675  40.616  1.00  0.00     0.119 A 
ATOM      4  C   UNL     1      -9.778  62.384  40.988  1.00  0.00     0.094 A 
ATOM      5  C   UNL     1      -9.213  63.319  40.113  1.00  0.00     0.142 A 
ATOM      6  C   UNL     1      -9.806  63.545  38.850  1.00  0.00     0.018 A 
ATOM      7  C   UNL     1      -9.220  64.485  37.997  1.00  0.00     0.019 A 
ATOM      8  C   UNL     1      -8.077  65.167  38.413  1.00  0.00     0.094 A 
ATOM      9  C   UNL     1      -7.544  64.891  39.677  1.00  0.00     0.336 A 
ATOM     10  O   UNL     1      -6.513  65.496  40.070  1.00  0.00    -0.246 OA
ATOM     11  O   UNL     1      -8.121  63.991  40.469  1.00  0.00    -0.423 OA
ENDROOT
BRANCH   3  12
ATOM     12  O   UNL     1     -11.475  60.748  41.499  1.00  0.00    -0.508 OA
ATOM     13  H   UNL     1     -11.220  60.735  42.479  1.00  0.00     0.293 HD
ENDBRANCH   3  12
TORSDOF 1
ENDMDL
MODEL 9
REMARK VINA RESULT:    -5.727      4.449      6.435
REMARK INTER + INTRA:          -5.895
REMARK INTER:                  -5.895
REMARK INTRA:                   0.000
REMARK UNBOUND:                 0.000
REMARK SMILES O=c1ccc2ccc(O)cc2o1
REMARK SMILES IDX 6 1 7 2 8 3 10 4 11 5 5 6 4 7 3 8 2 9 1 10 12 11 9 12
REMARK H PARENT 9 13
REMARK Flexibility Score: inf
ROOT
ATOM      1  C   UNL     1      -9.637  63.584  42.210  1.00  0.00     0.016 A 
ATOM      2  C   UNL     1     -10.003  62.249  42.009  1.00  0.00     0.047 A 
ATOM      3  C   UNL     1     -10.003  61.702  40.716  1.00  0.00     0.119 A 
ATOM      4  C   UNL     1      -9.636  62.496  39.623  1.00  0.00     0.094 A 
ATOM      5  C   UNL     1      -9.268  63.832  39.814  1.00  0.00     0.142 A 
ATOM      6  C   UNL     1      -9.268  64.380  41.117  1.00  0.00     0.018 A 
ATOM      7  C   UNL     1      -8.895  65.717  41.277  1.00  0.00     0.019 A 
ATOM      8  C   UNL     1      -8.537  66.467  40.158  1.00  0.00     0.094 A 
ATOM      9  C   UNL     1      -8.560  65.858  38.898  1.00  0.00     0.336 A 
ATOM     10  O   UNL     1      -8.239  66.518  37.875  1.00  0.00    -0.246 OA
ATOM     11  O   UNL     1      -8.919  64.583  38.773  1.00  0.00    -0.423 OA
ENDROOT
BRANCH   3  12
ATOM     12  O   UNL     1     -10.368  60.374  40.508  1.00  0.00    -0.508 OA
ATOM     13  H   UNL     1     -10.916  59.863  41.190  1.00  0.00     0.293 HD
ENDBRANCH   3  12
TORSDOF 1
ENDMDL
