MODEL 1
REMARK VINA RESULT:    -5.749      0.000      0.000
REMARK INTER + INTRA:          -7.053
REMARK INTER:                  -6.757
REMARK INTRA:                  -0.296
REMARK UNBOUND:                -0.296
REMARK SMILES O=c1c(O)c(-c2ccc(O)cc2)oc2cc(O)cc(O)c12
REMARK SMILES IDX 5 1 3 2 2 3 1 4 21 5 19 6 18 7 16 8 15 9 14 10 13 11 6 12
REMARK SMILES IDX 7 13 8 14 9 15 12 16 11 17 10 18 4 20 20 22 17 24
REMARK H PARENT 10 19 4 21 20 23 17 25
REMARK Flexibility Score: inf
ROOT
ATOM      1  C   UNL     1      15.833 -14.037  -6.105  1.00  0.00     0.180 A 
ATOM      2  C   UNL     1      15.299 -14.521  -7.311  1.00  0.00     0.208 A 
ATOM      3  C   UNL     1      15.941 -14.201  -8.517  1.00  0.00     0.238 A 
ATOM      4  O   UNL     1      15.415 -14.573  -9.599  1.00  0.00    -0.285 OA
ATOM      5  C   UNL     1      17.141 -13.449  -8.500  1.00  0.00     0.111 A 
ATOM      6  C   UNL     1      17.900 -13.103  -9.659  1.00  0.00     0.134 A 
ATOM      7  C   UNL     1      19.014 -12.265  -9.529  1.00  0.00     0.093 A 
ATOM      8  C   UNL     1      19.434 -11.812  -8.280  1.00  0.00     0.123 A 
ATOM      9  C   UNL     1      18.732 -12.187  -7.135  1.00  0.00     0.094 A 
ATOM     10  C   UNL     1      17.593 -12.991  -7.235  1.00  0.00     0.146 A 
ATOM     11  O   UNL     1      16.942 -13.307  -6.122  1.00  0.00    -0.452 OA
ENDROOT
BRANCH   1  12
ATOM     12  C   UNL     1      15.206 -14.321  -4.794  1.00  0.00     0.021 A 
ATOM     13  C   UNL     1      14.250 -13.452  -4.235  1.00  0.00     0.016 A 
ATOM     14  C   UNL     1      13.690 -13.728  -2.984  1.00  0.00     0.047 A 
ATOM     15  C   UNL     1      14.084 -14.864  -2.271  1.00  0.00     0.115 A 
ATOM     16  C   UNL     1      15.614 -15.448  -4.062  1.00  0.00     0.016 A 
ATOM     17  C   UNL     1      15.052 -15.722  -2.811  1.00  0.00     0.047 A 
BRANCH  15  18
ATOM     18  O   UNL     1      13.517 -15.127  -1.026  1.00  0.00    -0.508 OA
ATOM     19  H   UNL     1      13.899 -15.834  -0.409  1.00  0.00     0.293 HD
ENDBRANCH  15  18
ENDBRANCH   1  12
BRANCH   2  20
ATOM     20  O   UNL     1      14.156 -15.326  -7.302  1.00  0.00    -0.502 OA
ATOM     21  H   UNL     1      13.310 -15.064  -6.810  1.00  0.00     0.293 HD
ENDBRANCH   2  20
BRANCH   6  22
ATOM     22  O   UNL     1      17.623 -13.573 -10.946  1.00  0.00    -0.507 OA
ATOM     23  H   UNL     1      17.349 -12.995 -11.726  1.00  0.00     0.293 HD
ENDBRANCH   6  22
BRANCH   8  24
ATOM     24  O   UNL     1      20.558 -10.993  -8.187  1.00  0.00    -0.508 OA
ATOM     25  H   UNL     1      20.730 -10.419  -7.369  1.00  0.00     0.293 HD
ENDBRANCH   8  24
TORSDOF 5
ENDMDL
MODEL 2
REMARK VINA RESULT:    -5.650      5.444      7.865
REMARK INTER + INTRA:          -6.937
REMARK INTER:                  -6.746
REMARK INTRA:                  -0.191
REMARK UNBOUND:                -0.296
REMARK SMILES O=c1c(O)c(-c2ccc(O)cc2)oc2cc(O)cc(O)c12
REMARK SMILES IDX 5 1 3 2 2 3 1 4 21 5 19 6 18 7 16 8 15 9 14 10 13 11 6 12
REMARK SMILES IDX 7 13 8 14 9 15 12 16 11 17 10 18 4 20 20 22 17 24
REMARK H PARENT 10 19 4 21 20 23 17 25
REMARK Flexibility Score: inf
ROOT
ATOM      1  C   UNL     1      17.592 -17.536  -3.087  1.00  0.00     0.180 A 
ATOM      2  C   UNL     1      18.404 -17.474  -1.942  1.00  0.00     0.208 A 
ATOM      3  C   UNL     1      19.258 -18.550  -1.653  1.00  0.00     0.238 A 
ATOM      4  O   UNL     1      19.926 -18.521  -0.587  1.00  0.00    -0.285 OA
ATOM      5  C   UNL     1      19.333 -19.649  -2.543  1.00  0.00     0.111 A 
ATOM      6  C   UNL     1      20.196 -20.774  -2.373  1.00  0.00     0.134 A 
ATOM      7  C   UNL     1      20.107 -21.852  -3.262  1.00  0.00     0.093 A 
ATOM      8  C   UNL     1      19.234 -21.821  -4.348  1.00  0.00     0.123 A 
ATOM      9  C   UNL     1      18.425 -20.704  -4.555  1.00  0.00     0.094 A 
ATOM     10  C   UNL     1      18.463 -19.628  -3.664  1.00  0.00     0.146 A 
ATOM     11  O   UNL     1      17.660 -18.594  -3.885  1.00  0.00    -0.452 OA
ENDROOT
BRANCH   1  12
ATOM     12  C   UNL     1      16.656 -16.447  -3.451  1.00  0.00     0.021 A 
ATOM     13  C   UNL     1      15.512 -16.175  -2.678  1.00  0.00     0.016 A 
ATOM     14  C   UNL     1      14.629 -15.159  -3.056  1.00  0.00     0.047 A 
ATOM     15  C   UNL     1      14.869 -14.411  -4.212  1.00  0.00     0.115 A 
ATOM     16  C   UNL     1      16.879 -15.707  -4.624  1.00  0.00     0.016 A 
ATOM     17  C   UNL     1      15.996 -14.691  -4.999  1.00  0.00     0.047 A 
BRANCH  15  18
ATOM     18  O   UNL     1      13.982 -13.401  -4.576  1.00  0.00    -0.508 OA
ATOM     19  H   UNL     1      13.921 -13.069  -5.531  1.00  0.00     0.293 HD
ENDBRANCH  15  18
ENDBRANCH   1  12
BRANCH   2  20
ATOM     20  O   UNL     1      18.372 -16.346  -1.117  1.00  0.00    -0.502 OA
ATOM     21  H   UNL     1      19.098 -16.145  -0.440  1.00  0.00     0.293 HD
ENDBRANCH   2  20
BRANCH   6  22
ATOM     22  O   UNL     1      21.169 -20.871  -1.374  1.00  0.00    -0.507 OA
ATOM     23  H   UNL     1      21.929 -21.534  -1.370  1.00  0.00     0.293 HD
ENDBRANCH   6  22
BRANCH   8  24
ATOM     24  O   UNL     1      19.184 -22.905  -5.222  1.00  0.00    -0.508 OA
ATOM     25  H   UNL     1      18.444 -23.596  -5.169  1.00  0.00     0.293 HD
ENDBRANCH   8  24
TORSDOF 5
ENDMDL
MODEL 3
REMARK VINA RESULT:    -5.559      7.698      9.616
REMARK INTER + INTRA:          -6.830
REMARK INTER:                  -6.546
REMARK INTRA:                  -0.285
REMARK UNBOUND:                -0.296
REMARK SMILES O=c1c(O)c(-c2ccc(O)cc2)oc2cc(O)cc(O)c12
REMARK SMILES IDX 5 1 3 2 2 3 1 4 21 5 19 6 18 7 16 8 15 9 14 10 13 11 6 12
REMARK SMILES IDX 7 13 8 14 9 15 12 16 11 17 10 18 4 20 20 22 17 24
REMARK H PARENT 10 19 4 21 20 23 17 25
REMARK Flexibility Score: inf
ROOT
ATOM      1  C   UNL     1      18.683 -20.820  -3.998  1.00  0.00     0.180 A 
ATOM      2  C   UNL     1      19.561 -20.932  -5.090  1.00  0.00     0.208 A 
ATOM      3  C   UNL     1      19.493 -22.073  -5.904  1.00  0.00     0.238 A 
ATOM      4  O   UNL     1      20.332 -22.202  -6.834  1.00  0.00    -0.285 OA
ATOM      5  C   UNL     1      18.512 -23.063  -5.652  1.00  0.00     0.111 A 
ATOM      6  C   UNL     1      18.324 -24.239  -6.440  1.00  0.00     0.134 A 
ATOM      7  C   UNL     1      17.390 -25.200  -6.032  1.00  0.00     0.093 A 
ATOM      8  C   UNL     1      16.595 -25.000  -4.905  1.00  0.00     0.123 A 
ATOM      9  C   UNL     1      16.732 -23.830  -4.159  1.00  0.00     0.094 A 
ATOM     10  C   UNL     1      17.682 -22.869  -4.518  1.00  0.00     0.146 A 
ATOM     11  O   UNL     1      17.795 -21.779  -3.768  1.00  0.00    -0.452 OA
ENDROOT
BRANCH   1  12
ATOM     12  C   UNL     1      18.702 -19.654  -3.086  1.00  0.00     0.021 A 
ATOM     13  C   UNL     1      17.987 -18.479  -3.384  1.00  0.00     0.016 A 
ATOM     14  C   UNL     1      18.041 -17.381  -2.520  1.00  0.00     0.047 A 
ATOM     15  C   UNL     1      18.816 -17.436  -1.358  1.00  0.00     0.115 A 
ATOM     16  C   UNL     1      19.497 -19.694  -1.929  1.00  0.00     0.016 A 
ATOM     17  C   UNL     1      19.548 -18.596  -1.066  1.00  0.00     0.047 A 
BRANCH  15  18
ATOM     18  O   UNL     1      18.860 -16.336  -0.506  1.00  0.00    -0.508 OA
ATOM     19  H   UNL     1      18.925 -16.447   0.499  1.00  0.00     0.293 HD
ENDBRANCH  15  18
ENDBRANCH   1  12
BRANCH   2  20
ATOM     20  O   UNL     1      20.472 -19.909  -5.368  1.00  0.00    -0.502 OA
ATOM     21  H   UNL     1      21.466 -20.003  -5.197  1.00  0.00     0.293 HD
ENDBRANCH   2  20
BRANCH   6  22
ATOM     22  O   UNL     1      19.001 -24.499  -7.634  1.00  0.00    -0.507 OA
ATOM     23  H   UNL     1      19.058 -23.865  -8.417  1.00  0.00     0.293 HD
ENDBRANCH   6  22
BRANCH   8  24
ATOM     24  O   UNL     1      15.664 -25.971  -4.539  1.00  0.00    -0.508 OA
ATOM     25  H   UNL     1      15.938 -26.803  -4.029  1.00  0.00     0.293 HD
ENDBRANCH   8  24
TORSDOF 5
ENDMDL
MODEL 4
REMARK VINA RESULT:    -5.534     12.753     16.717
REMARK INTER + INTRA:          -6.800
REMARK INTER:                  -6.512
REMARK INTRA:                  -0.288
REMARK UNBOUND:                -0.296
REMARK SMILES O=c1c(O)c(-c2ccc(O)cc2)oc2cc(O)cc(O)c12
REMARK SMILES IDX 5 1 3 2 2 3 1 4 21 5 19 6 18 7 16 8 15 9 14 10 13 11 6 12
REMARK SMILES IDX 7 13 8 14 9 15 12 16 11 17 10 18 4 20 20 22 17 24
REMARK H PARENT 10 19 4 21 20 23 17 25
REMARK Flexibility Score: inf
ROOT
ATOM      1  C   UNL     1       6.849  -8.669   6.519  1.00  0.00     0.180 A 
ATOM      2  C   UNL     1       7.248  -9.656   7.435  1.00  0.00     0.208 A 
ATOM      3  C   UNL     1       8.459 -10.334   7.223  1.00  0.00     0.238 A 
ATOM      4  O   UNL     1       8.773 -11.268   8.005  1.00  0.00    -0.285 OA
ATOM      5  C   UNL     1       9.284  -9.978   6.128  1.00  0.00     0.111 A 
ATOM      6  C   UNL     1      10.552 -10.567   5.842  1.00  0.00     0.134 A 
ATOM      7  C   UNL     1      11.231 -10.209   4.671  1.00  0.00     0.093 A 
ATOM      8  C   UNL     1      10.721  -9.239   3.810  1.00  0.00     0.123 A 
ATOM      9  C   UNL     1       9.509  -8.617   4.108  1.00  0.00     0.094 A 
ATOM     10  C   UNL     1       8.788  -8.980   5.249  1.00  0.00     0.146 A 
ATOM     11  O   UNL     1       7.628  -8.379   5.484  1.00  0.00    -0.452 OA
ENDROOT
BRANCH   1  12
ATOM     12  C   UNL     1       5.580  -7.920   6.667  1.00  0.00     0.021 A 
ATOM     13  C   UNL     1       5.521  -6.714   7.390  1.00  0.00     0.016 A 
ATOM     14  C   UNL     1       4.306  -6.038   7.538  1.00  0.00     0.047 A 
ATOM     15  C   UNL     1       3.136  -6.562   6.980  1.00  0.00     0.115 A 
ATOM     16  C   UNL     1       4.397  -8.452   6.129  1.00  0.00     0.016 A 
ATOM     17  C   UNL     1       3.184  -7.773   6.277  1.00  0.00     0.047 A 
BRANCH  15  18
ATOM     18  O   UNL     1       1.933  -5.877   7.135  1.00  0.00    -0.508 OA
ATOM     19  H   UNL     1       1.715  -5.059   6.579  1.00  0.00     0.293 HD
ENDBRANCH  15  18
ENDBRANCH   1  12
BRANCH   2  20
ATOM     20  O   UNL     1       6.456  -9.940   8.552  1.00  0.00    -0.502 OA
ATOM     21  H   UNL     1       5.627  -9.405   8.782  1.00  0.00     0.293 HD
ENDBRANCH   2  20
BRANCH   6  22
ATOM     22  O   UNL     1      11.198 -11.482   6.679  1.00  0.00    -0.507 OA
ATOM     23  H   UNL     1      12.090 -11.912   6.487  1.00  0.00     0.293 HD
ENDBRANCH   6  22
BRANCH   8  24
ATOM     24  O   UNL     1      11.432  -8.895   2.662  1.00  0.00    -0.508 OA
ATOM     25  H   UNL     1      12.445  -8.856   2.658  1.00  0.00     0.293 HD
ENDBRANCH   8  24
TORSDOF 5
ENDMDL
MODEL 5
REMARK VINA RESULT:    -5.372     11.317     13.725
REMARK INTER + INTRA:          -6.610
REMARK INTER:                  -6.325
REMARK INTRA:                  -0.285
REMARK UNBOUND:                -0.296
REMARK SMILES O=c1c(O)c(-c2ccc(O)cc2)oc2cc(O)cc(O)c12
REMARK SMILES IDX 5 1 3 2 2 3 1 4 21 5 19 6 18 7 16 8 15 9 14 10 13 11 6 12
REMARK SMILES IDX 7 13 8 14 9 15 12 16 11 17 10 18 4 20 20 22 17 24
REMARK H PARENT 10 19 4 21 20 23 17 25
REMARK Flexibility Score: inf
ROOT
ATOM      1  C   UNL     1       6.708 -20.547  -3.999  1.00  0.00     0.180 A 
ATOM      2  C   UNL     1       8.084 -20.823  -4.053  1.00  0.00     0.208 A 
ATOM      3  C   UNL     1       8.513 -22.160  -4.034  1.00  0.00     0.238 A 
ATOM      4  O   UNL     1       9.748 -22.397  -4.007  1.00  0.00    -0.285 OA
ATOM      5  C   UNL     1       7.558 -23.206  -4.018  1.00  0.00     0.111 A 
ATOM      6  C   UNL     1       7.878 -24.597  -4.042  1.00  0.00     0.134 A 
ATOM      7  C   UNL     1       6.854 -25.543  -3.915  1.00  0.00     0.093 A 
ATOM      8  C   UNL     1       5.519 -25.153  -3.830  1.00  0.00     0.123 A 
ATOM      9  C   UNL     1       5.190 -23.797  -3.861  1.00  0.00     0.094 A 
ATOM     10  C   UNL     1       6.193 -22.828  -3.947  1.00  0.00     0.146 A 
ATOM     11  O   UNL     1       5.838 -21.549  -3.952  1.00  0.00    -0.452 OA
ENDROOT
BRANCH   1  12
ATOM     12  C   UNL     1       6.179 -19.164  -4.001  1.00  0.00     0.021 A 
ATOM     13  C   UNL     1       6.117 -18.401  -2.820  1.00  0.00     0.016 A 
ATOM     14  C   UNL     1       5.590 -17.106  -2.843  1.00  0.00     0.047 A 
ATOM     15  C   UNL     1       5.109 -16.562  -4.037  1.00  0.00     0.115 A 
ATOM     16  C   UNL     1       5.673 -18.620  -5.193  1.00  0.00     0.016 A 
ATOM     17  C   UNL     1       5.148 -17.324  -5.213  1.00  0.00     0.047 A 
BRANCH  15  18
ATOM     18  O   UNL     1       4.588 -15.270  -4.045  1.00  0.00    -0.508 OA
ATOM     19  H   UNL     1       3.590 -15.102  -4.089  1.00  0.00     0.293 HD
ENDBRANCH  15  18
ENDBRANCH   1  12
BRANCH   2  20
ATOM     20  O   UNL     1       9.008 -19.778  -4.146  1.00  0.00    -0.502 OA
ATOM     21  H   UNL     1      10.006 -19.923  -4.048  1.00  0.00     0.293 HD
ENDBRANCH   2  20
BRANCH   6  22
ATOM     22  O   UNL     1       9.171 -25.101  -4.213  1.00  0.00    -0.507 OA
ATOM     23  H   UNL     1       9.541 -25.914  -3.744  1.00  0.00     0.293 HD
ENDBRANCH   6  22
BRANCH   8  24
ATOM     24  O   UNL     1       4.523 -26.122  -3.722  1.00  0.00    -0.508 OA
ATOM     25  H   UNL     1       3.552 -25.871  -3.577  1.00  0.00     0.293 HD
ENDBRANCH   8  24
TORSDOF 5
ENDMDL
MODEL 6
REMARK VINA RESULT:    -5.126      7.722      9.778
REMARK INTER + INTRA:          -6.321
REMARK INTER:                  -6.111
REMARK INTRA:                  -0.210
REMARK UNBOUND:                -0.296
REMARK SMILES O=c1c(O)c(-c2ccc(O)cc2)oc2cc(O)cc(O)c12
REMARK SMILES IDX 5 1 3 2 2 3 1 4 21 5 19 6 18 7 16 8 15 9 14 10 13 11 6 12
REMARK SMILES IDX 7 13 8 14 9 15 12 16 11 17 10 18 4 20 20 22 17 24
REMARK H PARENT 10 19 4 21 20 23 17 25
REMARK Flexibility Score: inf
ROOT
ATOM      1  C   UNL     1      18.691 -21.779  -3.936  1.00  0.00     0.180 A 
ATOM      2  C   UNL     1      19.847 -21.897  -3.148  1.00  0.00     0.208 A 
ATOM      3  C   UNL     1      20.299 -20.779  -2.428  1.00  0.00     0.238 A 
ATOM      4  O   UNL     1      21.377 -20.871  -1.785  1.00  0.00    -0.285 OA
ATOM      5  C   UNL     1      19.558 -19.573  -2.461  1.00  0.00     0.111 A 
ATOM      6  C   UNL     1      19.898 -18.391  -1.736  1.00  0.00     0.134 A 
ATOM      7  C   UNL     1      19.149 -17.224  -1.929  1.00  0.00     0.093 A 
ATOM      8  C   UNL     1      18.037 -17.211  -2.769  1.00  0.00     0.123 A 
ATOM      9  C   UNL     1      17.663 -18.375  -3.440  1.00  0.00     0.094 A 
ATOM     10  C   UNL     1      18.413 -19.546  -3.298  1.00  0.00     0.146 A 
ATOM     11  O   UNL     1      18.035 -20.625  -3.972  1.00  0.00    -0.452 OA
ENDROOT
BRANCH   1  12
ATOM     12  C   UNL     1      18.160 -22.908  -4.733  1.00  0.00     0.021 A 
ATOM     13  C   UNL     1      18.827 -23.372  -5.883  1.00  0.00     0.016 A 
ATOM     14  C   UNL     1      18.293 -24.423  -6.634  1.00  0.00     0.047 A 
ATOM     15  C   UNL     1      17.084 -25.015  -6.257  1.00  0.00     0.115 A 
ATOM     16  C   UNL     1      16.934 -23.493  -4.373  1.00  0.00     0.016 A 
ATOM     17  C   UNL     1      16.404 -24.545  -5.125  1.00  0.00     0.047 A 
BRANCH  15  18
ATOM     18  O   UNL     1      16.565 -26.063  -7.013  1.00  0.00    -0.508 OA
ATOM     19  H   UNL     1      16.428 -25.976  -8.013  1.00  0.00     0.293 HD
ENDBRANCH  15  18
ENDBRANCH   1  12
BRANCH   2  20
ATOM     20  O   UNL     1      20.523 -23.118  -3.068  1.00  0.00    -0.502 OA
ATOM     21  H   UNL     1      21.415 -23.278  -3.521  1.00  0.00     0.293 HD
ENDBRANCH   2  20
BRANCH   6  22
ATOM     22  O   UNL     1      20.936 -18.316  -0.803  1.00  0.00    -0.507 OA
ATOM     23  H   UNL     1      21.021 -18.899   0.016  1.00  0.00     0.293 HD
ENDBRANCH   6  22
BRANCH   8  24
ATOM     24  O   UNL     1      17.304 -16.036  -2.923  1.00  0.00    -0.508 OA
ATOM     25  H   UNL     1      16.360 -16.044  -3.290  1.00  0.00     0.293 HD
ENDBRANCH   8  24
TORSDOF 5
ENDMDL
MODEL 7
REMARK VINA RESULT:    -5.092     12.003     12.861
REMARK INTER + INTRA:          -6.281
REMARK INTER:                  -6.269
REMARK INTRA:                  -0.013
REMARK UNBOUND:                -0.296
REMARK SMILES O=c1c(O)c(-c2ccc(O)cc2)oc2cc(O)cc(O)c12
REMARK SMILES IDX 5 1 3 2 2 3 1 4 21 5 19 6 18 7 16 8 15 9 14 10 13 11 6 12
REMARK SMILES IDX 7 13 8 14 9 15 12 16 11 17 10 18 4 20 20 22 17 24
REMARK H PARENT 10 19 4 21 20 23 17 25
REMARK Flexibility Score: inf
ROOT
ATOM      1  C   UNL     1       6.507 -20.510  -4.343  1.00  0.00     0.180 A 
ATOM      2  C   UNL     1       5.749 -19.988  -5.404  1.00  0.00     0.208 A 
ATOM      3  C   UNL     1       5.224 -18.691  -5.294  1.00  0.00     0.238 A 
ATOM      4  O   UNL     1       4.483 -18.259  -6.215  1.00  0.00    -0.285 OA
ATOM      5  C   UNL     1       5.511 -17.910  -4.148  1.00  0.00     0.111 A 
ATOM      6  C   UNL     1       5.068 -16.567  -3.949  1.00  0.00     0.134 A 
ATOM      7  C   UNL     1       5.324 -15.930  -2.728  1.00  0.00     0.093 A 
ATOM      8  C   UNL     1       6.059 -16.560  -1.726  1.00  0.00     0.123 A 
ATOM      9  C   UNL     1       6.543 -17.852  -1.931  1.00  0.00     0.094 A 
ATOM     10  C   UNL     1       6.272 -18.529  -3.123  1.00  0.00     0.146 A 
ATOM     11  O   UNL     1       6.733 -19.766  -3.268  1.00  0.00    -0.452 OA
ENDROOT
BRANCH   1  12
ATOM     12  C   UNL     1       7.083 -21.874  -4.381  1.00  0.00     0.021 A 
ATOM     13  C   UNL     1       6.287 -22.997  -4.672  1.00  0.00     0.016 A 
ATOM     14  C   UNL     1       6.847 -24.278  -4.676  1.00  0.00     0.047 A 
ATOM     15  C   UNL     1       8.202 -24.456  -4.379  1.00  0.00     0.115 A 
ATOM     16  C   UNL     1       8.437 -22.062  -4.060  1.00  0.00     0.016 A 
ATOM     17  C   UNL     1       8.995 -23.343  -4.067  1.00  0.00     0.047 A 
BRANCH  15  18
ATOM     18  O   UNL     1       8.747 -25.737  -4.388  1.00  0.00    -0.508 OA
ATOM     19  H   UNL     1       9.742 -25.888  -4.499  1.00  0.00     0.293 HD
ENDBRANCH  15  18
ENDBRANCH   1  12
BRANCH   2  20
ATOM     20  O   UNL     1       5.540 -20.747  -6.560  1.00  0.00    -0.502 OA
ATOM     21  H   UNL     1       5.385 -20.324  -7.468  1.00  0.00     0.293 HD
ENDBRANCH   2  20
BRANCH   6  22
ATOM     22  O   UNL     1       4.402 -15.810  -4.917  1.00  0.00    -0.507 OA
ATOM     23  H   UNL     1       3.452 -15.963  -5.217  1.00  0.00     0.293 HD
ENDBRANCH   6  22
BRANCH   8  24
ATOM     24  O   UNL     1       6.309 -15.889  -0.530  1.00  0.00    -0.508 OA
ATOM     25  H   UNL     1       5.579 -15.382  -0.044  1.00  0.00     0.293 HD
ENDBRANCH   8  24
TORSDOF 5
ENDMDL
MODEL 8
REMARK VINA RESULT:    -4.821      7.863     10.206
REMARK INTER + INTRA:          -5.963
REMARK INTER:                  -5.679
REMARK INTRA:                  -0.283
REMARK UNBOUND:                -0.296
REMARK SMILES O=c1c(O)c(-c2ccc(O)cc2)oc2cc(O)cc(O)c12
REMARK SMILES IDX 5 1 3 2 2 3 1 4 21 5 19 6 18 7 16 8 15 9 14 10 13 11 6 12
REMARK SMILES IDX 7 13 8 14 9 15 12 16 11 17 10 18 4 20 20 22 17 24
REMARK H PARENT 10 19 4 21 20 23 17 25
REMARK Flexibility Score: inf
ROOT
ATOM      1  C   UNL     1      18.604 -20.873  -4.117  1.00  0.00     0.180 A 
ATOM      2  C   UNL     1      19.543 -21.557  -3.328  1.00  0.00     0.208 A 
ATOM      3  C   UNL     1      19.490 -22.959  -3.266  1.00  0.00     0.238 A 
ATOM      4  O   UNL     1      20.286 -23.560  -2.499  1.00  0.00    -0.285 OA
ATOM      5  C   UNL     1      18.533 -23.662  -4.038  1.00  0.00     0.111 A 
ATOM      6  C   UNL     1      18.416 -25.085  -4.086  1.00  0.00     0.134 A 
ATOM      7  C   UNL     1      17.363 -25.667  -4.802  1.00  0.00     0.093 A 
ATOM      8  C   UNL     1      16.462 -24.884  -5.522  1.00  0.00     0.123 A 
ATOM      9  C   UNL     1      16.599 -23.496  -5.527  1.00  0.00     0.094 A 
ATOM     10  C   UNL     1      17.617 -22.883  -4.790  1.00  0.00     0.146 A 
ATOM     11  O   UNL     1      17.698 -21.558  -4.804  1.00  0.00    -0.452 OA
ENDROOT
BRANCH   1  12
ATOM     12  C   UNL     1      18.588 -19.396  -4.223  1.00  0.00     0.021 A 
ATOM     13  C   UNL     1      17.972 -18.597  -3.241  1.00  0.00     0.016 A 
ATOM     14  C   UNL     1      17.948 -17.206  -3.375  1.00  0.00     0.047 A 
ATOM     15  C   UNL     1      18.524 -16.596  -4.493  1.00  0.00     0.115 A 
ATOM     16  C   UNL     1      19.145 -18.778  -5.355  1.00  0.00     0.016 A 
ATOM     17  C   UNL     1      19.121 -17.386  -5.486  1.00  0.00     0.047 A 
BRANCH  15  18
ATOM     18  O   UNL     1      18.494 -15.209  -4.613  1.00  0.00    -0.508 OA
ATOM     19  H   UNL     1      18.549 -14.754  -5.517  1.00  0.00     0.293 HD
ENDBRANCH  15  18
ENDBRANCH   1  12
BRANCH   2  20
ATOM     20  O   UNL     1      20.528 -20.849  -2.634  1.00  0.00    -0.502 OA
ATOM     21  H   UNL     1      20.325 -20.304  -1.805  1.00  0.00     0.293 HD
ENDBRANCH   2  20
BRANCH   6  22
ATOM     22  O   UNL     1      19.314 -25.966  -3.477  1.00  0.00    -0.507 OA
ATOM     23  H   UNL     1      19.942 -25.724  -2.725  1.00  0.00     0.293 HD
ENDBRANCH   6  22
BRANCH   8  24
ATOM     24  O   UNL     1      15.436 -25.499  -6.238  1.00  0.00    -0.508 OA
ATOM     25  H   UNL     1      14.812 -24.966  -6.833  1.00  0.00     0.293 HD
ENDBRANCH   8  24
TORSDOF 5
ENDMDL
