MODEL 1
REMARK VINA RESULT:    -4.253      0.000      0.000
REMARK INTER + INTRA:          -7.853
REMARK INTER:                  -6.740
REMARK INTRA:                  -1.113
REMARK UNBOUND:                -1.113
REMARK SMILES CCCCCCCCCCCC(=O)[O-]
REMARK SMILES IDX 7 1 8 2 9 3 10 4 11 5 12 6 13 7 14 8 6 9 5 10 4 11 3 12 2 13
REMARK SMILES IDX 1 14
REMARK H PARENT
REMARK Flexibility Score: inf
ROOT
ATOM      1  C   UNL     1       1.427  51.622  22.115  1.00  0.00     0.000 C 
ENDROOT
BRANCH   1   2
ATOM      2  C   UNL     1       1.636  50.399  21.213  1.00  0.00     0.000 C 
BRANCH   2   3
ATOM      3  C   UNL     1       2.032  49.167  22.042  1.00  0.00     0.000 C 
BRANCH   3   4
ATOM      4  C   UNL     1       0.996  48.036  21.951  1.00  0.00     0.006 C 
BRANCH   4   5
ATOM      5  C   UNL     1      -0.008  48.058  23.110  1.00  0.00     0.053 C 
BRANCH   5   6
ATOM      6  C   UNL     1      -0.397  46.665  23.492  1.00  0.00     0.041 C 
ATOM      7  O   UNL     1      -0.911  45.894  22.638  1.00  0.00    -0.550 OA
ATOM      8  O   UNL     1      -0.146  46.200  24.777  1.00  0.00    -0.550 OA
ENDBRANCH   5   6
ENDBRANCH   4   5
ENDBRANCH   3   4
ENDBRANCH   2   3
ENDBRANCH   1   2
BRANCH   1   9
ATOM      9  C   UNL     1       2.713  51.978  22.869  1.00  0.00     0.000 C 
BRANCH   9  10
ATOM     10  C   UNL     1       2.439  52.152  24.371  1.00  0.00    -0.000 C 
BRANCH  10  11
ATOM     11  C   UNL     1       2.706  50.870  25.175  1.00  0.00    -0.000 C 
BRANCH  11  12
ATOM     12  C   UNL     1       1.426  50.272  25.778  1.00  0.00    -0.000 C 
BRANCH  12  13
ATOM     13  C   UNL     1       1.672  48.843  26.279  1.00  0.00    -0.003 C 
ATOM     14  C   UNL     1       3.090  48.684  26.818  1.00  0.00     0.004 C 
ENDBRANCH  12  13
ENDBRANCH  11  12
ENDBRANCH  10  11
ENDBRANCH   9  10
ENDBRANCH   1   9
TORSDOF 10
ENDMDL
MODEL 2
REMARK VINA RESULT:    -4.162      1.356      2.235
REMARK INTER + INTRA:          -7.708
REMARK INTER:                  -6.598
REMARK INTRA:                  -1.111
REMARK UNBOUND:                -1.113
REMARK SMILES CCCCCCCCCCCC(=O)[O-]
REMARK SMILES IDX 7 1 8 2 9 3 10 4 11 5 12 6 13 7 14 8 6 9 5 10 4 11 3 12 2 13
REMARK SMILES IDX 1 14
REMARK H PARENT
REMARK Flexibility Score: inf
ROOT
ATOM      1  C   UNL     1       2.084  49.176  21.598  1.00  0.00     0.000 C 
ENDROOT
BRANCH   1   2
ATOM      2  C   UNL     1       1.132  47.974  21.570  1.00  0.00     0.000 C 
BRANCH   2   3
ATOM      3  C   UNL     1       0.179  48.000  22.775  1.00  0.00     0.000 C 
BRANCH   3   4
ATOM      4  C   UNL     1      -0.533  46.656  22.995  1.00  0.00     0.006 C 
BRANCH   4   5
ATOM      5  C   UNL     1      -0.573  46.243  24.471  1.00  0.00     0.053 C 
BRANCH   5   6
ATOM      6  C   UNL     1      -1.987  46.065  24.926  1.00  0.00     0.041 C 
ATOM      7  O   UNL     1      -2.710  45.170  24.412  1.00  0.00    -0.550 OA
ATOM      8  O   UNL     1      -2.494  46.854  25.950  1.00  0.00    -0.550 OA
ENDBRANCH   5   6
ENDBRANCH   4   5
ENDBRANCH   3   4
ENDBRANCH   2   3
ENDBRANCH   1   2
BRANCH   1   9
ATOM      9  C   UNL     1       1.306  50.495  21.673  1.00  0.00     0.000 C 
BRANCH   9  10
ATOM     10  C   UNL     1       2.023  51.505  22.582  1.00  0.00    -0.000 C 
BRANCH  10  11
ATOM     11  C   UNL     1       1.453  51.528  24.009  1.00  0.00    -0.000 C 
BRANCH  11  12
ATOM     12  C   UNL     1       2.477  51.080  25.062  1.00  0.00    -0.000 C 
BRANCH  12  13
ATOM     13  C   UNL     1       2.370  49.573  25.324  1.00  0.00    -0.003 C 
ATOM     14  C   UNL     1       1.106  49.238  26.110  1.00  0.00     0.004 C 
ENDBRANCH  12  13
ENDBRANCH  11  12
ENDBRANCH  10  11
ENDBRANCH   9  10
ENDBRANCH   1   9
TORSDOF 10
ENDMDL
MODEL 3
REMARK VINA RESULT:    -4.050      2.463      4.639
REMARK INTER + INTRA:          -7.530
REMARK INTER:                  -6.044
REMARK INTRA:                  -1.486
REMARK UNBOUND:                -1.113
REMARK SMILES CCCCCCCCCCCC(=O)[O-]
REMARK SMILES IDX 7 1 8 2 9 3 10 4 11 5 12 6 13 7 14 8 6 9 5 10 4 11 3 12 2 13
REMARK SMILES IDX 1 14
REMARK H PARENT
REMARK Flexibility Score: inf
ROOT
ATOM      1  C   UNL     1       0.045  48.007  23.361  1.00  0.00     0.000 C 
ENDROOT
BRANCH   1   2
ATOM      2  C   UNL     1      -0.457  49.350  23.904  1.00  0.00     0.000 C 
BRANCH   2   3
ATOM      3  C   UNL     1       0.076  49.602  25.323  1.00  0.00     0.000 C 
BRANCH   3   4
ATOM      4  C   UNL     1       1.177  48.609  25.727  1.00  0.00     0.006 C 
BRANCH   4   5
ATOM      5  C   UNL     1       2.532  49.288  25.956  1.00  0.00     0.053 C 
BRANCH   5   6
ATOM      6  C   UNL     1       3.043  48.985  27.329  1.00  0.00     0.041 C 
ATOM      7  O   UNL     1       4.283  48.961  27.553  1.00  0.00    -0.550 OA
ATOM      8  O   UNL     1       2.151  48.778  28.374  1.00  0.00    -0.550 OA
ENDBRANCH   5   6
ENDBRANCH   4   5
ENDBRANCH   3   4
ENDBRANCH   2   3
ENDBRANCH   1   2
BRANCH   1   9
ATOM      9  C   UNL     1       0.775  48.191  22.025  1.00  0.00     0.000 C 
BRANCH   9  10
ATOM     10  C   UNL     1       1.915  49.212  22.157  1.00  0.00    -0.000 C 
BRANCH  10  11
ATOM     11  C   UNL     1       1.764  50.397  21.191  1.00  0.00    -0.000 C 
BRANCH  11  12
ATOM     12  C   UNL     1       1.621  51.741  21.922  1.00  0.00    -0.000 C 
BRANCH  12  13
ATOM     13  C   UNL     1       2.461  51.760  23.205  1.00  0.00    -0.003 C 
ATOM     14  C   UNL     1       1.841  52.674  24.257  1.00  0.00     0.004 C 
ENDBRANCH  12  13
ENDBRANCH  11  12
ENDBRANCH  10  11
ENDBRANCH   9  10
ENDBRANCH   1   9
TORSDOF 10
ENDMDL
MODEL 4
REMARK VINA RESULT:    -4.033      2.751      4.038
REMARK INTER + INTRA:          -7.503
REMARK INTER:                  -6.356
REMARK INTRA:                  -1.147
REMARK UNBOUND:                -1.113
REMARK SMILES CCCCCCCCCCCC(=O)[O-]
REMARK SMILES IDX 7 1 8 2 9 3 10 4 11 5 12 6 13 7 14 8 6 9 5 10 4 11 3 12 2 13
REMARK SMILES IDX 1 14
REMARK H PARENT
REMARK Flexibility Score: inf
ROOT
ATOM      1  C   UNL     1       0.198  47.483  22.757  1.00  0.00     0.000 C 
ENDROOT
BRANCH   1   2
ATOM      2  C   UNL     1       0.987  47.975  21.538  1.00  0.00     0.000 C 
BRANCH   2   3
ATOM      3  C   UNL     1       2.122  48.920  21.962  1.00  0.00     0.000 C 
BRANCH   3   4
ATOM      4  C   UNL     1       1.967  50.332  21.376  1.00  0.00     0.006 C 
BRANCH   4   5
ATOM      5  C   UNL     1       2.197  51.433  22.418  1.00  0.00     0.053 C 
BRANCH   5   6
ATOM      6  C   UNL     1       0.982  52.298  22.541  1.00  0.00     0.041 C 
ATOM      7  O   UNL     1      -0.155  51.837  22.253  1.00  0.00    -0.550 OA
ATOM      8  O   UNL     1       1.097  53.597  23.020  1.00  0.00    -0.550 OA
ENDBRANCH   5   6
ENDBRANCH   4   5
ENDBRANCH   3   4
ENDBRANCH   2   3
ENDBRANCH   1   2
BRANCH   1   9
ATOM      9  C   UNL     1      -0.381  48.660  23.551  1.00  0.00     0.000 C 
BRANCH   9  10
ATOM     10  C   UNL     1      -0.001  48.562  25.037  1.00  0.00    -0.000 C 
BRANCH  10  11
ATOM     11  C   UNL     1       0.872  49.737  25.505  1.00  0.00    -0.000 C 
BRANCH  11  12
ATOM     12  C   UNL     1       2.357  49.361  25.622  1.00  0.00    -0.000 C 
BRANCH  12  13
ATOM     13  C   UNL     1       2.621  48.569  26.909  1.00  0.00    -0.003 C 
ATOM     14  C   UNL     1       3.946  48.978  27.545  1.00  0.00     0.004 C 
ENDBRANCH  12  13
ENDBRANCH  11  12
ENDBRANCH  10  11
ENDBRANCH   9  10
ENDBRANCH   1   9
TORSDOF 10
ENDMDL
MODEL 5
REMARK VINA RESULT:    -4.000      3.533      4.979
REMARK INTER + INTRA:          -7.452
REMARK INTER:                  -6.312
REMARK INTRA:                  -1.140
REMARK UNBOUND:                -1.113
REMARK SMILES CCCCCCCCCCCC(=O)[O-]
REMARK SMILES IDX 7 1 8 2 9 3 10 4 11 5 12 6 13 7 14 8 6 9 5 10 4 11 3 12 2 13
REMARK SMILES IDX 1 14
REMARK H PARENT
REMARK Flexibility Score: inf
ROOT
ATOM      1  C   UNL     1       0.985  48.199  21.501  1.00  0.00     0.000 C 
ENDROOT
BRANCH   1   2
ATOM      2  C   UNL     1       2.147  49.067  21.998  1.00  0.00     0.000 C 
BRANCH   2   3
ATOM      3  C   UNL     1       2.038  50.498  21.449  1.00  0.00     0.000 C 
BRANCH   3   4
ATOM      4  C   UNL     1       1.681  51.524  22.537  1.00  0.00     0.006 C 
BRANCH   4   5
ATOM      5  C   UNL     1       2.891  52.350  22.990  1.00  0.00     0.053 C 
BRANCH   5   6
ATOM      6  C   UNL     1       2.738  53.776  22.564  1.00  0.00     0.041 C 
ATOM      7  O   UNL     1       3.757  54.483  22.341  1.00  0.00    -0.550 OA
ATOM      8  O   UNL     1       1.472  54.311  22.365  1.00  0.00    -0.550 OA
ENDBRANCH   5   6
ENDBRANCH   4   5
ENDBRANCH   3   4
ENDBRANCH   2   3
ENDBRANCH   1   2
BRANCH   1   9
ATOM      9  C   UNL     1       0.212  47.588  22.676  1.00  0.00     0.000 C 
BRANCH   9  10
ATOM     10  C   UNL     1      -0.223  48.674  23.673  1.00  0.00    -0.000 C 
BRANCH  10  11
ATOM     11  C   UNL     1       0.335  48.439  25.085  1.00  0.00    -0.000 C 
BRANCH  11  12
ATOM     12  C   UNL     1       0.889  49.723  25.723  1.00  0.00    -0.000 C 
BRANCH  12  13
ATOM     13  C   UNL     1       2.423  49.720  25.715  1.00  0.00    -0.003 C 
ATOM     14  C   UNL     1       2.977  48.614  26.608  1.00  0.00     0.004 C 
ENDBRANCH  12  13
ENDBRANCH  11  12
ENDBRANCH  10  11
ENDBRANCH   9  10
ENDBRANCH   1   9
TORSDOF 10
ENDMDL
MODEL 6
REMARK VINA RESULT:    -3.945      4.301      6.055
REMARK INTER + INTRA:          -7.365
REMARK INTER:                  -6.631
REMARK INTRA:                  -0.734
REMARK UNBOUND:                -1.113
REMARK SMILES CCCCCCCCCCCC(=O)[O-]
REMARK SMILES IDX 7 1 8 2 9 3 10 4 11 5 12 6 13 7 14 8 6 9 5 10 4 11 3 12 2 13
REMARK SMILES IDX 1 14
REMARK H PARENT
REMARK Flexibility Score: inf
ROOT
ATOM      1  C   UNL     1       1.397  50.723  21.285  1.00  0.00     0.000 C 
ENDROOT
BRANCH   1   2
ATOM      2  C   UNL     1       1.723  52.031  22.015  1.00  0.00     0.000 C 
BRANCH   2   3
ATOM      3  C   UNL     1       2.769  51.798  23.117  1.00  0.00     0.000 C 
BRANCH   3   4
ATOM      4  C   UNL     1       3.174  53.097  23.831  1.00  0.00     0.006 C 
BRANCH   4   5
ATOM      5  C   UNL     1       2.432  54.325  23.291  1.00  0.00     0.053 C 
BRANCH   5   6
ATOM      6  C   UNL     1       3.404  55.401  22.919  1.00  0.00     0.041 C 
ATOM      7  O   UNL     1       3.394  56.502  23.530  1.00  0.00    -0.550 OA
ATOM      8  O   UNL     1       4.354  55.169  21.932  1.00  0.00    -0.550 OA
ENDBRANCH   5   6
ENDBRANCH   4   5
ENDBRANCH   3   4
ENDBRANCH   2   3
ENDBRANCH   1   2
BRANCH   1   9
ATOM      9  C   UNL     1       2.082  49.529  21.958  1.00  0.00     0.000 C 
BRANCH   9  10
ATOM     10  C   UNL     1       1.333  48.221  21.656  1.00  0.00    -0.000 C 
BRANCH  10  11
ATOM     11  C   UNL     1       0.197  47.945  22.652  1.00  0.00    -0.000 C 
BRANCH  11  12
ATOM     12  C   UNL     1       0.480  48.521  24.048  1.00  0.00    -0.000 C 
BRANCH  12  13
ATOM     13  C   UNL     1      -0.043  47.584  25.144  1.00  0.00    -0.003 C 
ATOM     14  C   UNL     1      -0.466  46.238  24.563  1.00  0.00     0.004 C 
ENDBRANCH  12  13
ENDBRANCH  11  12
ENDBRANCH  10  11
ENDBRANCH   9  10
ENDBRANCH   1   9
TORSDOF 10
ENDMDL
MODEL 7
REMARK VINA RESULT:    -3.910      2.494      4.389
REMARK INTER + INTRA:          -7.310
REMARK INTER:                  -6.700
REMARK INTRA:                  -0.609
REMARK UNBOUND:                -1.113
REMARK SMILES CCCCCCCCCCCC(=O)[O-]
REMARK SMILES IDX 7 1 8 2 9 3 10 4 11 5 12 6 13 7 14 8 6 9 5 10 4 11 3 12 2 13
REMARK SMILES IDX 1 14
REMARK H PARENT
REMARK Flexibility Score: inf
ROOT
ATOM      1  C   UNL     1       0.072  47.960  22.906  1.00  0.00     0.000 C 
ENDROOT
BRANCH   1   2
ATOM      2  C   UNL     1      -0.525  46.559  23.086  1.00  0.00     0.000 C 
BRANCH   2   3
ATOM      3  C   UNL     1      -0.869  46.293  24.560  1.00  0.00     0.000 C 
BRANCH   3   4
ATOM      4  C   UNL     1      -2.379  46.131  24.795  1.00  0.00     0.006 C 
BRANCH   4   5
ATOM      5  C   UNL     1      -2.933  44.830  24.203  1.00  0.00     0.053 C 
BRANCH   5   6
ATOM      6  C   UNL     1      -4.429  44.832  24.245  1.00  0.00     0.041 C 
ATOM      7  O   UNL     1      -5.047  45.810  24.744  1.00  0.00    -0.550 OA
ATOM      8  O   UNL     1      -5.143  43.779  23.689  1.00  0.00    -0.550 OA
ENDBRANCH   5   6
ENDBRANCH   4   5
ENDBRANCH   3   4
ENDBRANCH   2   3
ENDBRANCH   1   2
BRANCH   1   9
ATOM      9  C   UNL     1       0.981  48.019  21.673  1.00  0.00     0.000 C 
BRANCH   9  10
ATOM     10  C   UNL     1       2.104  49.049  21.866  1.00  0.00    -0.000 C 
BRANCH  10  11
ATOM     11  C   UNL     1       1.751  50.427  21.287  1.00  0.00    -0.000 C 
BRANCH  11  12
ATOM     12  C   UNL     1       1.601  51.504  22.371  1.00  0.00    -0.000 C 
BRANCH  12  13
ATOM     13  C   UNL     1       2.124  50.999  23.722  1.00  0.00    -0.003 C 
ATOM     14  C   UNL     1       1.037  51.056  24.791  1.00  0.00     0.004 C 
ENDBRANCH  12  13
ENDBRANCH  11  12
ENDBRANCH  10  11
ENDBRANCH   9  10
ENDBRANCH   1   9
TORSDOF 10
ENDMDL
MODEL 8
REMARK VINA RESULT:    -3.881      1.094      3.366
REMARK INTER + INTRA:          -7.263
REMARK INTER:                  -5.849
REMARK INTRA:                  -1.414
REMARK UNBOUND:                -1.113
REMARK SMILES CCCCCCCCCCCC(=O)[O-]
REMARK SMILES IDX 7 1 8 2 9 3 10 4 11 5 12 6 13 7 14 8 6 9 5 10 4 11 3 12 2 13
REMARK SMILES IDX 1 14
REMARK H PARENT
REMARK Flexibility Score: inf
ROOT
ATOM      1  C   UNL     1       2.502  50.294  25.088  1.00  0.00     0.000 C 
ENDROOT
BRANCH   1   2
ATOM      2  C   UNL     1       1.391  50.105  26.128  1.00  0.00     0.000 C 
BRANCH   2   3
ATOM      3  C   UNL     1       0.066  49.719  25.452  1.00  0.00     0.000 C 
BRANCH   3   4
ATOM      4  C   UNL     1       0.130  48.344  24.768  1.00  0.00     0.006 C 
BRANCH   4   5
ATOM      5  C   UNL     1      -1.138  48.023  23.966  1.00  0.00     0.053 C 
BRANCH   5   6
ATOM      6  C   UNL     1      -1.291  46.544  23.801  1.00  0.00     0.041 C 
ATOM      7  O   UNL     1      -1.904  45.870  24.671  1.00  0.00    -0.550 OA
ATOM      8  O   UNL     1      -0.800  45.916  22.664  1.00  0.00    -0.550 OA
ENDBRANCH   5   6
ENDBRANCH   4   5
ENDBRANCH   3   4
ENDBRANCH   2   3
ENDBRANCH   1   2
BRANCH   1   9
ATOM      9  C   UNL     1       2.669  51.774  24.722  1.00  0.00     0.000 C 
BRANCH   9  10
ATOM     10  C   UNL     1       2.626  51.972  23.199  1.00  0.00    -0.000 C 
BRANCH  10  11
ATOM     11  C   UNL     1       1.192  52.062  22.653  1.00  0.00    -0.000 C 
BRANCH  11  12
ATOM     12  C   UNL     1       0.797  50.833  21.821  1.00  0.00    -0.000 C 
BRANCH  12  13
ATOM     13  C   UNL     1       2.025  49.971  21.500  1.00  0.00    -0.003 C 
ATOM     14  C   UNL     1       1.694  48.485  21.586  1.00  0.00     0.004 C 
ENDBRANCH  12  13
ENDBRANCH  11  12
ENDBRANCH  10  11
ENDBRANCH   9  10
ENDBRANCH   1   9
TORSDOF 10
ENDMDL
MODEL 9
REMARK VINA RESULT:    -3.845      3.389      4.766
REMARK INTER + INTRA:          -7.205
REMARK INTER:                  -5.726
REMARK INTRA:                  -1.479
REMARK UNBOUND:                -1.113
REMARK SMILES CCCCCCCCCCCC(=O)[O-]
REMARK SMILES IDX 7 1 8 2 9 3 10 4 11 5 12 6 13 7 14 8 6 9 5 10 4 11 3 12 2 13
REMARK SMILES IDX 1 14
REMARK H PARENT
REMARK Flexibility Score: inf
ROOT
ATOM      1  C   UNL     1       2.117  49.109  21.884  1.00  0.00     0.000 C 
ENDROOT
BRANCH   1   2
ATOM      2  C   UNL     1       1.766  50.546  21.480  1.00  0.00     0.000 C 
BRANCH   2   3
ATOM      3  C   UNL     1       2.220  51.546  22.555  1.00  0.00     0.000 C 
BRANCH   3   4
ATOM      4  C   UNL     1       1.266  52.743  22.690  1.00  0.00     0.006 C 
BRANCH   4   5
ATOM      5  C   UNL     1      -0.201  52.359  22.463  1.00  0.00     0.053 C 
BRANCH   5   6
ATOM      6  C   UNL     1      -0.956  53.508  21.873  1.00  0.00     0.041 C 
ATOM      7  O   UNL     1      -2.212  53.552  21.960  1.00  0.00    -0.550 OA
ATOM      8  O   UNL     1      -0.271  54.555  21.269  1.00  0.00    -0.550 OA
ENDBRANCH   5   6
ENDBRANCH   4   5
ENDBRANCH   3   4
ENDBRANCH   2   3
ENDBRANCH   1   2
BRANCH   1   9
ATOM      9  C   UNL     1       0.929  48.168  21.660  1.00  0.00     0.000 C 
BRANCH   9  10
ATOM     10  C   UNL     1       0.286  47.766  22.996  1.00  0.00    -0.000 C 
BRANCH  10  11
ATOM     11  C   UNL     1      -0.648  48.851  23.555  1.00  0.00    -0.000 C 
BRANCH  11  12
ATOM     12  C   UNL     1      -0.100  49.502  24.834  1.00  0.00    -0.000 C 
BRANCH  12  13
ATOM     13  C   UNL     1       1.058  48.679  25.414  1.00  0.00    -0.003 C 
ATOM     14  C   UNL     1       2.300  49.542  25.616  1.00  0.00     0.004 C 
ENDBRANCH  12  13
ENDBRANCH  11  12
ENDBRANCH  10  11
ENDBRANCH   9  10
ENDBRANCH   1   9
TORSDOF 10
ENDMDL
