MODEL 1
REMARK VINA RESULT:    -7.175      0.000      0.000
REMARK INTER + INTRA:          -8.722
REMARK INTER:                  -8.644
REMARK INTRA:                  -0.079
REMARK UNBOUND:                -0.079
REMARK SMILES O=c1c(O)c(-c2ccc(O)c(O)c2)oc2cc(O)cc(O)c12
REMARK SMILES IDX 5 1 3 2 2 3 1 4 22 5 20 6 19 7 17 8 16 9 15 10 14 11 6 12
REMARK SMILES IDX 7 13 8 14 9 15 13 16 11 17 10 18 12 20 4 22 21 24 18 26
REMARK H PARENT 10 19 12 21 4 23 21 25 18 27
REMARK Flexibility Score: inf
ROOT
ATOM      1  C   UNL     1      13.723   6.456  48.652  1.00  0.00     0.180 A 
ATOM      2  C   UNL     1      14.586   7.197  47.821  1.00  0.00     0.208 A 
ATOM      3  C   UNL     1      15.691   6.553  47.246  1.00  0.00     0.238 A 
ATOM      4  O   UNL     1      16.464   7.203  46.491  1.00  0.00    -0.285 OA
ATOM      5  C   UNL     1      15.928   5.192  47.525  1.00  0.00     0.111 A 
ATOM      6  C   UNL     1      17.023   4.470  46.990  1.00  0.00     0.134 A 
ATOM      7  C   UNL     1      17.195   3.118  47.323  1.00  0.00     0.093 A 
ATOM      8  C   UNL     1      16.299   2.476  48.181  1.00  0.00     0.123 A 
ATOM      9  C   UNL     1      15.216   3.183  48.712  1.00  0.00     0.094 A 
ATOM     10  C   UNL     1      15.025   4.531  48.390  1.00  0.00     0.146 A 
ATOM     11  O   UNL     1      13.986   5.178  48.905  1.00  0.00    -0.452 OA
ENDROOT
BRANCH   1  12
ATOM     12  C   UNL     1      12.525   7.059  49.281  1.00  0.00     0.025 A 
ATOM     13  C   UNL     1      12.371   7.095  50.677  1.00  0.00     0.016 A 
ATOM     14  C   UNL     1      11.244   7.692  51.248  1.00  0.00     0.051 A 
ATOM     15  C   UNL     1      10.261   8.272  50.434  1.00  0.00     0.157 A 
ATOM     16  C   UNL     1      11.550   7.662  48.470  1.00  0.00     0.062 A 
ATOM     17  C   UNL     1      10.418   8.260  49.038  1.00  0.00     0.158 A 
BRANCH  15  18
ATOM     18  O   UNL     1       9.137   8.865  51.008  1.00  0.00    -0.504 OA
ATOM     19  H   UNL     1       8.405   9.275  50.439  1.00  0.00     0.293 HD
ENDBRANCH  15  18
BRANCH  17  20
ATOM     20  O   UNL     1       9.463   8.835  48.201  1.00  0.00    -0.504 OA
ATOM     21  H   UNL     1       9.664   9.650  47.635  1.00  0.00     0.293 HD
ENDBRANCH  17  20
ENDBRANCH   1  12
BRANCH   2  22
ATOM     22  O   UNL     1      14.357   8.557  47.600  1.00  0.00    -0.502 OA
ATOM     23  H   UNL     1      13.645   9.076  48.100  1.00  0.00     0.293 HD
ENDBRANCH   2  22
BRANCH   6  24
ATOM     24  O   UNL     1      17.936   5.083  46.131  1.00  0.00    -0.507 OA
ATOM     25  H   UNL     1      18.215   4.655  45.256  1.00  0.00     0.293 HD
ENDBRANCH   6  24
BRANCH   8  26
ATOM     26  O   UNL     1      16.493   1.134  48.496  1.00  0.00    -0.508 OA
ATOM     27  H   UNL     1      17.233   0.838  49.123  1.00  0.00     0.293 HD
ENDBRANCH   8  26
TORSDOF 6
ENDMDL
MODEL 2
REMARK VINA RESULT:    -7.003      1.592      7.276
REMARK INTER + INTRA:          -8.514
REMARK INTER:                  -8.655
REMARK INTRA:                   0.140
REMARK UNBOUND:                -0.079
REMARK SMILES O=c1c(O)c(-c2ccc(O)c(O)c2)oc2cc(O)cc(O)c12
REMARK SMILES IDX 5 1 3 2 2 3 1 4 22 5 20 6 19 7 17 8 16 9 15 10 14 11 6 12
REMARK SMILES IDX 7 13 8 14 9 15 13 16 11 17 10 18 12 20 4 22 21 24 18 26
REMARK H PARENT 10 19 12 21 4 23 21 25 18 27
REMARK Flexibility Score: inf
ROOT
ATOM      1  C   UNL     1      12.791   6.415  49.318  1.00  0.00     0.180 A 
ATOM      2  C   UNL     1      12.730   6.553  50.718  1.00  0.00     0.208 A 
ATOM      3  C   UNL     1      11.697   7.319  51.280  1.00  0.00     0.238 A 
ATOM      4  O   UNL     1      11.625   7.441  52.533  1.00  0.00    -0.285 OA
ATOM      5  C   UNL     1      10.760   7.950  50.437  1.00  0.00     0.111 A 
ATOM      6  C   UNL     1       9.692   8.745  50.922  1.00  0.00     0.134 A 
ATOM      7  C   UNL     1       8.806   9.346  50.017  1.00  0.00     0.093 A 
ATOM      8  C   UNL     1       8.966   9.173  48.640  1.00  0.00     0.123 A 
ATOM      9  C   UNL     1      10.018   8.390  48.154  1.00  0.00     0.094 A 
ATOM     10  C   UNL     1      10.911   7.779  49.040  1.00  0.00     0.146 A 
ATOM     11  O   UNL     1      11.899   7.037  48.554  1.00  0.00    -0.452 OA
ENDROOT
BRANCH   1  12
ATOM     12  C   UNL     1      13.838   5.607  48.652  1.00  0.00     0.025 A 
ATOM     13  C   UNL     1      14.300   4.403  49.210  1.00  0.00     0.016 A 
ATOM     14  C   UNL     1      15.271   3.645  48.552  1.00  0.00     0.051 A 
ATOM     15  C   UNL     1      15.787   4.072  47.320  1.00  0.00     0.157 A 
ATOM     16  C   UNL     1      14.342   6.020  47.408  1.00  0.00     0.062 A 
ATOM     17  C   UNL     1      15.316   5.264  46.745  1.00  0.00     0.158 A 
BRANCH  15  18
ATOM     18  O   UNL     1      16.757   3.314  46.666  1.00  0.00    -0.504 OA
ATOM     19  H   UNL     1      17.616   3.039  47.129  1.00  0.00     0.293 HD
ENDBRANCH  15  18
BRANCH  17  20
ATOM     20  O   UNL     1      15.803   5.712  45.518  1.00  0.00    -0.504 OA
ATOM     21  H   UNL     1      16.139   5.074  44.806  1.00  0.00     0.293 HD
ENDBRANCH  17  20
ENDBRANCH   1  12
BRANCH   2  22
ATOM     22  O   UNL     1      13.700   5.959  51.529  1.00  0.00    -0.502 OA
ATOM     23  H   UNL     1      13.618   5.925  52.538  1.00  0.00     0.293 HD
ENDBRANCH   2  22
BRANCH   6  24
ATOM     24  O   UNL     1       9.506   8.938  52.291  1.00  0.00    -0.507 OA
ATOM     25  H   UNL     1       9.806   8.250  52.972  1.00  0.00     0.293 HD
ENDBRANCH   6  24
BRANCH   8  26
ATOM     26  O   UNL     1       8.072   9.783  47.763  1.00  0.00    -0.508 OA
ATOM     27  H   UNL     1       7.076   9.597  47.808  1.00  0.00     0.293 HD
ENDBRANCH   8  26
TORSDOF 6
ENDMDL
MODEL 3
REMARK VINA RESULT:    -6.674      2.069      7.071
REMARK INTER + INTRA:          -8.119
REMARK INTER:                  -7.820
REMARK INTRA:                  -0.299
REMARK UNBOUND:                -0.079
REMARK SMILES O=c1c(O)c(-c2ccc(O)c(O)c2)oc2cc(O)cc(O)c12
REMARK SMILES IDX 5 1 3 2 2 3 1 4 22 5 20 6 19 7 17 8 16 9 15 10 14 11 6 12
REMARK SMILES IDX 7 13 8 14 9 15 13 16 11 17 10 18 12 20 4 22 21 24 18 26
REMARK H PARENT 10 19 12 21 4 23 21 25 18 27
REMARK Flexibility Score: inf
ROOT
ATOM      1  C   UNL     1      13.225   7.602  48.606  1.00  0.00     0.180 A 
ATOM      2  C   UNL     1      13.813   8.756  49.158  1.00  0.00     0.208 A 
ATOM      3  C   UNL     1      12.986   9.829  49.526  1.00  0.00     0.238 A 
ATOM      4  O   UNL     1      13.499  10.863  50.032  1.00  0.00    -0.285 OA
ATOM      5  C   UNL     1      11.594   9.740  49.316  1.00  0.00     0.111 A 
ATOM      6  C   UNL     1      10.692  10.778  49.652  1.00  0.00     0.134 A 
ATOM      7  C   UNL     1       9.321  10.616  49.404  1.00  0.00     0.093 A 
ATOM      8  C   UNL     1       8.836   9.441  48.825  1.00  0.00     0.123 A 
ATOM      9  C   UNL     1       9.721   8.412  48.491  1.00  0.00     0.094 A 
ATOM     10  C   UNL     1      11.092   8.553  48.732  1.00  0.00     0.146 A 
ATOM     11  O   UNL     1      11.911   7.559  48.409  1.00  0.00    -0.452 OA
ENDROOT
BRANCH   1  12
ATOM     12  C   UNL     1      14.028   6.421  48.212  1.00  0.00     0.025 A 
ATOM     13  C   UNL     1      14.100   5.279  49.028  1.00  0.00     0.016 A 
ATOM     14  C   UNL     1      14.844   4.168  48.624  1.00  0.00     0.051 A 
ATOM     15  C   UNL     1      15.517   4.176  47.395  1.00  0.00     0.157 A 
ATOM     16  C   UNL     1      14.685   6.416  46.972  1.00  0.00     0.062 A 
ATOM     17  C   UNL     1      15.433   5.305  46.563  1.00  0.00     0.158 A 
BRANCH  15  18
ATOM     18  O   UNL     1      16.260   3.066  46.996  1.00  0.00    -0.504 OA
ATOM     19  H   UNL     1      15.851   2.327  46.436  1.00  0.00     0.293 HD
ENDBRANCH  15  18
BRANCH  17  20
ATOM     20  O   UNL     1      16.084   5.342  45.331  1.00  0.00    -0.504 OA
ATOM     21  H   UNL     1      16.969   4.872  45.175  1.00  0.00     0.293 HD
ENDBRANCH  17  20
ENDBRANCH   1  12
BRANCH   2  22
ATOM     22  O   UNL     1      15.199   8.839  49.310  1.00  0.00    -0.502 OA
ATOM     23  H   UNL     1      15.749   8.081  49.696  1.00  0.00     0.293 HD
ENDBRANCH   2  22
BRANCH   6  24
ATOM     24  O   UNL     1      11.146  11.964  50.231  1.00  0.00    -0.507 OA
ATOM     25  H   UNL     1      10.514  12.726  50.449  1.00  0.00     0.293 HD
ENDBRANCH   6  24
BRANCH   8  26
ATOM     26  O   UNL     1       7.470   9.306  48.588  1.00  0.00    -0.508 OA
ATOM     27  H   UNL     1       6.800   9.281  49.349  1.00  0.00     0.293 HD
ENDBRANCH   8  26
TORSDOF 6
ENDMDL
MODEL 4
REMARK VINA RESULT:    -6.429      3.237      6.173
REMARK INTER + INTRA:          -7.824
REMARK INTER:                  -7.513
REMARK INTRA:                  -0.311
REMARK UNBOUND:                -0.079
REMARK SMILES O=c1c(O)c(-c2ccc(O)c(O)c2)oc2cc(O)cc(O)c12
REMARK SMILES IDX 5 1 3 2 2 3 1 4 22 5 20 6 19 7 17 8 16 9 15 10 14 11 6 12
REMARK SMILES IDX 7 13 8 14 9 15 13 16 11 17 10 18 12 20 4 22 21 24 18 26
REMARK H PARENT 10 19 12 21 4 23 21 25 18 27
REMARK Flexibility Score: inf
ROOT
ATOM      1  C   UNL     1       9.039   8.884  50.533  1.00  0.00     0.180 A 
ATOM      2  C   UNL     1       9.493   8.356  51.757  1.00  0.00     0.208 A 
ATOM      3  C   UNL     1      10.699   7.640  51.781  1.00  0.00     0.238 A 
ATOM      4  O   UNL     1      11.122   7.172  52.873  1.00  0.00    -0.285 OA
ATOM      5  C   UNL     1      11.418   7.444  50.584  1.00  0.00     0.111 A 
ATOM      6  C   UNL     1      12.639   6.730  50.520  1.00  0.00     0.134 A 
ATOM      7  C   UNL     1      13.289   6.572  49.288  1.00  0.00     0.093 A 
ATOM      8  C   UNL     1      12.744   7.110  48.120  1.00  0.00     0.123 A 
ATOM      9  C   UNL     1      11.539   7.817  48.176  1.00  0.00     0.094 A 
ATOM     10  C   UNL     1      10.876   7.988  49.395  1.00  0.00     0.146 A 
ATOM     11  O   UNL     1       9.735   8.667  49.422  1.00  0.00    -0.452 OA
ENDROOT
BRANCH   1  12
ATOM     12  C   UNL     1       7.787   9.667  50.431  1.00  0.00     0.025 A 
ATOM     13  C   UNL     1       7.739  11.024  50.795  1.00  0.00     0.016 A 
ATOM     14  C   UNL     1       6.553  11.749  50.667  1.00  0.00     0.051 A 
ATOM     15  C   UNL     1       5.399  11.135  50.161  1.00  0.00     0.157 A 
ATOM     16  C   UNL     1       6.634   9.062  49.903  1.00  0.00     0.062 A 
ATOM     17  C   UNL     1       5.442   9.785  49.774  1.00  0.00     0.158 A 
BRANCH  15  18
ATOM     18  O   UNL     1       4.216  11.861  50.035  1.00  0.00    -0.504 OA
ATOM     19  H   UNL     1       3.693  11.879  49.167  1.00  0.00     0.293 HD
ENDBRANCH  15  18
BRANCH  17  20
ATOM     20  O   UNL     1       4.315   9.146  49.260  1.00  0.00    -0.504 OA
ATOM     21  H   UNL     1       4.109   9.133  48.268  1.00  0.00     0.293 HD
ENDBRANCH  17  20
ENDBRANCH   1  12
BRANCH   2  22
ATOM     22  O   UNL     1       8.738   8.520  52.921  1.00  0.00    -0.502 OA
ATOM     23  H   UNL     1       8.160   9.336  53.082  1.00  0.00     0.293 HD
ENDBRANCH   2  22
BRANCH   6  24
ATOM     24  O   UNL     1      13.209   6.179  51.668  1.00  0.00    -0.507 OA
ATOM     25  H   UNL     1      12.713   5.503  52.238  1.00  0.00     0.293 HD
ENDBRANCH   6  24
BRANCH   8  26
ATOM     26  O   UNL     1      13.410   6.938  46.909  1.00  0.00    -0.508 OA
ATOM     27  H   UNL     1      13.934   6.094  46.707  1.00  0.00     0.293 HD
ENDBRANCH   8  26
TORSDOF 6
ENDMDL
MODEL 5
REMARK VINA RESULT:    -6.357      3.283      6.979
REMARK INTER + INTRA:          -7.737
REMARK INTER:                  -7.417
REMARK INTRA:                  -0.320
REMARK UNBOUND:                -0.079
REMARK SMILES O=c1c(O)c(-c2ccc(O)c(O)c2)oc2cc(O)cc(O)c12
REMARK SMILES IDX 5 1 3 2 2 3 1 4 22 5 20 6 19 7 17 8 16 9 15 10 14 11 6 12
REMARK SMILES IDX 7 13 8 14 9 15 13 16 11 17 10 18 12 20 4 22 21 24 18 26
REMARK H PARENT 10 19 12 21 4 23 21 25 18 27
REMARK Flexibility Score: inf
ROOT
ATOM      1  C   UNL     1      17.184   6.406  45.672  1.00  0.00     0.180 A 
ATOM      2  C   UNL     1      16.213   7.144  46.376  1.00  0.00     0.208 A 
ATOM      3  C   UNL     1      15.511   6.519  47.417  1.00  0.00     0.238 A 
ATOM      4  O   UNL     1      14.646   7.172  48.063  1.00  0.00    -0.285 OA
ATOM      5  C   UNL     1      15.773   5.167  47.723  1.00  0.00     0.111 A 
ATOM      6  C   UNL     1      15.105   4.462  48.753  1.00  0.00     0.134 A 
ATOM      7  C   UNL     1      15.416   3.115  48.989  1.00  0.00     0.093 A 
ATOM      8  C   UNL     1      16.378   2.460  48.216  1.00  0.00     0.123 A 
ATOM      9  C   UNL     1      17.042   3.151  47.197  1.00  0.00     0.094 A 
ATOM     10  C   UNL     1      16.747   4.495  46.948  1.00  0.00     0.146 A 
ATOM     11  O   UNL     1      17.394   5.129  45.978  1.00  0.00    -0.452 OA
ENDROOT
BRANCH   1  12
ATOM     12  C   UNL     1      17.981   7.001  44.574  1.00  0.00     0.025 A 
ATOM     13  C   UNL     1      17.565   6.908  43.235  1.00  0.00     0.016 A 
ATOM     14  C   UNL     1      18.320   7.498  42.218  1.00  0.00     0.051 A 
ATOM     15  C   UNL     1      19.494   8.200  42.525  1.00  0.00     0.157 A 
ATOM     16  C   UNL     1      19.145   7.724  44.879  1.00  0.00     0.062 A 
ATOM     17  C   UNL     1      19.906   8.316  43.863  1.00  0.00     0.158 A 
BRANCH  15  18
ATOM     18  O   UNL     1      20.246   8.786  41.507  1.00  0.00    -0.504 OA
ATOM     19  H   UNL     1      20.744   9.657  41.650  1.00  0.00     0.293 HD
ENDBRANCH  15  18
BRANCH  17  20
ATOM     20  O   UNL     1      21.064   9.013  44.202  1.00  0.00    -0.504 OA
ATOM     21  H   UNL     1      21.098  10.026  44.218  1.00  0.00     0.293 HD
ENDBRANCH  17  20
ENDBRANCH   1  12
BRANCH   2  22
ATOM     22  O   UNL     1      15.937   8.466  46.022  1.00  0.00    -0.502 OA
ATOM     23  H   UNL     1      15.702   8.737  45.074  1.00  0.00     0.293 HD
ENDBRANCH   2  22
BRANCH   6  24
ATOM     24  O   UNL     1      14.138   5.087  49.541  1.00  0.00    -0.507 OA
ATOM     25  H   UNL     1      14.307   5.986  49.978  1.00  0.00     0.293 HD
ENDBRANCH   6  24
BRANCH   8  26
ATOM     26  O   UNL     1      16.668   1.122  48.471  1.00  0.00    -0.508 OA
ATOM     27  H   UNL     1      16.494   0.705  49.379  1.00  0.00     0.293 HD
ENDBRANCH   8  26
TORSDOF 6
ENDMDL
MODEL 6
REMARK VINA RESULT:    -6.342      1.746      3.434
REMARK INTER + INTRA:          -7.718
REMARK INTER:                  -7.734
REMARK INTRA:                   0.016
REMARK UNBOUND:                -0.079
REMARK SMILES O=c1c(O)c(-c2ccc(O)c(O)c2)oc2cc(O)cc(O)c12
REMARK SMILES IDX 5 1 3 2 2 3 1 4 22 5 20 6 19 7 17 8 16 9 15 10 14 11 6 12
REMARK SMILES IDX 7 13 8 14 9 15 13 16 11 17 10 18 12 20 4 22 21 24 18 26
REMARK H PARENT 10 19 12 21 4 23 21 25 18 27
REMARK Flexibility Score: inf
ROOT
ATOM      1  C   UNL     1      14.715   6.381  48.172  1.00  0.00     0.180 A 
ATOM      2  C   UNL     1      15.384   5.170  48.435  1.00  0.00     0.208 A 
ATOM      3  C   UNL     1      16.600   4.913  47.785  1.00  0.00     0.238 A 
ATOM      4  O   UNL     1      17.214   3.837  48.020  1.00  0.00    -0.285 OA
ATOM      5  C   UNL     1      17.115   5.855  46.871  1.00  0.00     0.111 A 
ATOM      6  C   UNL     1      18.332   5.670  46.170  1.00  0.00     0.134 A 
ATOM      7  C   UNL     1      18.772   6.651  45.270  1.00  0.00     0.093 A 
ATOM      8  C   UNL     1      18.023   7.810  45.055  1.00  0.00     0.123 A 
ATOM      9  C   UNL     1      16.821   7.999  45.745  1.00  0.00     0.094 A 
ATOM     10  C   UNL     1      16.365   7.034  46.648  1.00  0.00     0.146 A 
ATOM     11  O   UNL     1      15.223   7.239  47.293  1.00  0.00    -0.452 OA
ENDROOT
BRANCH   1  12
ATOM     12  C   UNL     1      13.437   6.734  48.833  1.00  0.00     0.025 A 
ATOM     13  C   UNL     1      13.266   6.588  50.221  1.00  0.00     0.016 A 
ATOM     14  C   UNL     1      12.060   6.950  50.826  1.00  0.00     0.051 A 
ATOM     15  C   UNL     1      11.012   7.475  50.057  1.00  0.00     0.157 A 
ATOM     16  C   UNL     1      12.393   7.281  48.071  1.00  0.00     0.062 A 
ATOM     17  C   UNL     1      11.182   7.645  48.673  1.00  0.00     0.158 A 
BRANCH  15  18
ATOM     18  O   UNL     1       9.810   7.834  50.664  1.00  0.00    -0.504 OA
ATOM     19  H   UNL     1       9.636   7.653  51.646  1.00  0.00     0.293 HD
ENDBRANCH  15  18
BRANCH  17  20
ATOM     20  O   UNL     1      10.163   8.171  47.881  1.00  0.00    -0.504 OA
ATOM     21  H   UNL     1      10.298   8.383  46.900  1.00  0.00     0.293 HD
ENDBRANCH  17  20
ENDBRANCH   1  12
BRANCH   2  22
ATOM     22  O   UNL     1      14.828   4.231  49.307  1.00  0.00    -0.502 OA
ATOM     23  H   UNL     1      15.396   3.614  49.874  1.00  0.00     0.293 HD
ENDBRANCH   2  22
BRANCH   6  24
ATOM     24  O   UNL     1      19.103   4.523  46.361  1.00  0.00    -0.507 OA
ATOM     25  H   UNL     1      18.960   3.686  45.807  1.00  0.00     0.293 HD
ENDBRANCH   6  24
BRANCH   8  26
ATOM     26  O   UNL     1      18.483   8.768  44.156  1.00  0.00    -0.508 OA
ATOM     27  H   UNL     1      19.087   8.520  43.380  1.00  0.00     0.293 HD
ENDBRANCH   8  26
TORSDOF 6
ENDMDL
MODEL 7
REMARK VINA RESULT:    -6.276      1.622      7.150
REMARK INTER + INTRA:          -7.639
REMARK INTER:                  -7.569
REMARK INTRA:                  -0.070
REMARK UNBOUND:                -0.079
REMARK SMILES O=c1c(O)c(-c2ccc(O)c(O)c2)oc2cc(O)cc(O)c12
REMARK SMILES IDX 5 1 3 2 2 3 1 4 22 5 20 6 19 7 17 8 16 9 15 10 14 11 6 12
REMARK SMILES IDX 7 13 8 14 9 15 13 16 11 17 10 18 12 20 4 22 21 24 18 26
REMARK H PARENT 10 19 12 21 4 23 21 25 18 27
REMARK Flexibility Score: inf
ROOT
ATOM      1  C   UNL     1      12.592   6.990  49.160  1.00  0.00     0.180 A 
ATOM      2  C   UNL     1      11.544   7.611  48.454  1.00  0.00     0.208 A 
ATOM      3  C   UNL     1      10.535   8.267  49.175  1.00  0.00     0.238 A 
ATOM      4  O   UNL     1       9.597   8.836  48.554  1.00  0.00    -0.285 OA
ATOM      5  C   UNL     1      10.578   8.273  50.585  1.00  0.00     0.111 A 
ATOM      6  C   UNL     1       9.598   8.906  51.387  1.00  0.00     0.134 A 
ATOM      7  C   UNL     1       9.707   8.860  52.785  1.00  0.00     0.093 A 
ATOM      8  C   UNL     1      10.773   8.194  53.395  1.00  0.00     0.123 A 
ATOM      9  C   UNL     1      11.744   7.567  52.608  1.00  0.00     0.094 A 
ATOM     10  C   UNL     1      11.654   7.603  51.213  1.00  0.00     0.146 A 
ATOM     11  O   UNL     1      12.592   7.004  50.489  1.00  0.00    -0.452 OA
ENDROOT
BRANCH   1  12
ATOM     12  C   UNL     1      13.703   6.296  48.469  1.00  0.00     0.025 A 
ATOM     13  C   UNL     1      14.467   6.939  47.481  1.00  0.00     0.016 A 
ATOM     14  C   UNL     1      15.526   6.272  46.860  1.00  0.00     0.051 A 
ATOM     15  C   UNL     1      15.846   4.957  47.226  1.00  0.00     0.157 A 
ATOM     16  C   UNL     1      14.041   4.986  48.848  1.00  0.00     0.062 A 
ATOM     17  C   UNL     1      15.101   4.313  48.228  1.00  0.00     0.158 A 
BRANCH  15  18
ATOM     18  O   UNL     1      16.902   4.294  46.603  1.00  0.00    -0.504 OA
ATOM     19  H   UNL     1      17.636   3.845  47.138  1.00  0.00     0.293 HD
ENDBRANCH  15  18
BRANCH  17  20
ATOM     20  O   UNL     1      15.397   3.009  48.620  1.00  0.00    -0.504 OA
ATOM     21  H   UNL     1      15.663   2.294  47.953  1.00  0.00     0.293 HD
ENDBRANCH  17  20
ENDBRANCH   1  12
BRANCH   2  22
ATOM     22  O   UNL     1      11.498   7.548  47.059  1.00  0.00    -0.502 OA
ATOM     23  H   UNL     1      10.852   8.104  46.511  1.00  0.00     0.293 HD
ENDBRANCH   2  22
BRANCH   6  24
ATOM     24  O   UNL     1       8.522   9.579  50.809  1.00  0.00    -0.507 OA
ATOM     25  H   UNL     1       8.072  10.362  51.270  1.00  0.00     0.293 HD
ENDBRANCH   6  24
BRANCH   8  26
ATOM     26  O   UNL     1      10.857   8.163  54.785  1.00  0.00    -0.508 OA
ATOM     27  H   UNL     1      10.028   8.213  55.368  1.00  0.00     0.293 HD
ENDBRANCH   8  26
TORSDOF 6
ENDMDL
MODEL 8
REMARK VINA RESULT:    -6.174      1.310      1.921
REMARK INTER + INTRA:          -7.516
REMARK INTER:                  -7.374
REMARK INTRA:                  -0.142
REMARK UNBOUND:                -0.079
REMARK SMILES O=c1c(O)c(-c2ccc(O)c(O)c2)oc2cc(O)cc(O)c12
REMARK SMILES IDX 5 1 3 2 2 3 1 4 22 5 20 6 19 7 17 8 16 9 15 10 14 11 6 12
REMARK SMILES IDX 7 13 8 14 9 15 13 16 11 17 10 18 12 20 4 22 21 24 18 26
REMARK H PARENT 10 19 12 21 4 23 21 25 18 27
REMARK Flexibility Score: inf
ROOT
ATOM      1  C   UNL     1      12.441   7.777  48.832  1.00  0.00     0.180 A 
ATOM      2  C   UNL     1      13.246   8.669  48.098  1.00  0.00     0.208 A 
ATOM      3  C   UNL     1      14.465   8.209  47.577  1.00  0.00     0.238 A 
ATOM      4  O   UNL     1      15.190   8.994  46.907  1.00  0.00    -0.285 OA
ATOM      5  C   UNL     1      14.868   6.879  47.816  1.00  0.00     0.111 A 
ATOM      6  C   UNL     1      16.084   6.338  47.331  1.00  0.00     0.134 A 
ATOM      7  C   UNL     1      16.417   5.007  47.620  1.00  0.00     0.093 A 
ATOM      8  C   UNL     1      15.563   4.208  48.383  1.00  0.00     0.123 A 
ATOM      9  C   UNL     1      14.361   4.735  48.864  1.00  0.00     0.094 A 
ATOM     10  C   UNL     1      14.009   6.060  48.586  1.00  0.00     0.146 A 
ATOM     11  O   UNL     1      12.860   6.535  49.051  1.00  0.00    -0.452 OA
ENDROOT
BRANCH   1  12
ATOM     12  C   UNL     1      11.133   8.182  49.397  1.00  0.00     0.025 A 
ATOM     13  C   UNL     1      10.918   8.231  50.785  1.00  0.00     0.016 A 
ATOM     14  C   UNL     1       9.684   8.639  51.296  1.00  0.00     0.051 A 
ATOM     15  C   UNL     1       8.649   9.017  50.429  1.00  0.00     0.157 A 
ATOM     16  C   UNL     1      10.101   8.583  48.533  1.00  0.00     0.062 A 
ATOM     17  C   UNL     1       8.862   8.992  49.040  1.00  0.00     0.158 A 
BRANCH  15  18
ATOM     18  O   UNL     1       7.418   9.422  50.941  1.00  0.00    -0.504 OA
ATOM     19  H   UNL     1       6.544   9.106  50.536  1.00  0.00     0.293 HD
ENDBRANCH  15  18
BRANCH  17  20
ATOM     20  O   UNL     1       7.857   9.368  48.151  1.00  0.00    -0.504 OA
ATOM     21  H   UNL     1       6.977   9.760  48.467  1.00  0.00     0.293 HD
ENDBRANCH  17  20
ENDBRANCH   1  12
BRANCH   2  22
ATOM     22  O   UNL     1      12.848   9.996  47.917  1.00  0.00    -0.502 OA
ATOM     23  H   UNL     1      13.447  10.779  48.149  1.00  0.00     0.293 HD
ENDBRANCH   2  22
BRANCH   6  24
ATOM     24  O   UNL     1      16.959   7.111  46.567  1.00  0.00    -0.507 OA
ATOM     25  H   UNL     1      17.164   8.075  46.804  1.00  0.00     0.293 HD
ENDBRANCH   6  24
BRANCH   8  26
ATOM     26  O   UNL     1      15.919   2.889  48.655  1.00  0.00    -0.508 OA
ATOM     27  H   UNL     1      16.000   2.547  49.607  1.00  0.00     0.293 HD
ENDBRANCH   8  26
TORSDOF 6
ENDMDL
MODEL 9
REMARK VINA RESULT:    -6.101      2.565      7.769
REMARK INTER + INTRA:          -7.429
REMARK INTER:                  -7.296
REMARK INTRA:                  -0.132
REMARK UNBOUND:                -0.079
REMARK SMILES O=c1c(O)c(-c2ccc(O)c(O)c2)oc2cc(O)cc(O)c12
REMARK SMILES IDX 5 1 3 2 2 3 1 4 22 5 20 6 19 7 17 8 16 9 15 10 14 11 6 12
REMARK SMILES IDX 7 13 8 14 9 15 13 16 11 17 10 18 12 20 4 22 21 24 18 26
REMARK H PARENT 10 19 12 21 4 23 21 25 18 27
REMARK Flexibility Score: inf
ROOT
ATOM      1  C   UNL     1      16.652   5.856  46.230  1.00  0.00     0.180 A 
ATOM      2  C   UNL     1      16.045   4.846  47.002  1.00  0.00     0.208 A 
ATOM      3  C   UNL     1      14.918   5.166  47.773  1.00  0.00     0.238 A 
ATOM      4  O   UNL     1      14.359   4.268  48.459  1.00  0.00    -0.285 OA
ATOM      5  C   UNL     1      14.431   6.490  47.779  1.00  0.00     0.111 A 
ATOM      6  C   UNL     1      13.304   6.897  48.534  1.00  0.00     0.134 A 
ATOM      7  C   UNL     1      12.887   8.235  48.493  1.00  0.00     0.093 A 
ATOM      8  C   UNL     1      13.573   9.173  47.717  1.00  0.00     0.123 A 
ATOM      9  C   UNL     1      14.686   8.777  46.969  1.00  0.00     0.094 A 
ATOM     10  C   UNL     1      15.117   7.447  46.995  1.00  0.00     0.146 A 
ATOM     11  O   UNL     1      16.174   7.096  46.272  1.00  0.00    -0.452 OA
ENDROOT
BRANCH   1  12
ATOM     12  C   UNL     1      17.832   5.591  45.376  1.00  0.00     0.025 A 
ATOM     13  C   UNL     1      19.048   5.145  45.923  1.00  0.00     0.016 A 
ATOM     14  C   UNL     1      20.140   4.879  45.095  1.00  0.00     0.051 A 
ATOM     15  C   UNL     1      20.032   5.041  43.707  1.00  0.00     0.157 A 
ATOM     16  C   UNL     1      17.722   5.731  43.983  1.00  0.00     0.062 A 
ATOM     17  C   UNL     1      18.815   5.466  43.149  1.00  0.00     0.158 A 
BRANCH  15  18
ATOM     18  O   UNL     1      21.125   4.776  42.883  1.00  0.00    -0.504 OA
ATOM     19  H   UNL     1      21.581   5.510  42.353  1.00  0.00     0.293 HD
ENDBRANCH  15  18
BRANCH  17  20
ATOM     20  O   UNL     1      18.672   5.630  41.772  1.00  0.00    -0.504 OA
ATOM     21  H   UNL     1      18.143   4.978  41.204  1.00  0.00     0.293 HD
ENDBRANCH  17  20
ENDBRANCH   1  12
BRANCH   2  22
ATOM     22  O   UNL     1      16.577   3.554  47.018  1.00  0.00    -0.502 OA
ATOM     23  H   UNL     1      16.575   2.976  47.849  1.00  0.00     0.293 HD
ENDBRANCH   2  22
BRANCH   6  24
ATOM     24  O   UNL     1      12.598   5.986  49.319  1.00  0.00    -0.507 OA
ATOM     25  H   UNL     1      11.708   6.223  49.741  1.00  0.00     0.293 HD
ENDBRANCH   6  24
BRANCH   8  26
ATOM     26  O   UNL     1      13.137  10.496  47.695  1.00  0.00    -0.508 OA
ATOM     27  H   UNL     1      13.358  11.139  48.447  1.00  0.00     0.293 HD
ENDBRANCH   8  26
TORSDOF 6
ENDMDL
