MODEL 1
REMARK VINA RESULT:    -5.605      0.000      0.000
REMARK INTER + INTRA:          -6.884
REMARK INTER:                  -6.588
REMARK INTRA:                  -0.296
REMARK UNBOUND:                -0.296
REMARK SMILES O=c1cc(-c2ccc(O)c(O)c2)oc2cc(O)cc(O)c12
REMARK SMILES IDX 4 1 3 2 2 3 1 4 21 5 19 6 18 7 16 8 15 9 14 10 13 11 5 12
REMARK SMILES IDX 6 13 7 14 8 15 12 16 10 17 9 18 11 20 20 22 17 24
REMARK H PARENT 9 19 11 21 20 23 17 25
REMARK Flexibility Score: inf
ROOT
ATOM      1  C   UNL     1    -105.898 186.836  49.880  1.00  0.00     0.138 A 
ATOM      2  C   UNL     1    -105.952 185.817  50.840  1.00  0.00     0.100 A 
ATOM      3  C   UNL     1    -104.820 185.039  51.087  1.00  0.00     0.197 A 
ATOM      4  O   UNL     1    -104.885 184.169  51.994  1.00  0.00    -0.289 OA
ATOM      5  C   UNL     1    -103.637 185.260  50.340  1.00  0.00     0.107 A 
ATOM      6  C   UNL     1    -102.433 184.508  50.481  1.00  0.00     0.134 A 
ATOM      7  C   UNL     1    -101.295 184.884  49.756  1.00  0.00     0.093 A 
ATOM      8  C   UNL     1    -101.336 185.949  48.854  1.00  0.00     0.123 A 
ATOM      9  C   UNL     1    -102.519 186.659  48.673  1.00  0.00     0.094 A 
ATOM     10  C   UNL     1    -103.662 186.330  49.406  1.00  0.00     0.146 A 
ATOM     11  O   UNL     1    -104.766 187.045  49.215  1.00  0.00    -0.456 OA
ENDROOT
BRANCH   1  12
ATOM     12  C   UNL     1    -107.072 187.692  49.576  1.00  0.00     0.021 A 
ATOM     13  C   UNL     1    -108.370 187.160  49.479  1.00  0.00     0.016 A 
ATOM     14  C   UNL     1    -109.457 187.992  49.201  1.00  0.00     0.051 A 
ATOM     15  C   UNL     1    -109.277 189.367  49.022  1.00  0.00     0.157 A 
ATOM     16  C   UNL     1    -106.894 189.076  49.409  1.00  0.00     0.062 A 
ATOM     17  C   UNL     1    -107.979 189.917  49.129  1.00  0.00     0.158 A 
BRANCH  15  18
ATOM     18  O   UNL     1    -110.405 190.142  48.744  1.00  0.00    -0.504 OA
ATOM     19  H   UNL     1    -110.799 190.255  47.821  1.00  0.00     0.293 HD
ENDBRANCH  15  18
BRANCH  17  20
ATOM     20  O   UNL     1    -107.722 191.280  48.968  1.00  0.00    -0.504 OA
ATOM     21  H   UNL     1    -106.797 191.685  48.969  1.00  0.00     0.293 HD
ENDBRANCH  17  20
ENDBRANCH   1  12
BRANCH   6  22
ATOM     22  O   UNL     1    -102.306 183.376  51.293  1.00  0.00    -0.507 OA
ATOM     23  H   UNL     1    -102.648 183.299  52.238  1.00  0.00     0.293 HD
ENDBRANCH   6  22
BRANCH   8  24
ATOM     24  O   UNL     1    -100.202 186.307  48.127  1.00  0.00    -0.508 OA
ATOM     25  H   UNL     1    -100.270 186.820  47.256  1.00  0.00     0.293 HD
ENDBRANCH   8  24
TORSDOF 5
ENDMDL
MODEL 2
REMARK VINA RESULT:    -5.556      1.394      1.394
REMARK INTER + INTRA:          -6.827
REMARK INTER:                  -6.515
REMARK INTRA:                  -0.312
REMARK UNBOUND:                -0.296
REMARK SMILES O=c1cc(-c2ccc(O)c(O)c2)oc2cc(O)cc(O)c12
REMARK SMILES IDX 4 1 3 2 2 3 1 4 21 5 19 6 18 7 16 8 15 9 14 10 13 11 5 12
REMARK SMILES IDX 6 13 7 14 8 15 12 16 10 17 9 18 11 20 20 22 17 24
REMARK H PARENT 9 19 11 21 20 23 17 25
REMARK Flexibility Score: inf
ROOT
ATOM      1  C   UNL     1    -105.948 186.261  48.946  1.00  0.00     0.138 A 
ATOM      2  C   UNL     1    -105.996 185.390  50.042  1.00  0.00     0.100 A 
ATOM      3  C   UNL     1    -104.814 184.841  50.542  1.00  0.00     0.197 A 
ATOM      4  O   UNL     1    -104.886 184.108  51.561  1.00  0.00    -0.289 OA
ATOM      5  C   UNL     1    -103.581 185.139  49.914  1.00  0.00     0.107 A 
ATOM      6  C   UNL     1    -102.316 184.611  50.314  1.00  0.00     0.134 A 
ATOM      7  C   UNL     1    -101.150 185.056  49.678  1.00  0.00     0.093 A 
ATOM      8  C   UNL     1    -101.209 185.966  48.620  1.00  0.00     0.123 A 
ATOM      9  C   UNL     1    -102.442 186.449  48.190  1.00  0.00     0.094 A 
ATOM     10  C   UNL     1    -103.620 186.051  48.826  1.00  0.00     0.146 A 
ATOM     11  O   UNL     1    -104.774 186.550  48.394  1.00  0.00    -0.456 OA
ENDROOT
BRANCH   1  12
ATOM     12  C   UNL     1    -107.175 186.871  48.373  1.00  0.00     0.021 A 
ATOM     13  C   UNL     1    -108.445 186.303  48.570  1.00  0.00     0.016 A 
ATOM     14  C   UNL     1    -109.582 186.905  48.027  1.00  0.00     0.051 A 
ATOM     15  C   UNL     1    -109.480 188.086  47.284  1.00  0.00     0.157 A 
ATOM     16  C   UNL     1    -107.074 188.065  47.637  1.00  0.00     0.062 A 
ATOM     17  C   UNL     1    -108.209 188.674  47.088  1.00  0.00     0.158 A 
BRANCH  15  18
ATOM     18  O   UNL     1    -110.655 188.634  46.766  1.00  0.00    -0.504 OA
ATOM     19  H   UNL     1    -110.723 189.067  45.855  1.00  0.00     0.293 HD
ENDBRANCH  15  18
BRANCH  17  20
ATOM     20  O   UNL     1    -108.029 189.854  46.363  1.00  0.00    -0.504 OA
ATOM     21  H   UNL     1    -108.781 190.374  45.935  1.00  0.00     0.293 HD
ENDBRANCH  17  20
ENDBRANCH   1  12
BRANCH   6  22
ATOM     22  O   UNL     1    -102.150 183.638  51.306  1.00  0.00    -0.507 OA
ATOM     23  H   UNL     1    -102.157 182.643  51.148  1.00  0.00     0.293 HD
ENDBRANCH   6  22
BRANCH   8  24
ATOM     24  O   UNL     1    -100.045 186.391  47.984  1.00  0.00    -0.508 OA
ATOM     25  H   UNL     1     -99.410 187.047  48.422  1.00  0.00     0.293 HD
ENDBRANCH   8  24
TORSDOF 5
ENDMDL
MODEL 3
REMARK VINA RESULT:    -5.193      3.432      6.482
REMARK INTER + INTRA:          -6.400
REMARK INTER:                  -6.106
REMARK INTRA:                  -0.294
REMARK UNBOUND:                -0.296
REMARK SMILES O=c1cc(-c2ccc(O)c(O)c2)oc2cc(O)cc(O)c12
REMARK SMILES IDX 4 1 3 2 2 3 1 4 21 5 19 6 18 7 16 8 15 9 14 10 13 11 5 12
REMARK SMILES IDX 6 13 7 14 8 15 12 16 10 17 9 18 11 20 20 22 17 24
REMARK H PARENT 9 19 11 21 20 23 17 25
REMARK Flexibility Score: inf
ROOT
ATOM      1  C   UNL     1    -104.756 184.855  50.402  1.00  0.00     0.138 A 
ATOM      2  C   UNL     1    -106.000 184.736  49.770  1.00  0.00     0.100 A 
ATOM      3  C   UNL     1    -107.101 184.273  50.492  1.00  0.00     0.197 A 
ATOM      4  O   UNL     1    -108.216 184.231  49.910  1.00  0.00    -0.289 OA
ATOM      5  C   UNL     1    -106.945 183.894  51.847  1.00  0.00     0.107 A 
ATOM      6  C   UNL     1    -107.987 183.377  52.673  1.00  0.00     0.134 A 
ATOM      7  C   UNL     1    -107.736 183.129  54.029  1.00  0.00     0.093 A 
ATOM      8  C   UNL     1    -106.464 183.326  54.573  1.00  0.00     0.123 A 
ATOM      9  C   UNL     1    -105.428 183.783  53.764  1.00  0.00     0.094 A 
ATOM     10  C   UNL     1    -105.656 184.072  52.416  1.00  0.00     0.146 A 
ATOM     11  O   UNL     1    -104.642 184.523  51.684  1.00  0.00    -0.456 OA
ENDROOT
BRANCH   1  12
ATOM     12  C   UNL     1    -103.551 185.338  49.681  1.00  0.00     0.021 A 
ATOM     13  C   UNL     1    -102.263 185.223  50.232  1.00  0.00     0.016 A 
ATOM     14  C   UNL     1    -101.148 185.678  49.525  1.00  0.00     0.051 A 
ATOM     15  C   UNL     1    -101.290 186.249  48.256  1.00  0.00     0.157 A 
ATOM     16  C   UNL     1    -103.692 185.900  48.400  1.00  0.00     0.062 A 
ATOM     17  C   UNL     1    -102.579 186.360  47.686  1.00  0.00     0.158 A 
BRANCH  15  18
ATOM     18  O   UNL     1    -100.135 186.687  47.605  1.00  0.00    -0.504 OA
ATOM     19  H   UNL     1    -100.051 186.776  46.602  1.00  0.00     0.293 HD
ENDBRANCH  15  18
BRANCH  17  20
ATOM     20  O   UNL     1    -102.799 186.914  46.422  1.00  0.00    -0.504 OA
ATOM     21  H   UNL     1    -103.436 186.530  45.740  1.00  0.00     0.293 HD
ENDBRANCH  17  20
ENDBRANCH   1  12
BRANCH   6  22
ATOM     22  O   UNL     1    -109.272 183.068  52.214  1.00  0.00    -0.507 OA
ATOM     23  H   UNL     1    -109.641 183.321  51.310  1.00  0.00     0.293 HD
ENDBRANCH   6  22
BRANCH   8  24
ATOM     24  O   UNL     1    -106.220 183.062  55.919  1.00  0.00    -0.508 OA
ATOM     25  H   UNL     1    -106.711 183.558  56.654  1.00  0.00     0.293 HD
ENDBRANCH   8  24
TORSDOF 5
ENDMDL
MODEL 4
REMARK VINA RESULT:    -5.162      1.585      1.741
REMARK INTER + INTRA:          -6.363
REMARK INTER:                  -6.095
REMARK INTRA:                  -0.269
REMARK UNBOUND:                -0.296
REMARK SMILES O=c1cc(-c2ccc(O)c(O)c2)oc2cc(O)cc(O)c12
REMARK SMILES IDX 4 1 3 2 2 3 1 4 21 5 19 6 18 7 16 8 15 9 14 10 13 11 5 12
REMARK SMILES IDX 6 13 7 14 8 15 12 16 10 17 9 18 11 20 20 22 17 24
REMARK H PARENT 9 19 11 21 20 23 17 25
REMARK Flexibility Score: inf
ROOT
ATOM      1  C   UNL     1    -105.453 187.353  50.583  1.00  0.00     0.138 A 
ATOM      2  C   UNL     1    -105.547 186.136  51.270  1.00  0.00     0.100 A 
ATOM      3  C   UNL     1    -104.524 185.194  51.151  1.00  0.00     0.197 A 
ATOM      4  O   UNL     1    -104.613 184.134  51.824  1.00  0.00    -0.289 OA
ATOM      5  C   UNL     1    -103.417 185.460  50.309  1.00  0.00     0.107 A 
ATOM      6  C   UNL     1    -102.331 184.561  50.084  1.00  0.00     0.134 A 
ATOM      7  C   UNL     1    -101.243 184.976  49.307  1.00  0.00     0.093 A 
ATOM      8  C   UNL     1    -101.227 186.234  48.701  1.00  0.00     0.123 A 
ATOM      9  C   UNL     1    -102.304 187.100  48.874  1.00  0.00     0.094 A 
ATOM     10  C   UNL     1    -103.389 186.729  49.672  1.00  0.00     0.146 A 
ATOM     11  O   UNL     1    -104.389 187.592  49.825  1.00  0.00    -0.456 OA
ENDROOT
BRANCH   1  12
ATOM     12  C   UNL     1    -106.513 188.389  50.671  1.00  0.00     0.021 A 
ATOM     13  C   UNL     1    -107.147 188.898  49.525  1.00  0.00     0.016 A 
ATOM     14  C   UNL     1    -108.149 189.865  49.641  1.00  0.00     0.051 A 
ATOM     15  C   UNL     1    -108.543 190.339  50.896  1.00  0.00     0.157 A 
ATOM     16  C   UNL     1    -106.920 188.855  51.934  1.00  0.00     0.062 A 
ATOM     17  C   UNL     1    -107.922 189.826  52.058  1.00  0.00     0.158 A 
BRANCH  15  18
ATOM     18  O   UNL     1    -109.548 191.308  50.941  1.00  0.00    -0.504 OA
ATOM     19  H   UNL     1    -109.600 192.035  51.641  1.00  0.00     0.293 HD
ENDBRANCH  15  18
BRANCH  17  20
ATOM     20  O   UNL     1    -108.267 190.246  53.345  1.00  0.00    -0.504 OA
ATOM     21  H   UNL     1    -107.642 190.744  53.962  1.00  0.00     0.293 HD
ENDBRANCH  17  20
ENDBRANCH   1  12
BRANCH   6  22
ATOM     22  O   UNL     1    -102.282 183.252  50.575  1.00  0.00    -0.507 OA
ATOM     23  H   UNL     1    -102.203 183.001  51.548  1.00  0.00     0.293 HD
ENDBRANCH   6  22
BRANCH   8  24
ATOM     24  O   UNL     1    -100.146 186.632  47.918  1.00  0.00    -0.508 OA
ATOM     25  H   UNL     1     -99.199 186.342  48.133  1.00  0.00     0.293 HD
ENDBRANCH   8  24
TORSDOF 5
ENDMDL
MODEL 5
REMARK VINA RESULT:    -5.139      2.276      7.058
REMARK INTER + INTRA:          -6.336
REMARK INTER:                  -6.072
REMARK INTRA:                  -0.264
REMARK UNBOUND:                -0.296
REMARK SMILES O=c1cc(-c2ccc(O)c(O)c2)oc2cc(O)cc(O)c12
REMARK SMILES IDX 4 1 3 2 2 3 1 4 21 5 19 6 18 7 16 8 15 9 14 10 13 11 5 12
REMARK SMILES IDX 6 13 7 14 8 15 12 16 10 17 9 18 11 20 20 22 17 24
REMARK H PARENT 9 19 11 21 20 23 17 25
REMARK Flexibility Score: inf
ROOT
ATOM      1  C   UNL     1    -105.301 187.924  50.325  1.00  0.00     0.138 A 
ATOM      2  C   UNL     1    -106.341 188.106  49.404  1.00  0.00     0.100 A 
ATOM      3  C   UNL     1    -107.083 189.288  49.423  1.00  0.00     0.197 A 
ATOM      4  O   UNL     1    -107.973 189.443  48.547  1.00  0.00    -0.289 OA
ATOM      5  C   UNL     1    -106.805 190.278  50.396  1.00  0.00     0.107 A 
ATOM      6  C   UNL     1    -107.517 191.507  50.534  1.00  0.00     0.134 A 
ATOM      7  C   UNL     1    -107.086 192.453  51.472  1.00  0.00     0.093 A 
ATOM      8  C   UNL     1    -106.004 192.190  52.316  1.00  0.00     0.123 A 
ATOM      9  C   UNL     1    -105.334 190.974  52.223  1.00  0.00     0.094 A 
ATOM     10  C   UNL     1    -105.718 190.023  51.274  1.00  0.00     0.146 A 
ATOM     11  O   UNL     1    -105.039 188.882  51.208  1.00  0.00    -0.456 OA
ENDROOT
BRANCH   1  12
ATOM     12  C   UNL     1    -104.482 186.687  50.351  1.00  0.00     0.021 A 
ATOM     13  C   UNL     1    -104.865 185.561  51.102  1.00  0.00     0.016 A 
ATOM     14  C   UNL     1    -104.078 184.407  51.098  1.00  0.00     0.051 A 
ATOM     15  C   UNL     1    -102.901 184.346  50.345  1.00  0.00     0.157 A 
ATOM     16  C   UNL     1    -103.306 186.619  49.583  1.00  0.00     0.062 A 
ATOM     17  C   UNL     1    -102.512 185.466  49.575  1.00  0.00     0.158 A 
BRANCH  15  18
ATOM     18  O   UNL     1    -102.160 183.164  50.388  1.00  0.00    -0.504 OA
ATOM     19  H   UNL     1    -101.376 183.011  51.006  1.00  0.00     0.293 HD
ENDBRANCH  15  18
BRANCH  17  20
ATOM     20  O   UNL     1    -101.354 185.478  48.794  1.00  0.00    -0.504 OA
ATOM     21  H   UNL     1    -100.911 186.319  48.453  1.00  0.00     0.293 HD
ENDBRANCH  17  20
ENDBRANCH   1  12
BRANCH   6  22
ATOM     22  O   UNL     1    -108.660 191.838  49.798  1.00  0.00    -0.507 OA
ATOM     23  H   UNL     1    -108.657 192.266  48.886  1.00  0.00     0.293 HD
ENDBRANCH   6  22
BRANCH   8  24
ATOM     24  O   UNL     1    -105.592 193.132  53.256  1.00  0.00    -0.508 OA
ATOM     25  H   UNL     1    -104.659 193.526  53.239  1.00  0.00     0.293 HD
ENDBRANCH   8  24
TORSDOF 5
ENDMDL
MODEL 6
REMARK VINA RESULT:    -5.044      3.159      7.003
REMARK INTER + INTRA:          -6.225
REMARK INTER:                  -5.932
REMARK INTRA:                  -0.292
REMARK UNBOUND:                -0.296
REMARK SMILES O=c1cc(-c2ccc(O)c(O)c2)oc2cc(O)cc(O)c12
REMARK SMILES IDX 4 1 3 2 2 3 1 4 21 5 19 6 18 7 16 8 15 9 14 10 13 11 5 12
REMARK SMILES IDX 6 13 7 14 8 15 12 16 10 17 9 18 11 20 20 22 17 24
REMARK H PARENT 9 19 11 21 20 23 17 25
REMARK Flexibility Score: inf
ROOT
ATOM      1  C   UNL     1    -105.382 186.729  48.066  1.00  0.00     0.138 A 
ATOM      2  C   UNL     1    -106.416 187.427  48.704  1.00  0.00     0.100 A 
ATOM      3  C   UNL     1    -107.404 188.051  47.941  1.00  0.00     0.197 A 
ATOM      4  O   UNL     1    -108.348 188.622  48.545  1.00  0.00    -0.289 OA
ATOM      5  C   UNL     1    -107.334 188.004  46.527  1.00  0.00     0.107 A 
ATOM      6  C   UNL     1    -108.265 188.631  45.645  1.00  0.00     0.134 A 
ATOM      7  C   UNL     1    -108.149 188.432  44.264  1.00  0.00     0.093 A 
ATOM      8  C   UNL     1    -107.103 187.676  43.731  1.00  0.00     0.123 A 
ATOM      9  C   UNL     1    -106.161 187.101  44.579  1.00  0.00     0.094 A 
ATOM     10  C   UNL     1    -106.269 187.253  45.964  1.00  0.00     0.146 A 
ATOM     11  O   UNL     1    -105.357 186.673  46.739  1.00  0.00    -0.456 OA
ENDROOT
BRANCH   1  12
ATOM     12  C   UNL     1    -104.305 186.050  48.829  1.00  0.00     0.021 A 
ATOM     13  C   UNL     1    -104.586 185.229  49.934  1.00  0.00     0.016 A 
ATOM     14  C   UNL     1    -103.551 184.595  50.626  1.00  0.00     0.051 A 
ATOM     15  C   UNL     1    -102.220 184.760  50.230  1.00  0.00     0.157 A 
ATOM     16  C   UNL     1    -102.967 186.204  48.423  1.00  0.00     0.062 A 
ATOM     17  C   UNL     1    -101.924 185.574  49.112  1.00  0.00     0.158 A 
BRANCH  15  18
ATOM     18  O   UNL     1    -101.233 184.101  50.967  1.00  0.00    -0.504 OA
ATOM     19  H   UNL     1    -101.422 183.364  51.631  1.00  0.00     0.293 HD
ENDBRANCH  15  18
BRANCH  17  20
ATOM     20  O   UNL     1    -100.621 185.781  48.654  1.00  0.00    -0.504 OA
ATOM     21  H   UNL     1     -99.812 185.297  49.015  1.00  0.00     0.293 HD
ENDBRANCH  17  20
ENDBRANCH   1  12
BRANCH   6  22
ATOM     22  O   UNL     1    -109.301 189.472  46.067  1.00  0.00    -0.507 OA
ATOM     23  H   UNL     1    -109.176 190.371  46.505  1.00  0.00     0.293 HD
ENDBRANCH   6  22
BRANCH   8  24
ATOM     24  O   UNL     1    -106.987 187.496  42.354  1.00  0.00    -0.508 OA
ATOM     25  H   UNL     1    -107.495 188.078  41.698  1.00  0.00     0.293 HD
ENDBRANCH   8  24
TORSDOF 5
ENDMDL
MODEL 7
REMARK VINA RESULT:    -4.998      3.152      6.177
REMARK INTER + INTRA:          -6.170
REMARK INTER:                  -5.900
REMARK INTRA:                  -0.270
REMARK UNBOUND:                -0.296
REMARK SMILES O=c1cc(-c2ccc(O)c(O)c2)oc2cc(O)cc(O)c12
REMARK SMILES IDX 4 1 3 2 2 3 1 4 21 5 19 6 18 7 16 8 15 9 14 10 13 11 5 12
REMARK SMILES IDX 6 13 7 14 8 15 12 16 10 17 9 18 11 20 20 22 17 24
REMARK H PARENT 9 19 11 21 20 23 17 25
REMARK Flexibility Score: inf
ROOT
ATOM      1  C   UNL     1    -105.542 184.167  52.101  1.00  0.00     0.138 A 
ATOM      2  C   UNL     1    -106.578 184.680  51.310  1.00  0.00     0.100 A 
ATOM      3  C   UNL     1    -106.277 185.329  50.111  1.00  0.00     0.197 A 
ATOM      4  O   UNL     1    -107.233 185.729  49.398  1.00  0.00    -0.289 OA
ATOM      5  C   UNL     1    -104.926 185.495  49.721  1.00  0.00     0.107 A 
ATOM      6  C   UNL     1    -104.497 186.167  48.538  1.00  0.00     0.134 A 
ATOM      7  C   UNL     1    -103.136 186.182  48.207  1.00  0.00     0.093 A 
ATOM      8  C   UNL     1    -102.184 185.597  49.045  1.00  0.00     0.123 A 
ATOM      9  C   UNL     1    -102.587 184.981  50.227  1.00  0.00     0.094 A 
ATOM     10  C   UNL     1    -103.941 184.920  50.568  1.00  0.00     0.146 A 
ATOM     11  O   UNL     1    -104.283 184.307  51.697  1.00  0.00    -0.456 OA
ENDROOT
BRANCH   1  12
ATOM     12  C   UNL     1    -105.805 183.471  53.385  1.00  0.00     0.021 A 
ATOM     13  C   UNL     1    -106.354 182.178  53.428  1.00  0.00     0.016 A 
ATOM     14  C   UNL     1    -106.581 181.545  54.652  1.00  0.00     0.051 A 
ATOM     15  C   UNL     1    -106.261 182.181  55.856  1.00  0.00     0.157 A 
ATOM     16  C   UNL     1    -105.470 184.104  54.595  1.00  0.00     0.062 A 
ATOM     17  C   UNL     1    -105.696 183.477  55.827  1.00  0.00     0.158 A 
BRANCH  15  18
ATOM     18  O   UNL     1    -106.516 181.494  57.044  1.00  0.00    -0.504 OA
ATOM     19  H   UNL     1    -105.987 181.622  57.895  1.00  0.00     0.293 HD
ENDBRANCH  15  18
BRANCH  17  20
ATOM     20  O   UNL     1    -105.346 184.172  56.986  1.00  0.00    -0.504 OA
ATOM     21  H   UNL     1    -105.792 185.025  57.290  1.00  0.00     0.293 HD
ENDBRANCH  17  20
ENDBRANCH   1  12
BRANCH   6  22
ATOM     22  O   UNL     1    -105.354 186.853  47.671  1.00  0.00    -0.507 OA
ATOM     23  H   UNL     1    -105.580 186.567  46.732  1.00  0.00     0.293 HD
ENDBRANCH   6  22
BRANCH   8  24
ATOM     24  O   UNL     1    -100.831 185.630  48.715  1.00  0.00    -0.508 OA
ATOM     25  H   UNL     1    -100.522 185.724  47.755  1.00  0.00     0.293 HD
ENDBRANCH   8  24
TORSDOF 5
ENDMDL
MODEL 8
REMARK VINA RESULT:    -4.839      1.960      7.178
REMARK INTER + INTRA:          -5.984
REMARK INTER:                  -5.721
REMARK INTRA:                  -0.263
REMARK UNBOUND:                -0.296
REMARK SMILES O=c1cc(-c2ccc(O)c(O)c2)oc2cc(O)cc(O)c12
REMARK SMILES IDX 4 1 3 2 2 3 1 4 21 5 19 6 18 7 16 8 15 9 14 10 13 11 5 12
REMARK SMILES IDX 6 13 7 14 8 15 12 16 10 17 9 18 11 20 20 22 17 24
REMARK H PARENT 9 19 11 21 20 23 17 25
REMARK Flexibility Score: inf
ROOT
ATOM      1  C   UNL     1    -105.598 186.856  48.415  1.00  0.00     0.138 A 
ATOM      2  C   UNL     1    -106.107 186.470  47.168  1.00  0.00     0.100 A 
ATOM      3  C   UNL     1    -107.132 187.212  46.580  1.00  0.00     0.197 A 
ATOM      4  O   UNL     1    -107.528 186.871  45.435  1.00  0.00    -0.289 OA
ATOM      5  C   UNL     1    -107.675 188.326  47.262  1.00  0.00     0.107 A 
ATOM      6  C   UNL     1    -108.744 189.137  46.776  1.00  0.00     0.134 A 
ATOM      7  C   UNL     1    -109.131 190.275  47.496  1.00  0.00     0.093 A 
ATOM      8  C   UNL     1    -108.525 190.598  48.712  1.00  0.00     0.123 A 
ATOM      9  C   UNL     1    -107.514 189.786  49.220  1.00  0.00     0.094 A 
ATOM     10  C   UNL     1    -107.083 188.664  48.509  1.00  0.00     0.146 A 
ATOM     11  O   UNL     1    -106.103 187.926  49.022  1.00  0.00    -0.456 OA
ENDROOT
BRANCH   1  12
ATOM     12  C   UNL     1    -104.511 186.102  49.088  1.00  0.00     0.021 A 
ATOM     13  C   UNL     1    -104.769 185.224  50.155  1.00  0.00     0.016 A 
ATOM     14  C   UNL     1    -103.726 184.521  50.761  1.00  0.00     0.051 A 
ATOM     15  C   UNL     1    -102.409 184.670  50.316  1.00  0.00     0.157 A 
ATOM     16  C   UNL     1    -103.188 186.242  48.632  1.00  0.00     0.062 A 
ATOM     17  C   UNL     1    -102.137 185.541  49.235  1.00  0.00     0.158 A 
BRANCH  15  18
ATOM     18  O   UNL     1    -101.413 183.940  50.968  1.00  0.00    -0.504 OA
ATOM     19  H   UNL     1    -101.369 183.814  51.969  1.00  0.00     0.293 HD
ENDBRANCH  15  18
BRANCH  17  20
ATOM     20  O   UNL     1    -100.849 185.738  48.732  1.00  0.00    -0.504 OA
ATOM     21  H   UNL     1    -100.622 185.749  47.748  1.00  0.00     0.293 HD
ENDBRANCH  17  20
ENDBRANCH   1  12
BRANCH   6  22
ATOM     22  O   UNL     1    -109.472 188.860  45.614  1.00  0.00    -0.507 OA
ATOM     23  H   UNL     1    -109.752 187.941  45.311  1.00  0.00     0.293 HD
ENDBRANCH   6  22
BRANCH   8  24
ATOM     24  O   UNL     1    -108.926 191.724  49.428  1.00  0.00    -0.508 OA
ATOM     25  H   UNL     1    -109.753 191.714  50.014  1.00  0.00     0.293 HD
ENDBRANCH   8  24
TORSDOF 5
ENDMDL
MODEL 9
REMARK VINA RESULT:    -4.798      3.604      6.474
REMARK INTER + INTRA:          -5.935
REMARK INTER:                  -5.635
REMARK INTRA:                  -0.300
REMARK UNBOUND:                -0.296
REMARK SMILES O=c1cc(-c2ccc(O)c(O)c2)oc2cc(O)cc(O)c12
REMARK SMILES IDX 4 1 3 2 2 3 1 4 21 5 19 6 18 7 16 8 15 9 14 10 13 11 5 12
REMARK SMILES IDX 6 13 7 14 8 15 12 16 10 17 9 18 11 20 20 22 17 24
REMARK H PARENT 9 19 11 21 20 23 17 25
REMARK Flexibility Score: inf
ROOT
ATOM      1  C   UNL     1    -105.403 184.532  51.225  1.00  0.00     0.138 A 
ATOM      2  C   UNL     1    -106.630 183.936  50.906  1.00  0.00     0.100 A 
ATOM      3  C   UNL     1    -107.430 183.411  51.923  1.00  0.00     0.197 A 
ATOM      4  O   UNL     1    -108.550 182.933  51.609  1.00  0.00    -0.289 OA
ATOM      5  C   UNL     1    -106.979 183.453  53.264  1.00  0.00     0.107 A 
ATOM      6  C   UNL     1    -107.692 182.921  54.380  1.00  0.00     0.134 A 
ATOM      7  C   UNL     1    -107.192 183.110  55.674  1.00  0.00     0.093 A 
ATOM      8  C   UNL     1    -105.975 183.762  55.887  1.00  0.00     0.123 A 
ATOM      9  C   UNL     1    -105.247 184.242  54.802  1.00  0.00     0.094 A 
ATOM     10  C   UNL     1    -105.736 184.100  53.501  1.00  0.00     0.146 A 
ATOM     11  O   UNL     1    -105.017 184.588  52.495  1.00  0.00    -0.456 OA
ENDROOT
BRANCH   1  12
ATOM     12  C   UNL     1    -104.513 185.102  50.183  1.00  0.00     0.021 A 
ATOM     13  C   UNL     1    -105.023 185.802  49.076  1.00  0.00     0.016 A 
ATOM     14  C   UNL     1    -104.159 186.336  48.117  1.00  0.00     0.051 A 
ATOM     15  C   UNL     1    -102.773 186.192  48.243  1.00  0.00     0.157 A 
ATOM     16  C   UNL     1    -103.119 184.970  50.317  1.00  0.00     0.062 A 
ATOM     17  C   UNL     1    -102.247 185.502  49.359  1.00  0.00     0.158 A 
BRANCH  15  18
ATOM     18  O   UNL     1    -101.966 186.747  47.248  1.00  0.00    -0.504 OA
ATOM     19  H   UNL     1    -101.404 187.577  47.374  1.00  0.00     0.293 HD
ENDBRANCH  15  18
BRANCH  17  20
ATOM     20  O   UNL     1    -100.876 185.323  49.556  1.00  0.00    -0.504 OA
ATOM     21  H   UNL     1    -100.463 185.039  50.433  1.00  0.00     0.293 HD
ENDBRANCH  17  20
ENDBRANCH   1  12
BRANCH   6  22
ATOM     22  O   UNL     1    -108.876 182.183  54.274  1.00  0.00    -0.507 OA
ATOM     23  H   UNL     1    -109.556 182.281  53.536  1.00  0.00     0.293 HD
ENDBRANCH   6  22
BRANCH   8  24
ATOM     24  O   UNL     1    -105.477 183.933  57.177  1.00  0.00    -0.508 OA
ATOM     25  H   UNL     1    -105.987 183.608  57.990  1.00  0.00     0.293 HD
ENDBRANCH   8  24
TORSDOF 5
ENDMDL
