MODEL 1
REMARK VINA RESULT:    -4.216      0.000      0.000
REMARK INTER + INTRA:          -5.085
REMARK INTER:                  -4.956
REMARK INTRA:                  -0.129
REMARK UNBOUND:                -0.129
REMARK SMILES O=C([O-])C=Cc1ccc(O)c(O)c1
REMARK SMILES IDX 6 1 13 2 7 3 11 4 8 5 9 6 5 7 4 8 2 9 1 10 3 11 12 12 10 14
REMARK H PARENT 12 13 10 15
REMARK Flexibility Score: inf
ROOT
ATOM      1  C   UNL     1      -9.298  -4.915 -37.678  1.00  0.00    -0.022 A 
ATOM      2  C   UNL     1     -10.611  -5.156 -38.116  1.00  0.00     0.058 A 
ATOM      3  C   UNL     1      -8.805  -3.595 -37.707  1.00  0.00     0.012 A 
ATOM      4  C   UNL     1     -11.428  -4.103 -38.551  1.00  0.00     0.157 A 
ATOM      5  C   UNL     1      -9.619  -2.545 -38.141  1.00  0.00     0.051 A 
ATOM      6  C   UNL     1     -10.929  -2.790 -38.560  1.00  0.00     0.157 A 
ENDROOT
BRANCH   1   7
ATOM      7  C   UNL     1      -8.472  -6.066 -37.239  1.00  0.00     0.010 C 
ATOM      8  C   UNL     1      -8.963  -7.130 -36.588  1.00  0.00     0.025 C 
BRANCH   8   9
ATOM      9  C   UNL     1      -8.107  -8.256 -36.182  1.00  0.00     0.064 C 
ATOM     10  O   UNL     1      -7.780  -9.125 -37.031  1.00  0.00    -0.545 OA
ATOM     11  O   UNL     1      -7.656  -8.379 -34.872  1.00  0.00    -0.545 OA
ENDBRANCH   8   9
ENDBRANCH   1   7
BRANCH   4  12
ATOM     12  O   UNL     1     -12.732  -4.356 -38.973  1.00  0.00    -0.504 OA
ATOM     13  H   UNL     1     -13.196  -5.234 -38.769  1.00  0.00     0.293 HD
ENDBRANCH   4  12
BRANCH   6  14
ATOM     14  O   UNL     1     -11.716  -1.721 -38.985  1.00  0.00    -0.504 OA
ATOM     15  H   UNL     1     -12.728  -1.767 -38.993  1.00  0.00     0.293 HD
ENDBRANCH   6  14
TORSDOF 4
ENDMDL
MODEL 2
REMARK VINA RESULT:    -4.200      1.986      2.765
REMARK INTER + INTRA:          -5.066
REMARK INTER:                  -4.940
REMARK INTRA:                  -0.126
REMARK UNBOUND:                -0.129
REMARK SMILES O=C([O-])C=Cc1ccc(O)c(O)c1
REMARK SMILES IDX 6 1 13 2 7 3 11 4 8 5 9 6 5 7 4 8 2 9 1 10 3 11 12 12 10 14
REMARK H PARENT 12 13 10 15
REMARK Flexibility Score: inf
ROOT
ATOM      1  C   UNL     1     -11.325  -3.498 -38.466  1.00  0.00    -0.022 A 
ATOM      2  C   UNL     1     -12.274  -4.099 -39.310  1.00  0.00     0.058 A 
ATOM      3  C   UNL     1     -11.135  -2.103 -38.544  1.00  0.00     0.012 A 
ATOM      4  C   UNL     1     -13.038  -3.328 -40.197  1.00  0.00     0.157 A 
ATOM      5  C   UNL     1     -11.896  -1.334 -39.429  1.00  0.00     0.051 A 
ATOM      6  C   UNL     1     -12.849  -1.938 -40.254  1.00  0.00     0.157 A 
ENDROOT
BRANCH   1   7
ATOM      7  C   UNL     1     -10.536  -4.360 -37.554  1.00  0.00     0.010 C 
ATOM      8  C   UNL     1      -9.391  -4.963 -37.903  1.00  0.00     0.025 C 
BRANCH   8   9
ATOM      9  C   UNL     1      -8.634  -5.802 -36.959  1.00  0.00     0.064 C 
ATOM     10  O   UNL     1      -7.750  -5.277 -36.234  1.00  0.00    -0.545 OA
ATOM     11  O   UNL     1      -8.877  -7.167 -36.859  1.00  0.00    -0.545 OA
ENDBRANCH   8   9
ENDBRANCH   1   7
BRANCH   4  12
ATOM     12  O   UNL     1     -13.982  -3.939 -41.022  1.00  0.00    -0.504 OA
ATOM     13  H   UNL     1     -13.743  -4.729 -41.608  1.00  0.00     0.293 HD
ENDBRANCH   4  12
BRANCH   6  14
ATOM     14  O   UNL     1     -13.593  -1.143 -41.125  1.00  0.00    -0.504 OA
ATOM     15  H   UNL     1     -14.606  -1.136 -41.114  1.00  0.00     0.293 HD
ENDBRANCH   6  14
TORSDOF 4
ENDMDL
MODEL 3
REMARK VINA RESULT:    -4.049      2.031      5.805
REMARK INTER + INTRA:          -4.889
REMARK INTER:                  -4.762
REMARK INTRA:                  -0.127
REMARK UNBOUND:                -0.129
REMARK SMILES O=C([O-])C=Cc1ccc(O)c(O)c1
REMARK SMILES IDX 6 1 13 2 7 3 11 4 8 5 9 6 5 7 4 8 2 9 1 10 3 11 12 12 10 14
REMARK H PARENT 12 13 10 15
REMARK Flexibility Score: inf
ROOT
ATOM      1  C   UNL     1     -10.550  -4.310 -37.579  1.00  0.00    -0.022 A 
ATOM      2  C   UNL     1     -10.969  -4.439 -36.244  1.00  0.00     0.058 A 
ATOM      3  C   UNL     1      -9.387  -4.989 -37.993  1.00  0.00     0.012 A 
ATOM      4  C   UNL     1     -10.261  -5.248 -35.344  1.00  0.00     0.157 A 
ATOM      5  C   UNL     1      -8.680  -5.794 -37.096  1.00  0.00     0.051 A 
ATOM      6  C   UNL     1      -9.112  -5.931 -35.774  1.00  0.00     0.157 A 
ENDROOT
BRANCH   1   7
ATOM      7  C   UNL     1     -11.329  -3.433 -38.487  1.00  0.00     0.010 C 
ATOM      8  C   UNL     1     -12.353  -3.861 -39.239  1.00  0.00     0.025 C 
BRANCH   8   9
ATOM      9  C   UNL     1     -13.106  -2.952 -40.118  1.00  0.00     0.064 C 
ATOM     10  O   UNL     1     -13.844  -3.429 -41.018  1.00  0.00    -0.545 OA
ATOM     11  O   UNL     1     -13.013  -1.573 -39.972  1.00  0.00    -0.545 OA
ENDBRANCH   8   9
ENDBRANCH   1   7
BRANCH   4  12
ATOM     12  O   UNL     1     -10.695  -5.374 -34.025  1.00  0.00    -0.504 OA
ATOM     13  H   UNL     1     -10.878  -6.280 -33.610  1.00  0.00     0.293 HD
ENDBRANCH   4  12
BRANCH   6  14
ATOM     14  O   UNL     1      -8.386  -6.743 -34.904  1.00  0.00    -0.504 OA
ATOM     15  H   UNL     1      -7.565  -6.409 -34.414  1.00  0.00     0.293 HD
ENDBRANCH   6  14
TORSDOF 4
ENDMDL
MODEL 4
REMARK VINA RESULT:    -4.031     15.976     17.215
REMARK INTER + INTRA:          -4.867
REMARK INTER:                  -4.738
REMARK INTRA:                  -0.130
REMARK UNBOUND:                -0.129
REMARK SMILES O=C([O-])C=Cc1ccc(O)c(O)c1
REMARK SMILES IDX 6 1 13 2 7 3 11 4 8 5 9 6 5 7 4 8 2 9 1 10 3 11 12 12 10 14
REMARK H PARENT 12 13 10 15
REMARK Flexibility Score: inf
ROOT
ATOM      1  C   UNL     1      -7.126   5.438 -25.898  1.00  0.00    -0.022 A 
ATOM      2  C   UNL     1      -8.112   6.069 -25.121  1.00  0.00     0.058 A 
ATOM      3  C   UNL     1      -6.828   4.084 -25.646  1.00  0.00     0.012 A 
ATOM      4  C   UNL     1      -8.808   5.362 -24.130  1.00  0.00     0.157 A 
ATOM      5  C   UNL     1      -7.521   3.379 -24.657  1.00  0.00     0.051 A 
ATOM      6  C   UNL     1      -8.511   4.010 -23.900  1.00  0.00     0.157 A 
ENDROOT
BRANCH   1   7
ATOM      7  C   UNL     1      -6.413   6.234 -26.926  1.00  0.00     0.010 C 
ATOM      8  C   UNL     1      -5.535   7.205 -26.640  1.00  0.00     0.025 C 
BRANCH   8   9
ATOM      9  C   UNL     1      -4.840   7.961 -27.694  1.00  0.00     0.064 C 
ATOM     10  O   UNL     1      -4.928   7.582 -28.891  1.00  0.00    -0.545 OA
ATOM     11  O   UNL     1      -4.085   9.088 -27.390  1.00  0.00    -0.545 OA
ENDBRANCH   8   9
ENDBRANCH   1   7
BRANCH   4  12
ATOM     12  O   UNL     1      -9.790   6.000 -23.374  1.00  0.00    -0.504 OA
ATOM     13  H   UNL     1      -9.955   5.758 -22.404  1.00  0.00     0.293 HD
ENDBRANCH   4  12
BRANCH   6  14
ATOM     14  O   UNL     1      -9.185   3.279 -22.922  1.00  0.00    -0.504 OA
ATOM     15  H   UNL     1     -10.004   3.641 -22.448  1.00  0.00     0.293 HD
ENDBRANCH   6  14
TORSDOF 4
ENDMDL
MODEL 5
REMARK VINA RESULT:    -3.999     13.806     14.785
REMARK INTER + INTRA:          -4.830
REMARK INTER:                  -4.700
REMARK INTRA:                  -0.130
REMARK UNBOUND:                -0.129
REMARK SMILES O=C([O-])C=Cc1ccc(O)c(O)c1
REMARK SMILES IDX 6 1 13 2 7 3 11 4 8 5 9 6 5 7 4 8 2 9 1 10 3 11 12 12 10 14
REMARK H PARENT 12 13 10 15
REMARK Flexibility Score: inf
ROOT
ATOM      1  C   UNL     1     -14.436  -5.032 -24.025  1.00  0.00    -0.022 A 
ATOM      2  C   UNL     1     -14.052  -5.147 -25.372  1.00  0.00     0.058 A 
ATOM      3  C   UNL     1     -15.594  -5.706 -23.590  1.00  0.00     0.012 A 
ATOM      4  C   UNL     1     -14.790  -5.937 -26.265  1.00  0.00     0.157 A 
ATOM      5  C   UNL     1     -16.330  -6.494 -24.479  1.00  0.00     0.051 A 
ATOM      6  C   UNL     1     -15.934  -6.615 -25.814  1.00  0.00     0.157 A 
ENDROOT
BRANCH   1   7
ATOM      7  C   UNL     1     -13.626  -4.175 -23.125  1.00  0.00     0.010 C 
ATOM      8  C   UNL     1     -12.705  -4.649 -22.274  1.00  0.00     0.025 C 
BRANCH   8   9
ATOM      9  C   UNL     1     -11.915  -3.759 -21.408  1.00  0.00     0.064 C 
ATOM     10  O   UNL     1     -12.439  -2.709 -20.953  1.00  0.00    -0.545 OA
ATOM     11  O   UNL     1     -10.596  -4.057 -21.086  1.00  0.00    -0.545 OA
ENDBRANCH   8   9
ENDBRANCH   1   7
BRANCH   4  12
ATOM     12  O   UNL     1     -14.391  -6.049 -27.596  1.00  0.00    -0.504 OA
ATOM     13  H   UNL     1     -14.334  -6.948 -28.060  1.00  0.00     0.293 HD
ENDBRANCH   4  12
BRANCH   6  14
ATOM     14  O   UNL     1     -16.689  -7.410 -26.676  1.00  0.00    -0.504 OA
ATOM     15  H   UNL     1     -17.501  -7.925 -26.360  1.00  0.00     0.293 HD
ENDBRANCH   6  14
TORSDOF 4
ENDMDL
MODEL 6
REMARK VINA RESULT:    -3.987     11.912     15.145
REMARK INTER + INTRA:          -4.815
REMARK INTER:                  -4.685
REMARK INTRA:                  -0.130
REMARK UNBOUND:                -0.129
REMARK SMILES O=C([O-])C=Cc1ccc(O)c(O)c1
REMARK SMILES IDX 6 1 13 2 7 3 11 4 8 5 9 6 5 7 4 8 2 9 1 10 3 11 12 12 10 14
REMARK H PARENT 12 13 10 15
REMARK Flexibility Score: inf
ROOT
ATOM      1  C   UNL     1     -17.955   5.708 -35.428  1.00  0.00    -0.022 A 
ATOM      2  C   UNL     1     -16.980   6.423 -36.144  1.00  0.00     0.058 A 
ATOM      3  C   UNL     1     -18.183   4.357 -35.755  1.00  0.00     0.012 A 
ATOM      4  C   UNL     1     -16.226   5.799 -37.149  1.00  0.00     0.157 A 
ATOM      5  C   UNL     1     -17.432   3.735 -36.756  1.00  0.00     0.051 A 
ATOM      6  C   UNL     1     -16.453   4.448 -37.454  1.00  0.00     0.157 A 
ENDROOT
BRANCH   1   7
ATOM      7  C   UNL     1     -18.732   6.418 -34.382  1.00  0.00     0.010 C 
ATOM      8  C   UNL     1     -19.507   7.484 -34.625  1.00  0.00     0.025 C 
BRANCH   8   9
ATOM      9  C   UNL     1     -20.271   8.150 -33.557  1.00  0.00     0.064 C 
ATOM     10  O   UNL     1     -20.227   7.693 -32.385  1.00  0.00    -0.545 OA
ATOM     11  O   UNL     1     -21.044   9.275 -33.822  1.00  0.00    -0.545 OA
ENDBRANCH   8   9
ENDBRANCH   1   7
BRANCH   4  12
ATOM     12  O   UNL     1     -15.255   6.518 -37.845  1.00  0.00    -0.504 OA
ATOM     13  H   UNL     1     -14.389   6.804 -37.404  1.00  0.00     0.293 HD
ENDBRANCH   4  12
BRANCH   6  14
ATOM     14  O   UNL     1     -15.720   3.798 -38.447  1.00  0.00    -0.504 OA
ATOM     15  H   UNL     1     -16.122   3.066 -39.020  1.00  0.00     0.293 HD
ENDBRANCH   6  14
TORSDOF 4
ENDMDL
MODEL 7
REMARK VINA RESULT:    -3.970     11.470     13.160
REMARK INTER + INTRA:          -4.796
REMARK INTER:                  -4.670
REMARK INTRA:                  -0.126
REMARK UNBOUND:                -0.129
REMARK SMILES O=C([O-])C=Cc1ccc(O)c(O)c1
REMARK SMILES IDX 6 1 13 2 7 3 11 4 8 5 9 6 5 7 4 8 2 9 1 10 3 11 12 12 10 14
REMARK H PARENT 12 13 10 15
REMARK Flexibility Score: inf
ROOT
ATOM      1  C   UNL     1     -12.594   7.304 -37.644  1.00  0.00    -0.022 A 
ATOM      2  C   UNL     1     -13.152   7.226 -38.931  1.00  0.00     0.058 A 
ATOM      3  C   UNL     1     -11.833   8.440 -37.302  1.00  0.00     0.012 A 
ATOM      4  C   UNL     1     -12.980   8.268 -39.853  1.00  0.00     0.157 A 
ATOM      5  C   UNL     1     -11.661   9.479 -38.221  1.00  0.00     0.051 A 
ATOM      6  C   UNL     1     -12.232   9.401 -39.494  1.00  0.00     0.157 A 
ENDROOT
BRANCH   1   7
ATOM      7  C   UNL     1     -12.797   6.169 -36.711  1.00  0.00     0.010 C 
ATOM      8  C   UNL     1     -13.887   6.020 -35.945  1.00  0.00     0.025 C 
BRANCH   8   9
ATOM      9  C   UNL     1     -14.051   4.870 -35.041  1.00  0.00     0.064 C 
ATOM     10  O   UNL     1     -15.203   4.414 -34.819  1.00  0.00    -0.545 OA
ATOM     11  O   UNL     1     -12.954   4.279 -34.425  1.00  0.00    -0.545 OA
ENDBRANCH   8   9
ENDBRANCH   1   7
BRANCH   4  12
ATOM     12  O   UNL     1     -13.548   8.180 -41.123  1.00  0.00    -0.504 OA
ATOM     13  H   UNL     1     -13.143   7.598 -41.847  1.00  0.00     0.293 HD
ENDBRANCH   4  12
BRANCH   6  14
ATOM     14  O   UNL     1     -12.043  10.455 -40.388  1.00  0.00    -0.504 OA
ATOM     15  H   UNL     1     -12.072  10.321 -41.391  1.00  0.00     0.293 HD
ENDBRANCH   6  14
TORSDOF 4
ENDMDL
MODEL 8
REMARK VINA RESULT:    -3.918      8.216     10.932
REMARK INTER + INTRA:          -4.735
REMARK INTER:                  -4.603
REMARK INTRA:                  -0.132
REMARK UNBOUND:                -0.129
REMARK SMILES O=C([O-])C=Cc1ccc(O)c(O)c1
REMARK SMILES IDX 6 1 13 2 7 3 11 4 8 5 9 6 5 7 4 8 2 9 1 10 3 11 12 12 10 14
REMARK H PARENT 12 13 10 15
REMARK Flexibility Score: inf
ROOT
ATOM      1  C   UNL     1     -11.969   5.171 -40.484  1.00  0.00    -0.022 A 
ATOM      2  C   UNL     1     -13.015   5.328 -39.559  1.00  0.00     0.058 A 
ATOM      3  C   UNL     1     -11.453   6.315 -41.125  1.00  0.00     0.012 A 
ATOM      4  C   UNL     1     -13.522   6.600 -39.256  1.00  0.00     0.157 A 
ATOM      5  C   UNL     1     -11.959   7.583 -40.824  1.00  0.00     0.051 A 
ATOM      6  C   UNL     1     -12.989   7.732 -39.892  1.00  0.00     0.157 A 
ENDROOT
BRANCH   1   7
ATOM      7  C   UNL     1     -11.477   3.802 -40.775  1.00  0.00     0.010 C 
ATOM      8  C   UNL     1     -11.724   2.740 -39.997  1.00  0.00     0.025 C 
BRANCH   8   9
ATOM      9  C   UNL     1     -11.225   1.396 -40.332  1.00  0.00     0.064 C 
ATOM     10  O   UNL     1     -12.028   0.429 -40.378  1.00  0.00    -0.545 OA
ATOM     11  O   UNL     1      -9.877   1.177 -40.596  1.00  0.00    -0.545 OA
ENDBRANCH   8   9
ENDBRANCH   1   7
BRANCH   4  12
ATOM     12  O   UNL     1     -14.554   6.740 -38.329  1.00  0.00    -0.504 OA
ATOM     13  H   UNL     1     -15.073   5.940 -37.987  1.00  0.00     0.293 HD
ENDBRANCH   4  12
BRANCH   6  14
ATOM     14  O   UNL     1     -13.470   9.011 -39.613  1.00  0.00    -0.504 OA
ATOM     15  H   UNL     1     -14.438   9.266 -39.766  1.00  0.00     0.293 HD
ENDBRANCH   6  14
TORSDOF 4
ENDMDL
MODEL 9
REMARK VINA RESULT:    -3.891     13.161     14.184
REMARK INTER + INTRA:          -4.703
REMARK INTER:                  -4.572
REMARK INTRA:                  -0.132
REMARK UNBOUND:                -0.129
REMARK SMILES O=C([O-])C=Cc1ccc(O)c(O)c1
REMARK SMILES IDX 6 1 13 2 7 3 11 4 8 5 9 6 5 7 4 8 2 9 1 10 3 11 12 12 10 14
REMARK H PARENT 12 13 10 15
REMARK Flexibility Score: inf
ROOT
ATOM      1  C   UNL     1     -15.920  -6.976 -25.224  1.00  0.00    -0.022 A 
ATOM      2  C   UNL     1     -15.954  -6.446 -26.525  1.00  0.00     0.058 A 
ATOM      3  C   UNL     1     -16.534  -8.221 -24.982  1.00  0.00     0.012 A 
ATOM      4  C   UNL     1     -16.564  -7.151 -27.572  1.00  0.00     0.157 A 
ATOM      5  C   UNL     1     -17.142  -8.924 -26.026  1.00  0.00     0.051 A 
ATOM      6  C   UNL     1     -17.158  -8.398 -27.320  1.00  0.00     0.157 A 
ENDROOT
BRANCH   1   7
ATOM      7  C   UNL     1     -15.272  -6.184 -24.150  1.00  0.00     0.010 C 
ATOM      8  C   UNL     1     -14.479  -5.127 -24.378  1.00  0.00     0.025 C 
BRANCH   8   9
ATOM      9  C   UNL     1     -13.867  -4.363 -23.280  1.00  0.00     0.064 C 
ATOM     10  O   UNL     1     -14.154  -3.147 -23.134  1.00  0.00    -0.545 OA
ATOM     11  O   UNL     1     -12.971  -4.962 -22.401  1.00  0.00    -0.545 OA
ENDBRANCH   8   9
ENDBRANCH   1   7
BRANCH   4  12
ATOM     12  O   UNL     1     -16.581  -6.617 -28.860  1.00  0.00    -0.504 OA
ATOM     13  H   UNL     1     -15.725  -6.428 -29.368  1.00  0.00     0.293 HD
ENDBRANCH   4  12
BRANCH   6  14
ATOM     14  O   UNL     1     -17.772  -9.125 -28.340  1.00  0.00    -0.504 OA
ATOM     15  H   UNL     1     -17.337  -9.940 -28.756  1.00  0.00     0.293 HD
ENDBRANCH   6  14
TORSDOF 4
ENDMDL
