MODEL 1
REMARK VINA RESULT:    -7.083      0.000      0.000
REMARK INTER + INTRA:         -11.081
REMARK INTER:                  -9.775
REMARK INTRA:                  -1.306
REMARK UNBOUND:                -1.306
REMARK SMILES CC[C@H](CC[C@H](C)[C@H]1CC[C@H]2[C@H]3CC=C4C[C@H](O)CC[C@]4(C)[C@H]3CC[C@@]12C)C(C)C
REMARK SMILES IDX 5 1 4 2 3 3 2 4 1 5 28 6 29 7 30 8 6 9 7 10 8 11 9 12 26 13
REMARK SMILES IDX 10 14 11 15 25 16 27 17 12 18 24 19 23 20 13 21 21 22 14 23
REMARK SMILES IDX 15 24 20 25 22 26 16 27 19 28 17 29 18 30
REMARK H PARENT 18 31
REMARK Flexibility Score: inf
ROOT
ATOM      1  C   UNL     1     166.927 177.429 180.478  1.00  0.00     0.004 C 
ENDROOT
BRANCH   1   2
ATOM      2  C   UNL     1     166.203 177.881 181.767  1.00  0.00     0.004 C 
BRANCH   2   3
ATOM      3  C   UNL     1     164.653 177.978 181.628  1.00  0.00    -0.009 C 
BRANCH   3   4
ATOM      4  C   UNL     1     164.117 177.172 180.408  1.00  0.00     0.000 C 
ATOM      5  C   UNL     1     163.453 178.034 179.331  1.00  0.00     0.004 C 
ENDBRANCH   3   4
BRANCH   3   6
ATOM      6  C   UNL     1     163.894 177.592 182.947  1.00  0.00    -0.014 C 
ATOM      7  C   UNL     1     163.860 176.067 183.168  1.00  0.00     0.007 C 
ATOM      8  C   UNL     1     162.448 178.124 182.965  1.00  0.00     0.007 C 
ENDBRANCH   3   6
ENDBRANCH   2   3
ENDBRANCH   1   2
BRANCH   1   9
ATOM      9  C   UNL     1     168.016 176.357 180.742  1.00  0.00    -0.011 C 
ATOM     10  C   UNL     1     167.360 175.151 181.449  1.00  0.00     0.008 C 
BRANCH   9  11
ATOM     11  C   UNL     1     169.255 176.957 181.510  1.00  0.00    -0.002 C 
ATOM     12  C   UNL     1     169.547 176.393 182.902  1.00  0.00     0.005 C 
ATOM     13  C   UNL     1     170.621 176.986 180.762  1.00  0.00    -0.026 C 
ATOM     14  C   UNL     1     170.987 176.793 183.215  1.00  0.00     0.005 C 
ATOM     15  C   UNL     1     171.616 177.329 181.910  1.00  0.00    -0.001 C 
ATOM     16  C   UNL     1     170.994 175.637 180.048  1.00  0.00     0.007 C 
ATOM     17  C   UNL     1     170.612 178.119 179.704  1.00  0.00     0.012 C 
ATOM     18  C   UNL     1     173.081 176.866 181.643  1.00  0.00     0.000 C 
ATOM     19  C   UNL     1     171.866 174.702 180.895  1.00  0.00     0.005 C 
ATOM     20  C   UNL     1     173.231 175.369 181.187  1.00  0.00     0.003 C 
ATOM     21  C   UNL     1     174.034 177.279 182.781  1.00  0.00     0.031 C 
ATOM     22  C   UNL     1     174.244 174.480 182.019  1.00  0.00    -0.008 C 
ATOM     23  C   UNL     1     175.375 176.618 182.657  1.00  0.00    -0.027 C 
ATOM     24  C   UNL     1     175.497 175.318 182.321  1.00  0.00    -0.065 C 
ATOM     25  C   UNL     1     174.612 173.221 181.162  1.00  0.00     0.014 C 
ATOM     26  C   UNL     1     173.655 173.992 183.367  1.00  0.00     0.016 C 
ATOM     27  C   UNL     1     176.849 174.658 182.519  1.00  0.00     0.063 C 
ATOM     28  C   UNL     1     175.914 172.527 181.580  1.00  0.00     0.033 C 
ATOM     29  C   UNL     1     177.088 173.504 181.542  1.00  0.00     0.118 C 
BRANCH  29  30
ATOM     30  O   UNL     1     177.262 173.994 180.236  1.00  0.00    -0.393 OA
ATOM     31  H   UNL     1     178.001 174.656 180.272  1.00  0.00     0.210 HD
ENDBRANCH  29  30
ENDBRANCH   9  11
ENDBRANCH   1   9
TORSDOF 7
ENDMDL
MODEL 2
REMARK VINA RESULT:    -6.584      1.726      2.681
REMARK INTER + INTRA:         -10.391
REMARK INTER:                  -9.211
REMARK INTRA:                  -1.181
REMARK UNBOUND:                -1.306
REMARK SMILES CC[C@H](CC[C@H](C)[C@H]1CC[C@H]2[C@H]3CC=C4C[C@H](O)CC[C@]4(C)[C@H]3CC[C@@]12C)C(C)C
REMARK SMILES IDX 5 1 4 2 3 3 2 4 1 5 28 6 29 7 30 8 6 9 7 10 8 11 9 12 26 13
REMARK SMILES IDX 10 14 11 15 25 16 27 17 12 18 24 19 23 20 13 21 21 22 14 23
REMARK SMILES IDX 15 24 20 25 22 26 16 27 19 28 17 29 18 30
REMARK H PARENT 18 31
REMARK Flexibility Score: inf
ROOT
ATOM      1  C   UNL     1     166.596 177.160 181.739  1.00  0.00     0.004 C 
ENDROOT
BRANCH   1   2
ATOM      2  C   UNL     1     165.284 177.318 180.936  1.00  0.00     0.004 C 
BRANCH   2   3
ATOM      3  C   UNL     1     164.111 176.429 181.450  1.00  0.00    -0.009 C 
BRANCH   3   4
ATOM      4  C   UNL     1     164.589 175.343 182.459  1.00  0.00     0.000 C 
ATOM      5  C   UNL     1     164.962 174.006 181.811  1.00  0.00     0.004 C 
ENDBRANCH   3   4
BRANCH   3   6
ATOM      6  C   UNL     1     162.918 177.266 182.034  1.00  0.00    -0.014 C 
ATOM      7  C   UNL     1     163.350 178.125 183.239  1.00  0.00     0.007 C 
ATOM      8  C   UNL     1     161.735 176.376 182.463  1.00  0.00     0.007 C 
ENDBRANCH   3   6
ENDBRANCH   2   3
ENDBRANCH   1   2
BRANCH   1   9
ATOM      9  C   UNL     1     167.827 176.889 180.835  1.00  0.00    -0.011 C 
ATOM     10  C   UNL     1     167.332 176.356 179.474  1.00  0.00     0.008 C 
BRANCH   9  11
ATOM     11  C   UNL     1     168.881 175.958 181.547  1.00  0.00    -0.002 C 
ATOM     12  C   UNL     1     169.429 174.784 180.732  1.00  0.00     0.005 C 
ATOM     13  C   UNL     1     170.118 176.639 182.204  1.00  0.00    -0.026 C 
ATOM     14  C   UNL     1     170.701 174.342 181.451  1.00  0.00     0.005 C 
ATOM     15  C   UNL     1     171.044 175.423 182.499  1.00  0.00    -0.001 C 
ATOM     16  C   UNL     1     170.825 177.707 181.294  1.00  0.00     0.007 C 
ATOM     17  C   UNL     1     169.692 177.323 183.528  1.00  0.00     0.012 C 
ATOM     18  C   UNL     1     172.558 175.787 182.604  1.00  0.00     0.000 C 
ATOM     19  C   UNL     1     171.996 177.152 180.474  1.00  0.00     0.005 C 
ATOM     20  C   UNL     1     173.116 176.655 181.418  1.00  0.00     0.003 C 
ATOM     21  C   UNL     1     173.423 174.560 182.953  1.00  0.00     0.031 C 
ATOM     22  C   UNL     1     174.407 176.097 180.688  1.00  0.00    -0.008 C 
ATOM     23  C   UNL     1     174.888 174.847 182.800  1.00  0.00    -0.027 C 
ATOM     24  C   UNL     1     175.370 175.543 181.750  1.00  0.00    -0.065 C 
ATOM     25  C   UNL     1     175.072 177.277 179.899  1.00  0.00     0.014 C 
ATOM     26  C   UNL     1     174.091 174.961 179.684  1.00  0.00     0.016 C 
ATOM     27  C   UNL     1     176.867 175.520 181.512  1.00  0.00     0.063 C 
ATOM     28  C   UNL     1     176.549 177.054 179.552  1.00  0.00     0.033 C 
ATOM     29  C   UNL     1     177.370 176.786 180.812  1.00  0.00     0.118 C 
BRANCH  29  30
ATOM     30  O   UNL     1     177.293 177.890 181.678  1.00  0.00    -0.393 OA
ATOM     31  H   UNL     1     177.422 177.543 182.600  1.00  0.00     0.210 HD
ENDBRANCH  29  30
ENDBRANCH   9  11
ENDBRANCH   1   9
TORSDOF 7
ENDMDL
MODEL 3
REMARK VINA RESULT:    -6.411      5.581      8.728
REMARK INTER + INTRA:         -10.153
REMARK INTER:                  -7.911
REMARK INTRA:                  -2.242
REMARK UNBOUND:                -1.306
REMARK SMILES CC[C@H](CC[C@H](C)[C@H]1CC[C@H]2[C@H]3CC=C4C[C@H](O)CC[C@]4(C)[C@H]3CC[C@@]12C)C(C)C
REMARK SMILES IDX 5 1 4 2 3 3 2 4 1 5 28 6 29 7 30 8 6 9 7 10 8 11 9 12 26 13
REMARK SMILES IDX 10 14 11 15 25 16 27 17 12 18 24 19 23 20 13 21 21 22 14 23
REMARK SMILES IDX 15 24 20 25 22 26 16 27 19 28 17 29 18 30
REMARK H PARENT 18 31
REMARK Flexibility Score: inf
ROOT
ATOM      1  C   UNL     1     173.128 175.165 181.130  1.00  0.00     0.004 C 
ENDROOT
BRANCH   1   2
ATOM      2  C   UNL     1     173.901 176.334 181.783  1.00  0.00     0.004 C 
BRANCH   2   3
ATOM      3  C   UNL     1     175.085 176.875 180.925  1.00  0.00    -0.009 C 
BRANCH   3   4
ATOM      4  C   UNL     1     176.455 176.740 181.655  1.00  0.00     0.000 C 
ATOM      5  C   UNL     1     176.339 176.475 183.159  1.00  0.00     0.004 C 
ENDBRANCH   3   4
BRANCH   3   6
ATOM      6  C   UNL     1     175.138 176.244 179.488  1.00  0.00    -0.014 C 
ATOM      7  C   UNL     1     176.551 175.738 179.132  1.00  0.00     0.007 C 
ATOM      8  C   UNL     1     174.681 177.234 178.399  1.00  0.00     0.007 C 
ENDBRANCH   3   6
ENDBRANCH   2   3
ENDBRANCH   1   2
BRANCH   1   9
ATOM      9  C   UNL     1     173.469 173.790 181.762  1.00  0.00    -0.011 C 
ATOM     10  C   UNL     1     173.530 173.954 183.296  1.00  0.00     0.008 C 
BRANCH   9  11
ATOM     11  C   UNL     1     174.768 173.161 181.129  1.00  0.00    -0.002 C 
ATOM     12  C   UNL     1     175.986 173.022 182.044  1.00  0.00     0.005 C 
ATOM     13  C   UNL     1     174.624 171.794 180.396  1.00  0.00    -0.026 C 
ATOM     14  C   UNL     1     176.907 172.019 181.355  1.00  0.00     0.005 C 
ATOM     15  C   UNL     1     176.109 171.366 180.206  1.00  0.00    -0.001 C 
ATOM     16  C   UNL     1     173.802 170.719 181.193  1.00  0.00     0.007 C 
ATOM     17  C   UNL     1     173.948 172.012 179.018  1.00  0.00     0.012 C 
ATOM     18  C   UNL     1     176.312 169.827 180.049  1.00  0.00     0.000 C 
ATOM     19  C   UNL     1     174.663 169.780 182.048  1.00  0.00     0.005 C 
ATOM     20  C   UNL     1     175.600 168.949 181.141  1.00  0.00     0.003 C 
ATOM     21  C   UNL     1     177.790 169.462 179.807  1.00  0.00     0.031 C 
ATOM     22  C   UNL     1     176.514 167.904 181.905  1.00  0.00    -0.008 C 
ATOM     23  C   UNL     1     178.026 167.985 179.914  1.00  0.00    -0.027 C 
ATOM     24  C   UNL     1     177.459 167.244 180.888  1.00  0.00    -0.065 C 
ATOM     25  C   UNL     1     175.583 166.834 182.572  1.00  0.00     0.014 C 
ATOM     26  C   UNL     1     177.378 168.553 183.015  1.00  0.00     0.016 C 
ATOM     27  C   UNL     1     177.988 165.840 181.110  1.00  0.00     0.063 C 
ATOM     28  C   UNL     1     176.282 165.514 182.921  1.00  0.00     0.033 C 
ATOM     29  C   UNL     1     176.927 164.896 181.682  1.00  0.00     0.118 C 
BRANCH  29  30
ATOM     30  O   UNL     1     175.944 164.619 180.717  1.00  0.00    -0.393 OA
ATOM     31  H   UNL     1     175.105 165.051 181.028  1.00  0.00     0.210 HD
ENDBRANCH  29  30
ENDBRANCH   9  11
ENDBRANCH   1   9
TORSDOF 7
ENDMDL
MODEL 4
REMARK VINA RESULT:    -6.334      2.889      8.717
REMARK INTER + INTRA:         -10.046
REMARK INTER:                  -8.015
REMARK INTRA:                  -2.030
REMARK UNBOUND:                -1.306
REMARK SMILES CC[C@H](CC[C@H](C)[C@H]1CC[C@H]2[C@H]3CC=C4C[C@H](O)CC[C@]4(C)[C@H]3CC[C@@]12C)C(C)C
REMARK SMILES IDX 5 1 4 2 3 3 2 4 1 5 28 6 29 7 30 8 6 9 7 10 8 11 9 12 26 13
REMARK SMILES IDX 10 14 11 15 25 16 27 17 12 18 24 19 23 20 13 21 21 22 14 23
REMARK SMILES IDX 15 24 20 25 22 26 16 27 19 28 17 29 18 30
REMARK H PARENT 18 31
REMARK Flexibility Score: inf
ROOT
ATOM      1  C   UNL     1     176.290 173.760 180.397  1.00  0.00     0.004 C 
ENDROOT
BRANCH   1   2
ATOM      2  C   UNL     1     176.711 174.574 181.642  1.00  0.00     0.004 C 
BRANCH   2   3
ATOM      3  C   UNL     1     177.194 176.022 181.325  1.00  0.00    -0.009 C 
BRANCH   3   4
ATOM      4  C   UNL     1     176.996 176.397 179.826  1.00  0.00     0.000 C 
ATOM      5  C   UNL     1     176.231 177.705 179.604  1.00  0.00     0.004 C 
ENDBRANCH   3   4
BRANCH   3   6
ATOM      6  C   UNL     1     176.560 177.101 182.273  1.00  0.00    -0.014 C 
ATOM      7  C   UNL     1     177.604 178.123 182.764  1.00  0.00     0.007 C 
ATOM      8  C   UNL     1     175.876 176.468 183.501  1.00  0.00     0.007 C 
ENDBRANCH   3   6
ENDBRANCH   2   3
ENDBRANCH   1   2
BRANCH   1   9
ATOM      9  C   UNL     1     174.762 173.505 180.332  1.00  0.00    -0.011 C 
ATOM     10  C   UNL     1     174.392 173.089 178.892  1.00  0.00     0.008 C 
BRANCH   9  11
ATOM     11  C   UNL     1     173.939 174.733 180.880  1.00  0.00    -0.002 C 
ATOM     12  C   UNL     1     173.427 175.739 179.847  1.00  0.00     0.005 C 
ATOM     13  C   UNL     1     172.735 174.432 181.821  1.00  0.00    -0.026 C 
ATOM     14  C   UNL     1     172.333 176.534 180.554  1.00  0.00     0.005 C 
ATOM     15  C   UNL     1     172.014 175.810 181.881  1.00  0.00    -0.001 C 
ATOM     16  C   UNL     1     171.782 173.294 181.305  1.00  0.00     0.007 C 
ATOM     17  C   UNL     1     173.259 174.038 183.226  1.00  0.00     0.012 C 
ATOM     18  C   UNL     1     170.498 175.720 182.238  1.00  0.00     0.000 C 
ATOM     19  C   UNL     1     170.582 173.803 180.496  1.00  0.00     0.005 C 
ATOM     20  C   UNL     1     169.677 174.683 181.389  1.00  0.00     0.003 C 
ATOM     21  C   UNL     1     169.845 177.113 182.340  1.00  0.00     0.031 C 
ATOM     22  C   UNL     1     168.372 175.235 180.679  1.00  0.00    -0.008 C 
ATOM     23  C   UNL     1     168.350 177.026 182.424  1.00  0.00    -0.027 C 
ATOM     24  C   UNL     1     167.644 176.175 181.653  1.00  0.00    -0.065 C 
ATOM     25  C   UNL     1     167.464 174.014 180.303  1.00  0.00     0.014 C 
ATOM     26  C   UNL     1     168.678 176.027 179.383  1.00  0.00     0.016 C 
ATOM     27  C   UNL     1     166.142 176.367 181.576  1.00  0.00     0.063 C 
ATOM     28  C   UNL     1     165.991 174.368 180.068  1.00  0.00     0.033 C 
ATOM     29  C   UNL     1     165.395 175.061 181.293  1.00  0.00     0.118 C 
BRANCH  29  30
ATOM     30  O   UNL     1     165.460 174.206 182.406  1.00  0.00    -0.393 OA
ATOM     31  H   UNL     1     164.628 173.663 182.401  1.00  0.00     0.210 HD
ENDBRANCH  29  30
ENDBRANCH   9  11
ENDBRANCH   1   9
TORSDOF 7
ENDMDL
MODEL 5
REMARK VINA RESULT:    -6.308      9.568     14.214
REMARK INTER + INTRA:         -10.010
REMARK INTER:                  -7.661
REMARK INTRA:                  -2.349
REMARK UNBOUND:                -1.306
REMARK SMILES CC[C@H](CC[C@H](C)[C@H]1CC[C@H]2[C@H]3CC=C4C[C@H](O)CC[C@]4(C)[C@H]3CC[C@@]12C)C(C)C
REMARK SMILES IDX 5 1 4 2 3 3 2 4 1 5 28 6 29 7 30 8 6 9 7 10 8 11 9 12 26 13
REMARK SMILES IDX 10 14 11 15 25 16 27 17 12 18 24 19 23 20 13 21 21 22 14 23
REMARK SMILES IDX 15 24 20 25 22 26 16 27 19 28 17 29 18 30
REMARK H PARENT 18 31
REMARK Flexibility Score: inf
ROOT
ATOM      1  C   UNL     1     161.206 176.748 168.717  1.00  0.00     0.004 C 
ENDROOT
BRANCH   1   2
ATOM      2  C   UNL     1     159.795 176.120 168.649  1.00  0.00     0.004 C 
BRANCH   2   3
ATOM      3  C   UNL     1     159.764 174.684 168.042  1.00  0.00    -0.009 C 
BRANCH   3   4
ATOM      4  C   UNL     1     161.192 174.127 167.767  1.00  0.00     0.000 C 
ATOM      5  C   UNL     1     161.526 173.968 166.280  1.00  0.00     0.004 C 
ENDBRANCH   3   4
BRANCH   3   6
ATOM      6  C   UNL     1     158.912 173.678 168.895  1.00  0.00    -0.014 C 
ATOM      7  C   UNL     1     157.950 174.405 169.856  1.00  0.00     0.007 C 
ATOM      8  C   UNL     1     159.794 172.717 169.716  1.00  0.00     0.007 C 
ENDBRANCH   3   6
ENDBRANCH   2   3
ENDBRANCH   1   2
BRANCH   1   9
ATOM      9  C   UNL     1     161.704 176.957 170.170  1.00  0.00    -0.011 C 
ATOM     10  C   UNL     1     163.247 176.934 170.171  1.00  0.00     0.008 C 
BRANCH   9  11
ATOM     11  C   UNL     1     161.043 175.931 171.168  1.00  0.00    -0.002 C 
ATOM     12  C   UNL     1     161.920 174.774 171.652  1.00  0.00     0.005 C 
ATOM     13  C   UNL     1     160.350 176.506 172.439  1.00  0.00    -0.026 C 
ATOM     14  C   UNL     1     161.225 174.223 172.895  1.00  0.00     0.005 C 
ATOM     15  C   UNL     1     160.121 175.225 173.295  1.00  0.00    -0.001 C 
ATOM     16  C   UNL     1     161.201 177.579 173.209  1.00  0.00     0.007 C 
ATOM     17  C   UNL     1     158.991 177.140 172.048  1.00  0.00     0.012 C 
ATOM     18  C   UNL     1     159.996 175.496 174.826  1.00  0.00     0.000 C 
ATOM     19  C   UNL     1     162.050 177.003 174.349  1.00  0.00     0.005 C 
ATOM     20  C   UNL     1     161.133 176.394 175.436  1.00  0.00     0.003 C 
ATOM     21  C   UNL     1     159.713 174.206 175.620  1.00  0.00     0.031 C 
ATOM     22  C   UNL     1     161.892 175.804 176.695  1.00  0.00    -0.008 C 
ATOM     23  C   UNL     1     159.850 174.417 177.098  1.00  0.00    -0.027 C 
ATOM     24  C   UNL     1     160.861 175.140 177.622  1.00  0.00    -0.065 C 
ATOM     25  C   UNL     1     162.617 176.984 177.429  1.00  0.00     0.014 C 
ATOM     26  C   UNL     1     162.955 174.742 176.319  1.00  0.00     0.016 C 
ATOM     27  C   UNL     1     161.100 175.045 179.117  1.00  0.00     0.063 C 
ATOM     28  C   UNL     1     162.975 176.697 178.892  1.00  0.00     0.033 C 
ATOM     29  C   UNL     1     161.731 176.316 179.692  1.00  0.00     0.118 C 
BRANCH  29  30
ATOM     30  O   UNL     1     160.807 177.375 179.675  1.00  0.00    -0.393 OA
ATOM     31  H   UNL     1     160.938 177.886 180.517  1.00  0.00     0.210 HD
ENDBRANCH  29  30
ENDBRANCH   9  11
ENDBRANCH   1   9
TORSDOF 7
ENDMDL
MODEL 6
REMARK VINA RESULT:    -6.303      3.478      9.781
REMARK INTER + INTRA:         -10.004
REMARK INTER:                  -8.607
REMARK INTRA:                  -1.397
REMARK UNBOUND:                -1.306
REMARK SMILES CC[C@H](CC[C@H](C)[C@H]1CC[C@H]2[C@H]3CC=C4C[C@H](O)CC[C@]4(C)[C@H]3CC[C@@]12C)C(C)C
REMARK SMILES IDX 5 1 4 2 3 3 2 4 1 5 28 6 29 7 30 8 6 9 7 10 8 11 9 12 26 13
REMARK SMILES IDX 10 14 11 15 25 16 27 17 12 18 24 19 23 20 13 21 21 22 14 23
REMARK SMILES IDX 15 24 20 25 22 26 16 27 19 28 17 29 18 30
REMARK H PARENT 18 31
REMARK Flexibility Score: inf
ROOT
ATOM      1  C   UNL     1     171.794 176.858 181.195  1.00  0.00     0.004 C 
ENDROOT
BRANCH   1   2
ATOM      2  C   UNL     1     172.831 177.379 182.217  1.00  0.00     0.004 C 
BRANCH   2   3
ATOM      3  C   UNL     1     173.795 176.283 182.763  1.00  0.00    -0.009 C 
BRANCH   3   4
ATOM      4  C   UNL     1     173.432 174.861 182.240  1.00  0.00     0.000 C 
ATOM      5  C   UNL     1     172.694 173.988 183.259  1.00  0.00     0.004 C 
ENDBRANCH   3   4
BRANCH   3   6
ATOM      6  C   UNL     1     175.309 176.616 182.510  1.00  0.00    -0.014 C 
ATOM      7  C   UNL     1     175.606 176.852 181.016  1.00  0.00     0.007 C 
ATOM      8  C   UNL     1     176.245 175.506 183.028  1.00  0.00     0.007 C 
ENDBRANCH   3   6
ENDBRANCH   2   3
ENDBRANCH   1   2
BRANCH   1   9
ATOM      9  C   UNL     1     170.331 177.041 181.675  1.00  0.00    -0.011 C 
ATOM     10  C   UNL     1     170.341 177.335 183.190  1.00  0.00     0.008 C 
BRANCH   9  11
ATOM     11  C   UNL     1     169.422 175.821 181.261  1.00  0.00    -0.002 C 
ATOM     12  C   UNL     1     168.924 174.916 182.390  1.00  0.00     0.005 C 
ATOM     13  C   UNL     1     168.182 176.116 180.367  1.00  0.00    -0.026 C 
ATOM     14  C   UNL     1     167.756 174.129 181.801  1.00  0.00     0.005 C 
ATOM     15  C   UNL     1     167.396 174.774 180.445  1.00  0.00    -0.001 C 
ATOM     16  C   UNL     1     167.314 177.332 180.849  1.00  0.00     0.007 C 
ATOM     17  C   UNL     1     168.642 176.384 178.911  1.00  0.00     0.012 C 
ATOM     18  C   UNL     1     165.867 174.915 180.164  1.00  0.00     0.000 C 
ATOM     19  C   UNL     1     166.139 176.942 181.756  1.00  0.00     0.005 C 
ATOM     20  C   UNL     1     165.145 176.048 180.979  1.00  0.00     0.003 C 
ATOM     21  C   UNL     1     165.146 173.553 180.197  1.00  0.00     0.031 C 
ATOM     22  C   UNL     1     163.859 175.614 181.795  1.00  0.00    -0.008 C 
ATOM     23  C   UNL     1     163.655 173.709 180.187  1.00  0.00    -0.027 C 
ATOM     24  C   UNL     1     163.033 174.646 180.932  1.00  0.00    -0.065 C 
ATOM     25  C   UNL     1     163.031 176.902 182.130  1.00  0.00     0.014 C 
ATOM     26  C   UNL     1     164.200 174.899 183.127  1.00  0.00     0.016 C 
ATOM     27  C   UNL     1     161.530 174.534 181.102  1.00  0.00     0.063 C 
ATOM     28  C   UNL     1     161.559 176.639 182.469  1.00  0.00     0.033 C 
ATOM     29  C   UNL     1     160.863 175.893 181.331  1.00  0.00     0.118 C 
BRANCH  29  30
ATOM     30  O   UNL     1     160.903 176.665 180.157  1.00  0.00    -0.393 OA
ATOM     31  H   UNL     1     161.767 177.156 180.164  1.00  0.00     0.210 HD
ENDBRANCH  29  30
ENDBRANCH   9  11
ENDBRANCH   1   9
TORSDOF 7
ENDMDL
MODEL 7
REMARK VINA RESULT:    -6.263      4.965      9.131
REMARK INTER + INTRA:          -9.948
REMARK INTER:                  -7.869
REMARK INTRA:                  -2.079
REMARK UNBOUND:                -1.306
REMARK SMILES CC[C@H](CC[C@H](C)[C@H]1CC[C@H]2[C@H]3CC=C4C[C@H](O)CC[C@]4(C)[C@H]3CC[C@@]12C)C(C)C
REMARK SMILES IDX 5 1 4 2 3 3 2 4 1 5 28 6 29 7 30 8 6 9 7 10 8 11 9 12 26 13
REMARK SMILES IDX 10 14 11 15 25 16 27 17 12 18 24 19 23 20 13 21 21 22 14 23
REMARK SMILES IDX 15 24 20 25 22 26 16 27 19 28 17 29 18 30
REMARK H PARENT 18 31
REMARK Flexibility Score: inf
ROOT
ATOM      1  C   UNL     1     173.820 175.235 182.462  1.00  0.00     0.004 C 
ENDROOT
BRANCH   1   2
ATOM      2  C   UNL     1     175.066 174.466 182.959  1.00  0.00     0.004 C 
BRANCH   2   3
ATOM      3  C   UNL     1     176.422 175.121 182.558  1.00  0.00    -0.009 C 
BRANCH   3   4
ATOM      4  C   UNL     1     177.132 174.355 181.403  1.00  0.00     0.000 C 
ATOM      5  C   UNL     1     177.338 172.862 181.675  1.00  0.00     0.004 C 
ENDBRANCH   3   4
BRANCH   3   6
ATOM      6  C   UNL     1     176.290 176.652 182.233  1.00  0.00    -0.014 C 
ATOM      7  C   UNL     1     176.817 176.990 180.824  1.00  0.00     0.007 C 
ATOM      8  C   UNL     1     177.031 177.532 183.259  1.00  0.00     0.007 C 
ENDBRANCH   3   6
ENDBRANCH   2   3
ENDBRANCH   1   2
BRANCH   1   9
ATOM      9  C   UNL     1     173.258 174.677 181.129  1.00  0.00    -0.011 C 
ATOM     10  C   UNL     1     173.651 173.189 181.013  1.00  0.00     0.008 C 
BRANCH   9  11
ATOM     11  C   UNL     1     173.695 175.557 179.896  1.00  0.00    -0.002 C 
ATOM     12  C   UNL     1     174.479 174.852 178.787  1.00  0.00     0.005 C 
ATOM     13  C   UNL     1     172.594 176.392 179.180  1.00  0.00    -0.026 C 
ATOM     14  C   UNL     1     174.382 175.768 177.569  1.00  0.00     0.005 C 
ATOM     15  C   UNL     1     173.319 176.844 177.878  1.00  0.00    -0.001 C 
ATOM     16  C   UNL     1     171.277 175.593 178.869  1.00  0.00     0.007 C 
ATOM     17  C   UNL     1     172.230 177.625 180.046  1.00  0.00     0.012 C 
ATOM     18  C   UNL     1     172.356 177.182 176.698  1.00  0.00     0.000 C 
ATOM     19  C   UNL     1     171.238 174.974 177.466  1.00  0.00     0.005 C 
ATOM     20  C   UNL     1     171.269 176.088 176.395  1.00  0.00     0.003 C 
ATOM     21  C   UNL     1     173.120 177.677 175.454  1.00  0.00     0.031 C 
ATOM     22  C   UNL     1     171.186 175.578 174.897  1.00  0.00    -0.008 C 
ATOM     23  C   UNL     1     172.234 177.754 174.246  1.00  0.00    -0.027 C 
ATOM     24  C   UNL     1     171.341 176.785 173.958  1.00  0.00    -0.065 C 
ATOM     25  C   UNL     1     169.794 174.889 174.690  1.00  0.00     0.014 C 
ATOM     26  C   UNL     1     172.291 174.550 174.547  1.00  0.00     0.016 C 
ATOM     27  C   UNL     1     170.716 176.785 172.577  1.00  0.00     0.063 C 
ATOM     28  C   UNL     1     169.352 174.781 173.225  1.00  0.00     0.033 C 
ATOM     29  C   UNL     1     169.319 176.158 172.564  1.00  0.00     0.118 C 
BRANCH  29  30
ATOM     30  O   UNL     1     168.401 176.988 173.230  1.00  0.00    -0.393 OA
ATOM     31  H   UNL     1     168.258 177.783 172.652  1.00  0.00     0.210 HD
ENDBRANCH  29  30
ENDBRANCH   9  11
ENDBRANCH   1   9
TORSDOF 7
ENDMDL
MODEL 8
REMARK VINA RESULT:    -6.243      3.014      9.347
REMARK INTER + INTRA:          -9.920
REMARK INTER:                  -8.622
REMARK INTRA:                  -1.299
REMARK UNBOUND:                -1.306
REMARK SMILES CC[C@H](CC[C@H](C)[C@H]1CC[C@H]2[C@H]3CC=C4C[C@H](O)CC[C@]4(C)[C@H]3CC[C@@]12C)C(C)C
REMARK SMILES IDX 5 1 4 2 3 3 2 4 1 5 28 6 29 7 30 8 6 9 7 10 8 11 9 12 26 13
REMARK SMILES IDX 10 14 11 15 25 16 27 17 12 18 24 19 23 20 13 21 21 22 14 23
REMARK SMILES IDX 15 24 20 25 22 26 16 27 19 28 17 29 18 30
REMARK H PARENT 18 31
REMARK Flexibility Score: inf
ROOT
ATOM      1  C   UNL     1     173.843 176.316 182.476  1.00  0.00     0.004 C 
ENDROOT
BRANCH   1   2
ATOM      2  C   UNL     1     174.937 175.397 183.067  1.00  0.00     0.004 C 
BRANCH   2   3
ATOM      3  C   UNL     1     176.387 175.767 182.629  1.00  0.00    -0.009 C 
BRANCH   3   4
ATOM      4  C   UNL     1     177.001 174.711 181.662  1.00  0.00     0.000 C 
ATOM      5  C   UNL     1     176.453 173.293 181.854  1.00  0.00     0.004 C 
ENDBRANCH   3   4
BRANCH   3   6
ATOM      6  C   UNL     1     176.496 177.217 182.036  1.00  0.00    -0.014 C 
ATOM      7  C   UNL     1     176.997 177.208 180.578  1.00  0.00     0.007 C 
ATOM      8  C   UNL     1     177.426 178.119 182.870  1.00  0.00     0.007 C 
ENDBRANCH   3   6
ENDBRANCH   2   3
ENDBRANCH   1   2
BRANCH   1   9
ATOM      9  C   UNL     1     172.666 175.527 181.847  1.00  0.00    -0.011 C 
ATOM     10  C   UNL     1     173.215 174.657 180.696  1.00  0.00     0.008 C 
BRANCH   9  11
ATOM     11  C   UNL     1     171.481 176.478 181.428  1.00  0.00    -0.002 C 
ATOM     12  C   UNL     1     170.940 176.323 180.005  1.00  0.00     0.005 C 
ATOM     13  C   UNL     1     170.233 176.529 182.359  1.00  0.00    -0.026 C 
ATOM     14  C   UNL     1     169.573 177.002 180.009  1.00  0.00     0.005 C 
ATOM     15  C   UNL     1     169.198 177.290 181.479  1.00  0.00    -0.001 C 
ATOM     16  C   UNL     1     169.701 175.118 182.801  1.00  0.00     0.007 C 
ATOM     17  C   UNL     1     170.565 177.352 183.629  1.00  0.00     0.012 C 
ATOM     18  C   UNL     1     167.711 177.002 181.852  1.00  0.00     0.000 C 
ATOM     19  C   UNL     1     168.585 174.562 181.907  1.00  0.00     0.005 C 
ATOM     20  C   UNL     1     167.342 175.479 181.979  1.00  0.00     0.003 C 
ATOM     21  C   UNL     1     166.731 177.821 180.991  1.00  0.00     0.031 C 
ATOM     22  C   UNL     1     166.098 174.986 181.131  1.00  0.00    -0.008 C 
ATOM     23  C   UNL     1     165.314 177.361 181.164  1.00  0.00    -0.027 C 
ATOM     24  C   UNL     1     164.994 176.052 181.215  1.00  0.00    -0.065 C 
ATOM     25  C   UNL     1     165.603 173.626 181.730  1.00  0.00     0.014 C 
ATOM     26  C   UNL     1     166.437 174.761 179.636  1.00  0.00     0.016 C 
ATOM     27  C   UNL     1     163.531 175.674 181.079  1.00  0.00     0.063 C 
ATOM     28  C   UNL     1     164.158 173.262 181.367  1.00  0.00     0.033 C 
ATOM     29  C   UNL     1     163.193 174.365 181.798  1.00  0.00     0.118 C 
BRANCH  29  30
ATOM     30  O   UNL     1     163.256 174.540 183.191  1.00  0.00    -0.393 OA
ATOM     31  H   UNL     1     163.606 173.691 183.572  1.00  0.00     0.210 HD
ENDBRANCH  29  30
ENDBRANCH   9  11
ENDBRANCH   1   9
TORSDOF 7
ENDMDL
MODEL 9
REMARK VINA RESULT:    -6.146      1.863      4.351
REMARK INTER + INTRA:          -9.787
REMARK INTER:                  -7.508
REMARK INTRA:                  -2.278
REMARK UNBOUND:                -1.306
REMARK SMILES CC[C@H](CC[C@H](C)[C@H]1CC[C@H]2[C@H]3CC=C4C[C@H](O)CC[C@]4(C)[C@H]3CC[C@@]12C)C(C)C
REMARK SMILES IDX 5 1 4 2 3 3 2 4 1 5 28 6 29 7 30 8 6 9 7 10 8 11 9 12 26 13
REMARK SMILES IDX 10 14 11 15 25 16 27 17 12 18 24 19 23 20 13 21 21 22 14 23
REMARK SMILES IDX 15 24 20 25 22 26 16 27 19 28 17 29 18 30
REMARK H PARENT 18 31
REMARK Flexibility Score: inf
ROOT
ATOM      1  C   UNL     1     162.881 174.572 180.991  1.00  0.00     0.004 C 
ENDROOT
BRANCH   1   2
ATOM      2  C   UNL     1     161.804 175.550 181.517  1.00  0.00     0.004 C 
BRANCH   2   3
ATOM      3  C   UNL     1     161.635 176.837 180.654  1.00  0.00    -0.009 C 
BRANCH   3   4
ATOM      4  C   UNL     1     162.127 178.116 181.394  1.00  0.00     0.000 C 
ATOM      5  C   UNL     1     162.119 177.997 182.921  1.00  0.00     0.004 C 
ENDBRANCH   3   4
BRANCH   3   6
ATOM      6  C   UNL     1     162.291 176.712 179.232  1.00  0.00    -0.014 C 
ATOM      7  C   UNL     1     163.211 177.907 178.914  1.00  0.00     0.007 C 
ATOM      8  C   UNL     1     161.238 176.590 178.113  1.00  0.00     0.007 C 
ENDBRANCH   3   6
ENDBRANCH   2   3
ENDBRANCH   1   2
BRANCH   1   9
ATOM      9  C   UNL     1     164.214 174.663 181.777  1.00  0.00    -0.011 C 
ATOM     10  C   UNL     1     163.891 174.848 183.276  1.00  0.00     0.008 C 
BRANCH   9  11
ATOM     11  C   UNL     1     165.170 175.767 181.183  1.00  0.00    -0.002 C 
ATOM     12  C   UNL     1     165.640 176.863 182.141  1.00  0.00     0.005 C 
ATOM     13  C   UNL     1     166.441 175.286 180.423  1.00  0.00    -0.026 C 
ATOM     14  C   UNL     1     166.853 177.503 181.470  1.00  0.00     0.005 C 
ATOM     15  C   UNL     1     167.257 176.604 180.281  1.00  0.00    -0.001 C 
ATOM     16  C   UNL     1     167.257 174.170 181.171  1.00  0.00     0.007 C 
ATOM     17  C   UNL     1     166.040 174.750 179.025  1.00  0.00     0.012 C 
ATOM     18  C   UNL     1     168.792 176.387 180.107  1.00  0.00     0.000 C 
ATOM     19  C   UNL     1     168.399 174.709 182.042  1.00  0.00     0.005 C 
ATOM     20  C   UNL     1     169.449 175.420 181.157  1.00  0.00     0.003 C 
ATOM     21  C   UNL     1     169.545 177.719 179.914  1.00  0.00     0.031 C 
ATOM     22  C   UNL     1     170.708 175.983 181.937  1.00  0.00    -0.008 C 
ATOM     23  C   UNL     1     171.031 177.540 180.006  1.00  0.00    -0.027 C 
ATOM     24  C   UNL     1     171.595 176.754 180.946  1.00  0.00    -0.065 C 
ATOM     25  C   UNL     1     171.488 174.770 182.552  1.00  0.00     0.014 C 
ATOM     26  C   UNL     1     170.325 176.946 183.089  1.00  0.00     0.016 C 
ATOM     27  C   UNL     1     173.091 176.872 181.164  1.00  0.00     0.063 C 
ATOM     28  C   UNL     1     172.949 175.069 182.905  1.00  0.00     0.033 C 
ATOM     29  C   UNL     1     173.714 175.571 181.680  1.00  0.00     0.118 C 
BRANCH  29  30
ATOM     30  O   UNL     1     173.706 174.590 180.675  1.00  0.00    -0.393 OA
ATOM     31  H   UNL     1     173.560 173.717 181.126  1.00  0.00     0.210 HD
ENDBRANCH  29  30
ENDBRANCH   9  11
ENDBRANCH   1   9
TORSDOF 7
ENDMDL
