MODEL 1
REMARK VINA RESULT:    -2.413      0.000      0.000
REMARK INTER + INTRA:          -9.598
REMARK INTER:                  -6.081
REMARK INTRA:                  -3.516
REMARK UNBOUND:                -3.516
REMARK SMILES CCCCCCCCCCCCCCCCCCCCCCCCCCCC(=O)[O-]
REMARK SMILES IDX 15 1 16 2 17 3 18 4 19 5 20 6 21 7 22 8 23 9 24 10 25 11
REMARK SMILES IDX 26 12 27 13 28 14 29 15 30 16 14 17 13 18 12 19 11 20 10 21
REMARK SMILES IDX 9 22 8 23 7 24 6 25 5 26 4 27 3 28 2 29 1 30
REMARK H PARENT
REMARK Flexibility Score: inf
ROOT
ATOM      1  C   UNL     1     -20.152  44.652  -6.971  1.00  0.00     0.000 C 
ENDROOT
BRANCH   1   2
ATOM      2  C   UNL     1     -19.736  45.349  -5.663  1.00  0.00     0.000 C 
BRANCH   2   3
ATOM      3  C   UNL     1     -19.649  46.875  -5.801  1.00  0.00     0.000 C 
BRANCH   3   4
ATOM      4  C   UNL     1     -18.193  47.321  -6.007  1.00  0.00     0.000 C 
BRANCH   4   5
ATOM      5  C   UNL     1     -18.003  48.170  -7.273  1.00  0.00     0.000 C 
BRANCH   5   6
ATOM      6  C   UNL     1     -17.637  47.323  -8.504  1.00  0.00     0.000 C 
BRANCH   6   7
ATOM      7  C   UNL     1     -16.634  48.026  -9.436  1.00  0.00     0.000 C 
BRANCH   7   8
ATOM      8  C   UNL     1     -15.582  47.104 -10.089  1.00  0.00     0.000 C 
BRANCH   8   9
ATOM      9  C   UNL     1     -14.132  47.617 -10.023  1.00  0.00     0.000 C 
BRANCH   9  10
ATOM     10  C   UNL     1     -14.030  49.054  -9.493  1.00  0.00     0.000 C 
BRANCH  10  11
ATOM     11  C   UNL     1     -14.641  50.051 -10.486  1.00  0.00     0.000 C 
BRANCH  11  12
ATOM     12  C   UNL     1     -15.057  51.347  -9.777  1.00  0.00     0.006 C 
BRANCH  12  13
ATOM     13  C   UNL     1     -13.875  52.304  -9.571  1.00  0.00     0.053 C 
BRANCH  13  14
ATOM     14  C   UNL     1     -14.049  53.148  -8.344  1.00  0.00     0.041 C 
ATOM     15  O   UNL     1     -14.292  54.380  -8.451  1.00  0.00    -0.550 OA
ATOM     16  O   UNL     1     -13.909  52.579  -7.085  1.00  0.00    -0.550 OA
ENDBRANCH  13  14
ENDBRANCH  12  13
ENDBRANCH  11  12
ENDBRANCH  10  11
ENDBRANCH   9  10
ENDBRANCH   8   9
ENDBRANCH   7   8
ENDBRANCH   6   7
ENDBRANCH   5   6
ENDBRANCH   4   5
ENDBRANCH   3   4
ENDBRANCH   2   3
ENDBRANCH   1   2
BRANCH   1  17
ATOM     17  C   UNL     1     -21.330  45.310  -7.717  1.00  0.00     0.000 C 
BRANCH  17  18
ATOM     18  C   UNL     1     -21.088  45.594  -9.211  1.00  0.00     0.000 C 
BRANCH  18  19
ATOM     19  C   UNL     1     -19.861  44.853  -9.769  1.00  0.00     0.000 C 
BRANCH  19  20
ATOM     20  C   UNL     1     -20.219  43.494 -10.397  1.00  0.00     0.000 C 
BRANCH  20  21
ATOM     21  C   UNL     1     -19.144  42.397 -10.246  1.00  0.00     0.000 C 
BRANCH  21  22
ATOM     22  C   UNL     1     -18.460  42.339  -8.869  1.00  0.00    -0.000 C 
BRANCH  22  23
ATOM     23  C   UNL     1     -16.927  42.380  -8.963  1.00  0.00    -0.000 C 
BRANCH  23  24
ATOM     24  C   UNL     1     -16.411  43.826  -8.920  1.00  0.00    -0.000 C 
BRANCH  24  25
ATOM     25  C   UNL     1     -16.987  44.617  -7.727  1.00  0.00    -0.000 C 
BRANCH  25  26
ATOM     26  C   UNL     1     -16.493  44.119  -6.354  1.00  0.00    -0.000 C 
BRANCH  26  27
ATOM     27  C   UNL     1     -15.483  45.042  -5.651  1.00  0.00    -0.000 C 
BRANCH  27  28
ATOM     28  C   UNL     1     -14.800  46.024  -6.619  1.00  0.00    -0.000 C 
BRANCH  28  29
ATOM     29  C   UNL     1     -14.275  47.280  -5.910  1.00  0.00    -0.003 C 
ATOM     30  C   UNL     1     -14.697  47.354  -4.442  1.00  0.00     0.004 C 
ENDBRANCH  28  29
ENDBRANCH  27  28
ENDBRANCH  26  27
ENDBRANCH  25  26
ENDBRANCH  24  25
ENDBRANCH  23  24
ENDBRANCH  22  23
ENDBRANCH  21  22
ENDBRANCH  20  21
ENDBRANCH  19  20
ENDBRANCH  18  19
ENDBRANCH  17  18
ENDBRANCH   1  17
TORSDOF 26
ENDMDL
MODEL 2
REMARK VINA RESULT:    -2.283      1.563      4.043
REMARK INTER + INTRA:          -9.271
REMARK INTER:                  -7.553
REMARK INTRA:                  -1.718
REMARK UNBOUND:                -3.516
REMARK SMILES CCCCCCCCCCCCCCCCCCCCCCCCCCCC(=O)[O-]
REMARK SMILES IDX 15 1 16 2 17 3 18 4 19 5 20 6 21 7 22 8 23 9 24 10 25 11
REMARK SMILES IDX 26 12 27 13 28 14 29 15 30 16 14 17 13 18 12 19 11 20 10 21
REMARK SMILES IDX 9 22 8 23 7 24 6 25 5 26 4 27 3 28 2 29 1 30
REMARK H PARENT
REMARK Flexibility Score: inf
ROOT
ATOM      1  C   UNL     1     -16.946  43.750  -6.599  1.00  0.00     0.000 C 
ENDROOT
BRANCH   1   2
ATOM      2  C   UNL     1     -15.857  44.823  -6.776  1.00  0.00     0.000 C 
BRANCH   2   3
ATOM      3  C   UNL     1     -15.327  45.363  -5.441  1.00  0.00     0.000 C 
BRANCH   3   4
ATOM      4  C   UNL     1     -15.544  46.881  -5.343  1.00  0.00     0.000 C 
BRANCH   4   5
ATOM      5  C   UNL     1     -16.863  47.251  -4.647  1.00  0.00     0.000 C 
BRANCH   5   6
ATOM      6  C   UNL     1     -18.042  47.350  -5.629  1.00  0.00     0.000 C 
BRANCH   6   7
ATOM      7  C   UNL     1     -17.644  47.007  -7.076  1.00  0.00     0.000 C 
BRANCH   7   8
ATOM      8  C   UNL     1     -17.914  48.115  -8.116  1.00  0.00     0.000 C 
BRANCH   8   9
ATOM      9  C   UNL     1     -16.899  48.189  -9.271  1.00  0.00     0.000 C 
BRANCH   9  10
ATOM     10  C   UNL     1     -15.462  47.883  -8.824  1.00  0.00     0.000 C 
BRANCH  10  11
ATOM     11  C   UNL     1     -14.466  48.145  -9.961  1.00  0.00     0.000 C 
BRANCH  11  12
ATOM     12  C   UNL     1     -13.875  49.557  -9.859  1.00  0.00     0.006 C 
BRANCH  12  13
ATOM     13  C   UNL     1     -14.939  50.649 -10.037  1.00  0.00     0.053 C 
BRANCH  13  14
ATOM     14  C   UNL     1     -14.461  51.979  -9.538  1.00  0.00     0.041 C 
ATOM     15  O   UNL     1     -14.188  52.901 -10.353  1.00  0.00    -0.550 OA
ATOM     16  O   UNL     1     -14.283  52.188  -8.176  1.00  0.00    -0.550 OA
ENDBRANCH  13  14
ENDBRANCH  12  13
ENDBRANCH  11  12
ENDBRANCH  10  11
ENDBRANCH   9  10
ENDBRANCH   8   9
ENDBRANCH   7   8
ENDBRANCH   6   7
ENDBRANCH   5   6
ENDBRANCH   4   5
ENDBRANCH   3   4
ENDBRANCH   2   3
ENDBRANCH   1   2
BRANCH   1  17
ATOM     17  C   UNL     1     -17.325  42.984  -7.882  1.00  0.00     0.000 C 
BRANCH  17  18
ATOM     18  C   UNL     1     -16.265  43.005  -9.000  1.00  0.00     0.000 C 
BRANCH  18  19
ATOM     19  C   UNL     1     -16.111  44.390  -9.652  1.00  0.00     0.000 C 
BRANCH  19  20
ATOM     20  C   UNL     1     -16.986  44.559 -10.907  1.00  0.00     0.000 C 
BRANCH  20  21
ATOM     21  C   UNL     1     -18.065  43.474 -11.106  1.00  0.00     0.000 C 
BRANCH  21  22
ATOM     22  C   UNL     1     -19.515  43.989 -11.120  1.00  0.00    -0.000 C 
BRANCH  22  23
ATOM     23  C   UNL     1     -20.446  43.173 -10.210  1.00  0.00    -0.000 C 
BRANCH  23  24
ATOM     24  C   UNL     1     -20.269  43.575  -8.738  1.00  0.00    -0.000 C 
BRANCH  24  25
ATOM     25  C   UNL     1     -20.563  45.072  -8.501  1.00  0.00    -0.000 C 
BRANCH  25  26
ATOM     26  C   UNL     1     -20.686  45.454  -7.012  1.00  0.00    -0.000 C 
BRANCH  26  27
ATOM     27  C   UNL     1     -20.106  44.426  -6.025  1.00  0.00    -0.000 C 
BRANCH  27  28
ATOM     28  C   UNL     1     -21.194  43.692  -5.223  1.00  0.00    -0.000 C 
BRANCH  28  29
ATOM     29  C   UNL     1     -20.634  42.993  -3.975  1.00  0.00    -0.003 C 
ATOM     30  C   UNL     1     -21.494  41.813  -3.519  1.00  0.00     0.004 C 
ENDBRANCH  28  29
ENDBRANCH  27  28
ENDBRANCH  26  27
ENDBRANCH  25  26
ENDBRANCH  24  25
ENDBRANCH  23  24
ENDBRANCH  22  23
ENDBRANCH  21  22
ENDBRANCH  20  21
ENDBRANCH  19  20
ENDBRANCH  18  19
ENDBRANCH  17  18
ENDBRANCH   1  17
TORSDOF 26
ENDMDL
MODEL 3
REMARK VINA RESULT:    -2.269      3.167      6.856
REMARK INTER + INTRA:          -9.233
REMARK INTER:                  -6.270
REMARK INTRA:                  -2.964
REMARK UNBOUND:                -3.516
REMARK SMILES CCCCCCCCCCCCCCCCCCCCCCCCCCCC(=O)[O-]
REMARK SMILES IDX 15 1 16 2 17 3 18 4 19 5 20 6 21 7 22 8 23 9 24 10 25 11
REMARK SMILES IDX 26 12 27 13 28 14 29 15 30 16 14 17 13 18 12 19 11 20 10 21
REMARK SMILES IDX 9 22 8 23 7 24 6 25 5 26 4 27 3 28 2 29 1 30
REMARK H PARENT
REMARK Flexibility Score: inf
ROOT
ATOM      1  C   UNL     1     -16.049  45.641 -10.128  1.00  0.00     0.000 C 
ENDROOT
BRANCH   1   2
ATOM      2  C   UNL     1     -16.077  44.207 -10.687  1.00  0.00     0.000 C 
BRANCH   2   3
ATOM      3  C   UNL     1     -17.494  43.621 -10.759  1.00  0.00     0.000 C 
BRANCH   3   4
ATOM      4  C   UNL     1     -18.020  43.293  -9.353  1.00  0.00     0.000 C 
BRANCH   4   5
ATOM      5  C   UNL     1     -17.113  42.313  -8.591  1.00  0.00     0.000 C 
BRANCH   5   6
ATOM      6  C   UNL     1     -16.166  43.025  -7.611  1.00  0.00     0.000 C 
BRANCH   6   7
ATOM      7  C   UNL     1     -16.911  43.704  -6.447  1.00  0.00     0.000 C 
BRANCH   7   8
ATOM      8  C   UNL     1     -18.381  44.076  -6.733  1.00  0.00     0.000 C 
BRANCH   8   9
ATOM      9  C   UNL     1     -19.253  44.303  -5.484  1.00  0.00     0.000 C 
BRANCH   9  10
ATOM     10  C   UNL     1     -20.756  44.201  -5.779  1.00  0.00     0.000 C 
BRANCH  10  11
ATOM     11  C   UNL     1     -21.006  43.865  -7.256  1.00  0.00     0.000 C 
BRANCH  11  12
ATOM     12  C   UNL     1     -21.578  45.076  -8.004  1.00  0.00     0.006 C 
BRANCH  12  13
ATOM     13  C   UNL     1     -20.605  45.626  -9.056  1.00  0.00     0.053 C 
BRANCH  13  14
ATOM     14  C   UNL     1     -21.080  45.353 -10.451  1.00  0.00     0.041 C 
ATOM     15  O   UNL     1     -21.626  46.268 -11.125  1.00  0.00    -0.550 OA
ATOM     16  O   UNL     1     -20.951  44.081 -10.993  1.00  0.00    -0.550 OA
ENDBRANCH  13  14
ENDBRANCH  12  13
ENDBRANCH  11  12
ENDBRANCH  10  11
ENDBRANCH   9  10
ENDBRANCH   8   9
ENDBRANCH   7   8
ENDBRANCH   6   7
ENDBRANCH   5   6
ENDBRANCH   4   5
ENDBRANCH   3   4
ENDBRANCH   2   3
ENDBRANCH   1   2
BRANCH   1  17
ATOM     17  C   UNL     1     -17.344  46.451 -10.341  1.00  0.00     0.000 C 
BRANCH  17  18
ATOM     18  C   UNL     1     -17.594  47.574  -9.318  1.00  0.00     0.000 C 
BRANCH  18  19
ATOM     19  C   UNL     1     -17.527  47.083  -7.862  1.00  0.00     0.000 C 
BRANCH  19  20
ATOM     20  C   UNL     1     -18.546  47.786  -6.947  1.00  0.00     0.000 C 
BRANCH  20  21
ATOM     21  C   UNL     1     -18.439  47.430  -5.449  1.00  0.00     0.000 C 
BRANCH  21  22
ATOM     22  C   UNL     1     -17.049  47.649  -4.824  1.00  0.00    -0.000 C 
BRANCH  22  23
ATOM     23  C   UNL     1     -16.065  46.515  -5.150  1.00  0.00    -0.000 C 
BRANCH  23  24
ATOM     24  C   UNL     1     -14.621  46.931  -4.833  1.00  0.00    -0.000 C 
BRANCH  24  25
ATOM     25  C   UNL     1     -13.898  47.520  -6.063  1.00  0.00    -0.000 C 
BRANCH  25  26
ATOM     26  C   UNL     1     -14.289  46.849  -7.395  1.00  0.00    -0.000 C 
BRANCH  26  27
ATOM     27  C   UNL     1     -13.876  47.621  -8.660  1.00  0.00    -0.000 C 
BRANCH  27  28
ATOM     28  C   UNL     1     -14.035  49.144  -8.506  1.00  0.00    -0.000 C 
BRANCH  28  29
ATOM     29  C   UNL     1     -15.123  49.718  -9.425  1.00  0.00    -0.003 C 
ATOM     30  C   UNL     1     -14.645  49.903 -10.866  1.00  0.00     0.004 C 
ENDBRANCH  28  29
ENDBRANCH  27  28
ENDBRANCH  26  27
ENDBRANCH  25  26
ENDBRANCH  24  25
ENDBRANCH  23  24
ENDBRANCH  22  23
ENDBRANCH  21  22
ENDBRANCH  20  21
ENDBRANCH  19  20
ENDBRANCH  18  19
ENDBRANCH  17  18
ENDBRANCH   1  17
TORSDOF 26
ENDMDL
MODEL 4
REMARK VINA RESULT:    -2.031      2.245      5.811
REMARK INTER + INTRA:          -8.635
REMARK INTER:                  -6.930
REMARK INTRA:                  -1.705
REMARK UNBOUND:                -3.516
REMARK SMILES CCCCCCCCCCCCCCCCCCCCCCCCCCCC(=O)[O-]
REMARK SMILES IDX 15 1 16 2 17 3 18 4 19 5 20 6 21 7 22 8 23 9 24 10 25 11
REMARK SMILES IDX 26 12 27 13 28 14 29 15 30 16 14 17 13 18 12 19 11 20 10 21
REMARK SMILES IDX 9 22 8 23 7 24 6 25 5 26 4 27 3 28 2 29 1 30
REMARK H PARENT
REMARK Flexibility Score: inf
ROOT
ATOM      1  C   UNL     1     -19.038  42.478  -9.198  1.00  0.00     0.000 C 
ENDROOT
BRANCH   1   2
ATOM      2  C   UNL     1     -19.696  42.153 -10.550  1.00  0.00     0.000 C 
BRANCH   2   3
ATOM      3  C   UNL     1     -20.635  43.264 -11.041  1.00  0.00     0.000 C 
BRANCH   3   4
ATOM      4  C   UNL     1     -19.923  44.626 -11.023  1.00  0.00     0.000 C 
BRANCH   4   5
ATOM      5  C   UNL     1     -20.519  45.596  -9.991  1.00  0.00     0.000 C 
BRANCH   5   6
ATOM      6  C   UNL     1     -21.143  44.870  -8.788  1.00  0.00     0.000 C 
BRANCH   6   7
ATOM      7  C   UNL     1     -20.394  45.143  -7.471  1.00  0.00     0.000 C 
BRANCH   7   8
ATOM      8  C   UNL     1     -20.842  44.288  -6.266  1.00  0.00     0.000 C 
BRANCH   8   9
ATOM      9  C   UNL     1     -19.701  43.757  -5.380  1.00  0.00     0.000 C 
BRANCH   9  10
ATOM     10  C   UNL     1     -18.531  44.745  -5.258  1.00  0.00     0.000 C 
BRANCH  10  11
ATOM     11  C   UNL     1     -17.249  44.154  -5.857  1.00  0.00     0.000 C 
BRANCH  11  12
ATOM     12  C   UNL     1     -16.261  45.264  -6.243  1.00  0.00     0.006 C 
BRANCH  12  13
ATOM     13  C   UNL     1     -15.121  45.409  -5.226  1.00  0.00     0.053 C 
BRANCH  13  14
ATOM     14  C   UNL     1     -14.802  46.847  -4.948  1.00  0.00     0.041 C 
ATOM     15  O   UNL     1     -15.037  47.340  -3.813  1.00  0.00    -0.550 OA
ATOM     16  O   UNL     1     -14.278  47.649  -5.954  1.00  0.00    -0.550 OA
ENDBRANCH  13  14
ENDBRANCH  12  13
ENDBRANCH  11  12
ENDBRANCH  10  11
ENDBRANCH   9  10
ENDBRANCH   8   9
ENDBRANCH   7   8
ENDBRANCH   6   7
ENDBRANCH   5   6
ENDBRANCH   4   5
ENDBRANCH   3   4
ENDBRANCH   2   3
ENDBRANCH   1   2
BRANCH   1  17
ATOM     17  C   UNL     1     -17.498  42.539  -9.217  1.00  0.00     0.000 C 
BRANCH  17  18
ATOM     18  C   UNL     1     -16.896  43.935  -9.464  1.00  0.00     0.000 C 
BRANCH  18  19
ATOM     19  C   UNL     1     -16.416  44.132 -10.912  1.00  0.00     0.000 C 
BRANCH  19  20
ATOM     20  C   UNL     1     -14.961  43.678 -11.125  1.00  0.00     0.000 C 
BRANCH  20  21
ATOM     21  C   UNL     1     -13.892  44.767 -10.893  1.00  0.00     0.000 C 
BRANCH  21  22
ATOM     22  C   UNL     1     -14.445  46.179 -10.628  1.00  0.00    -0.000 C 
BRANCH  22  23
ATOM     23  C   UNL     1     -14.332  46.595  -9.153  1.00  0.00    -0.000 C 
BRANCH  23  24
ATOM     24  C   UNL     1     -14.347  48.124  -9.009  1.00  0.00    -0.000 C 
BRANCH  24  25
ATOM     25  C   UNL     1     -15.557  48.767  -9.720  1.00  0.00    -0.000 C 
BRANCH  25  26
ATOM     26  C   UNL     1     -16.704  47.778 -10.012  1.00  0.00    -0.000 C 
BRANCH  26  27
ATOM     27  C   UNL     1     -17.244  47.025  -8.784  1.00  0.00    -0.000 C 
BRANCH  27  28
ATOM     28  C   UNL     1     -17.522  47.955  -7.591  1.00  0.00    -0.000 C 
BRANCH  28  29
ATOM     29  C   UNL     1     -18.824  47.598  -6.859  1.00  0.00    -0.003 C 
ATOM     30  C   UNL     1     -18.811  48.014  -5.388  1.00  0.00     0.004 C 
ENDBRANCH  28  29
ENDBRANCH  27  28
ENDBRANCH  26  27
ENDBRANCH  25  26
ENDBRANCH  24  25
ENDBRANCH  23  24
ENDBRANCH  22  23
ENDBRANCH  21  22
ENDBRANCH  20  21
ENDBRANCH  19  20
ENDBRANCH  18  19
ENDBRANCH  17  18
ENDBRANCH   1  17
TORSDOF 26
ENDMDL
MODEL 5
REMARK VINA RESULT:    -1.939      2.537      5.500
REMARK INTER + INTRA:          -8.403
REMARK INTER:                  -5.278
REMARK INTRA:                  -3.125
REMARK UNBOUND:                -3.516
REMARK SMILES CCCCCCCCCCCCCCCCCCCCCCCCCCCC(=O)[O-]
REMARK SMILES IDX 15 1 16 2 17 3 18 4 19 5 20 6 21 7 22 8 23 9 24 10 25 11
REMARK SMILES IDX 26 12 27 13 28 14 29 15 30 16 14 17 13 18 12 19 11 20 10 21
REMARK SMILES IDX 9 22 8 23 7 24 6 25 5 26 4 27 3 28 2 29 1 30
REMARK H PARENT
REMARK Flexibility Score: inf
ROOT
ATOM      1  C   UNL     1     -20.304  45.065 -10.459  1.00  0.00     0.000 C 
ENDROOT
BRANCH   1   2
ATOM      2  C   UNL     1     -21.143  46.027  -9.599  1.00  0.00     0.000 C 
BRANCH   2   3
ATOM      3  C   UNL     1     -21.533  45.428  -8.240  1.00  0.00     0.000 C 
BRANCH   3   4
ATOM      4  C   UNL     1     -20.572  44.296  -7.848  1.00  0.00     0.000 C 
BRANCH   4   5
ATOM      5  C   UNL     1     -19.232  44.813  -7.300  1.00  0.00     0.000 C 
BRANCH   5   6
ATOM      6  C   UNL     1     -19.033  44.480  -5.813  1.00  0.00     0.000 C 
BRANCH   6   7
ATOM      7  C   UNL     1     -19.507  45.608  -4.879  1.00  0.00     0.000 C 
BRANCH   7   8
ATOM      8  C   UNL     1     -19.229  47.041  -5.381  1.00  0.00     0.000 C 
BRANCH   8   9
ATOM      9  C   UNL     1     -17.754  47.477  -5.327  1.00  0.00     0.000 C 
BRANCH   9  10
ATOM     10  C   UNL     1     -16.779  46.318  -5.579  1.00  0.00     0.000 C 
BRANCH  10  11
ATOM     11  C   UNL     1     -15.981  46.541  -6.870  1.00  0.00     0.000 C 
BRANCH  11  12
ATOM     12  C   UNL     1     -14.475  46.382  -6.620  1.00  0.00     0.006 C 
BRANCH  12  13
ATOM     13  C   UNL     1     -13.910  47.499  -5.733  1.00  0.00     0.053 C 
BRANCH  13  14
ATOM     14  C   UNL     1     -14.003  47.156  -4.277  1.00  0.00     0.041 C 
ATOM     15  O   UNL     1     -14.020  48.070  -3.410  1.00  0.00    -0.550 OA
ATOM     16  O   UNL     1     -14.036  45.826  -3.878  1.00  0.00    -0.550 OA
ENDBRANCH  13  14
ENDBRANCH  12  13
ENDBRANCH  11  12
ENDBRANCH  10  11
ENDBRANCH   9  10
ENDBRANCH   8   9
ENDBRANCH   7   8
ENDBRANCH   6   7
ENDBRANCH   5   6
ENDBRANCH   4   5
ENDBRANCH   3   4
ENDBRANCH   2   3
ENDBRANCH   1   2
BRANCH   1  17
ATOM     17  C   UNL     1     -18.947  45.624 -10.931  1.00  0.00     0.000 C 
BRANCH  17  18
ATOM     18  C   UNL     1     -18.458  46.882 -10.189  1.00  0.00     0.000 C 
BRANCH  18  19
ATOM     19  C   UNL     1     -17.390  47.662 -10.974  1.00  0.00     0.000 C 
BRANCH  19  20
ATOM     20  C   UNL     1     -16.453  48.473 -10.062  1.00  0.00     0.000 C 
BRANCH  20  21
ATOM     21  C   UNL     1     -14.951  48.362 -10.399  1.00  0.00     0.000 C 
BRANCH  21  22
ATOM     22  C   UNL     1     -14.533  47.058 -11.102  1.00  0.00    -0.000 C 
BRANCH  22  23
ATOM     23  C   UNL     1     -14.236  45.919 -10.116  1.00  0.00    -0.000 C 
BRANCH  23  24
ATOM     24  C   UNL     1     -13.933  44.610 -10.860  1.00  0.00    -0.000 C 
BRANCH  24  25
ATOM     25  C   UNL     1     -14.992  43.521 -10.583  1.00  0.00    -0.000 C 
BRANCH  25  26
ATOM     26  C   UNL     1     -16.092  43.960  -9.596  1.00  0.00    -0.000 C 
BRANCH  26  27
ATOM     27  C   UNL     1     -16.224  43.086  -8.337  1.00  0.00    -0.000 C 
BRANCH  27  28
ATOM     28  C   UNL     1     -17.455  42.165  -8.378  1.00  0.00    -0.000 C 
BRANCH  28  29
ATOM     29  C   UNL     1     -18.390  42.485  -9.553  1.00  0.00    -0.003 C 
ATOM     30  C   UNL     1     -19.475  41.427  -9.754  1.00  0.00     0.004 C 
ENDBRANCH  28  29
ENDBRANCH  27  28
ENDBRANCH  26  27
ENDBRANCH  25  26
ENDBRANCH  24  25
ENDBRANCH  23  24
ENDBRANCH  22  23
ENDBRANCH  21  22
ENDBRANCH  20  21
ENDBRANCH  19  20
ENDBRANCH  18  19
ENDBRANCH  17  18
ENDBRANCH   1  17
TORSDOF 26
ENDMDL
MODEL 6
REMARK VINA RESULT:    -1.908      2.259      6.147
REMARK INTER + INTRA:          -8.324
REMARK INTER:                  -4.892
REMARK INTRA:                  -3.432
REMARK UNBOUND:                -3.516
REMARK SMILES CCCCCCCCCCCCCCCCCCCCCCCCCCCC(=O)[O-]
REMARK SMILES IDX 15 1 16 2 17 3 18 4 19 5 20 6 21 7 22 8 23 9 24 10 25 11
REMARK SMILES IDX 26 12 27 13 28 14 29 15 30 16 14 17 13 18 12 19 11 20 10 21
REMARK SMILES IDX 9 22 8 23 7 24 6 25 5 26 4 27 3 28 2 29 1 30
REMARK H PARENT
REMARK Flexibility Score: inf
ROOT
ATOM      1  C   UNL     1     -16.325  49.262 -10.026  1.00  0.00     0.000 C 
ENDROOT
BRANCH   1   2
ATOM      2  C   UNL     1     -17.323  48.108 -10.225  1.00  0.00     0.000 C 
BRANCH   2   3
ATOM      3  C   UNL     1     -17.442  47.202  -8.993  1.00  0.00     0.000 C 
BRANCH   3   4
ATOM      4  C   UNL     1     -18.040  47.972  -7.805  1.00  0.00     0.000 C 
BRANCH   4   5
ATOM      5  C   UNL     1     -19.029  47.129  -6.984  1.00  0.00     0.000 C 
BRANCH   5   6
ATOM      6  C   UNL     1     -18.890  47.363  -5.471  1.00  0.00     0.000 C 
BRANCH   6   7
ATOM      7  C   UNL     1     -19.266  46.123  -4.639  1.00  0.00     0.000 C 
BRANCH   7   8
ATOM      8  C   UNL     1     -19.535  44.839  -5.452  1.00  0.00     0.000 C 
BRANCH   8   9
ATOM      9  C   UNL     1     -18.336  43.883  -5.581  1.00  0.00     0.000 C 
BRANCH   9  10
ATOM     10  C   UNL     1     -17.784  43.806  -7.012  1.00  0.00     0.000 C 
BRANCH  10  11
ATOM     11  C   UNL     1     -16.321  44.264  -7.062  1.00  0.00     0.000 C 
BRANCH  11  12
ATOM     12  C   UNL     1     -16.032  45.301  -5.969  1.00  0.00     0.006 C 
BRANCH  12  13
ATOM     13  C   UNL     1     -14.637  45.925  -6.110  1.00  0.00     0.053 C 
BRANCH  13  14
ATOM     14  C   UNL     1     -14.270  46.746  -4.910  1.00  0.00     0.041 C 
ATOM     15  O   UNL     1     -13.972  47.963  -5.042  1.00  0.00    -0.550 OA
ATOM     16  O   UNL     1     -14.223  46.156  -3.653  1.00  0.00    -0.550 OA
ENDBRANCH  13  14
ENDBRANCH  12  13
ENDBRANCH  11  12
ENDBRANCH  10  11
ENDBRANCH   9  10
ENDBRANCH   8   9
ENDBRANCH   7   8
ENDBRANCH   6   7
ENDBRANCH   5   6
ENDBRANCH   4   5
ENDBRANCH   3   4
ENDBRANCH   2   3
ENDBRANCH   1   2
BRANCH   1  17
ATOM     17  C   UNL     1     -15.204  49.347 -11.082  1.00  0.00     0.000 C 
BRANCH  17  18
ATOM     18  C   UNL     1     -14.214  48.166 -11.088  1.00  0.00     0.000 C 
BRANCH  18  19
ATOM     19  C   UNL     1     -13.964  47.588  -9.685  1.00  0.00     0.000 C 
BRANCH  19  20
ATOM     20  C   UNL     1     -14.643  46.223  -9.473  1.00  0.00     0.000 C 
BRANCH  20  21
ATOM     21  C   UNL     1     -14.218  45.117 -10.462  1.00  0.00     0.000 C 
BRANCH  21  22
ATOM     22  C   UNL     1     -15.178  43.918 -10.554  1.00  0.00    -0.000 C 
BRANCH  22  23
ATOM     23  C   UNL     1     -16.580  44.314 -11.040  1.00  0.00    -0.000 C 
BRANCH  23  24
ATOM     24  C   UNL     1     -17.583  43.171 -10.822  1.00  0.00    -0.000 C 
BRANCH  24  25
ATOM     25  C   UNL     1     -19.038  43.612 -11.091  1.00  0.00    -0.000 C 
BRANCH  25  26
ATOM     26  C   UNL     1     -20.065  42.991 -10.123  1.00  0.00    -0.000 C 
BRANCH  26  27
ATOM     27  C   UNL     1     -20.338  43.811  -8.850  1.00  0.00    -0.000 C 
BRANCH  27  28
ATOM     28  C   UNL     1     -20.463  45.319  -9.129  1.00  0.00    -0.000 C 
BRANCH  28  29
ATOM     29  C   UNL     1     -21.635  45.962  -8.373  1.00  0.00    -0.003 C 
ATOM     30  C   UNL     1     -22.704  46.530  -9.307  1.00  0.00     0.004 C 
ENDBRANCH  28  29
ENDBRANCH  27  28
ENDBRANCH  26  27
ENDBRANCH  25  26
ENDBRANCH  24  25
ENDBRANCH  23  24
ENDBRANCH  22  23
ENDBRANCH  21  22
ENDBRANCH  20  21
ENDBRANCH  19  20
ENDBRANCH  18  19
ENDBRANCH  17  18
ENDBRANCH   1  17
TORSDOF 26
ENDMDL
MODEL 7
REMARK VINA RESULT:    -1.523      1.411      2.767
REMARK INTER + INTRA:          -7.353
REMARK INTER:                  -4.759
REMARK INTRA:                  -2.594
REMARK UNBOUND:                -3.516
REMARK SMILES CCCCCCCCCCCCCCCCCCCCCCCCCCCC(=O)[O-]
REMARK SMILES IDX 15 1 16 2 17 3 18 4 19 5 20 6 21 7 22 8 23 9 24 10 25 11
REMARK SMILES IDX 26 12 27 13 28 14 29 15 30 16 14 17 13 18 12 19 11 20 10 21
REMARK SMILES IDX 9 22 8 23 7 24 6 25 5 26 4 27 3 28 2 29 1 30
REMARK H PARENT
REMARK Flexibility Score: inf
ROOT
ATOM      1  C   UNL     1     -20.362  43.696  -4.826  1.00  0.00     0.000 C 
ENDROOT
BRANCH   1   2
ATOM      2  C   UNL     1     -18.943  43.196  -5.149  1.00  0.00     0.000 C 
BRANCH   2   3
ATOM      3  C   UNL     1     -18.026  44.305  -5.683  1.00  0.00     0.000 C 
BRANCH   3   4
ATOM      4  C   UNL     1     -16.899  43.713  -6.543  1.00  0.00     0.000 C 
BRANCH   4   5
ATOM      5  C   UNL     1     -16.137  44.780  -7.345  1.00  0.00     0.000 C 
BRANCH   5   6
ATOM      6  C   UNL     1     -15.412  45.792  -6.442  1.00  0.00     0.000 C 
BRANCH   6   7
ATOM      7  C   UNL     1     -14.196  46.440  -7.128  1.00  0.00     0.000 C 
BRANCH   7   8
ATOM      8  C   UNL     1     -14.330  46.645  -8.652  1.00  0.00     0.000 C 
BRANCH   8   9
ATOM      9  C   UNL     1     -14.075  48.081  -9.143  1.00  0.00     0.000 C 
BRANCH   9  10
ATOM     10  C   UNL     1     -15.326  48.736  -9.747  1.00  0.00     0.000 C 
BRANCH  10  11
ATOM     11  C   UNL     1     -15.050  50.195 -10.135  1.00  0.00     0.000 C 
BRANCH  11  12
ATOM     12  C   UNL     1     -13.875  50.764  -9.329  1.00  0.00     0.006 C 
BRANCH  12  13
ATOM     13  C   UNL     1     -14.302  51.919  -8.412  1.00  0.00     0.053 C 
BRANCH  13  14
ATOM     14  C   UNL     1     -14.305  53.232  -9.134  1.00  0.00     0.041 C 
ATOM     15  O   UNL     1     -14.182  54.309  -8.493  1.00  0.00    -0.550 OA
ATOM     16  O   UNL     1     -14.480  53.266 -10.512  1.00  0.00    -0.550 OA
ENDBRANCH  13  14
ENDBRANCH  12  13
ENDBRANCH  11  12
ENDBRANCH  10  11
ENDBRANCH   9  10
ENDBRANCH   8   9
ENDBRANCH   7   8
ENDBRANCH   6   7
ENDBRANCH   5   6
ENDBRANCH   4   5
ENDBRANCH   3   4
ENDBRANCH   2   3
ENDBRANCH   1   2
BRANCH   1  17
ATOM     17  C   UNL     1     -20.932  44.732  -5.816  1.00  0.00     0.000 C 
BRANCH  17  18
ATOM     18  C   UNL     1     -21.619  44.144  -7.062  1.00  0.00     0.000 C 
BRANCH  18  19
ATOM     19  C   UNL     1     -20.746  44.235  -8.325  1.00  0.00     0.000 C 
BRANCH  19  20
ATOM     20  C   UNL     1     -20.280  42.857  -8.828  1.00  0.00     0.000 C 
BRANCH  20  21
ATOM     21  C   UNL     1     -19.902  42.797 -10.323  1.00  0.00     0.000 C 
BRANCH  21  22
ATOM     22  C   UNL     1     -18.482  43.285 -10.658  1.00  0.00    -0.000 C 
BRANCH  22  23
ATOM     23  C   UNL     1     -18.405  44.807 -10.850  1.00  0.00    -0.000 C 
BRANCH  23  24
ATOM     24  C   UNL     1     -17.753  45.485  -9.636  1.00  0.00    -0.000 C 
BRANCH  24  25
ATOM     25  C   UNL     1     -18.558  46.708  -9.147  1.00  0.00    -0.000 C 
BRANCH  25  26
ATOM     26  C   UNL     1     -17.800  47.586  -8.132  1.00  0.00    -0.000 C 
BRANCH  26  27
ATOM     27  C   UNL     1     -18.665  48.172  -7.003  1.00  0.00    -0.000 C 
BRANCH  27  28
ATOM     28  C   UNL     1     -18.832  47.205  -5.818  1.00  0.00    -0.000 C 
BRANCH  28  29
ATOM     29  C   UNL     1     -18.467  47.852  -4.474  1.00  0.00    -0.003 C 
ATOM     30  C   UNL     1     -17.031  47.554  -4.041  1.00  0.00     0.004 C 
ENDBRANCH  28  29
ENDBRANCH  27  28
ENDBRANCH  26  27
ENDBRANCH  25  26
ENDBRANCH  24  25
ENDBRANCH  23  24
ENDBRANCH  22  23
ENDBRANCH  21  22
ENDBRANCH  20  21
ENDBRANCH  19  20
ENDBRANCH  18  19
ENDBRANCH  17  18
ENDBRANCH   1  17
TORSDOF 26
ENDMDL
MODEL 8
REMARK VINA RESULT:    -1.485      1.975      6.341
REMARK INTER + INTRA:          -7.259
REMARK INTER:                  -5.304
REMARK INTRA:                  -1.955
REMARK UNBOUND:                -3.516
REMARK SMILES CCCCCCCCCCCCCCCCCCCCCCCCCCCC(=O)[O-]
REMARK SMILES IDX 15 1 16 2 17 3 18 4 19 5 20 6 21 7 22 8 23 9 24 10 25 11
REMARK SMILES IDX 26 12 27 13 28 14 29 15 30 16 14 17 13 18 12 19 11 20 10 21
REMARK SMILES IDX 9 22 8 23 7 24 6 25 5 26 4 27 3 28 2 29 1 30
REMARK H PARENT
REMARK Flexibility Score: inf
ROOT
ATOM      1  C   UNL     1     -18.149  43.291 -10.411  1.00  0.00     0.000 C 
ENDROOT
BRANCH   1   2
ATOM      2  C   UNL     1     -19.478  42.521 -10.301  1.00  0.00     0.000 C 
BRANCH   2   3
ATOM      3  C   UNL     1     -20.700  43.446 -10.218  1.00  0.00     0.000 C 
BRANCH   3   4
ATOM      4  C   UNL     1     -20.288  44.852  -9.753  1.00  0.00     0.000 C 
BRANCH   4   5
ATOM      5  C   UNL     1     -21.359  45.529  -8.883  1.00  0.00     0.000 C 
BRANCH   5   6
ATOM      6  C   UNL     1     -21.102  45.344  -7.378  1.00  0.00     0.000 C 
BRANCH   6   7
ATOM      7  C   UNL     1     -20.426  44.001  -7.049  1.00  0.00     0.000 C 
BRANCH   7   8
ATOM      8  C   UNL     1     -18.961  44.099  -6.572  1.00  0.00     0.000 C 
BRANCH   8   9
ATOM      9  C   UNL     1     -18.634  45.332  -5.710  1.00  0.00     0.000 C 
BRANCH   9  10
ATOM     10  C   UNL     1     -18.052  46.494  -6.527  1.00  0.00     0.000 C 
BRANCH  10  11
ATOM     11  C   UNL     1     -16.780  46.063  -7.269  1.00  0.00     0.000 C 
BRANCH  11  12
ATOM     12  C   UNL     1     -15.602  46.981  -6.917  1.00  0.00     0.006 C 
BRANCH  12  13
ATOM     13  C   UNL     1     -14.503  46.245  -6.138  1.00  0.00     0.053 C 
BRANCH  13  14
ATOM     14  C   UNL     1     -14.200  46.919  -4.833  1.00  0.00     0.041 C 
ATOM     15  O   UNL     1     -14.210  46.258  -3.761  1.00  0.00    -0.550 OA
ATOM     16  O   UNL     1     -13.941  48.283  -4.799  1.00  0.00    -0.550 OA
ENDBRANCH  13  14
ENDBRANCH  12  13
ENDBRANCH  11  12
ENDBRANCH  10  11
ENDBRANCH   9  10
ENDBRANCH   8   9
ENDBRANCH   7   8
ENDBRANCH   6   7
ENDBRANCH   5   6
ENDBRANCH   4   5
ENDBRANCH   3   4
ENDBRANCH   2   3
ENDBRANCH   1   2
BRANCH   1  17
ATOM     17  C   UNL     1     -17.259  43.241  -9.153  1.00  0.00     0.000 C 
BRANCH  17  18
ATOM     18  C   UNL     1     -16.045  44.189  -9.167  1.00  0.00     0.000 C 
BRANCH  18  19
ATOM     19  C   UNL     1     -15.289  44.172 -10.506  1.00  0.00     0.000 C 
BRANCH  19  20
ATOM     20  C   UNL     1     -15.142  45.574 -11.125  1.00  0.00     0.000 C 
BRANCH  20  21
ATOM     21  C   UNL     1     -14.525  46.641 -10.196  1.00  0.00     0.000 C 
BRANCH  21  22
ATOM     22  C   UNL     1     -13.882  47.841 -10.915  1.00  0.00    -0.000 C 
BRANCH  22  23
ATOM     23  C   UNL     1     -14.836  49.038 -11.044  1.00  0.00    -0.000 C 
BRANCH  23  24
ATOM     24  C   UNL     1     -15.218  49.590  -9.662  1.00  0.00    -0.000 C 
BRANCH  24  25
ATOM     25  C   UNL     1     -13.979  49.921  -8.803  1.00  0.00    -0.000 C 
BRANCH  25  26
ATOM     26  C   UNL     1     -14.007  51.335  -8.188  1.00  0.00    -0.000 C 
BRANCH  26  27
ATOM     27  C   UNL     1     -14.817  52.374  -8.982  1.00  0.00    -0.000 C 
BRANCH  27  28
ATOM     28  C   UNL     1     -14.014  53.653  -9.279  1.00  0.00    -0.000 C 
BRANCH  28  29
ATOM     29  C   UNL     1     -14.678  54.911  -8.702  1.00  0.00    -0.003 C 
ATOM     30  C   UNL     1     -14.541  55.011  -7.182  1.00  0.00     0.004 C 
ENDBRANCH  28  29
ENDBRANCH  27  28
ENDBRANCH  26  27
ENDBRANCH  25  26
ENDBRANCH  24  25
ENDBRANCH  23  24
ENDBRANCH  22  23
ENDBRANCH  21  22
ENDBRANCH  20  21
ENDBRANCH  19  20
ENDBRANCH  18  19
ENDBRANCH  17  18
ENDBRANCH   1  17
TORSDOF 26
ENDMDL
