MODEL 1
REMARK VINA RESULT:    -3.530      0.000      0.000
REMARK INTER + INTRA:         -10.418
REMARK INTER:                  -7.657
REMARK INTRA:                  -2.761
REMARK UNBOUND:                -2.761
REMARK SMILES CCCCCCCCCCCCCCCCCCCCCC(=O)[O-]
REMARK SMILES IDX 12 1 11 2 10 3 9 4 8 5 7 6 6 7 5 8 4 9 3 10 2 11 1 12 13 13
REMARK SMILES IDX 14 14 15 15 16 16 17 17 18 18 19 19 20 20 21 21 22 22 23 23
REMARK SMILES IDX 24 24
REMARK H PARENT
REMARK Flexibility Score: inf
ROOT
ATOM      1  C   UNL     1     -98.305 -39.657  89.469  1.00  0.00     0.000 C 
ENDROOT
BRANCH   1   2
ATOM      2  C   UNL     1     -98.121 -40.540  90.715  1.00  0.00     0.000 C 
BRANCH   2   3
ATOM      3  C   UNL     1     -99.381 -41.366  91.053  1.00  0.00     0.000 C 
BRANCH   3   4
ATOM      4  C   UNL     1     -99.881 -41.184  92.499  1.00  0.00    -0.000 C 
BRANCH   4   5
ATOM      5  C   UNL     1     -99.220 -40.034  93.283  1.00  0.00    -0.000 C 
BRANCH   5   6
ATOM      6  C   UNL     1    -100.124 -38.810  93.531  1.00  0.00    -0.000 C 
BRANCH   6   7
ATOM      7  C   UNL     1    -100.384 -37.990  92.259  1.00  0.00    -0.000 C 
BRANCH   7   8
ATOM      8  C   UNL     1    -100.843 -36.568  92.606  1.00  0.00    -0.000 C 
BRANCH   8   9
ATOM      9  C   UNL     1    -100.681 -36.290  94.107  1.00  0.00    -0.000 C 
BRANCH   9  10
ATOM     10  C   UNL     1    -101.398 -35.005  94.552  1.00  0.00    -0.000 C 
BRANCH  10  11
ATOM     11  C   UNL     1    -102.057 -34.262  93.380  1.00  0.00    -0.003 C 
ATOM     12  C   UNL     1    -102.031 -32.753  93.604  1.00  0.00     0.004 C 
ENDBRANCH  10  11
ENDBRANCH   9  10
ENDBRANCH   8   9
ENDBRANCH   7   8
ENDBRANCH   6   7
ENDBRANCH   5   6
ENDBRANCH   4   5
ENDBRANCH   3   4
ENDBRANCH   2   3
ENDBRANCH   1   2
BRANCH   1  13
ATOM     13  C   UNL     1     -97.221 -39.912  88.408  1.00  0.00     0.000 C 
BRANCH  13  14
ATOM     14  C   UNL     1     -97.475 -41.204  87.613  1.00  0.00     0.000 C 
BRANCH  14  15
ATOM     15  C   UNL     1     -96.248 -42.129  87.581  1.00  0.00     0.000 C 
BRANCH  15  16
ATOM     16  C   UNL     1     -95.826 -42.606  88.982  1.00  0.00     0.000 C 
BRANCH  16  17
ATOM     17  C   UNL     1     -96.555 -43.887  89.414  1.00  0.00     0.000 C 
BRANCH  17  18
ATOM     18  C   UNL     1     -96.766 -43.965  90.934  1.00  0.00     0.000 C 
BRANCH  18  19
ATOM     19  C   UNL     1     -95.692 -43.161  91.678  1.00  0.00     0.000 C 
BRANCH  19  20
ATOM     20  C   UNL     1     -96.195 -42.718  93.060  1.00  0.00     0.006 C 
BRANCH  20  21
ATOM     21  C   UNL     1     -95.794 -41.275  93.389  1.00  0.00     0.053 C 
BRANCH  21  22
ATOM     22  C   UNL     1     -95.577 -41.078  94.859  1.00  0.00     0.041 C 
ATOM     23  O   UNL     1     -96.541 -40.765  95.606  1.00  0.00    -0.550 OA
ATOM     24  O   UNL     1     -94.319 -41.285  95.411  1.00  0.00    -0.550 OA
ENDBRANCH  21  22
ENDBRANCH  20  21
ENDBRANCH  19  20
ENDBRANCH  18  19
ENDBRANCH  17  18
ENDBRANCH  16  17
ENDBRANCH  15  16
ENDBRANCH  14  15
ENDBRANCH  13  14
ENDBRANCH   1  13
TORSDOF 20
ENDMDL
MODEL 2
REMARK VINA RESULT:    -3.332     14.359     16.955
REMARK INTER + INTRA:          -9.988
REMARK INTER:                  -5.843
REMARK INTRA:                  -4.145
REMARK UNBOUND:                -2.761
REMARK SMILES CCCCCCCCCCCCCCCCCCCCCC(=O)[O-]
REMARK SMILES IDX 12 1 11 2 10 3 9 4 8 5 7 6 6 7 5 8 4 9 3 10 2 11 1 12 13 13
REMARK SMILES IDX 14 14 15 15 16 16 17 17 18 18 19 19 20 20 21 21 22 22 23 23
REMARK SMILES IDX 24 24
REMARK H PARENT
REMARK Flexibility Score: inf
ROOT
ATOM      1  C   UNL     1     -96.801 -28.240  83.868  1.00  0.00     0.000 C 
ENDROOT
BRANCH   1   2
ATOM      2  C   UNL     1     -97.166 -27.049  84.771  1.00  0.00     0.000 C 
BRANCH   2   3
ATOM      3  C   UNL     1     -98.659 -26.665  84.679  1.00  0.00     0.000 C 
BRANCH   3   4
ATOM      4  C   UNL     1     -98.913 -25.287  84.038  1.00  0.00    -0.000 C 
BRANCH   4   5
ATOM      5  C   UNL     1     -99.981 -25.266  82.927  1.00  0.00    -0.000 C 
BRANCH   5   6
ATOM      6  C   UNL     1     -99.573 -25.969  81.618  1.00  0.00    -0.000 C 
BRANCH   6   7
ATOM      7  C   UNL     1    -100.501 -27.137  81.252  1.00  0.00    -0.000 C 
BRANCH   7   8
ATOM      8  C   UNL     1     -99.878 -28.481  81.651  1.00  0.00    -0.000 C 
BRANCH   8   9
ATOM      9  C   UNL     1    -100.922 -29.395  82.308  1.00  0.00    -0.000 C 
BRANCH   9  10
ATOM     10  C   UNL     1    -100.619 -29.672  83.789  1.00  0.00    -0.000 C 
BRANCH  10  11
ATOM     11  C   UNL     1    -101.796 -29.312  84.709  1.00  0.00    -0.003 C 
ATOM     12  C   UNL     1    -102.139 -27.829  84.605  1.00  0.00     0.004 C 
ENDBRANCH  10  11
ENDBRANCH   9  10
ENDBRANCH   8   9
ENDBRANCH   7   8
ENDBRANCH   6   7
ENDBRANCH   5   6
ENDBRANCH   4   5
ENDBRANCH   3   4
ENDBRANCH   2   3
ENDBRANCH   1   2
BRANCH   1  13
ATOM     13  C   UNL     1     -96.377 -27.795  82.458  1.00  0.00     0.000 C 
BRANCH  13  14
ATOM     14  C   UNL     1     -95.777 -26.378  82.450  1.00  0.00     0.000 C 
BRANCH  14  15
ATOM     15  C   UNL     1     -96.005 -25.648  81.117  1.00  0.00     0.000 C 
BRANCH  15  16
ATOM     16  C   UNL     1     -94.988 -26.053  80.035  1.00  0.00     0.000 C 
BRANCH  16  17
ATOM     17  C   UNL     1     -95.640 -26.803  78.863  1.00  0.00     0.000 C 
BRANCH  17  18
ATOM     18  C   UNL     1     -97.176 -26.753  78.910  1.00  0.00     0.000 C 
BRANCH  18  19
ATOM     19  C   UNL     1     -97.782 -28.089  78.465  1.00  0.00     0.000 C 
BRANCH  19  20
ATOM     20  C   UNL     1     -97.123 -29.265  79.201  1.00  0.00     0.006 C 
BRANCH  20  21
ATOM     21  C   UNL     1     -98.065 -30.469  79.332  1.00  0.00     0.053 C 
BRANCH  21  22
ATOM     22  C   UNL     1     -99.025 -30.552  78.184  1.00  0.00     0.041 C 
ATOM     23  O   UNL     1     -98.641 -30.983  77.065  1.00  0.00    -0.550 OA
ATOM     24  O   UNL     1    -100.355 -30.195  78.363  1.00  0.00    -0.550 OA
ENDBRANCH  21  22
ENDBRANCH  20  21
ENDBRANCH  19  20
ENDBRANCH  18  19
ENDBRANCH  17  18
ENDBRANCH  16  17
ENDBRANCH  15  16
ENDBRANCH  14  15
ENDBRANCH  13  14
ENDBRANCH   1  13
TORSDOF 20
ENDMDL
MODEL 3
REMARK VINA RESULT:    -3.293      2.881      7.857
REMARK INTER + INTRA:          -9.904
REMARK INTER:                  -6.848
REMARK INTRA:                  -3.056
REMARK UNBOUND:                -2.761
REMARK SMILES CCCCCCCCCCCCCCCCCCCCCC(=O)[O-]
REMARK SMILES IDX 12 1 11 2 10 3 9 4 8 5 7 6 6 7 5 8 4 9 3 10 2 11 1 12 13 13
REMARK SMILES IDX 14 14 15 15 16 16 17 17 18 18 19 19 20 20 21 21 22 22 23 23
REMARK SMILES IDX 24 24
REMARK H PARENT
REMARK Flexibility Score: inf
ROOT
ATOM      1  C   UNL     1     -99.781 -39.811  91.497  1.00  0.00     0.000 C 
ENDROOT
BRANCH   1   2
ATOM      2  C   UNL     1     -98.769 -39.329  90.442  1.00  0.00     0.000 C 
BRANCH   2   3
ATOM      3  C   UNL     1     -98.496 -40.387  89.351  1.00  0.00     0.000 C 
BRANCH   3   4
ATOM      4  C   UNL     1     -97.324 -40.034  88.415  1.00  0.00    -0.000 C 
BRANCH   4   5
ATOM      5  C   UNL     1     -96.947 -41.124  87.394  1.00  0.00    -0.000 C 
BRANCH   5   6
ATOM      6  C   UNL     1     -95.946 -42.179  87.906  1.00  0.00    -0.000 C 
BRANCH   6   7
ATOM      7  C   UNL     1     -96.612 -43.283  88.738  1.00  0.00    -0.000 C 
BRANCH   7   8
ATOM      8  C   UNL     1     -95.986 -43.373  90.136  1.00  0.00    -0.000 C 
BRANCH   8   9
ATOM      9  C   UNL     1     -96.942 -42.817  91.202  1.00  0.00    -0.000 C 
BRANCH   9  10
ATOM     10  C   UNL     1     -96.318 -41.675  92.019  1.00  0.00    -0.000 C 
BRANCH  10  11
ATOM     11  C   UNL     1     -96.625 -41.789  93.520  1.00  0.00    -0.003 C 
ATOM     12  C   UNL     1     -95.980 -40.647  94.300  1.00  0.00     0.004 C 
ENDBRANCH  10  11
ENDBRANCH   9  10
ENDBRANCH   8   9
ENDBRANCH   7   8
ENDBRANCH   6   7
ENDBRANCH   5   6
ENDBRANCH   4   5
ENDBRANCH   3   4
ENDBRANCH   2   3
ENDBRANCH   1   2
BRANCH   1  13
ATOM     13  C   UNL     1     -99.395 -39.368  92.919  1.00  0.00     0.000 C 
BRANCH  13  14
ATOM     14  C   UNL     1    -100.191 -40.119  94.000  1.00  0.00     0.000 C 
BRANCH  14  15
ATOM     15  C   UNL     1     -99.725 -39.774  95.423  1.00  0.00     0.000 C 
BRANCH  15  16
ATOM     16  C   UNL     1    -100.614 -38.719  96.102  1.00  0.00     0.000 C 
BRANCH  16  17
ATOM     17  C   UNL     1    -100.088 -37.288  95.905  1.00  0.00     0.000 C 
BRANCH  17  18
ATOM     18  C   UNL     1    -101.083 -36.389  95.156  1.00  0.00     0.000 C 
BRANCH  18  19
ATOM     19  C   UNL     1    -100.444 -35.793  93.896  1.00  0.00     0.000 C 
BRANCH  19  20
ATOM     20  C   UNL     1    -101.132 -36.320  92.628  1.00  0.00     0.006 C 
BRANCH  20  21
ATOM     21  C   UNL     1    -102.373 -37.165  92.947  1.00  0.00     0.053 C 
BRANCH  21  22
ATOM     22  C   UNL     1    -102.806 -37.984  91.770  1.00  0.00     0.041 C 
ATOM     23  O   UNL     1    -103.255 -39.149  91.939  1.00  0.00    -0.550 OA
ATOM     24  O   UNL     1    -102.756 -37.446  90.491  1.00  0.00    -0.550 OA
ENDBRANCH  21  22
ENDBRANCH  20  21
ENDBRANCH  19  20
ENDBRANCH  18  19
ENDBRANCH  17  18
ENDBRANCH  16  17
ENDBRANCH  15  16
ENDBRANCH  14  15
ENDBRANCH  13  14
ENDBRANCH   1  13
TORSDOF 20
ENDMDL
MODEL 4
REMARK VINA RESULT:    -3.248     13.720     16.221
REMARK INTER + INTRA:          -9.807
REMARK INTER:                  -6.323
REMARK INTRA:                  -3.484
REMARK UNBOUND:                -2.761
REMARK SMILES CCCCCCCCCCCCCCCCCCCCCC(=O)[O-]
REMARK SMILES IDX 12 1 11 2 10 3 9 4 8 5 7 6 6 7 5 8 4 9 3 10 2 11 1 12 13 13
REMARK SMILES IDX 14 14 15 15 16 16 17 17 18 18 19 19 20 20 21 21 22 22 23 23
REMARK SMILES IDX 24 24
REMARK H PARENT
REMARK Flexibility Score: inf
ROOT
ATOM      1  C   UNL     1     -96.111 -27.601  78.425  1.00  0.00     0.000 C 
ENDROOT
BRANCH   1   2
ATOM      2  C   UNL     1     -95.432 -26.590  79.367  1.00  0.00     0.000 C 
BRANCH   2   3
ATOM      3  C   UNL     1     -95.866 -26.762  80.839  1.00  0.00     0.000 C 
BRANCH   3   4
ATOM      4  C   UNL     1     -96.629 -25.553  81.412  1.00  0.00    -0.000 C 
BRANCH   4   5
ATOM      5  C   UNL     1     -98.053 -25.352  80.859  1.00  0.00    -0.000 C 
BRANCH   5   6
ATOM      6  C   UNL     1     -98.913 -26.630  80.794  1.00  0.00    -0.000 C 
BRANCH   6   7
ATOM      7  C   UNL     1     -99.420 -27.081  82.171  1.00  0.00    -0.000 C 
BRANCH   7   8
ATOM      8  C   UNL     1     -98.706 -28.360  82.628  1.00  0.00    -0.000 C 
BRANCH   8   9
ATOM      9  C   UNL     1     -98.431 -28.325  84.139  1.00  0.00    -0.000 C 
BRANCH   9  10
ATOM     10  C   UNL     1     -97.527 -27.152  84.550  1.00  0.00    -0.000 C 
BRANCH  10  11
ATOM     11  C   UNL     1     -96.177 -27.619  85.114  1.00  0.00    -0.003 C 
ATOM     12  C   UNL     1     -96.107 -29.142  85.178  1.00  0.00     0.004 C 
ENDBRANCH  10  11
ENDBRANCH   9  10
ENDBRANCH   8   9
ENDBRANCH   7   8
ENDBRANCH   6   7
ENDBRANCH   5   6
ENDBRANCH   4   5
ENDBRANCH   3   4
ENDBRANCH   2   3
ENDBRANCH   1   2
BRANCH   1  13
ATOM     13  C   UNL     1     -96.471 -28.913  79.141  1.00  0.00     0.000 C 
BRANCH  13  14
ATOM     14  C   UNL     1     -97.675 -29.620  78.495  1.00  0.00     0.000 C 
BRANCH  14  15
ATOM     15  C   UNL     1     -98.466 -30.475  79.497  1.00  0.00     0.000 C 
BRANCH  15  16
ATOM     16  C   UNL     1     -99.934 -30.035  79.627  1.00  0.00     0.000 C 
BRANCH  16  17
ATOM     17  C   UNL     1    -100.683 -30.794  80.734  1.00  0.00     0.000 C 
BRANCH  17  18
ATOM     18  C   UNL     1    -102.186 -30.477  80.756  1.00  0.00     0.000 C 
BRANCH  18  19
ATOM     19  C   UNL     1    -102.541 -29.589  81.955  1.00  0.00     0.000 C 
BRANCH  19  20
ATOM     20  C   UNL     1    -102.518 -30.393  83.263  1.00  0.00     0.006 C 
BRANCH  20  21
ATOM     21  C   UNL     1    -101.731 -29.680  84.370  1.00  0.00     0.053 C 
BRANCH  21  22
ATOM     22  C   UNL     1    -102.412 -28.421  84.814  1.00  0.00     0.041 C 
ATOM     23  O   UNL     1    -103.661 -28.400  84.979  1.00  0.00    -0.550 OA
ATOM     24  O   UNL     1    -101.663 -27.284  85.087  1.00  0.00    -0.550 OA
ENDBRANCH  21  22
ENDBRANCH  20  21
ENDBRANCH  19  20
ENDBRANCH  18  19
ENDBRANCH  17  18
ENDBRANCH  16  17
ENDBRANCH  15  16
ENDBRANCH  14  15
ENDBRANCH  13  14
ENDBRANCH   1  13
TORSDOF 20
ENDMDL
MODEL 5
REMARK VINA RESULT:    -3.234      2.996      5.847
REMARK INTER + INTRA:          -9.777
REMARK INTER:                  -7.203
REMARK INTRA:                  -2.574
REMARK UNBOUND:                -2.761
REMARK SMILES CCCCCCCCCCCCCCCCCCCCCC(=O)[O-]
REMARK SMILES IDX 12 1 11 2 10 3 9 4 8 5 7 6 6 7 5 8 4 9 3 10 2 11 1 12 13 13
REMARK SMILES IDX 14 14 15 15 16 16 17 17 18 18 19 19 20 20 21 21 22 22 23 23
REMARK SMILES IDX 24 24
REMARK H PARENT
REMARK Flexibility Score: inf
ROOT
ATOM      1  C   UNL     1    -100.939 -37.264  93.501  1.00  0.00     0.000 C 
ENDROOT
BRANCH   1   2
ATOM      2  C   UNL     1    -100.681 -35.760  93.702  1.00  0.00     0.000 C 
BRANCH   2   3
ATOM      3  C   UNL     1    -101.264 -35.227  95.029  1.00  0.00     0.000 C 
BRANCH   3   4
ATOM      4  C   UNL     1    -102.222 -34.032  94.857  1.00  0.00    -0.000 C 
BRANCH   4   5
ATOM      5  C   UNL     1    -101.840 -33.039  93.743  1.00  0.00    -0.000 C 
BRANCH   5   6
ATOM      6  C   UNL     1    -102.991 -32.645  92.797  1.00  0.00    -0.000 C 
BRANCH   6   7
ATOM      7  C   UNL     1    -103.889 -33.831  92.420  1.00  0.00    -0.000 C 
BRANCH   7   8
ATOM      8  C   UNL     1    -104.348 -33.733  90.959  1.00  0.00    -0.000 C 
BRANCH   8   9
ATOM      9  C   UNL     1    -104.334 -35.112  90.285  1.00  0.00    -0.000 C 
BRANCH   9  10
ATOM     10  C   UNL     1    -103.423 -36.116  91.009  1.00  0.00    -0.000 C 
BRANCH  10  11
ATOM     11  C   UNL     1    -104.147 -37.426  91.354  1.00  0.00    -0.003 C 
ATOM     12  C   UNL     1    -104.578 -37.445  92.818  1.00  0.00     0.004 C 
ENDBRANCH  10  11
ENDBRANCH   9  10
ENDBRANCH   8   9
ENDBRANCH   7   8
ENDBRANCH   6   7
ENDBRANCH   5   6
ENDBRANCH   4   5
ENDBRANCH   3   4
ENDBRANCH   2   3
ENDBRANCH   1   2
BRANCH   1  13
ATOM     13  C   UNL     1    -100.375 -37.779  92.166  1.00  0.00     0.000 C 
BRANCH  13  14
ATOM     14  C   UNL     1    -100.208 -39.308  92.154  1.00  0.00     0.000 C 
BRANCH  14  15
ATOM     15  C   UNL     1     -99.252 -39.807  93.249  1.00  0.00     0.000 C 
BRANCH  15  16
ATOM     16  C   UNL     1     -99.346 -41.326  93.475  1.00  0.00     0.000 C 
BRANCH  16  17
ATOM     17  C   UNL     1     -98.242 -42.102  92.740  1.00  0.00     0.000 C 
BRANCH  17  18
ATOM     18  C   UNL     1     -97.010 -41.234  92.438  1.00  0.00     0.000 C 
BRANCH  18  19
ATOM     19  C   UNL     1     -96.463 -41.527  91.036  1.00  0.00     0.000 C 
BRANCH  19  20
ATOM     20  C   UNL     1     -97.606 -41.698  90.023  1.00  0.00     0.006 C 
BRANCH  20  21
ATOM     21  C   UNL     1     -98.096 -40.354  89.468  1.00  0.00     0.053 C 
BRANCH  21  22
ATOM     22  C   UNL     1     -97.239 -39.873  88.337  1.00  0.00     0.041 C 
ATOM     23  O   UNL     1     -96.964 -40.641  87.378  1.00  0.00    -0.550 OA
ATOM     24  O   UNL     1     -96.779 -38.562  88.322  1.00  0.00    -0.550 OA
ENDBRANCH  21  22
ENDBRANCH  20  21
ENDBRANCH  19  20
ENDBRANCH  18  19
ENDBRANCH  17  18
ENDBRANCH  16  17
ENDBRANCH  15  16
ENDBRANCH  14  15
ENDBRANCH  13  14
ENDBRANCH   1  13
TORSDOF 20
ENDMDL
MODEL 6
REMARK VINA RESULT:    -3.231     14.262     16.760
REMARK INTER + INTRA:          -9.769
REMARK INTER:                  -5.700
REMARK INTRA:                  -4.070
REMARK UNBOUND:                -2.761
REMARK SMILES CCCCCCCCCCCCCCCCCCCCCC(=O)[O-]
REMARK SMILES IDX 12 1 11 2 10 3 9 4 8 5 7 6 6 7 5 8 4 9 3 10 2 11 1 12 13 13
REMARK SMILES IDX 14 14 15 15 16 16 17 17 18 18 19 19 20 20 21 21 22 22 23 23
REMARK SMILES IDX 24 24
REMARK H PARENT
REMARK Flexibility Score: inf
ROOT
ATOM      1  C   UNL     1     -99.122 -28.645  80.453  1.00  0.00     0.000 C 
ENDROOT
BRANCH   1   2
ATOM      2  C   UNL     1    -100.372 -28.231  79.657  1.00  0.00     0.000 C 
BRANCH   2   3
ATOM      3  C   UNL     1    -100.529 -26.699  79.545  1.00  0.00     0.000 C 
BRANCH   3   4
ATOM      4  C   UNL     1     -99.490 -25.903  80.358  1.00  0.00    -0.000 C 
BRANCH   4   5
ATOM      5  C   UNL     1    -100.074 -24.844  81.313  1.00  0.00    -0.000 C 
BRANCH   5   6
ATOM      6  C   UNL     1     -99.034 -24.086  82.161  1.00  0.00    -0.000 C 
BRANCH   6   7
ATOM      7  C   UNL     1     -99.406 -24.023  83.650  1.00  0.00    -0.000 C 
BRANCH   7   8
ATOM      8  C   UNL     1     -98.881 -25.254  84.401  1.00  0.00    -0.000 C 
BRANCH   8   9
ATOM      9  C   UNL     1    -100.017 -26.247  84.688  1.00  0.00    -0.000 C 
BRANCH   9  10
ATOM     10  C   UNL     1     -99.862 -27.564  83.911  1.00  0.00    -0.000 C 
BRANCH  10  11
ATOM     11  C   UNL     1    -101.212 -28.139  83.454  1.00  0.00    -0.003 C 
ATOM     12  C   UNL     1    -102.219 -27.025  83.185  1.00  0.00     0.004 C 
ENDBRANCH  10  11
ENDBRANCH   9  10
ENDBRANCH   8   9
ENDBRANCH   7   8
ENDBRANCH   6   7
ENDBRANCH   5   6
ENDBRANCH   4   5
ENDBRANCH   3   4
ENDBRANCH   2   3
ENDBRANCH   1   2
BRANCH   1  13
ATOM     13  C   UNL     1     -98.081 -29.358  79.574  1.00  0.00     0.000 C 
BRANCH  13  14
ATOM     14  C   UNL     1     -98.086 -28.838  78.126  1.00  0.00     0.000 C 
BRANCH  14  15
ATOM     15  C   UNL     1     -97.095 -27.684  77.910  1.00  0.00     0.000 C 
BRANCH  15  16
ATOM     16  C   UNL     1     -95.909 -27.726  78.890  1.00  0.00     0.000 C 
BRANCH  16  17
ATOM     17  C   UNL     1     -95.323 -26.332  79.168  1.00  0.00     0.000 C 
BRANCH  17  18
ATOM     18  C   UNL     1     -95.163 -26.047  80.669  1.00  0.00     0.000 C 
BRANCH  18  19
ATOM     19  C   UNL     1     -96.403 -26.498  81.449  1.00  0.00     0.000 C 
BRANCH  19  20
ATOM     20  C   UNL     1     -96.054 -26.797  82.914  1.00  0.00     0.006 C 
BRANCH  20  21
ATOM     21  C   UNL     1     -96.369 -28.248  83.302  1.00  0.00     0.053 C 
BRANCH  21  22
ATOM     22  C   UNL     1     -96.207 -28.478  84.774  1.00  0.00     0.041 C 
ATOM     23  O   UNL     1     -95.899 -29.620  85.207  1.00  0.00    -0.550 OA
ATOM     24  O   UNL     1     -96.354 -27.422  85.664  1.00  0.00    -0.550 OA
ENDBRANCH  21  22
ENDBRANCH  20  21
ENDBRANCH  19  20
ENDBRANCH  18  19
ENDBRANCH  17  18
ENDBRANCH  16  17
ENDBRANCH  15  16
ENDBRANCH  14  15
ENDBRANCH  13  14
ENDBRANCH   1  13
TORSDOF 20
ENDMDL
MODEL 7
REMARK VINA RESULT:    -3.190      3.091      6.340
REMARK INTER + INTRA:          -9.680
REMARK INTER:                  -6.487
REMARK INTRA:                  -3.193
REMARK UNBOUND:                -2.761
REMARK SMILES CCCCCCCCCCCCCCCCCCCCCC(=O)[O-]
REMARK SMILES IDX 12 1 11 2 10 3 9 4 8 5 7 6 6 7 5 8 4 9 3 10 2 11 1 12 13 13
REMARK SMILES IDX 14 14 15 15 16 16 17 17 18 18 19 19 20 20 21 21 22 22 23 23
REMARK SMILES IDX 24 24
REMARK H PARENT
REMARK Flexibility Score: inf
ROOT
ATOM      1  C   UNL     1    -102.404 -37.858  96.286  1.00  0.00     0.000 C 
ENDROOT
BRANCH   1   2
ATOM      2  C   UNL     1    -102.912 -36.407  96.212  1.00  0.00     0.000 C 
BRANCH   2   3
ATOM      3  C   UNL     1    -101.768 -35.371  96.268  1.00  0.00     0.000 C 
BRANCH   3   4
ATOM      4  C   UNL     1    -101.924 -34.211  95.266  1.00  0.00    -0.000 C 
BRANCH   4   5
ATOM      5  C   UNL     1    -101.563 -34.550  93.807  1.00  0.00    -0.000 C 
BRANCH   5   6
ATOM      6  C   UNL     1    -100.393 -35.539  93.637  1.00  0.00    -0.000 C 
BRANCH   6   7
ATOM      7  C   UNL     1    -100.665 -36.612  92.573  1.00  0.00    -0.000 C 
BRANCH   7   8
ATOM      8  C   UNL     1    -102.171 -36.781  92.333  1.00  0.00    -0.000 C 
BRANCH   8   9
ATOM      9  C   UNL     1    -102.444 -37.918  91.338  1.00  0.00    -0.000 C 
BRANCH   9  10
ATOM     10  C   UNL     1    -103.423 -37.510  90.226  1.00  0.00    -0.000 C 
BRANCH  10  11
ATOM     11  C   UNL     1    -104.438 -36.456  90.693  1.00  0.00    -0.003 C 
ATOM     12  C   UNL     1    -104.403 -35.224  89.792  1.00  0.00     0.004 C 
ENDBRANCH  10  11
ENDBRANCH   9  10
ENDBRANCH   8   9
ENDBRANCH   7   8
ENDBRANCH   6   7
ENDBRANCH   5   6
ENDBRANCH   4   5
ENDBRANCH   3   4
ENDBRANCH   2   3
ENDBRANCH   1   2
BRANCH   1  13
ATOM     13  C   UNL     1    -100.871 -37.934  96.385  1.00  0.00     0.000 C 
BRANCH  13  14
ATOM     14  C   UNL     1    -100.264 -38.870  95.326  1.00  0.00     0.000 C 
BRANCH  14  15
ATOM     15  C   UNL     1    -101.327 -39.708  94.598  1.00  0.00     0.000 C 
BRANCH  15  16
ATOM     16  C   UNL     1    -100.744 -40.531  93.437  1.00  0.00     0.000 C 
BRANCH  16  17
ATOM     17  C   UNL     1     -99.359 -40.032  92.997  1.00  0.00     0.000 C 
BRANCH  17  18
ATOM     18  C   UNL     1     -99.173 -40.072  91.472  1.00  0.00     0.000 C 
BRANCH  18  19
ATOM     19  C   UNL     1     -99.165 -41.517  90.958  1.00  0.00     0.000 C 
BRANCH  19  20
ATOM     20  C   UNL     1     -97.922 -41.788  90.098  1.00  0.00     0.006 C 
BRANCH  20  21
ATOM     21  C   UNL     1     -97.096 -40.519  89.852  1.00  0.00     0.053 C 
BRANCH  21  22
ATOM     22  C   UNL     1     -97.196 -40.057  88.429  1.00  0.00     0.041 C 
ATOM     23  O   UNL     1     -96.870 -38.880  88.121  1.00  0.00    -0.550 OA
ATOM     24  O   UNL     1     -97.606 -40.939  87.439  1.00  0.00    -0.550 OA
ENDBRANCH  21  22
ENDBRANCH  20  21
ENDBRANCH  19  20
ENDBRANCH  18  19
ENDBRANCH  17  18
ENDBRANCH  16  17
ENDBRANCH  15  16
ENDBRANCH  14  15
ENDBRANCH  13  14
ENDBRANCH   1  13
TORSDOF 20
ENDMDL
MODEL 8
REMARK VINA RESULT:    -3.180     14.168     16.394
REMARK INTER + INTRA:          -9.659
REMARK INTER:                  -5.677
REMARK INTRA:                  -3.982
REMARK UNBOUND:                -2.761
REMARK SMILES CCCCCCCCCCCCCCCCCCCCCC(=O)[O-]
REMARK SMILES IDX 12 1 11 2 10 3 9 4 8 5 7 6 6 7 5 8 4 9 3 10 2 11 1 12 13 13
REMARK SMILES IDX 14 14 15 15 16 16 17 17 18 18 19 19 20 20 21 21 22 22 23 23
REMARK SMILES IDX 24 24
REMARK H PARENT
REMARK Flexibility Score: inf
ROOT
ATOM      1  C   UNL     1     -95.990 -26.671  82.896  1.00  0.00     0.000 C 
ENDROOT
BRANCH   1   2
ATOM      2  C   UNL     1     -96.744 -27.996  83.105  1.00  0.00     0.000 C 
BRANCH   2   3
ATOM      3  C   UNL     1     -97.698 -27.954  84.318  1.00  0.00     0.000 C 
BRANCH   3   4
ATOM      4  C   UNL     1     -97.973 -26.534  84.850  1.00  0.00    -0.000 C 
BRANCH   4   5
ATOM      5  C   UNL     1     -99.447 -26.088  84.799  1.00  0.00    -0.000 C 
BRANCH   5   6
ATOM      6  C   UNL     1     -99.726 -24.859  83.911  1.00  0.00    -0.000 C 
BRANCH   6   7
ATOM      7  C   UNL     1     -99.261 -25.049  82.461  1.00  0.00    -0.000 C 
BRANCH   7   8
ATOM      8  C   UNL     1    -100.420 -25.510  81.567  1.00  0.00    -0.000 C 
BRANCH   8   9
ATOM      9  C   UNL     1    -100.265 -26.989  81.186  1.00  0.00    -0.000 C 
BRANCH   9  10
ATOM     10  C   UNL     1    -101.147 -27.916  82.037  1.00  0.00    -0.000 C 
BRANCH  10  11
ATOM     11  C   UNL     1    -100.388 -29.154  82.538  1.00  0.00    -0.003 C 
ATOM     12  C   UNL     1    -101.125 -29.815  83.700  1.00  0.00     0.004 C 
ENDBRANCH  10  11
ENDBRANCH   9  10
ENDBRANCH   8   9
ENDBRANCH   7   8
ENDBRANCH   6   7
ENDBRANCH   5   6
ENDBRANCH   4   5
ENDBRANCH   3   4
ENDBRANCH   2   3
ENDBRANCH   1   2
BRANCH   1  13
ATOM     13  C   UNL     1     -95.673 -26.408  81.414  1.00  0.00     0.000 C 
BRANCH  13  14
ATOM     14  C   UNL     1     -96.729 -27.016  80.475  1.00  0.00     0.000 C 
BRANCH  14  15
ATOM     15  C   UNL     1     -96.105 -27.709  79.253  1.00  0.00     0.000 C 
BRANCH  15  16
ATOM     16  C   UNL     1     -96.534 -29.180  79.119  1.00  0.00     0.000 C 
BRANCH  16  17
ATOM     17  C   UNL     1     -97.880 -29.467  79.804  1.00  0.00     0.000 C 
BRANCH  17  18
ATOM     18  C   UNL     1     -98.661 -30.600  79.121  1.00  0.00     0.000 C 
BRANCH  18  19
ATOM     19  C   UNL     1     -99.905 -30.057  78.409  1.00  0.00     0.000 C 
BRANCH  19  20
ATOM     20  C   UNL     1    -101.069 -31.056  78.495  1.00  0.00     0.006 C 
BRANCH  20  21
ATOM     21  C   UNL     1    -102.060 -30.699  79.610  1.00  0.00     0.053 C 
BRANCH  21  22
ATOM     22  C   UNL     1    -102.138 -31.775  80.651  1.00  0.00     0.041 C 
ATOM     23  O   UNL     1    -103.249 -32.093  81.152  1.00  0.00    -0.550 OA
ATOM     24  O   UNL     1    -100.991 -32.456  81.035  1.00  0.00    -0.550 OA
ENDBRANCH  21  22
ENDBRANCH  20  21
ENDBRANCH  19  20
ENDBRANCH  18  19
ENDBRANCH  17  18
ENDBRANCH  16  17
ENDBRANCH  15  16
ENDBRANCH  14  15
ENDBRANCH  13  14
ENDBRANCH   1  13
TORSDOF 20
ENDMDL
MODEL 9
REMARK VINA RESULT:    -3.134     14.190     17.035
REMARK INTER + INTRA:          -9.560
REMARK INTER:                  -5.380
REMARK INTRA:                  -4.179
REMARK UNBOUND:                -2.761
REMARK SMILES CCCCCCCCCCCCCCCCCCCCCC(=O)[O-]
REMARK SMILES IDX 12 1 11 2 10 3 9 4 8 5 7 6 6 7 5 8 4 9 3 10 2 11 1 12 13 13
REMARK SMILES IDX 14 14 15 15 16 16 17 17 18 18 19 19 20 20 21 21 22 22 23 23
REMARK SMILES IDX 24 24
REMARK H PARENT
REMARK Flexibility Score: inf
ROOT
ATOM      1  C   UNL     1     -96.048 -27.112  79.946  1.00  0.00     0.000 C 
ENDROOT
BRANCH   1   2
ATOM      2  C   UNL     1     -96.178 -28.012  78.704  1.00  0.00     0.000 C 
BRANCH   2   3
ATOM      3  C   UNL     1     -96.490 -29.481  79.063  1.00  0.00     0.000 C 
BRANCH   3   4
ATOM      4  C   UNL     1     -97.805 -30.008  78.456  1.00  0.00    -0.000 C 
BRANCH   4   5
ATOM      5  C   UNL     1     -98.980 -30.138  79.444  1.00  0.00    -0.000 C 
BRANCH   5   6
ATOM      6  C   UNL     1    -100.263 -29.389  79.034  1.00  0.00    -0.000 C 
BRANCH   6   7
ATOM      7  C   UNL     1     -99.981 -28.128  78.204  1.00  0.00    -0.000 C 
BRANCH   7   8
ATOM      8  C   UNL     1     -99.764 -26.910  79.111  1.00  0.00    -0.000 C 
BRANCH   8   9
ATOM      9  C   UNL     1     -99.089 -25.766  78.341  1.00  0.00    -0.000 C 
BRANCH   9  10
ATOM     10  C   UNL     1     -98.984 -24.475  79.169  1.00  0.00    -0.000 C 
BRANCH  10  11
ATOM     11  C   UNL     1     -98.941 -24.747  80.680  1.00  0.00    -0.003 C 
ATOM     12  C   UNL     1     -97.756 -24.039  81.331  1.00  0.00     0.004 C 
ENDBRANCH  10  11
ENDBRANCH   9  10
ENDBRANCH   8   9
ENDBRANCH   7   8
ENDBRANCH   6   7
ENDBRANCH   5   6
ENDBRANCH   4   5
ENDBRANCH   3   4
ENDBRANCH   2   3
ENDBRANCH   1   2
BRANCH   1  13
ATOM     13  C   UNL     1     -96.744 -27.715  81.178  1.00  0.00     0.000 C 
BRANCH  13  14
ATOM     14  C   UNL     1     -96.136 -27.208  82.497  1.00  0.00     0.000 C 
BRANCH  14  15
ATOM     15  C   UNL     1     -96.417 -28.151  83.678  1.00  0.00     0.000 C 
BRANCH  15  16
ATOM     16  C   UNL     1     -97.058 -27.430  84.876  1.00  0.00     0.000 C 
BRANCH  16  17
ATOM     17  C   UNL     1     -98.072 -26.359  84.447  1.00  0.00     0.000 C 
BRANCH  17  18
ATOM     18  C   UNL     1     -99.518 -26.880  84.446  1.00  0.00     0.000 C 
BRANCH  18  19
ATOM     19  C   UNL     1    -100.015 -27.118  83.015  1.00  0.00     0.000 C 
BRANCH  19  20
ATOM     20  C   UNL     1    -100.106 -28.620  82.706  1.00  0.00     0.006 C 
BRANCH  20  21
ATOM     21  C   UNL     1    -101.551 -29.078  82.473  1.00  0.00     0.053 C 
BRANCH  21  22
ATOM     22  C   UNL     1    -101.998 -30.061  83.513  1.00  0.00     0.041 C 
ATOM     23  O   UNL     1    -102.876 -30.920  83.238  1.00  0.00    -0.550 OA
ATOM     24  O   UNL     1    -101.413 -30.055  84.773  1.00  0.00    -0.550 OA
ENDBRANCH  21  22
ENDBRANCH  20  21
ENDBRANCH  19  20
ENDBRANCH  18  19
ENDBRANCH  17  18
ENDBRANCH  16  17
ENDBRANCH  15  16
ENDBRANCH  14  15
ENDBRANCH  13  14
ENDBRANCH   1  13
TORSDOF 20
ENDMDL
