MODEL 1
REMARK VINA RESULT:    -7.402      0.000      0.000
REMARK INTER + INTRA:          -8.994
REMARK INTER:                  -8.916
REMARK INTRA:                  -0.077
REMARK UNBOUND:                -0.077
REMARK SMILES O=c1c(O)c(-c2ccc(O)c(O)c2)oc2cc(O)cc(O)c12
REMARK SMILES IDX 5 1 3 2 2 3 1 4 22 5 20 6 19 7 17 8 16 9 15 10 14 11 6 12
REMARK SMILES IDX 7 13 8 14 9 15 13 16 11 17 10 18 12 20 4 22 21 24 18 26
REMARK H PARENT 10 19 12 21 4 23 21 25 18 27
REMARK Flexibility Score: inf
ROOT
ATOM      1  C   UNL     1      24.344 -24.779   0.477  1.00  0.00     0.180 A 
ATOM      2  C   UNL     1      25.305 -25.481  -0.271  1.00  0.00     0.208 A 
ATOM      3  C   UNL     1      25.321 -26.884  -0.213  1.00  0.00     0.238 A 
ATOM      4  O   UNL     1      26.148 -27.508  -0.928  1.00  0.00    -0.285 OA
ATOM      5  C   UNL     1      24.386 -27.566   0.602  1.00  0.00     0.111 A 
ATOM      6  C   UNL     1      24.338 -28.982   0.767  1.00  0.00     0.134 A 
ATOM      7  C   UNL     1      23.289 -29.557   1.496  1.00  0.00     0.093 A 
ATOM      8  C   UNL     1      22.326 -28.765   2.119  1.00  0.00     0.123 A 
ATOM      9  C   UNL     1      22.399 -27.375   2.015  1.00  0.00     0.094 A 
ATOM     10  C   UNL     1      23.412 -26.774   1.264  1.00  0.00     0.146 A 
ATOM     11  O   UNL     1      23.440 -25.450   1.180  1.00  0.00    -0.452 OA
ENDROOT
BRANCH   1  12
ATOM     12  C   UNL     1      24.280 -23.299   0.488  1.00  0.00     0.025 A 
ATOM     13  C   UNL     1      25.410 -22.562   0.872  1.00  0.00     0.016 A 
ATOM     14  C   UNL     1      25.378 -21.164   0.870  1.00  0.00     0.051 A 
ATOM     15  C   UNL     1      24.221 -20.486   0.469  1.00  0.00     0.157 A 
ATOM     16  C   UNL     1      23.127 -22.614   0.066  1.00  0.00     0.062 A 
ATOM     17  C   UNL     1      23.094 -21.211   0.062  1.00  0.00     0.158 A 
BRANCH  15  18
ATOM     18  O   UNL     1      24.183 -19.093   0.467  1.00  0.00    -0.504 OA
ATOM     19  H   UNL     1      24.838 -18.545  -0.080  1.00  0.00     0.293 HD
ENDBRANCH  15  18
BRANCH  17  20
ATOM     20  O   UNL     1      21.948 -20.533  -0.350  1.00  0.00    -0.504 OA
ATOM     21  H   UNL     1      21.936 -19.526  -0.454  1.00  0.00     0.293 HD
ENDBRANCH  17  20
ENDBRANCH   1  12
BRANCH   2  22
ATOM     22  O   UNL     1      26.203 -24.788  -1.087  1.00  0.00    -0.502 OA
ATOM     23  H   UNL     1      26.656 -25.218  -1.885  1.00  0.00     0.293 HD
ENDBRANCH   2  22
BRANCH   6  24
ATOM     24  O   UNL     1      25.301 -29.861   0.262  1.00  0.00    -0.507 OA
ATOM     25  H   UNL     1      26.189 -30.053   0.701  1.00  0.00     0.293 HD
ENDBRANCH   6  24
BRANCH   8  26
ATOM     26  O   UNL     1      21.306 -29.370   2.850  1.00  0.00    -0.508 OA
ATOM     27  H   UNL     1      21.260 -30.377   2.963  1.00  0.00     0.293 HD
ENDBRANCH   8  26
TORSDOF 6
ENDMDL
MODEL 2
REMARK VINA RESULT:    -7.317      2.574      4.027
REMARK INTER + INTRA:          -8.891
REMARK INTER:                  -8.649
REMARK INTRA:                  -0.243
REMARK UNBOUND:                -0.077
REMARK SMILES O=c1c(O)c(-c2ccc(O)c(O)c2)oc2cc(O)cc(O)c12
REMARK SMILES IDX 5 1 3 2 2 3 1 4 22 5 20 6 19 7 17 8 16 9 15 10 14 11 6 12
REMARK SMILES IDX 7 13 8 14 9 15 13 16 11 17 10 18 12 20 4 22 21 24 18 26
REMARK H PARENT 10 19 12 21 4 23 21 25 18 27
REMARK Flexibility Score: inf
ROOT
ATOM      1  C   UNL     1      25.645 -23.678   0.516  1.00  0.00     0.180 A 
ATOM      2  C   UNL     1      24.381 -24.273   0.367  1.00  0.00     0.208 A 
ATOM      3  C   UNL     1      24.280 -25.495  -0.318  1.00  0.00     0.238 A 
ATOM      4  O   UNL     1      23.153 -26.049  -0.400  1.00  0.00    -0.285 OA
ATOM      5  C   UNL     1      25.441 -26.098  -0.859  1.00  0.00     0.111 A 
ATOM      6  C   UNL     1      25.449 -27.313  -1.605  1.00  0.00     0.134 A 
ATOM      7  C   UNL     1      26.672 -27.885  -1.980  1.00  0.00     0.093 A 
ATOM      8  C   UNL     1      27.880 -27.253  -1.693  1.00  0.00     0.123 A 
ATOM      9  C   UNL     1      27.881 -26.033  -1.016  1.00  0.00     0.094 A 
ATOM     10  C   UNL     1      26.679 -25.456  -0.596  1.00  0.00     0.146 A 
ATOM     11  O   UNL     1      26.724 -24.301   0.054  1.00  0.00    -0.452 OA
ENDROOT
BRANCH   1  12
ATOM     12  C   UNL     1      25.829 -22.379   1.202  1.00  0.00     0.025 A 
ATOM     13  C   UNL     1      26.520 -22.335   2.423  1.00  0.00     0.016 A 
ATOM     14  C   UNL     1      26.723 -21.117   3.078  1.00  0.00     0.051 A 
ATOM     15  C   UNL     1      26.252 -19.924   2.514  1.00  0.00     0.157 A 
ATOM     16  C   UNL     1      25.376 -21.177   0.629  1.00  0.00     0.062 A 
ATOM     17  C   UNL     1      25.580 -19.954   1.286  1.00  0.00     0.158 A 
BRANCH  15  18
ATOM     18  O   UNL     1      26.450 -18.708   3.164  1.00  0.00    -0.504 OA
ATOM     19  H   UNL     1      27.324 -18.493   3.631  1.00  0.00     0.293 HD
ENDBRANCH  15  18
BRANCH  17  20
ATOM     20  O   UNL     1      25.125 -18.765   0.719  1.00  0.00    -0.504 OA
ATOM     21  H   UNL     1      25.460 -18.443  -0.181  1.00  0.00     0.293 HD
ENDBRANCH  17  20
ENDBRANCH   1  12
BRANCH   2  22
ATOM     22  O   UNL     1      23.251 -23.672   0.928  1.00  0.00    -0.502 OA
ATOM     23  H   UNL     1      23.006 -23.781   1.905  1.00  0.00     0.293 HD
ENDBRANCH   2  22
BRANCH   6  24
ATOM     24  O   UNL     1      24.294 -27.980  -2.024  1.00  0.00    -0.507 OA
ATOM     25  H   UNL     1      23.850 -28.733  -1.520  1.00  0.00     0.293 HD
ENDBRANCH   6  24
BRANCH   8  26
ATOM     26  O   UNL     1      29.077 -27.843  -2.096  1.00  0.00    -0.508 OA
ATOM     27  H   UNL     1      29.939 -27.695  -1.584  1.00  0.00     0.293 HD
ENDBRANCH   8  26
TORSDOF 6
ENDMDL
MODEL 3
REMARK VINA RESULT:    -7.262      1.785      3.240
REMARK INTER + INTRA:          -8.826
REMARK INTER:                  -8.505
REMARK INTRA:                  -0.321
REMARK UNBOUND:                -0.077
REMARK SMILES O=c1c(O)c(-c2ccc(O)c(O)c2)oc2cc(O)cc(O)c12
REMARK SMILES IDX 5 1 3 2 2 3 1 4 22 5 20 6 19 7 17 8 16 9 15 10 14 11 6 12
REMARK SMILES IDX 7 13 8 14 9 15 13 16 11 17 10 18 12 20 4 22 21 24 18 26
REMARK H PARENT 10 19 12 21 4 23 21 25 18 27
REMARK Flexibility Score: inf
ROOT
ATOM      1  C   UNL     1      23.975 -25.251   0.475  1.00  0.00     0.180 A 
ATOM      2  C   UNL     1      22.746 -25.282   1.156  1.00  0.00     0.208 A 
ATOM      3  C   UNL     1      22.306 -26.494   1.713  1.00  0.00     0.238 A 
ATOM      4  O   UNL     1      21.232 -26.502   2.368  1.00  0.00    -0.285 OA
ATOM      5  C   UNL     1      23.091 -27.663   1.568  1.00  0.00     0.111 A 
ATOM      6  C   UNL     1      22.724 -28.952   2.056  1.00  0.00     0.134 A 
ATOM      7  C   UNL     1      23.638 -30.009   1.970  1.00  0.00     0.093 A 
ATOM      8  C   UNL     1      24.878 -29.841   1.356  1.00  0.00     0.123 A 
ATOM      9  C   UNL     1      25.224 -28.599   0.821  1.00  0.00     0.094 A 
ATOM     10  C   UNL     1      24.348 -27.516   0.925  1.00  0.00     0.146 A 
ATOM     11  O   UNL     1      24.719 -26.349   0.413  1.00  0.00    -0.452 OA
ENDROOT
BRANCH   1  12
ATOM     12  C   UNL     1      24.494 -24.018  -0.160  1.00  0.00     0.025 A 
ATOM     13  C   UNL     1      24.158 -23.734  -1.493  1.00  0.00     0.016 A 
ATOM     14  C   UNL     1      24.620 -22.565  -2.105  1.00  0.00     0.051 A 
ATOM     15  C   UNL     1      25.411 -21.658  -1.389  1.00  0.00     0.157 A 
ATOM     16  C   UNL     1      25.271 -23.095   0.562  1.00  0.00     0.062 A 
ATOM     17  C   UNL     1      25.735 -21.922  -0.052  1.00  0.00     0.158 A 
BRANCH  15  18
ATOM     18  O   UNL     1      25.876 -20.494  -1.996  1.00  0.00    -0.504 OA
ATOM     19  H   UNL     1      26.145 -20.476  -2.973  1.00  0.00     0.293 HD
ENDBRANCH  15  18
BRANCH  17  20
ATOM     20  O   UNL     1      26.510 -21.011   0.663  1.00  0.00    -0.504 OA
ATOM     21  H   UNL     1      26.546 -20.030   0.410  1.00  0.00     0.293 HD
ENDBRANCH  17  20
ENDBRANCH   1  12
BRANCH   2  22
ATOM     22  O   UNL     1      21.997 -24.112   1.307  1.00  0.00    -0.502 OA
ATOM     23  H   UNL     1      22.108 -23.312   0.696  1.00  0.00     0.293 HD
ENDBRANCH   2  22
BRANCH   6  24
ATOM     24  O   UNL     1      21.474 -29.251   2.605  1.00  0.00    -0.507 OA
ATOM     25  H   UNL     1      20.659 -28.659   2.537  1.00  0.00     0.293 HD
ENDBRANCH   6  24
BRANCH   8  26
ATOM     26  O   UNL     1      25.756 -30.920   1.274  1.00  0.00    -0.508 OA
ATOM     27  H   UNL     1      26.745 -30.815   1.471  1.00  0.00     0.293 HD
ENDBRANCH   8  26
TORSDOF 6
ENDMDL
MODEL 4
REMARK VINA RESULT:    -7.100      3.015      4.745
REMARK INTER + INTRA:          -8.630
REMARK INTER:                  -8.307
REMARK INTRA:                  -0.323
REMARK UNBOUND:                -0.077
REMARK SMILES O=c1c(O)c(-c2ccc(O)c(O)c2)oc2cc(O)cc(O)c12
REMARK SMILES IDX 5 1 3 2 2 3 1 4 22 5 20 6 19 7 17 8 16 9 15 10 14 11 6 12
REMARK SMILES IDX 7 13 8 14 9 15 13 16 11 17 10 18 12 20 4 22 21 24 18 26
REMARK H PARENT 10 19 12 21 4 23 21 25 18 27
REMARK Flexibility Score: inf
ROOT
ATOM      1  C   UNL     1      26.078 -26.128  -1.148  1.00  0.00     0.180 A 
ATOM      2  C   UNL     1      25.185 -27.214  -1.134  1.00  0.00     0.208 A 
ATOM      3  C   UNL     1      25.681 -28.507  -1.364  1.00  0.00     0.238 A 
ATOM      4  O   UNL     1      24.886 -29.479  -1.296  1.00  0.00    -0.285 OA
ATOM      5  C   UNL     1      27.060 -28.697  -1.620  1.00  0.00     0.111 A 
ATOM      6  C   UNL     1      27.665 -29.958  -1.906  1.00  0.00     0.134 A 
ATOM      7  C   UNL     1      29.058 -30.047  -2.015  1.00  0.00     0.093 A 
ATOM      8  C   UNL     1      29.862 -28.912  -1.913  1.00  0.00     0.123 A 
ATOM      9  C   UNL     1      29.277 -27.665  -1.693  1.00  0.00     0.094 A 
ATOM     10  C   UNL     1      27.892 -27.550  -1.544  1.00  0.00     0.146 A 
ATOM     11  O   UNL     1      27.376 -26.347  -1.326  1.00  0.00    -0.452 OA
ENDROOT
BRANCH   1  12
ATOM     12  C   UNL     1      25.627 -24.733  -0.939  1.00  0.00     0.025 A 
ATOM     13  C   UNL     1      25.180 -23.980  -2.035  1.00  0.00     0.016 A 
ATOM     14  C   UNL     1      24.731 -22.669  -1.858  1.00  0.00     0.051 A 
ATOM     15  C   UNL     1      24.708 -22.097  -0.579  1.00  0.00     0.157 A 
ATOM     16  C   UNL     1      25.584 -24.163   0.346  1.00  0.00     0.062 A 
ATOM     17  C   UNL     1      25.132 -22.847   0.526  1.00  0.00     0.158 A 
BRANCH  15  18
ATOM     18  O   UNL     1      24.264 -20.790  -0.397  1.00  0.00    -0.504 OA
ATOM     19  H   UNL     1      23.687 -20.531   0.395  1.00  0.00     0.293 HD
ENDBRANCH  15  18
BRANCH  17  20
ATOM     20  O   UNL     1      25.096 -22.281   1.798  1.00  0.00    -0.504 OA
ATOM     21  H   UNL     1      24.741 -21.345   1.953  1.00  0.00     0.293 HD
ENDBRANCH  17  20
ENDBRANCH   1  12
BRANCH   2  22
ATOM     22  O   UNL     1      23.831 -27.005  -0.856  1.00  0.00    -0.502 OA
ATOM     23  H   UNL     1      23.097 -27.550  -1.292  1.00  0.00     0.293 HD
ENDBRANCH   2  22
BRANCH   6  24
ATOM     24  O   UNL     1      26.946 -31.138  -2.117  1.00  0.00    -0.507 OA
ATOM     25  H   UNL     1      25.999 -31.298  -1.808  1.00  0.00     0.293 HD
ENDBRANCH   6  24
BRANCH   8  26
ATOM     26  O   UNL     1      31.244 -29.036  -2.043  1.00  0.00    -0.508 OA
ATOM     27  H   UNL     1      31.791 -28.356  -2.559  1.00  0.00     0.293 HD
ENDBRANCH   8  26
TORSDOF 6
ENDMDL
MODEL 5
REMARK VINA RESULT:    -6.814      2.621      7.007
REMARK INTER + INTRA:          -8.285
REMARK INTER:                  -8.367
REMARK INTRA:                   0.082
REMARK UNBOUND:                -0.077
REMARK SMILES O=c1c(O)c(-c2ccc(O)c(O)c2)oc2cc(O)cc(O)c12
REMARK SMILES IDX 5 1 3 2 2 3 1 4 22 5 20 6 19 7 17 8 16 9 15 10 14 11 6 12
REMARK SMILES IDX 7 13 8 14 9 15 13 16 11 17 10 18 12 20 4 22 21 24 18 26
REMARK H PARENT 10 19 12 21 4 23 21 25 18 27
REMARK Flexibility Score: inf
ROOT
ATOM      1  C   UNL     1      25.447 -26.010  -0.812  1.00  0.00     0.180 A 
ATOM      2  C   UNL     1      24.133 -25.803  -1.266  1.00  0.00     0.208 A 
ATOM      3  C   UNL     1      23.453 -24.638  -0.875  1.00  0.00     0.238 A 
ATOM      4  O   UNL     1      22.297 -24.433  -1.329  1.00  0.00    -0.285 OA
ATOM      5  C   UNL     1      24.089 -23.703  -0.023  1.00  0.00     0.111 A 
ATOM      6  C   UNL     1      23.480 -22.511   0.468  1.00  0.00     0.134 A 
ATOM      7  C   UNL     1      24.247 -21.594   1.199  1.00  0.00     0.093 A 
ATOM      8  C   UNL     1      25.580 -21.858   1.511  1.00  0.00     0.123 A 
ATOM      9  C   UNL     1      26.168 -23.050   1.087  1.00  0.00     0.094 A 
ATOM     10  C   UNL     1      25.439 -23.967   0.325  1.00  0.00     0.146 A 
ATOM     11  O   UNL     1      26.039 -25.083  -0.068  1.00  0.00    -0.452 OA
ENDROOT
BRANCH   1  12
ATOM     12  C   UNL     1      26.219 -27.225  -1.161  1.00  0.00     0.025 A 
ATOM     13  C   UNL     1      27.585 -27.112  -1.462  1.00  0.00     0.016 A 
ATOM     14  C   UNL     1      28.338 -28.248  -1.774  1.00  0.00     0.051 A 
ATOM     15  C   UNL     1      27.738 -29.514  -1.773  1.00  0.00     0.157 A 
ATOM     16  C   UNL     1      25.626 -28.500  -1.142  1.00  0.00     0.062 A 
ATOM     17  C   UNL     1      26.381 -29.641  -1.453  1.00  0.00     0.158 A 
BRANCH  15  18
ATOM     18  O   UNL     1      28.484 -30.648  -2.085  1.00  0.00    -0.504 OA
ATOM     19  H   UNL     1      28.549 -31.432  -1.446  1.00  0.00     0.293 HD
ENDBRANCH  15  18
BRANCH  17  20
ATOM     20  O   UNL     1      25.790 -30.903  -1.439  1.00  0.00    -0.504 OA
ATOM     21  H   UNL     1      24.979 -31.103  -0.866  1.00  0.00     0.293 HD
ENDBRANCH  17  20
ENDBRANCH   1  12
BRANCH   2  22
ATOM     22  O   UNL     1      23.532 -26.728  -2.125  1.00  0.00    -0.502 OA
ATOM     23  H   UNL     1      22.601 -26.596  -2.501  1.00  0.00     0.293 HD
ENDBRANCH   2  22
BRANCH   6  24
ATOM     24  O   UNL     1      22.130 -22.193   0.291  1.00  0.00    -0.507 OA
ATOM     25  H   UNL     1      21.429 -22.833  -0.048  1.00  0.00     0.293 HD
ENDBRANCH   6  24
BRANCH   8  26
ATOM     26  O   UNL     1      26.308 -20.931   2.254  1.00  0.00    -0.508 OA
ATOM     27  H   UNL     1      27.316 -20.997   2.343  1.00  0.00     0.293 HD
ENDBRANCH   8  26
TORSDOF 6
ENDMDL
MODEL 6
REMARK VINA RESULT:    -6.807      1.511      3.141
REMARK INTER + INTRA:          -8.277
REMARK INTER:                  -8.054
REMARK INTRA:                  -0.223
REMARK UNBOUND:                -0.077
REMARK SMILES O=c1c(O)c(-c2ccc(O)c(O)c2)oc2cc(O)cc(O)c12
REMARK SMILES IDX 5 1 3 2 2 3 1 4 22 5 20 6 19 7 17 8 16 9 15 10 14 11 6 12
REMARK SMILES IDX 7 13 8 14 9 15 13 16 11 17 10 18 12 20 4 22 21 24 18 26
REMARK H PARENT 10 19 12 21 4 23 21 25 18 27
REMARK Flexibility Score: inf
ROOT
ATOM      1  C   UNL     1      24.206 -24.091   0.226  1.00  0.00     0.180 A 
ATOM      2  C   UNL     1      23.235 -24.890   0.854  1.00  0.00     0.208 A 
ATOM      3  C   UNL     1      23.319 -26.286   0.732  1.00  0.00     0.238 A 
ATOM      4  O   UNL     1      22.479 -26.997   1.342  1.00  0.00    -0.285 OA
ATOM      5  C   UNL     1      24.362 -26.865  -0.029  1.00  0.00     0.111 A 
ATOM      6  C   UNL     1      24.520 -28.265  -0.254  1.00  0.00     0.134 A 
ATOM      7  C   UNL     1      25.663 -28.734  -0.914  1.00  0.00     0.093 A 
ATOM      8  C   UNL     1      26.618 -27.851  -1.414  1.00  0.00     0.123 A 
ATOM      9  C   UNL     1      26.444 -26.476  -1.253  1.00  0.00     0.094 A 
ATOM     10  C   UNL     1      25.333 -25.980  -0.567  1.00  0.00     0.146 A 
ATOM     11  O   UNL     1      25.209 -24.666  -0.426  1.00  0.00    -0.452 OA
ENDROOT
BRANCH   1  12
ATOM     12  C   UNL     1      24.170 -22.611   0.288  1.00  0.00     0.025 A 
ATOM     13  C   UNL     1      25.199 -21.923   0.950  1.00  0.00     0.016 A 
ATOM     14  C   UNL     1      25.195 -20.526   1.003  1.00  0.00     0.051 A 
ATOM     15  C   UNL     1      24.173 -19.798   0.381  1.00  0.00     0.157 A 
ATOM     16  C   UNL     1      23.157 -21.876  -0.352  1.00  0.00     0.062 A 
ATOM     17  C   UNL     1      23.153 -20.474  -0.300  1.00  0.00     0.158 A 
BRANCH  15  18
ATOM     18  O   UNL     1      24.165 -18.406   0.433  1.00  0.00    -0.504 OA
ATOM     19  H   UNL     1      23.401 -17.866   0.043  1.00  0.00     0.293 HD
ENDBRANCH  15  18
BRANCH  17  20
ATOM     20  O   UNL     1      22.145 -19.747  -0.930  1.00  0.00    -0.504 OA
ATOM     21  H   UNL     1      22.150 -19.590  -1.931  1.00  0.00     0.293 HD
ENDBRANCH  17  20
ENDBRANCH   1  12
BRANCH   2  22
ATOM     22  O   UNL     1      22.227 -24.298   1.620  1.00  0.00    -0.502 OA
ATOM     23  H   UNL     1      21.869 -24.720   2.468  1.00  0.00     0.293 HD
ENDBRANCH   2  22
BRANCH   6  24
ATOM     24  O   UNL     1      23.580 -29.228   0.125  1.00  0.00    -0.507 OA
ATOM     25  H   UNL     1      23.770 -30.009   0.734  1.00  0.00     0.293 HD
ENDBRANCH   6  24
BRANCH   8  26
ATOM     26  O   UNL     1      27.735 -28.353  -2.081  1.00  0.00    -0.508 OA
ATOM     27  H   UNL     1      27.650 -29.069  -2.793  1.00  0.00     0.293 HD
ENDBRANCH   8  26
TORSDOF 6
ENDMDL
MODEL 7
REMARK VINA RESULT:    -6.759      1.866      6.833
REMARK INTER + INTRA:          -8.219
REMARK INTER:                  -7.901
REMARK INTRA:                  -0.318
REMARK UNBOUND:                -0.077
REMARK SMILES O=c1c(O)c(-c2ccc(O)c(O)c2)oc2cc(O)cc(O)c12
REMARK SMILES IDX 5 1 3 2 2 3 1 4 22 5 20 6 19 7 17 8 16 9 15 10 14 11 6 12
REMARK SMILES IDX 7 13 8 14 9 15 13 16 11 17 10 18 12 20 4 22 21 24 18 26
REMARK H PARENT 10 19 12 21 4 23 21 25 18 27
REMARK Flexibility Score: inf
ROOT
ATOM      1  C   UNL     1      25.487 -25.157   0.098  1.00  0.00     0.180 A 
ATOM      2  C   UNL     1      26.528 -24.547   0.818  1.00  0.00     0.208 A 
ATOM      3  C   UNL     1      26.397 -23.201   1.197  1.00  0.00     0.238 A 
ATOM      4  O   UNL     1      27.308 -22.677   1.888  1.00  0.00    -0.285 OA
ATOM      5  C   UNL     1      25.234 -22.478   0.838  1.00  0.00     0.111 A 
ATOM      6  C   UNL     1      25.013 -21.100   1.134  1.00  0.00     0.134 A 
ATOM      7  C   UNL     1      23.770 -20.522   0.845  1.00  0.00     0.093 A 
ATOM      8  C   UNL     1      22.766 -21.253   0.213  1.00  0.00     0.123 A 
ATOM      9  C   UNL     1      22.993 -22.585  -0.136  1.00  0.00     0.094 A 
ATOM     10  C   UNL     1      24.209 -23.200   0.173  1.00  0.00     0.146 A 
ATOM     11  O   UNL     1      24.380 -24.471  -0.166  1.00  0.00    -0.452 OA
ENDROOT
BRANCH   1  12
ATOM     12  C   UNL     1      25.562 -26.564  -0.358  1.00  0.00     0.025 A 
ATOM     13  C   UNL     1      26.217 -26.866  -1.562  1.00  0.00     0.016 A 
ATOM     14  C   UNL     1      26.317 -28.189  -2.001  1.00  0.00     0.051 A 
ATOM     15  C   UNL     1      25.778 -29.230  -1.235  1.00  0.00     0.157 A 
ATOM     16  C   UNL     1      25.040 -27.614   0.418  1.00  0.00     0.062 A 
ATOM     17  C   UNL     1      25.141 -28.943  -0.021  1.00  0.00     0.158 A 
BRANCH  15  18
ATOM     18  O   UNL     1      25.874 -30.550  -1.669  1.00  0.00    -0.504 OA
ATOM     19  H   UNL     1      25.057 -31.147  -1.734  1.00  0.00     0.293 HD
ENDBRANCH  15  18
BRANCH  17  20
ATOM     20  O   UNL     1      24.619 -29.981   0.747  1.00  0.00    -0.504 OA
ATOM     21  H   UNL     1      25.128 -30.370   1.532  1.00  0.00     0.293 HD
ENDBRANCH  17  20
ENDBRANCH   1  12
BRANCH   2  22
ATOM     22  O   UNL     1      27.657 -25.286   1.182  1.00  0.00    -0.502 OA
ATOM     23  H   UNL     1      28.208 -25.804   0.508  1.00  0.00     0.293 HD
ENDBRANCH   2  22
BRANCH   6  24
ATOM     24  O   UNL     1      25.982 -20.254   1.682  1.00  0.00    -0.507 OA
ATOM     25  H   UNL     1      26.062 -19.268   1.484  1.00  0.00     0.293 HD
ENDBRANCH   6  24
BRANCH   8  26
ATOM     26  O   UNL     1      21.547 -20.641  -0.074  1.00  0.00    -0.508 OA
ATOM     27  H   UNL     1      21.437 -20.031  -0.877  1.00  0.00     0.293 HD
ENDBRANCH   8  26
TORSDOF 6
ENDMDL
MODEL 8
REMARK VINA RESULT:    -6.750      2.071      2.926
REMARK INTER + INTRA:          -8.209
REMARK INTER:                  -8.002
REMARK INTRA:                  -0.207
REMARK UNBOUND:                -0.077
REMARK SMILES O=c1c(O)c(-c2ccc(O)c(O)c2)oc2cc(O)cc(O)c12
REMARK SMILES IDX 5 1 3 2 2 3 1 4 22 5 20 6 19 7 17 8 16 9 15 10 14 11 6 12
REMARK SMILES IDX 7 13 8 14 9 15 13 16 11 17 10 18 12 20 4 22 21 24 18 26
REMARK H PARENT 10 19 12 21 4 23 21 25 18 27
REMARK Flexibility Score: inf
ROOT
ATOM      1  C   UNL     1      26.267 -23.591   0.605  1.00  0.00     0.180 A 
ATOM      2  C   UNL     1      27.175 -23.802  -0.445  1.00  0.00     0.208 A 
ATOM      3  C   UNL     1      27.201 -25.052  -1.083  1.00  0.00     0.238 A 
ATOM      4  O   UNL     1      27.979 -25.216  -2.059  1.00  0.00    -0.285 OA
ATOM      5  C   UNL     1      26.330 -26.081  -0.652  1.00  0.00     0.111 A 
ATOM      6  C   UNL     1      26.299 -27.398  -1.199  1.00  0.00     0.134 A 
ATOM      7  C   UNL     1      25.306 -28.295  -0.783  1.00  0.00     0.093 A 
ATOM      8  C   UNL     1      24.387 -27.945   0.204  1.00  0.00     0.123 A 
ATOM      9  C   UNL     1      24.446 -26.680   0.789  1.00  0.00     0.094 A 
ATOM     10  C   UNL     1      25.401 -25.750   0.369  1.00  0.00     0.146 A 
ATOM     11  O   UNL     1      25.417 -24.554   0.943  1.00  0.00    -0.452 OA
ENDROOT
BRANCH   1  12
ATOM     12  C   UNL     1      26.197 -22.308   1.343  1.00  0.00     0.025 A 
ATOM     13  C   UNL     1      26.674 -22.243   2.661  1.00  0.00     0.016 A 
ATOM     14  C   UNL     1      26.637 -21.038   3.368  1.00  0.00     0.051 A 
ATOM     15  C   UNL     1      26.137 -19.878   2.762  1.00  0.00     0.157 A 
ATOM     16  C   UNL     1      25.714 -21.138   0.731  1.00  0.00     0.062 A 
ATOM     17  C   UNL     1      25.678 -19.927   1.440  1.00  0.00     0.158 A 
BRANCH  15  18
ATOM     18  O   UNL     1      26.095 -18.676   3.464  1.00  0.00    -0.504 OA
ATOM     19  H   UNL     1      26.360 -18.623   4.441  1.00  0.00     0.293 HD
ENDBRANCH  15  18
BRANCH  17  20
ATOM     20  O   UNL     1      25.193 -18.770   0.834  1.00  0.00    -0.504 OA
ATOM     21  H   UNL     1      25.067 -17.910   1.356  1.00  0.00     0.293 HD
ENDBRANCH  17  20
ENDBRANCH   1  12
BRANCH   2  22
ATOM     22  O   UNL     1      28.011 -22.765  -0.870  1.00  0.00    -0.502 OA
ATOM     23  H   UNL     1      29.012 -22.878  -0.967  1.00  0.00     0.293 HD
ENDBRANCH   2  22
BRANCH   6  24
ATOM     24  O   UNL     1      27.227 -27.882  -2.125  1.00  0.00    -0.507 OA
ATOM     25  H   UNL     1      27.710 -27.313  -2.805  1.00  0.00     0.293 HD
ENDBRANCH   6  24
BRANCH   8  26
ATOM     26  O   UNL     1      23.423 -28.869   0.604  1.00  0.00    -0.508 OA
ATOM     27  H   UNL     1      22.433 -28.683   0.495  1.00  0.00     0.293 HD
ENDBRANCH   8  26
TORSDOF 6
ENDMDL
MODEL 9
REMARK VINA RESULT:    -6.711      1.355      6.737
REMARK INTER + INTRA:          -8.161
REMARK INTER:                  -8.607
REMARK INTRA:                   0.446
REMARK UNBOUND:                -0.077
REMARK SMILES O=c1c(O)c(-c2ccc(O)c(O)c2)oc2cc(O)cc(O)c12
REMARK SMILES IDX 5 1 3 2 2 3 1 4 22 5 20 6 19 7 17 8 16 9 15 10 14 11 6 12
REMARK SMILES IDX 7 13 8 14 9 15 13 16 11 17 10 18 12 20 4 22 21 24 18 26
REMARK H PARENT 10 19 12 21 4 23 21 25 18 27
REMARK Flexibility Score: inf
ROOT
ATOM      1  C   UNL     1      23.937 -25.110   0.498  1.00  0.00     0.180 A 
ATOM      2  C   UNL     1      25.194 -25.086  -0.129  1.00  0.00     0.208 A 
ATOM      3  C   UNL     1      25.651 -23.886  -0.696  1.00  0.00     0.238 A 
ATOM      4  O   UNL     1      26.800 -23.858  -1.206  1.00  0.00    -0.285 OA
ATOM      5  C   UNL     1      24.837 -22.728  -0.644  1.00  0.00     0.111 A 
ATOM      6  C   UNL     1      25.181 -21.470  -1.221  1.00  0.00     0.134 A 
ATOM      7  C   UNL     1      24.359 -20.358  -0.995  1.00  0.00     0.093 A 
ATOM      8  C   UNL     1      23.174 -20.475  -0.270  1.00  0.00     0.123 A 
ATOM      9  C   UNL     1      22.797 -21.715   0.247  1.00  0.00     0.094 A 
ATOM     10  C   UNL     1      23.615 -22.833   0.071  1.00  0.00     0.146 A 
ATOM     11  O   UNL     1      23.226 -23.992   0.588  1.00  0.00    -0.452 OA
ENDROOT
BRANCH   1  12
ATOM     12  C   UNL     1      23.377 -26.343   1.097  1.00  0.00     0.025 A 
ATOM     13  C   UNL     1      22.184 -26.274   1.832  1.00  0.00     0.016 A 
ATOM     14  C   UNL     1      21.627 -27.429   2.389  1.00  0.00     0.051 A 
ATOM     15  C   UNL     1      22.247 -28.671   2.204  1.00  0.00     0.157 A 
ATOM     16  C   UNL     1      23.985 -27.595   0.897  1.00  0.00     0.062 A 
ATOM     17  C   UNL     1      23.427 -28.756   1.454  1.00  0.00     0.158 A 
BRANCH  15  18
ATOM     18  O   UNL     1      21.697 -29.825   2.759  1.00  0.00    -0.504 OA
ATOM     19  H   UNL     1      20.961 -30.341   2.288  1.00  0.00     0.293 HD
ENDBRANCH  15  18
BRANCH  17  20
ATOM     20  O   UNL     1      24.034 -29.995   1.259  1.00  0.00    -0.504 OA
ATOM     21  H   UNL     1      23.879 -30.767   1.896  1.00  0.00     0.293 HD
ENDBRANCH  17  20
ENDBRANCH   1  12
BRANCH   2  22
ATOM     22  O   UNL     1      25.991 -26.235  -0.148  1.00  0.00    -0.502 OA
ATOM     23  H   UNL     1      25.738 -27.063  -0.674  1.00  0.00     0.293 HD
ENDBRANCH   2  22
BRANCH   6  24
ATOM     24  O   UNL     1      26.296 -21.265  -2.039  1.00  0.00    -0.507 OA
ATOM     25  H   UNL     1      26.297 -21.360  -3.043  1.00  0.00     0.293 HD
ENDBRANCH   6  24
BRANCH   8  26
ATOM     26  O   UNL     1      22.372 -19.351  -0.080  1.00  0.00    -0.508 OA
ATOM     27  H   UNL     1      22.764 -18.417  -0.063  1.00  0.00     0.293 HD
ENDBRANCH   8  26
TORSDOF 6
ENDMDL
