MODEL 1
REMARK VINA RESULT:    -3.766      0.000      0.000
REMARK INTER + INTRA:         -12.225
REMARK INTER:                  -8.610
REMARK INTRA:                  -3.615
REMARK UNBOUND:                -3.615
REMARK SMILES CCCCCCCCCCCCCCCCCCCCCCCC(=O)[O-]
REMARK SMILES IDX 13 1 14 2 15 3 16 4 17 5 18 6 19 7 20 8 21 9 22 10 23 11
REMARK SMILES IDX 24 12 25 13 26 14 12 15 11 16 10 17 9 18 8 19 7 20 6 21 5 22
REMARK SMILES IDX 4 23 3 24 2 25 1 26
REMARK H PARENT
REMARK Flexibility Score: inf
ROOT
ATOM      1  C   UNL     1       4.994  -0.428  -2.998  1.00  0.00     0.000 C 
ENDROOT
BRANCH   1   2
ATOM      2  C   UNL     1       4.664  -0.525  -4.500  1.00  0.00     0.000 C 
BRANCH   2   3
ATOM      3  C   UNL     1       5.895  -0.870  -5.353  1.00  0.00     0.000 C 
BRANCH   3   4
ATOM      4  C   UNL     1       5.795  -0.236  -6.746  1.00  0.00     0.000 C 
BRANCH   4   5
ATOM      5  C   UNL     1       4.366   0.251  -7.028  1.00  0.00     0.000 C 
BRANCH   5   6
ATOM      6  C   UNL     1       4.267   1.782  -7.125  1.00  0.00     0.000 C 
BRANCH   6   7
ATOM      7  C   UNL     1       3.174   2.366  -6.217  1.00  0.00     0.000 C 
BRANCH   7   8
ATOM      8  C   UNL     1       1.872   1.566  -6.346  1.00  0.00     0.000 C 
BRANCH   8   9
ATOM      9  C   UNL     1       0.977   1.761  -5.115  1.00  0.00     0.000 C 
BRANCH   9  10
ATOM     10  C   UNL     1       0.538   0.409  -4.538  1.00  0.00     0.006 C 
BRANCH  10  11
ATOM     11  C   UNL     1       1.264  -0.749  -5.229  1.00  0.00     0.053 C 
BRANCH  11  12
ATOM     12  C   UNL     1       1.076  -2.019  -4.457  1.00  0.00     0.041 C 
ATOM     13  O   UNL     1       0.602  -1.986  -3.290  1.00  0.00    -0.550 OA
ATOM     14  O   UNL     1       1.348  -3.242  -5.056  1.00  0.00    -0.550 OA
ENDBRANCH  11  12
ENDBRANCH  10  11
ENDBRANCH   9  10
ENDBRANCH   8   9
ENDBRANCH   7   8
ENDBRANCH   6   7
ENDBRANCH   5   6
ENDBRANCH   4   5
ENDBRANCH   3   4
ENDBRANCH   2   3
ENDBRANCH   1   2
BRANCH   1  15
ATOM     15  C   UNL     1       5.802   0.825  -2.608  1.00  0.00     0.000 C 
BRANCH  15  16
ATOM     16  C   UNL     1       5.742   1.921  -3.685  1.00  0.00     0.000 C 
BRANCH  16  17
ATOM     17  C   UNL     1       7.112   2.568  -3.953  1.00  0.00     0.000 C 
BRANCH  17  18
ATOM     18  C   UNL     1       7.574   2.454  -5.422  1.00  0.00    -0.000 C 
BRANCH  18  19
ATOM     19  C   UNL     1       8.402   3.673  -5.870  1.00  0.00    -0.000 C 
BRANCH  19  20
ATOM     20  C   UNL     1       7.606   4.989  -5.783  1.00  0.00    -0.000 C 
BRANCH  20  21
ATOM     21  C   UNL     1       6.429   5.074  -6.772  1.00  0.00    -0.000 C 
BRANCH  21  22
ATOM     22  C   UNL     1       5.101   5.419  -6.076  1.00  0.00    -0.000 C 
BRANCH  22  23
ATOM     23  C   UNL     1       5.258   5.610  -4.559  1.00  0.00    -0.000 C 
BRANCH  23  24
ATOM     24  C   UNL     1       3.978   5.273  -3.778  1.00  0.00    -0.000 C 
BRANCH  24  25
ATOM     25  C   UNL     1       3.211   6.550  -3.412  1.00  0.00    -0.003 C 
ATOM     26  C   UNL     1       2.396   7.063  -4.597  1.00  0.00     0.004 C 
ENDBRANCH  24  25
ENDBRANCH  23  24
ENDBRANCH  22  23
ENDBRANCH  21  22
ENDBRANCH  20  21
ENDBRANCH  19  20
ENDBRANCH  18  19
ENDBRANCH  17  18
ENDBRANCH  16  17
ENDBRANCH  15  16
ENDBRANCH   1  15
TORSDOF 22
ENDMDL
MODEL 2
REMARK VINA RESULT:    -3.613      2.687      5.342
REMARK INTER + INTRA:         -11.874
REMARK INTER:                  -8.727
REMARK INTRA:                  -3.147
REMARK UNBOUND:                -3.615
REMARK SMILES CCCCCCCCCCCCCCCCCCCCCCCC(=O)[O-]
REMARK SMILES IDX 13 1 14 2 15 3 16 4 17 5 18 6 19 7 20 8 21 9 22 10 23 11
REMARK SMILES IDX 24 12 25 13 26 14 12 15 11 16 10 17 9 18 8 19 7 20 6 21 5 22
REMARK SMILES IDX 4 23 3 24 2 25 1 26
REMARK H PARENT
REMARK Flexibility Score: inf
ROOT
ATOM      1  C   UNL     1       1.687   1.816  -4.534  1.00  0.00     0.000 C 
ENDROOT
BRANCH   1   2
ATOM      2  C   UNL     1       1.039   0.428  -4.701  1.00  0.00     0.000 C 
BRANCH   2   3
ATOM      3  C   UNL     1       2.078  -0.695  -4.846  1.00  0.00     0.000 C 
BRANCH   3   4
ATOM      4  C   UNL     1       3.504  -0.134  -4.808  1.00  0.00     0.000 C 
BRANCH   4   5
ATOM      5  C   UNL     1       4.365  -0.886  -3.782  1.00  0.00     0.000 C 
BRANCH   5   6
ATOM      6  C   UNL     1       5.393   0.021  -3.087  1.00  0.00     0.000 C 
BRANCH   6   7
ATOM      7  C   UNL     1       5.263   1.494  -3.502  1.00  0.00     0.000 C 
BRANCH   7   8
ATOM      8  C   UNL     1       6.585   2.019  -4.076  1.00  0.00     0.000 C 
BRANCH   8   9
ATOM      9  C   UNL     1       6.421   2.456  -5.537  1.00  0.00     0.000 C 
BRANCH   9  10
ATOM     10  C   UNL     1       6.444   1.243  -6.476  1.00  0.00     0.006 C 
BRANCH  10  11
ATOM     11  C   UNL     1       7.670   0.363  -6.214  1.00  0.00     0.053 C 
BRANCH  11  12
ATOM     12  C   UNL     1       7.273  -1.079  -6.133  1.00  0.00     0.041 C 
ATOM     13  O   UNL     1       7.927  -1.875  -5.407  1.00  0.00    -0.550 OA
ATOM     14  O   UNL     1       6.135  -1.524  -6.791  1.00  0.00    -0.550 OA
ENDBRANCH  11  12
ENDBRANCH  10  11
ENDBRANCH   9  10
ENDBRANCH   8   9
ENDBRANCH   7   8
ENDBRANCH   6   7
ENDBRANCH   5   6
ENDBRANCH   4   5
ENDBRANCH   3   4
ENDBRANCH   2   3
ENDBRANCH   1   2
BRANCH   1  15
ATOM     15  C   UNL     1       1.620   2.701  -5.793  1.00  0.00     0.000 C 
BRANCH  15  16
ATOM     16  C   UNL     1       2.847   3.617  -5.934  1.00  0.00     0.000 C 
BRANCH  16  17
ATOM     17  C   UNL     1       3.331   4.176  -4.585  1.00  0.00     0.000 C 
BRANCH  17  18
ATOM     18  C   UNL     1       3.813   5.641  -4.658  1.00  0.00    -0.000 C 
BRANCH  18  19
ATOM     19  C   UNL     1       3.149   6.528  -3.588  1.00  0.00    -0.000 C 
BRANCH  19  20
ATOM     20  C   UNL     1       2.194   7.571  -4.198  1.00  0.00    -0.000 C 
BRANCH  20  21
ATOM     21  C   UNL     1       1.914   7.359  -5.698  1.00  0.00    -0.000 C 
BRANCH  21  22
ATOM     22  C   UNL     1       0.410   7.361  -6.020  1.00  0.00    -0.000 C 
BRANCH  22  23
ATOM     23  C   UNL     1      -0.435   7.996  -4.904  1.00  0.00    -0.000 C 
BRANCH  23  24
ATOM     24  C   UNL     1      -1.917   7.595  -4.974  1.00  0.00    -0.000 C 
BRANCH  24  25
ATOM     25  C   UNL     1      -2.124   6.439  -5.960  1.00  0.00    -0.003 C 
ATOM     26  C   UNL     1      -3.225   5.496  -5.483  1.00  0.00     0.004 C 
ENDBRANCH  24  25
ENDBRANCH  23  24
ENDBRANCH  22  23
ENDBRANCH  21  22
ENDBRANCH  20  21
ENDBRANCH  19  20
ENDBRANCH  18  19
ENDBRANCH  17  18
ENDBRANCH  16  17
ENDBRANCH  15  16
ENDBRANCH   1  15
TORSDOF 22
ENDMDL
MODEL 3
REMARK VINA RESULT:    -3.541      2.683      5.103
REMARK INTER + INTRA:         -11.710
REMARK INTER:                  -8.173
REMARK INTRA:                  -3.537
REMARK UNBOUND:                -3.615
REMARK SMILES CCCCCCCCCCCCCCCCCCCCCCCC(=O)[O-]
REMARK SMILES IDX 13 1 14 2 15 3 16 4 17 5 18 6 19 7 20 8 21 9 22 10 23 11
REMARK SMILES IDX 24 12 25 13 26 14 12 15 11 16 10 17 9 18 8 19 7 20 6 21 5 22
REMARK SMILES IDX 4 23 3 24 2 25 1 26
REMARK H PARENT
REMARK Flexibility Score: inf
ROOT
ATOM      1  C   UNL     1       2.642   3.262  -4.726  1.00  0.00     0.000 C 
ENDROOT
BRANCH   1   2
ATOM      2  C   UNL     1       2.934   3.535  -6.214  1.00  0.00     0.000 C 
BRANCH   2   3
ATOM      3  C   UNL     1       1.744   3.189  -7.122  1.00  0.00     0.000 C 
BRANCH   3   4
ATOM      4  C   UNL     1       0.454   3.038  -6.307  1.00  0.00     0.000 C 
BRANCH   4   5
ATOM      5  C   UNL     1      -0.046   1.586  -6.331  1.00  0.00     0.000 C 
BRANCH   5   6
ATOM      6  C   UNL     1      -0.247   1.002  -4.924  1.00  0.00     0.000 C 
BRANCH   6   7
ATOM      7  C   UNL     1       0.878   0.040  -4.513  1.00  0.00     0.000 C 
BRANCH   7   8
ATOM      8  C   UNL     1       1.605  -0.510  -5.746  1.00  0.00     0.000 C 
BRANCH   8   9
ATOM      9  C   UNL     1       3.094  -0.141  -5.723  1.00  0.00     0.000 C 
BRANCH   9  10
ATOM     10  C   UNL     1       3.610  -0.040  -4.282  1.00  0.00     0.006 C 
BRANCH  10  11
ATOM     11  C   UNL     1       4.636  -1.137  -3.983  1.00  0.00     0.053 C 
BRANCH  11  12
ATOM     12  C   UNL     1       5.892  -0.907  -4.768  1.00  0.00     0.041 C 
ATOM     13  O   UNL     1       6.534   0.170  -4.633  1.00  0.00    -0.550 OA
ATOM     14  O   UNL     1       6.396  -1.912  -5.583  1.00  0.00    -0.550 OA
ENDBRANCH  11  12
ENDBRANCH  10  11
ENDBRANCH   9  10
ENDBRANCH   8   9
ENDBRANCH   7   8
ENDBRANCH   6   7
ENDBRANCH   5   6
ENDBRANCH   4   5
ENDBRANCH   3   4
ENDBRANCH   2   3
ENDBRANCH   1   2
BRANCH   1  15
ATOM     15  C   UNL     1       3.814   3.586  -3.781  1.00  0.00     0.000 C 
BRANCH  15  16
ATOM     16  C   UNL     1       4.966   4.308  -4.500  1.00  0.00     0.000 C 
BRANCH  16  17
ATOM     17  C   UNL     1       4.955   5.829  -4.265  1.00  0.00     0.000 C 
BRANCH  17  18
ATOM     18  C   UNL     1       3.946   6.282  -3.188  1.00  0.00    -0.000 C 
BRANCH  18  19
ATOM     19  C   UNL     1       2.736   7.017  -3.795  1.00  0.00    -0.000 C 
BRANCH  19  20
ATOM     20  C   UNL     1       2.723   6.957  -5.334  1.00  0.00    -0.000 C 
BRANCH  20  21
ATOM     21  C   UNL     1       1.339   7.225  -5.958  1.00  0.00    -0.000 C 
BRANCH  21  22
ATOM     22  C   UNL     1       0.369   7.893  -4.968  1.00  0.00    -0.000 C 
BRANCH  22  23
ATOM     23  C   UNL     1      -1.105   7.689  -5.353  1.00  0.00    -0.000 C 
BRANCH  23  24
ATOM     24  C   UNL     1      -1.325   6.459  -6.249  1.00  0.00    -0.000 C 
BRANCH  24  25
ATOM     25  C   UNL     1      -2.609   5.720  -5.855  1.00  0.00    -0.003 C 
ATOM     26  C   UNL     1      -2.914   4.585  -6.828  1.00  0.00     0.004 C 
ENDBRANCH  24  25
ENDBRANCH  23  24
ENDBRANCH  22  23
ENDBRANCH  21  22
ENDBRANCH  20  21
ENDBRANCH  19  20
ENDBRANCH  18  19
ENDBRANCH  17  18
ENDBRANCH  16  17
ENDBRANCH  15  16
ENDBRANCH   1  15
TORSDOF 22
ENDMDL
MODEL 4
REMARK VINA RESULT:    -3.467      2.967      5.850
REMARK INTER + INTRA:         -11.541
REMARK INTER:                  -7.954
REMARK INTRA:                  -3.587
REMARK UNBOUND:                -3.615
REMARK SMILES CCCCCCCCCCCCCCCCCCCCCCCC(=O)[O-]
REMARK SMILES IDX 13 1 14 2 15 3 16 4 17 5 18 6 19 7 20 8 21 9 22 10 23 11
REMARK SMILES IDX 24 12 25 13 26 14 12 15 11 16 10 17 9 18 8 19 7 20 6 21 5 22
REMARK SMILES IDX 4 23 3 24 2 25 1 26
REMARK H PARENT
REMARK Flexibility Score: inf
ROOT
ATOM      1  C   UNL     1       0.676   0.944  -4.521  1.00  0.00     0.000 C 
ENDROOT
BRANCH   1   2
ATOM      2  C   UNL     1      -0.249   1.737  -5.463  1.00  0.00     0.000 C 
BRANCH   2   3
ATOM      3  C   UNL     1       0.240   1.723  -6.919  1.00  0.00     0.000 C 
BRANCH   3   4
ATOM      4  C   UNL     1       1.684   2.230  -7.021  1.00  0.00     0.000 C 
BRANCH   4   5
ATOM      5  C   UNL     1       1.768   3.725  -6.679  1.00  0.00     0.000 C 
BRANCH   5   6
ATOM      6  C   UNL     1       3.112   4.117  -6.044  1.00  0.00     0.000 C 
BRANCH   6   7
ATOM      7  C   UNL     1       3.316   3.497  -4.654  1.00  0.00     0.000 C 
BRANCH   7   8
ATOM      8  C   UNL     1       3.535   4.586  -3.596  1.00  0.00     0.000 C 
BRANCH   8   9
ATOM      9  C   UNL     1       3.769   5.955  -4.250  1.00  0.00     0.000 C 
BRANCH   9  10
ATOM     10  C   UNL     1       2.714   6.968  -3.788  1.00  0.00     0.006 C 
BRANCH  10  11
ATOM     11  C   UNL     1       2.036   7.644  -4.983  1.00  0.00     0.053 C 
BRANCH  11  12
ATOM     12  C   UNL     1       0.562   7.374  -4.971  1.00  0.00     0.041 C 
ATOM     13  O   UNL     1       0.030   6.726  -5.913  1.00  0.00    -0.550 OA
ATOM     14  O   UNL     1      -0.207   7.764  -3.883  1.00  0.00    -0.550 OA
ENDBRANCH  11  12
ENDBRANCH  10  11
ENDBRANCH   9  10
ENDBRANCH   8   9
ENDBRANCH   7   8
ENDBRANCH   6   7
ENDBRANCH   5   6
ENDBRANCH   4   5
ENDBRANCH   3   4
ENDBRANCH   2   3
ENDBRANCH   1   2
BRANCH   1  15
ATOM     15  C   UNL     1       0.662  -0.579  -4.755  1.00  0.00     0.000 C 
BRANCH  15  16
ATOM     16  C   UNL     1       2.074  -1.188  -4.743  1.00  0.00     0.000 C 
BRANCH  16  17
ATOM     17  C   UNL     1       3.183  -0.122  -4.758  1.00  0.00     0.000 C 
BRANCH  17  18
ATOM     18  C   UNL     1       4.519  -0.609  -4.154  1.00  0.00    -0.000 C 
BRANCH  18  19
ATOM     19  C   UNL     1       5.110   0.403  -3.154  1.00  0.00    -0.000 C 
BRANCH  19  20
ATOM     20  C   UNL     1       6.121   1.359  -3.814  1.00  0.00    -0.000 C 
BRANCH  20  21
ATOM     21  C   UNL     1       6.194   1.231  -5.347  1.00  0.00    -0.000 C 
BRANCH  21  22
ATOM     22  C   UNL     1       7.633   1.345  -5.878  1.00  0.00    -0.000 C 
BRANCH  22  23
ATOM     23  C   UNL     1       8.021   2.789  -6.236  1.00  0.00    -0.000 C 
BRANCH  23  24
ATOM     24  C   UNL     1       6.875   3.569  -6.901  1.00  0.00    -0.000 C 
BRANCH  24  25
ATOM     25  C   UNL     1       6.642   4.908  -6.191  1.00  0.00    -0.003 C 
ATOM     26  C   UNL     1       7.424   4.982  -4.882  1.00  0.00     0.004 C 
ENDBRANCH  24  25
ENDBRANCH  23  24
ENDBRANCH  22  23
ENDBRANCH  21  22
ENDBRANCH  20  21
ENDBRANCH  19  20
ENDBRANCH  18  19
ENDBRANCH  17  18
ENDBRANCH  16  17
ENDBRANCH  15  16
ENDBRANCH   1  15
TORSDOF 22
ENDMDL
MODEL 5
REMARK VINA RESULT:    -3.387      2.950      6.290
REMARK INTER + INTRA:         -11.358
REMARK INTER:                  -7.321
REMARK INTRA:                  -4.037
REMARK UNBOUND:                -3.615
REMARK SMILES CCCCCCCCCCCCCCCCCCCCCCCC(=O)[O-]
REMARK SMILES IDX 13 1 14 2 15 3 16 4 17 5 18 6 19 7 20 8 21 9 22 10 23 11
REMARK SMILES IDX 24 12 25 13 26 14 12 15 11 16 10 17 9 18 8 19 7 20 6 21 5 22
REMARK SMILES IDX 4 23 3 24 2 25 1 26
REMARK H PARENT
REMARK Flexibility Score: inf
ROOT
ATOM      1  C   UNL     1       4.674  -0.612  -4.508  1.00  0.00     0.000 C 
ENDROOT
BRANCH   1   2
ATOM      2  C   UNL     1       6.165  -0.874  -4.794  1.00  0.00     0.000 C 
BRANCH   2   3
ATOM      3  C   UNL     1       6.549  -0.569  -6.250  1.00  0.00     0.000 C 
BRANCH   3   4
ATOM      4  C   UNL     1       7.737   0.399  -6.316  1.00  0.00     0.000 C 
BRANCH   4   5
ATOM      5  C   UNL     1       7.269   1.855  -6.179  1.00  0.00     0.000 C 
BRANCH   5   6
ATOM      6  C   UNL     1       7.578   2.452  -4.797  1.00  0.00     0.000 C 
BRANCH   6   7
ATOM      7  C   UNL     1       6.901   3.812  -4.570  1.00  0.00     0.000 C 
BRANCH   7   8
ATOM      8  C   UNL     1       6.488   4.446  -5.904  1.00  0.00     0.000 C 
BRANCH   8   9
ATOM      9  C   UNL     1       5.537   5.630  -5.686  1.00  0.00     0.000 C 
BRANCH   9  10
ATOM     10  C   UNL     1       4.282   5.189  -4.923  1.00  0.00     0.006 C 
BRANCH  10  11
ATOM     11  C   UNL     1       3.856   6.246  -3.899  1.00  0.00     0.053 C 
BRANCH  11  12
ATOM     12  C   UNL     1       2.562   6.881  -4.309  1.00  0.00     0.041 C 
ATOM     13  O   UNL     1       1.661   7.090  -3.452  1.00  0.00    -0.550 OA
ATOM     14  O   UNL     1       2.383   7.313  -5.616  1.00  0.00    -0.550 OA
ENDBRANCH  11  12
ENDBRANCH  10  11
ENDBRANCH   9  10
ENDBRANCH   8   9
ENDBRANCH   7   8
ENDBRANCH   6   7
ENDBRANCH   5   6
ENDBRANCH   4   5
ENDBRANCH   3   4
ENDBRANCH   2   3
ENDBRANCH   1   2
BRANCH   1  15
ATOM     15  C   UNL     1       4.391   0.731  -3.805  1.00  0.00     0.000 C 
BRANCH  15  16
ATOM     16  C   UNL     1       3.619   1.712  -4.703  1.00  0.00     0.000 C 
BRANCH  16  17
ATOM     17  C   UNL     1       3.761   1.388  -6.200  1.00  0.00     0.000 C 
BRANCH  17  18
ATOM     18  C   UNL     1       3.059   2.407  -7.124  1.00  0.00    -0.000 C 
BRANCH  18  19
ATOM     19  C   UNL     1       1.967   3.206  -6.389  1.00  0.00    -0.000 C 
BRANCH  19  20
ATOM     20  C   UNL     1       0.567   2.983  -6.993  1.00  0.00    -0.000 C 
BRANCH  20  21
ATOM     21  C   UNL     1      -0.471   2.453  -5.987  1.00  0.00    -0.000 C 
BRANCH  21  22
ATOM     22  C   UNL     1      -0.120   1.048  -5.467  1.00  0.00    -0.000 C 
BRANCH  22  23
ATOM     23  C   UNL     1       0.177   0.053  -6.600  1.00  0.00    -0.000 C 
BRANCH  23  24
ATOM     24  C   UNL     1       1.000  -1.158  -6.133  1.00  0.00    -0.000 C 
BRANCH  24  25
ATOM     25  C   UNL     1       0.871  -1.352  -4.617  1.00  0.00    -0.003 C 
ATOM     26  C   UNL     1       1.283  -2.763  -4.205  1.00  0.00     0.004 C 
ENDBRANCH  24  25
ENDBRANCH  23  24
ENDBRANCH  22  23
ENDBRANCH  21  22
ENDBRANCH  20  21
ENDBRANCH  19  20
ENDBRANCH  18  19
ENDBRANCH  17  18
ENDBRANCH  16  17
ENDBRANCH  15  16
ENDBRANCH   1  15
TORSDOF 22
ENDMDL
MODEL 6
REMARK VINA RESULT:    -3.353      1.184      2.483
REMARK INTER + INTRA:         -11.281
REMARK INTER:                  -8.100
REMARK INTRA:                  -3.181
REMARK UNBOUND:                -3.615
REMARK SMILES CCCCCCCCCCCCCCCCCCCCCCCC(=O)[O-]
REMARK SMILES IDX 13 1 14 2 15 3 16 4 17 5 18 6 19 7 20 8 21 9 22 10 23 11
REMARK SMILES IDX 24 12 25 13 26 14 12 15 11 16 10 17 9 18 8 19 7 20 6 21 5 22
REMARK SMILES IDX 4 23 3 24 2 25 1 26
REMARK H PARENT
REMARK Flexibility Score: inf
ROOT
ATOM      1  C   UNL     1       5.671   0.347  -4.263  1.00  0.00     0.000 C 
ENDROOT
BRANCH   1   2
ATOM      2  C   UNL     1       6.367  -0.276  -5.488  1.00  0.00     0.000 C 
BRANCH   2   3
ATOM      3  C   UNL     1       5.548  -0.114  -6.778  1.00  0.00     0.000 C 
BRANCH   3   4
ATOM      4  C   UNL     1       4.106   0.305  -6.466  1.00  0.00     0.000 C 
BRANCH   4   5
ATOM      5  C   UNL     1       3.852   1.758  -6.895  1.00  0.00     0.000 C 
BRANCH   5   6
ATOM      6  C   UNL     1       2.996   2.536  -5.883  1.00  0.00     0.000 C 
BRANCH   6   7
ATOM      7  C   UNL     1       1.578   2.824  -6.399  1.00  0.00     0.000 C 
BRANCH   7   8
ATOM      8  C   UNL     1       0.569   1.831  -5.809  1.00  0.00     0.000 C 
BRANCH   8   9
ATOM      9  C   UNL     1       0.146   0.785  -6.848  1.00  0.00     0.000 C 
BRANCH   9  10
ATOM     10  C   UNL     1       0.527  -0.628  -6.387  1.00  0.00     0.006 C 
BRANCH  10  11
ATOM     11  C   UNL     1       0.359  -0.780  -4.872  1.00  0.00     0.053 C 
BRANCH  11  12
ATOM     12  C   UNL     1       0.866  -2.115  -4.420  1.00  0.00     0.041 C 
ATOM     13  O   UNL     1       1.314  -2.940  -5.262  1.00  0.00    -0.550 OA
ATOM     14  O   UNL     1       0.920  -2.416  -3.066  1.00  0.00    -0.550 OA
ENDBRANCH  11  12
ENDBRANCH  10  11
ENDBRANCH   9  10
ENDBRANCH   8   9
ENDBRANCH   7   8
ENDBRANCH   6   7
ENDBRANCH   5   6
ENDBRANCH   4   5
ENDBRANCH   3   4
ENDBRANCH   2   3
ENDBRANCH   1   2
BRANCH   1  15
ATOM     15  C   UNL     1       6.194   1.746  -3.883  1.00  0.00     0.000 C 
BRANCH  15  16
ATOM     16  C   UNL     1       7.070   2.366  -4.985  1.00  0.00     0.000 C 
BRANCH  16  17
ATOM     17  C   UNL     1       7.215   3.891  -4.844  1.00  0.00     0.000 C 
BRANCH  17  18
ATOM     18  C   UNL     1       6.674   4.679  -6.056  1.00  0.00    -0.000 C 
BRANCH  18  19
ATOM     19  C   UNL     1       5.385   5.452  -5.722  1.00  0.00    -0.000 C 
BRANCH  19  20
ATOM     20  C   UNL     1       5.021   5.370  -4.227  1.00  0.00    -0.000 C 
BRANCH  20  21
ATOM     21  C   UNL     1       3.508   5.439  -3.948  1.00  0.00    -0.000 C 
BRANCH  21  22
ATOM     22  C   UNL     1       3.043   6.859  -3.582  1.00  0.00    -0.000 C 
BRANCH  22  23
ATOM     23  C   UNL     1       1.969   7.398  -4.542  1.00  0.00    -0.000 C 
BRANCH  23  24
ATOM     24  C   UNL     1       2.073   6.798  -5.953  1.00  0.00    -0.000 C 
BRANCH  24  25
ATOM     25  C   UNL     1       0.680   6.520  -6.531  1.00  0.00    -0.003 C 
ATOM     26  C   UNL     1      -0.335   7.551  -6.046  1.00  0.00     0.004 C 
ENDBRANCH  24  25
ENDBRANCH  23  24
ENDBRANCH  22  23
ENDBRANCH  21  22
ENDBRANCH  20  21
ENDBRANCH  19  20
ENDBRANCH  18  19
ENDBRANCH  17  18
ENDBRANCH  16  17
ENDBRANCH  15  16
ENDBRANCH   1  15
TORSDOF 22
ENDMDL
MODEL 7
REMARK VINA RESULT:    -3.178      3.030      5.497
REMARK INTER + INTRA:         -10.881
REMARK INTER:                  -7.560
REMARK INTRA:                  -3.321
REMARK UNBOUND:                -3.615
REMARK SMILES CCCCCCCCCCCCCCCCCCCCCCCC(=O)[O-]
REMARK SMILES IDX 13 1 14 2 15 3 16 4 17 5 18 6 19 7 20 8 21 9 22 10 23 11
REMARK SMILES IDX 24 12 25 13 26 14 12 15 11 16 10 17 9 18 8 19 7 20 6 21 5 22
REMARK SMILES IDX 4 23 3 24 2 25 1 26
REMARK H PARENT
REMARK Flexibility Score: inf
ROOT
ATOM      1  C   UNL     1       2.206  -0.674  -4.956  1.00  0.00     0.000 C 
ENDROOT
BRANCH   1   2
ATOM      2  C   UNL     1       0.758  -0.212  -4.704  1.00  0.00     0.000 C 
BRANCH   2   3
ATOM      3  C   UNL     1       0.142   0.489  -5.925  1.00  0.00     0.000 C 
BRANCH   3   4
ATOM      4  C   UNL     1       1.209   1.253  -6.718  1.00  0.00     0.000 C 
BRANCH   4   5
ATOM      5  C   UNL     1       1.359   2.690  -6.196  1.00  0.00     0.000 C 
BRANCH   5   6
ATOM      6  C   UNL     1       2.744   2.959  -5.587  1.00  0.00     0.000 C 
BRANCH   6   7
ATOM      7  C   UNL     1       2.749   2.864  -4.054  1.00  0.00     0.000 C 
BRANCH   7   8
ATOM      8  C   UNL     1       3.999   3.533  -3.468  1.00  0.00     0.000 C 
BRANCH   8   9
ATOM      9  C   UNL     1       4.791   4.275  -4.552  1.00  0.00     0.000 C 
BRANCH   9  10
ATOM     10  C   UNL     1       4.928   5.763  -4.207  1.00  0.00     0.006 C 
BRANCH  10  11
ATOM     11  C   UNL     1       3.742   6.248  -3.368  1.00  0.00     0.053 C 
BRANCH  11  12
ATOM     12  C   UNL     1       2.671   6.810  -4.251  1.00  0.00     0.041 C 
ATOM     13  O   UNL     1       1.659   7.366  -3.744  1.00  0.00    -0.550 OA
ATOM     14  O   UNL     1       2.828   6.795  -5.631  1.00  0.00    -0.550 OA
ENDBRANCH  11  12
ENDBRANCH  10  11
ENDBRANCH   9  10
ENDBRANCH   8   9
ENDBRANCH   7   8
ENDBRANCH   6   7
ENDBRANCH   5   6
ENDBRANCH   4   5
ENDBRANCH   3   4
ENDBRANCH   2   3
ENDBRANCH   1   2
BRANCH   1  15
ATOM     15  C   UNL     1       2.725  -1.710  -3.940  1.00  0.00     0.000 C 
BRANCH  15  16
ATOM     16  C   UNL     1       4.248  -1.628  -3.743  1.00  0.00     0.000 C 
BRANCH  16  17
ATOM     17  C   UNL     1       4.730  -0.204  -3.418  1.00  0.00     0.000 C 
BRANCH  17  18
ATOM     18  C   UNL     1       5.555   0.445  -4.552  1.00  0.00    -0.000 C 
BRANCH  18  19
ATOM     19  C   UNL     1       6.275  -0.601  -5.422  1.00  0.00    -0.000 C 
BRANCH  19  20
ATOM     20  C   UNL     1       7.374   0.023  -6.303  1.00  0.00    -0.000 C 
BRANCH  20  21
ATOM     21  C   UNL     1       7.168   1.523  -6.590  1.00  0.00    -0.000 C 
BRANCH  21  22
ATOM     22  C   UNL     1       8.355   2.379  -6.117  1.00  0.00    -0.000 C 
BRANCH  22  23
ATOM     23  C   UNL     1       8.151   2.947  -4.703  1.00  0.00    -0.000 C 
BRANCH  23  24
ATOM     24  C   UNL     1       8.899   4.271  -4.477  1.00  0.00    -0.000 C 
BRANCH  24  25
ATOM     25  C   UNL     1       9.125   5.004  -5.804  1.00  0.00    -0.003 C 
ATOM     26  C   UNL     1       8.165   6.180  -5.956  1.00  0.00     0.004 C 
ENDBRANCH  24  25
ENDBRANCH  23  24
ENDBRANCH  22  23
ENDBRANCH  21  22
ENDBRANCH  20  21
ENDBRANCH  19  20
ENDBRANCH  18  19
ENDBRANCH  17  18
ENDBRANCH  16  17
ENDBRANCH  15  16
ENDBRANCH   1  15
TORSDOF 22
ENDMDL
MODEL 8
REMARK VINA RESULT:    -3.177      2.297      3.683
REMARK INTER + INTRA:         -10.878
REMARK INTER:                  -8.798
REMARK INTRA:                  -2.081
REMARK UNBOUND:                -3.615
REMARK SMILES CCCCCCCCCCCCCCCCCCCCCCCC(=O)[O-]
REMARK SMILES IDX 13 1 14 2 15 3 16 4 17 5 18 6 19 7 20 8 21 9 22 10 23 11
REMARK SMILES IDX 24 12 25 13 26 14 12 15 11 16 10 17 9 18 8 19 7 20 6 21 5 22
REMARK SMILES IDX 4 23 3 24 2 25 1 26
REMARK H PARENT
REMARK Flexibility Score: inf
ROOT
ATOM      1  C   UNL     1       5.360   1.042  -3.456  1.00  0.00     0.000 C 
ENDROOT
BRANCH   1   2
ATOM      2  C   UNL     1       5.641   0.042  -4.593  1.00  0.00     0.000 C 
BRANCH   2   3
ATOM      3  C   UNL     1       6.393   0.682  -5.769  1.00  0.00     0.000 C 
BRANCH   3   4
ATOM      4  C   UNL     1       5.480   0.829  -6.993  1.00  0.00     0.000 C 
BRANCH   4   5
ATOM      5  C   UNL     1       4.222  -0.040  -6.848  1.00  0.00     0.000 C 
BRANCH   5   6
ATOM      6  C   UNL     1       2.925   0.743  -7.106  1.00  0.00     0.000 C 
BRANCH   6   7
ATOM      7  C   UNL     1       2.447   1.526  -5.874  1.00  0.00     0.000 C 
BRANCH   7   8
ATOM      8  C   UNL     1       1.146   2.280  -6.175  1.00  0.00     0.000 C 
BRANCH   8   9
ATOM      9  C   UNL     1      -0.041   1.660  -5.427  1.00  0.00     0.000 C 
BRANCH   9  10
ATOM     10  C   UNL     1       0.444   0.738  -4.302  1.00  0.00     0.006 C 
BRANCH  10  11
ATOM     11  C   UNL     1      -0.253  -0.625  -4.364  1.00  0.00     0.053 C 
BRANCH  11  12
ATOM     12  C   UNL     1       0.755  -1.722  -4.510  1.00  0.00     0.041 C 
ATOM     13  O   UNL     1       1.148  -2.360  -3.495  1.00  0.00    -0.550 OA
ATOM     14  O   UNL     1       1.199  -2.096  -5.771  1.00  0.00    -0.550 OA
ENDBRANCH  11  12
ENDBRANCH  10  11
ENDBRANCH   9  10
ENDBRANCH   8   9
ENDBRANCH   7   8
ENDBRANCH   6   7
ENDBRANCH   5   6
ENDBRANCH   4   5
ENDBRANCH   3   4
ENDBRANCH   2   3
ENDBRANCH   1   2
BRANCH   1  15
ATOM     15  C   UNL     1       5.733   2.500  -3.789  1.00  0.00     0.000 C 
BRANCH  15  16
ATOM     16  C   UNL     1       4.568   3.273  -4.429  1.00  0.00     0.000 C 
BRANCH  16  17
ATOM     17  C   UNL     1       3.783   4.119  -3.411  1.00  0.00     0.000 C 
BRANCH  17  18
ATOM     18  C   UNL     1       4.094   5.629  -3.490  1.00  0.00    -0.000 C 
BRANCH  18  19
ATOM     19  C   UNL     1       2.909   6.440  -4.048  1.00  0.00    -0.000 C 
BRANCH  19  20
ATOM     20  C   UNL     1       2.722   6.241  -5.564  1.00  0.00    -0.000 C 
BRANCH  20  21
ATOM     21  C   UNL     1       1.710   7.212  -6.201  1.00  0.00    -0.000 C 
BRANCH  21  22
ATOM     22  C   UNL     1       0.304   6.600  -6.320  1.00  0.00    -0.000 C 
BRANCH  22  23
ATOM     23  C   UNL     1      -0.785   7.489  -5.698  1.00  0.00    -0.000 C 
BRANCH  23  24
ATOM     24  C   UNL     1      -2.207   6.978  -5.980  1.00  0.00    -0.000 C 
BRANCH  24  25
ATOM     25  C   UNL     1      -2.890   6.523  -4.685  1.00  0.00    -0.003 C 
ATOM     26  C   UNL     1      -3.922   7.545  -4.215  1.00  0.00     0.004 C 
ENDBRANCH  24  25
ENDBRANCH  23  24
ENDBRANCH  22  23
ENDBRANCH  21  22
ENDBRANCH  20  21
ENDBRANCH  19  20
ENDBRANCH  18  19
ENDBRANCH  17  18
ENDBRANCH  16  17
ENDBRANCH  15  16
ENDBRANCH   1  15
TORSDOF 22
ENDMDL
MODEL 9
REMARK VINA RESULT:    -3.165      2.556      5.207
REMARK INTER + INTRA:         -10.851
REMARK INTER:                  -7.869
REMARK INTRA:                  -2.982
REMARK UNBOUND:                -3.615
REMARK SMILES CCCCCCCCCCCCCCCCCCCCCCCC(=O)[O-]
REMARK SMILES IDX 13 1 14 2 15 3 16 4 17 5 18 6 19 7 20 8 21 9 22 10 23 11
REMARK SMILES IDX 24 12 25 13 26 14 12 15 11 16 10 17 9 18 8 19 7 20 6 21 5 22
REMARK SMILES IDX 4 23 3 24 2 25 1 26
REMARK H PARENT
REMARK Flexibility Score: inf
ROOT
ATOM      1  C   UNL     1       4.328   4.186  -5.352  1.00  0.00     0.000 C 
ENDROOT
BRANCH   1   2
ATOM      2  C   UNL     1       5.831   4.041  -5.656  1.00  0.00     0.000 C 
BRANCH   2   3
ATOM      3  C   UNL     1       6.145   2.798  -6.501  1.00  0.00     0.000 C 
BRANCH   3   4
ATOM      4  C   UNL     1       6.909   1.751  -5.681  1.00  0.00     0.000 C 
BRANCH   4   5
ATOM      5  C   UNL     1       6.991   2.164  -4.203  1.00  0.00     0.000 C 
BRANCH   5   6
ATOM      6  C   UNL     1       6.046   1.349  -3.305  1.00  0.00     0.000 C 
BRANCH   6   7
ATOM      7  C   UNL     1       5.459   0.121  -4.017  1.00  0.00     0.000 C 
BRANCH   7   8
ATOM      8  C   UNL     1       3.933   0.227  -4.120  1.00  0.00     0.000 C 
BRANCH   8   9
ATOM      9  C   UNL     1       3.476   0.262  -5.584  1.00  0.00     0.000 C 
BRANCH   9  10
ATOM     10  C   UNL     1       2.236   1.150  -5.749  1.00  0.00     0.006 C 
BRANCH  10  11
ATOM     11  C   UNL     1       1.443   1.241  -4.442  1.00  0.00     0.053 C 
BRANCH  11  12
ATOM     12  C   UNL     1       0.356   0.211  -4.416  1.00  0.00     0.041 C 
ATOM     13  O   UNL     1      -0.301   0.012  -3.358  1.00  0.00    -0.550 OA
ATOM     14  O   UNL     1       0.014  -0.468  -5.577  1.00  0.00    -0.550 OA
ENDBRANCH  11  12
ENDBRANCH  10  11
ENDBRANCH   9  10
ENDBRANCH   8   9
ENDBRANCH   7   8
ENDBRANCH   6   7
ENDBRANCH   5   6
ENDBRANCH   4   5
ENDBRANCH   3   4
ENDBRANCH   2   3
ENDBRANCH   1   2
BRANCH   1  15
ATOM     15  C   UNL     1       3.953   3.939  -3.878  1.00  0.00     0.000 C 
BRANCH  15  16
ATOM     16  C   UNL     1       3.126   5.090  -3.282  1.00  0.00     0.000 C 
BRANCH  16  17
ATOM     17  C   UNL     1       3.550   6.469  -3.817  1.00  0.00     0.000 C 
BRANCH  17  18
ATOM     18  C   UNL     1       2.361   7.379  -4.194  1.00  0.00    -0.000 C 
BRANCH  18  19
ATOM     19  C   UNL     1       2.073   7.366  -5.707  1.00  0.00    -0.000 C 
BRANCH  19  20
ATOM     20  C   UNL     1       0.565   7.433  -6.019  1.00  0.00    -0.000 C 
BRANCH  20  21
ATOM     21  C   UNL     1      -0.290   7.974  -4.857  1.00  0.00    -0.000 C 
BRANCH  21  22
ATOM     22  C   UNL     1      -1.788   8.023  -5.205  1.00  0.00    -0.000 C 
BRANCH  22  23
ATOM     23  C   UNL     1      -2.551   6.782  -4.715  1.00  0.00    -0.000 C 
BRANCH  23  24
ATOM     24  C   UNL     1      -3.386   6.118  -5.821  1.00  0.00    -0.000 C 
BRANCH  24  25
ATOM     25  C   UNL     1      -2.987   4.648  -5.997  1.00  0.00    -0.003 C 
ATOM     26  C   UNL     1      -1.667   4.520  -6.751  1.00  0.00     0.004 C 
ENDBRANCH  24  25
ENDBRANCH  23  24
ENDBRANCH  22  23
ENDBRANCH  21  22
ENDBRANCH  20  21
ENDBRANCH  19  20
ENDBRANCH  18  19
ENDBRANCH  17  18
ENDBRANCH  16  17
ENDBRANCH  15  16
ENDBRANCH   1  15
TORSDOF 22
ENDMDL
