MODEL 1
REMARK VINA RESULT:    -6.917      0.000      0.000
REMARK INTER + INTRA:          -8.656
REMARK INTER:                  -8.333
REMARK INTRA:                  -0.323
REMARK UNBOUND:                -0.323
REMARK SMILES O=c1c(O)c(-c2ccc(O)c(O)c2)oc2cc(O)cc(O)c12
REMARK SMILES IDX 5 1 3 2 2 3 1 4 22 5 20 6 19 7 17 8 16 9 15 10 14 11 6 12
REMARK SMILES IDX 7 13 8 14 9 15 13 16 11 17 10 18 12 20 4 22 21 24 18 26
REMARK H PARENT 10 19 12 21 4 23 21 25 18 27
REMARK Flexibility Score: inf
ROOT
ATOM      1  C   UNL     1      -5.050 -42.469 -33.444  1.00  0.00     0.180 A 
ATOM      2  C   UNL     1      -5.017 -41.159 -33.952  1.00  0.00     0.208 A 
ATOM      3  C   UNL     1      -3.887 -40.732 -34.667  1.00  0.00     0.238 A 
ATOM      4  O   UNL     1      -3.842 -39.541 -35.072  1.00  0.00    -0.285 OA
ATOM      5  C   UNL     1      -2.809 -41.626 -34.879  1.00  0.00     0.111 A 
ATOM      6  C   UNL     1      -1.632 -41.313 -35.623  1.00  0.00     0.134 A 
ATOM      7  C   UNL     1      -0.573 -42.229 -35.658  1.00  0.00     0.093 A 
ATOM      8  C   UNL     1      -0.677 -43.474 -35.030  1.00  0.00     0.123 A 
ATOM      9  C   UNL     1      -1.845 -43.811 -34.351  1.00  0.00     0.094 A 
ATOM     10  C   UNL     1      -2.905 -42.904 -34.269  1.00  0.00     0.146 A 
ATOM     11  O   UNL     1      -3.996 -43.262 -33.603  1.00  0.00    -0.452 OA
ENDROOT
BRANCH   1  12
ATOM     12  C   UNL     1      -6.216 -42.998 -32.703  1.00  0.00     0.025 A 
ATOM     13  C   UNL     1      -6.327 -42.850 -31.312  1.00  0.00     0.016 A 
ATOM     14  C   UNL     1      -7.448 -43.337 -30.637  1.00  0.00     0.051 A 
ATOM     15  C   UNL     1      -8.484 -43.967 -31.335  1.00  0.00     0.157 A 
ATOM     16  C   UNL     1      -7.264 -43.610 -33.408  1.00  0.00     0.062 A 
ATOM     17  C   UNL     1      -8.393 -44.102 -32.741  1.00  0.00     0.158 A 
BRANCH  15  18
ATOM     18  O   UNL     1      -9.576 -44.435 -30.600  1.00  0.00    -0.504 OA
ATOM     19  H   UNL     1     -10.139 -45.229 -30.869  1.00  0.00     0.293 HD
ENDBRANCH  15  18
BRANCH  17  20
ATOM     20  O   UNL     1      -9.390 -44.710 -33.506  1.00  0.00    -0.504 OA
ATOM     21  H   UNL     1      -9.224 -45.471 -34.150  1.00  0.00     0.293 HD
ENDBRANCH  17  20
ENDBRANCH   1  12
BRANCH   2  22
ATOM     22  O   UNL     1      -6.083 -40.286 -33.713  1.00  0.00    -0.502 OA
ATOM     23  H   UNL     1      -6.917 -40.276 -34.288  1.00  0.00     0.293 HD
ENDBRANCH   2  22
BRANCH   6  24
ATOM     24  O   UNL     1      -1.465 -40.138 -36.362  1.00  0.00    -0.507 OA
ATOM     25  H   UNL     1      -0.740 -39.456 -36.200  1.00  0.00     0.293 HD
ENDBRANCH   6  24
BRANCH   8  26
ATOM     26  O   UNL     1       0.375 -44.385 -35.083  1.00  0.00    -0.508 OA
ATOM     27  H   UNL     1       0.213 -45.385 -35.033  1.00  0.00     0.293 HD
ENDBRANCH   8  26
TORSDOF 6
ENDMDL
MODEL 2
REMARK VINA RESULT:    -6.873      3.983      8.629
REMARK INTER + INTRA:          -8.602
REMARK INTER:                  -8.318
REMARK INTRA:                  -0.284
REMARK UNBOUND:                -0.323
REMARK SMILES O=c1c(O)c(-c2ccc(O)c(O)c2)oc2cc(O)cc(O)c12
REMARK SMILES IDX 5 1 3 2 2 3 1 4 22 5 20 6 19 7 17 8 16 9 15 10 14 11 6 12
REMARK SMILES IDX 7 13 8 14 9 15 13 16 11 17 10 18 12 20 4 22 21 24 18 26
REMARK H PARENT 10 19 12 21 4 23 21 25 18 27
REMARK Flexibility Score: inf
ROOT
ATOM      1  C   UNL     1       0.226 -42.966 -36.925  1.00  0.00     0.180 A 
ATOM      2  C   UNL     1      -0.441 -43.809 -36.020  1.00  0.00     0.208 A 
ATOM      3  C   UNL     1      -1.397 -43.257 -35.152  1.00  0.00     0.238 A 
ATOM      4  O   UNL     1      -1.951 -44.008 -34.308  1.00  0.00    -0.285 OA
ATOM      5  C   UNL     1      -1.686 -41.872 -35.212  1.00  0.00     0.111 A 
ATOM      6  C   UNL     1      -2.664 -41.213 -34.409  1.00  0.00     0.134 A 
ATOM      7  C   UNL     1      -2.774 -39.818 -34.459  1.00  0.00     0.093 A 
ATOM      8  C   UNL     1      -1.985 -39.065 -35.332  1.00  0.00     0.123 A 
ATOM      9  C   UNL     1      -1.069 -39.705 -36.163  1.00  0.00     0.094 A 
ATOM     10  C   UNL     1      -0.911 -41.092 -36.110  1.00  0.00     0.146 A 
ATOM     11  O   UNL     1      -0.019 -41.660 -36.912  1.00  0.00    -0.452 OA
ENDROOT
BRANCH   1  12
ATOM     12  C   UNL     1       1.228 -43.478 -37.887  1.00  0.00     0.025 A 
ATOM     13  C   UNL     1       2.605 -43.353 -37.646  1.00  0.00     0.016 A 
ATOM     14  C   UNL     1       3.531 -43.865 -38.557  1.00  0.00     0.051 A 
ATOM     15  C   UNL     1       3.105 -44.522 -39.716  1.00  0.00     0.157 A 
ATOM     16  C   UNL     1       0.797 -44.157 -39.038  1.00  0.00     0.062 A 
ATOM     17  C   UNL     1       1.718 -44.673 -39.958  1.00  0.00     0.158 A 
BRANCH  15  18
ATOM     18  O   UNL     1       4.082 -45.007 -40.587  1.00  0.00    -0.504 OA
ATOM     19  H   UNL     1       3.992 -45.005 -41.593  1.00  0.00     0.293 HD
ENDBRANCH  15  18
BRANCH  17  20
ATOM     20  O   UNL     1       1.218 -45.325 -41.087  1.00  0.00    -0.504 OA
ATOM     21  H   UNL     1       1.052 -44.872 -41.974  1.00  0.00     0.293 HD
ENDBRANCH  17  20
ENDBRANCH   1  12
BRANCH   2  22
ATOM     22  O   UNL     1      -0.126 -45.169 -35.963  1.00  0.00    -0.502 OA
ATOM     23  H   UNL     1      -0.675 -45.876 -36.438  1.00  0.00     0.293 HD
ENDBRANCH   2  22
BRANCH   6  24
ATOM     24  O   UNL     1      -3.564 -41.880 -33.572  1.00  0.00    -0.507 OA
ATOM     25  H   UNL     1      -4.416 -41.479 -33.209  1.00  0.00     0.293 HD
ENDBRANCH   6  24
BRANCH   8  26
ATOM     26  O   UNL     1      -2.111 -37.679 -35.387  1.00  0.00    -0.508 OA
ATOM     27  H   UNL     1      -1.329 -37.066 -35.184  1.00  0.00     0.293 HD
ENDBRANCH   8  26
TORSDOF 6
ENDMDL
MODEL 3
REMARK VINA RESULT:    -6.509      4.306      9.032
REMARK INTER + INTRA:          -8.163
REMARK INTER:                  -7.886
REMARK INTRA:                  -0.278
REMARK UNBOUND:                -0.323
REMARK SMILES O=c1c(O)c(-c2ccc(O)c(O)c2)oc2cc(O)cc(O)c12
REMARK SMILES IDX 5 1 3 2 2 3 1 4 22 5 20 6 19 7 17 8 16 9 15 10 14 11 6 12
REMARK SMILES IDX 7 13 8 14 9 15 13 16 11 17 10 18 12 20 4 22 21 24 18 26
REMARK H PARENT 10 19 12 21 4 23 21 25 18 27
REMARK Flexibility Score: inf
ROOT
ATOM      1  C   UNL     1       1.110 -43.309 -37.318  1.00  0.00     0.180 A 
ATOM      2  C   UNL     1       2.111 -43.506 -36.351  1.00  0.00     0.208 A 
ATOM      3  C   UNL     1       1.823 -43.229 -35.005  1.00  0.00     0.238 A 
ATOM      4  O   UNL     1       2.741 -43.356 -34.153  1.00  0.00    -0.285 OA
ATOM      5  C   UNL     1       0.533 -42.773 -34.641  1.00  0.00     0.111 A 
ATOM      6  C   UNL     1       0.119 -42.500 -33.303  1.00  0.00     0.134 A 
ATOM      7  C   UNL     1      -1.138 -41.928 -33.072  1.00  0.00     0.093 A 
ATOM      8  C   UNL     1      -2.022 -41.682 -34.126  1.00  0.00     0.123 A 
ATOM      9  C   UNL     1      -1.649 -42.001 -35.429  1.00  0.00     0.094 A 
ATOM     10  C   UNL     1      -0.387 -42.539 -35.695  1.00  0.00     0.146 A 
ATOM     11  O   UNL     1      -0.069 -42.818 -36.953  1.00  0.00    -0.452 OA
ENDROOT
BRANCH   1  12
ATOM     12  C   UNL     1       1.331 -43.603 -38.752  1.00  0.00     0.025 A 
ATOM     13  C   UNL     1       2.065 -42.733 -39.573  1.00  0.00     0.016 A 
ATOM     14  C   UNL     1       2.280 -43.043 -40.917  1.00  0.00     0.051 A 
ATOM     15  C   UNL     1       1.781 -44.229 -41.465  1.00  0.00     0.157 A 
ATOM     16  C   UNL     1       0.847 -44.804 -39.294  1.00  0.00     0.062 A 
ATOM     17  C   UNL     1       1.057 -45.124 -40.641  1.00  0.00     0.158 A 
BRANCH  15  18
ATOM     18  O   UNL     1       2.027 -44.478 -42.817  1.00  0.00    -0.504 OA
ATOM     19  H   UNL     1       2.555 -45.268 -43.159  1.00  0.00     0.293 HD
ENDBRANCH  15  18
BRANCH  17  20
ATOM     20  O   UNL     1       0.537 -46.330 -41.114  1.00  0.00    -0.504 OA
ATOM     21  H   UNL     1       0.922 -46.845 -41.893  1.00  0.00     0.293 HD
ENDBRANCH  17  20
ENDBRANCH   1  12
BRANCH   2  22
ATOM     22  O   UNL     1       3.384 -43.937 -36.736  1.00  0.00    -0.502 OA
ATOM     23  H   UNL     1       4.094 -44.206 -36.064  1.00  0.00     0.293 HD
ENDBRANCH   2  22
BRANCH   6  24
ATOM     24  O   UNL     1       0.888 -42.793 -32.173  1.00  0.00    -0.507 OA
ATOM     25  H   UNL     1       1.649 -42.226 -31.832  1.00  0.00     0.293 HD
ENDBRANCH   6  24
BRANCH   8  26
ATOM     26  O   UNL     1      -3.277 -41.129 -33.886  1.00  0.00    -0.508 OA
ATOM     27  H   UNL     1      -3.848 -41.428 -33.103  1.00  0.00     0.293 HD
ENDBRANCH   8  26
TORSDOF 6
ENDMDL
MODEL 4
REMARK VINA RESULT:    -6.415      3.484      6.082
REMARK INTER + INTRA:          -8.051
REMARK INTER:                  -7.775
REMARK INTRA:                  -0.275
REMARK UNBOUND:                -0.323
REMARK SMILES O=c1c(O)c(-c2ccc(O)c(O)c2)oc2cc(O)cc(O)c12
REMARK SMILES IDX 5 1 3 2 2 3 1 4 22 5 20 6 19 7 17 8 16 9 15 10 14 11 6 12
REMARK SMILES IDX 7 13 8 14 9 15 13 16 11 17 10 18 12 20 4 22 21 24 18 26
REMARK H PARENT 10 19 12 21 4 23 21 25 18 27
REMARK Flexibility Score: inf
ROOT
ATOM      1  C   UNL     1      -0.168 -42.433 -36.319  1.00  0.00     0.180 A 
ATOM      2  C   UNL     1       0.890 -41.508 -36.327  1.00  0.00     0.208 A 
ATOM      3  C   UNL     1       1.850 -41.579 -37.348  1.00  0.00     0.238 A 
ATOM      4  O   UNL     1       2.824 -40.782 -37.319  1.00  0.00    -0.285 OA
ATOM      5  C   UNL     1       1.733 -42.565 -38.358  1.00  0.00     0.111 A 
ATOM      6  C   UNL     1       2.625 -42.703 -39.462  1.00  0.00     0.134 A 
ATOM      7  C   UNL     1       2.489 -43.795 -40.329  1.00  0.00     0.093 A 
ATOM      8  C   UNL     1       1.450 -44.717 -40.167  1.00  0.00     0.123 A 
ATOM      9  C   UNL     1       0.539 -44.556 -39.127  1.00  0.00     0.094 A 
ATOM     10  C   UNL     1       0.671 -43.497 -38.225  1.00  0.00     0.146 A 
ATOM     11  O   UNL     1      -0.214 -43.387 -37.242  1.00  0.00    -0.452 OA
ENDROOT
BRANCH   1  12
ATOM     12  C   UNL     1      -1.232 -42.406 -35.289  1.00  0.00     0.025 A 
ATOM     13  C   UNL     1      -2.239 -41.428 -35.305  1.00  0.00     0.016 A 
ATOM     14  C   UNL     1      -3.245 -41.436 -34.337  1.00  0.00     0.051 A 
ATOM     15  C   UNL     1      -3.276 -42.423 -33.346  1.00  0.00     0.157 A 
ATOM     16  C   UNL     1      -1.272 -43.410 -34.310  1.00  0.00     0.062 A 
ATOM     17  C   UNL     1      -2.277 -43.427 -33.335  1.00  0.00     0.158 A 
BRANCH  15  18
ATOM     18  O   UNL     1      -4.307 -42.372 -32.406  1.00  0.00    -0.504 OA
ATOM     19  H   UNL     1      -4.419 -41.631 -31.730  1.00  0.00     0.293 HD
ENDBRANCH  15  18
BRANCH  17  20
ATOM     20  O   UNL     1      -2.248 -44.449 -32.384  1.00  0.00    -0.504 OA
ATOM     21  H   UNL     1      -1.539 -45.168 -32.349  1.00  0.00     0.293 HD
ENDBRANCH  17  20
ENDBRANCH   1  12
BRANCH   2  22
ATOM     22  O   UNL     1       0.998 -40.557 -35.309  1.00  0.00    -0.502 OA
ATOM     23  H   UNL     1       0.230 -40.336 -34.685  1.00  0.00     0.293 HD
ENDBRANCH   2  22
BRANCH   6  24
ATOM     24  O   UNL     1       3.638 -41.789 -39.767  1.00  0.00    -0.507 OA
ATOM     25  H   UNL     1       4.404 -41.554 -39.154  1.00  0.00     0.293 HD
ENDBRANCH   6  24
BRANCH   8  26
ATOM     26  O   UNL     1       1.312 -45.791 -41.043  1.00  0.00    -0.508 OA
ATOM     27  H   UNL     1       1.631 -46.721 -40.796  1.00  0.00     0.293 HD
ENDBRANCH   8  26
TORSDOF 6
ENDMDL
MODEL 5
REMARK VINA RESULT:    -6.403      6.056      8.870
REMARK INTER + INTRA:          -8.036
REMARK INTER:                  -7.706
REMARK INTRA:                  -0.330
REMARK UNBOUND:                -0.323
REMARK SMILES O=c1c(O)c(-c2ccc(O)c(O)c2)oc2cc(O)cc(O)c12
REMARK SMILES IDX 5 1 3 2 2 3 1 4 22 5 20 6 19 7 17 8 16 9 15 10 14 11 6 12
REMARK SMILES IDX 7 13 8 14 9 15 13 16 11 17 10 18 12 20 4 22 21 24 18 26
REMARK H PARENT 10 19 12 21 4 23 21 25 18 27
REMARK Flexibility Score: inf
ROOT
ATOM      1  C   UNL     1       1.326 -43.183 -37.305  1.00  0.00     0.180 A 
ATOM      2  C   UNL     1       0.236 -42.421 -36.849  1.00  0.00     0.208 A 
ATOM      3  C   UNL     1       0.146 -42.108 -35.484  1.00  0.00     0.238 A 
ATOM      4  O   UNL     1      -0.860 -41.472 -35.075  1.00  0.00    -0.285 OA
ATOM      5  C   UNL     1       1.156 -42.545 -34.593  1.00  0.00     0.111 A 
ATOM      6  C   UNL     1       1.187 -42.251 -33.197  1.00  0.00     0.134 A 
ATOM      7  C   UNL     1       2.163 -42.846 -32.387  1.00  0.00     0.093 A 
ATOM      8  C   UNL     1       3.148 -43.672 -32.936  1.00  0.00     0.123 A 
ATOM      9  C   UNL     1       3.160 -43.917 -34.307  1.00  0.00     0.094 A 
ATOM     10  C   UNL     1       2.179 -43.367 -35.135  1.00  0.00     0.146 A 
ATOM     11  O   UNL     1       2.222 -43.635 -36.434  1.00  0.00    -0.452 OA
ENDROOT
BRANCH   1  12
ATOM     12  C   UNL     1       1.502 -43.533 -38.733  1.00  0.00     0.025 A 
ATOM     13  C   UNL     1       2.237 -42.711 -39.601  1.00  0.00     0.016 A 
ATOM     14  C   UNL     1       2.409 -43.073 -40.938  1.00  0.00     0.051 A 
ATOM     15  C   UNL     1       1.866 -44.264 -41.432  1.00  0.00     0.157 A 
ATOM     16  C   UNL     1       0.975 -44.739 -39.219  1.00  0.00     0.062 A 
ATOM     17  C   UNL     1       1.142 -45.111 -40.559  1.00  0.00     0.158 A 
BRANCH  15  18
ATOM     18  O   UNL     1       2.072 -44.566 -42.780  1.00  0.00    -0.504 OA
ATOM     19  H   UNL     1       1.557 -45.273 -43.285  1.00  0.00     0.293 HD
ENDBRANCH  15  18
BRANCH  17  20
ATOM     20  O   UNL     1       0.580 -46.319 -40.976  1.00  0.00    -0.504 OA
ATOM     21  H   UNL     1       0.939 -47.228 -40.718  1.00  0.00     0.293 HD
ENDBRANCH  17  20
ENDBRANCH   1  12
BRANCH   2  22
ATOM     22  O   UNL     1      -0.760 -42.018 -37.743  1.00  0.00    -0.502 OA
ATOM     23  H   UNL     1      -0.551 -41.674 -38.673  1.00  0.00     0.293 HD
ENDBRANCH   2  22
BRANCH   6  24
ATOM     24  O   UNL     1       0.307 -41.367 -32.566  1.00  0.00    -0.507 OA
ATOM     25  H   UNL     1      -0.679 -41.296 -32.767  1.00  0.00     0.293 HD
ENDBRANCH   6  24
BRANCH   8  26
ATOM     26  O   UNL     1       4.125 -44.246 -32.126  1.00  0.00    -0.508 OA
ATOM     27  H   UNL     1       3.997 -44.339 -31.125  1.00  0.00     0.293 HD
ENDBRANCH   8  26
TORSDOF 6
ENDMDL
MODEL 6
REMARK VINA RESULT:    -6.273      2.814      5.311
REMARK INTER + INTRA:          -7.880
REMARK INTER:                  -7.560
REMARK INTRA:                  -0.319
REMARK UNBOUND:                -0.323
REMARK SMILES O=c1c(O)c(-c2ccc(O)c(O)c2)oc2cc(O)cc(O)c12
REMARK SMILES IDX 5 1 3 2 2 3 1 4 22 5 20 6 19 7 17 8 16 9 15 10 14 11 6 12
REMARK SMILES IDX 7 13 8 14 9 15 13 16 11 17 10 18 12 20 4 22 21 24 18 26
REMARK H PARENT 10 19 12 21 4 23 21 25 18 27
REMARK Flexibility Score: inf
ROOT
ATOM      1  C   UNL     1      -0.844 -42.269 -35.395  1.00  0.00     0.180 A 
ATOM      2  C   UNL     1       0.299 -42.121 -34.592  1.00  0.00     0.208 A 
ATOM      3  C   UNL     1       1.547 -42.511 -35.104  1.00  0.00     0.238 A 
ATOM      4  O   UNL     1       2.559 -42.426 -34.359  1.00  0.00    -0.285 OA
ATOM      5  C   UNL     1       1.638 -43.030 -36.418  1.00  0.00     0.111 A 
ATOM      6  C   UNL     1       2.856 -43.419 -37.052  1.00  0.00     0.134 A 
ATOM      7  C   UNL     1       2.813 -44.041 -38.306  1.00  0.00     0.093 A 
ATOM      8  C   UNL     1       1.601 -44.228 -38.977  1.00  0.00     0.123 A 
ATOM      9  C   UNL     1       0.414 -43.798 -38.391  1.00  0.00     0.094 A 
ATOM     10  C   UNL     1       0.421 -43.206 -37.125  1.00  0.00     0.146 A 
ATOM     11  O   UNL     1      -0.736 -42.820 -36.599  1.00  0.00    -0.452 OA
ENDROOT
BRANCH   1  12
ATOM     12  C   UNL     1      -2.190 -41.857 -34.935  1.00  0.00     0.025 A 
ATOM     13  C   UNL     1      -2.719 -40.598 -35.258  1.00  0.00     0.016 A 
ATOM     14  C   UNL     1      -4.000 -40.241 -34.832  1.00  0.00     0.051 A 
ATOM     15  C   UNL     1      -4.782 -41.133 -34.091  1.00  0.00     0.157 A 
ATOM     16  C   UNL     1      -2.980 -42.763 -34.210  1.00  0.00     0.062 A 
ATOM     17  C   UNL     1      -4.266 -42.414 -33.779  1.00  0.00     0.158 A 
BRANCH  15  18
ATOM     18  O   UNL     1      -6.052 -40.713 -33.693  1.00  0.00    -0.504 OA
ATOM     19  H   UNL     1      -6.812 -41.341 -33.474  1.00  0.00     0.293 HD
ENDBRANCH  15  18
BRANCH  17  20
ATOM     20  O   UNL     1      -4.990 -43.361 -33.052  1.00  0.00    -0.504 OA
ATOM     21  H   UNL     1      -5.998 -43.373 -32.987  1.00  0.00     0.293 HD
ENDBRANCH  17  20
ENDBRANCH   1  12
BRANCH   2  22
ATOM     22  O   UNL     1       0.184 -41.626 -33.290  1.00  0.00    -0.502 OA
ATOM     23  H   UNL     1      -0.256 -40.737 -33.082  1.00  0.00     0.293 HD
ENDBRANCH   2  22
BRANCH   6  24
ATOM     24  O   UNL     1       4.125 -43.194 -36.511  1.00  0.00    -0.507 OA
ATOM     25  H   UNL     1       4.418 -42.334 -36.072  1.00  0.00     0.293 HD
ENDBRANCH   6  24
BRANCH   8  26
ATOM     26  O   UNL     1       1.569 -44.833 -40.231  1.00  0.00    -0.508 OA
ATOM     27  H   UNL     1       1.516 -45.841 -40.332  1.00  0.00     0.293 HD
ENDBRANCH   8  26
TORSDOF 6
ENDMDL
MODEL 7
REMARK VINA RESULT:    -6.215      1.682      6.966
REMARK INTER + INTRA:          -7.810
REMARK INTER:                  -7.487
REMARK INTRA:                  -0.322
REMARK UNBOUND:                -0.323
REMARK SMILES O=c1c(O)c(-c2ccc(O)c(O)c2)oc2cc(O)cc(O)c12
REMARK SMILES IDX 5 1 3 2 2 3 1 4 22 5 20 6 19 7 17 8 16 9 15 10 14 11 6 12
REMARK SMILES IDX 7 13 8 14 9 15 13 16 11 17 10 18 12 20 4 22 21 24 18 26
REMARK H PARENT 10 19 12 21 4 23 21 25 18 27
REMARK Flexibility Score: inf
ROOT
ATOM      1  C   UNL     1      -4.413 -41.607 -33.150  1.00  0.00     0.180 A 
ATOM      2  C   UNL     1      -4.429 -41.286 -31.781  1.00  0.00     0.208 A 
ATOM      3  C   UNL     1      -5.447 -41.812 -30.970  1.00  0.00     0.238 A 
ATOM      4  O   UNL     1      -5.486 -41.478 -29.757  1.00  0.00    -0.285 OA
ATOM      5  C   UNL     1      -6.426 -42.666 -31.533  1.00  0.00     0.111 A 
ATOM      6  C   UNL     1      -7.478 -43.288 -30.797  1.00  0.00     0.134 A 
ATOM      7  C   UNL     1      -8.468 -44.007 -31.479  1.00  0.00     0.093 A 
ATOM      8  C   UNL     1      -8.405 -44.181 -32.864  1.00  0.00     0.123 A 
ATOM      9  C   UNL     1      -7.349 -43.628 -33.583  1.00  0.00     0.094 A 
ATOM     10  C   UNL     1      -6.366 -42.875 -32.935  1.00  0.00     0.146 A 
ATOM     11  O   UNL     1      -5.383 -42.356 -33.661  1.00  0.00    -0.452 OA
ENDROOT
BRANCH   1  12
ATOM     12  C   UNL     1      -3.359 -41.111 -34.063  1.00  0.00     0.025 A 
ATOM     13  C   UNL     1      -2.220 -41.878 -34.351  1.00  0.00     0.016 A 
ATOM     14  C   UNL     1      -1.250 -41.399 -35.234  1.00  0.00     0.051 A 
ATOM     15  C   UNL     1      -1.403 -40.156 -35.857  1.00  0.00     0.157 A 
ATOM     16  C   UNL     1      -3.525 -39.873 -34.704  1.00  0.00     0.062 A 
ATOM     17  C   UNL     1      -2.558 -39.384 -35.591  1.00  0.00     0.158 A 
BRANCH  15  18
ATOM     18  O   UNL     1      -0.395 -39.734 -36.726  1.00  0.00    -0.504 OA
ATOM     19  H   UNL     1      -0.272 -38.778 -37.026  1.00  0.00     0.293 HD
ENDBRANCH  15  18
BRANCH  17  20
ATOM     20  O   UNL     1      -2.785 -38.139 -36.182  1.00  0.00    -0.504 OA
ATOM     21  H   UNL     1      -2.283 -37.297 -35.937  1.00  0.00     0.293 HD
ENDBRANCH  17  20
ENDBRANCH   1  12
BRANCH   2  22
ATOM     22  O   UNL     1      -3.465 -40.425 -31.251  1.00  0.00    -0.502 OA
ATOM     23  H   UNL     1      -2.690 -40.756 -30.688  1.00  0.00     0.293 HD
ENDBRANCH   2  22
BRANCH   6  24
ATOM     24  O   UNL     1      -7.582 -43.253 -29.403  1.00  0.00    -0.507 OA
ATOM     25  H   UNL     1      -6.961 -43.731 -28.768  1.00  0.00     0.293 HD
ENDBRANCH   6  24
BRANCH   8  26
ATOM     26  O   UNL     1      -9.384 -44.912 -33.533  1.00  0.00    -0.508 OA
ATOM     27  H   UNL     1      -9.208 -45.330 -34.440  1.00  0.00     0.293 HD
ENDBRANCH   8  26
TORSDOF 6
ENDMDL
MODEL 8
REMARK VINA RESULT:    -6.204      4.155      8.627
REMARK INTER + INTRA:          -7.797
REMARK INTER:                  -7.603
REMARK INTRA:                  -0.194
REMARK UNBOUND:                -0.323
REMARK SMILES O=c1c(O)c(-c2ccc(O)c(O)c2)oc2cc(O)cc(O)c12
REMARK SMILES IDX 5 1 3 2 2 3 1 4 22 5 20 6 19 7 17 8 16 9 15 10 14 11 6 12
REMARK SMILES IDX 7 13 8 14 9 15 13 16 11 17 10 18 12 20 4 22 21 24 18 26
REMARK H PARENT 10 19 12 21 4 23 21 25 18 27
REMARK Flexibility Score: inf
ROOT
ATOM      1  C   UNL     1       1.025 -42.598 -36.784  1.00  0.00     0.180 A 
ATOM      2  C   UNL     1       0.953 -41.204 -36.617  1.00  0.00     0.208 A 
ATOM      3  C   UNL     1       0.190 -40.683 -35.560  1.00  0.00     0.238 A 
ATOM      4  O   UNL     1       0.086 -39.434 -35.449  1.00  0.00    -0.285 OA
ATOM      5  C   UNL     1      -0.477 -41.562 -34.672  1.00  0.00     0.111 A 
ATOM      6  C   UNL     1      -1.244 -41.145 -33.544  1.00  0.00     0.134 A 
ATOM      7  C   UNL     1      -1.968 -42.095 -32.812  1.00  0.00     0.093 A 
ATOM      8  C   UNL     1      -1.899 -43.454 -33.129  1.00  0.00     0.123 A 
ATOM      9  C   UNL     1      -1.106 -43.876 -34.192  1.00  0.00     0.094 A 
ATOM     10  C   UNL     1      -0.401 -42.949 -34.964  1.00  0.00     0.146 A 
ATOM     11  O   UNL     1       0.335 -43.394 -35.975  1.00  0.00    -0.452 OA
ENDROOT
BRANCH   1  12
ATOM     12  C   UNL     1       1.829 -43.223 -37.860  1.00  0.00     0.025 A 
ATOM     13  C   UNL     1       3.227 -43.104 -37.891  1.00  0.00     0.016 A 
ATOM     14  C   UNL     1       3.965 -43.721 -38.902  1.00  0.00     0.051 A 
ATOM     15  C   UNL     1       3.329 -44.478 -39.891  1.00  0.00     0.157 A 
ATOM     16  C   UNL     1       1.189 -44.000 -38.838  1.00  0.00     0.062 A 
ATOM     17  C   UNL     1       1.921 -44.623 -39.856  1.00  0.00     0.158 A 
BRANCH  15  18
ATOM     18  O   UNL     1       4.125 -45.067 -40.876  1.00  0.00    -0.504 OA
ATOM     19  H   UNL     1       4.974 -44.656 -41.236  1.00  0.00     0.293 HD
ENDBRANCH  15  18
BRANCH  17  20
ATOM     20  O   UNL     1       1.217 -45.370 -40.802  1.00  0.00    -0.504 OA
ATOM     21  H   UNL     1       1.337 -46.364 -40.941  1.00  0.00     0.293 HD
ENDBRANCH  17  20
ENDBRANCH   1  12
BRANCH   2  22
ATOM     22  O   UNL     1       1.602 -40.355 -37.517  1.00  0.00    -0.502 OA
ATOM     23  H   UNL     1       2.305 -40.686 -38.168  1.00  0.00     0.293 HD
ENDBRANCH   2  22
BRANCH   6  24
ATOM     24  O   UNL     1      -1.305 -39.825 -33.087  1.00  0.00    -0.507 OA
ATOM     25  H   UNL     1      -1.939 -39.124 -33.440  1.00  0.00     0.293 HD
ENDBRANCH   6  24
BRANCH   8  26
ATOM     26  O   UNL     1      -2.610 -44.393 -32.386  1.00  0.00    -0.508 OA
ATOM     27  H   UNL     1      -2.547 -44.427 -31.374  1.00  0.00     0.293 HD
ENDBRANCH   8  26
TORSDOF 6
ENDMDL
MODEL 9
REMARK VINA RESULT:    -6.007      3.287      8.872
REMARK INTER + INTRA:          -7.560
REMARK INTER:                  -7.243
REMARK INTRA:                  -0.316
REMARK UNBOUND:                -0.323
REMARK SMILES O=c1c(O)c(-c2ccc(O)c(O)c2)oc2cc(O)cc(O)c12
REMARK SMILES IDX 5 1 3 2 2 3 1 4 22 5 20 6 19 7 17 8 16 9 15 10 14 11 6 12
REMARK SMILES IDX 7 13 8 14 9 15 13 16 11 17 10 18 12 20 4 22 21 24 18 26
REMARK H PARENT 10 19 12 21 4 23 21 25 18 27
REMARK Flexibility Score: inf
ROOT
ATOM      1  C   UNL     1       0.458 -42.366 -36.513  1.00  0.00     0.180 A 
ATOM      2  C   UNL     1       0.747 -43.380 -35.584  1.00  0.00     0.208 A 
ATOM      3  C   UNL     1      -0.183 -43.661 -34.570  1.00  0.00     0.238 A 
ATOM      4  O   UNL     1       0.107 -44.533 -33.710  1.00  0.00    -0.285 OA
ATOM      5  C   UNL     1      -1.398 -42.937 -34.508  1.00  0.00     0.111 A 
ATOM      6  C   UNL     1      -2.429 -43.165 -33.549  1.00  0.00     0.134 A 
ATOM      7  C   UNL     1      -3.530 -42.301 -33.499  1.00  0.00     0.093 A 
ATOM      8  C   UNL     1      -3.668 -41.257 -34.418  1.00  0.00     0.123 A 
ATOM      9  C   UNL     1      -2.695 -41.064 -35.395  1.00  0.00     0.094 A 
ATOM     10  C   UNL     1      -1.568 -41.887 -35.447  1.00  0.00     0.146 A 
ATOM     11  O   UNL     1      -0.660 -41.659 -36.389  1.00  0.00    -0.452 OA
ENDROOT
BRANCH   1  12
ATOM     12  C   UNL     1       1.377 -42.030 -37.624  1.00  0.00     0.025 A 
ATOM     13  C   UNL     1       2.337 -41.014 -37.496  1.00  0.00     0.016 A 
ATOM     14  C   UNL     1       3.209 -40.730 -38.549  1.00  0.00     0.051 A 
ATOM     15  C   UNL     1       3.151 -41.460 -39.741  1.00  0.00     0.157 A 
ATOM     16  C   UNL     1       1.331 -42.778 -38.811  1.00  0.00     0.062 A 
ATOM     17  C   UNL     1       2.201 -42.501 -39.873  1.00  0.00     0.158 A 
BRANCH  15  18
ATOM     18  O   UNL     1       4.048 -41.123 -40.757  1.00  0.00    -0.504 OA
ATOM     19  H   UNL     1       4.991 -40.800 -40.593  1.00  0.00     0.293 HD
ENDBRANCH  15  18
BRANCH  17  20
ATOM     20  O   UNL     1       2.089 -43.278 -41.027  1.00  0.00    -0.504 OA
ATOM     21  H   UNL     1       2.877 -43.681 -41.515  1.00  0.00     0.293 HD
ENDBRANCH  17  20
ENDBRANCH   1  12
BRANCH   2  22
ATOM     22  O   UNL     1       1.961 -44.069 -35.651  1.00  0.00    -0.502 OA
ATOM     23  H   UNL     1       2.690 -43.958 -34.955  1.00  0.00     0.293 HD
ENDBRANCH   2  22
BRANCH   6  24
ATOM     24  O   UNL     1      -2.433 -44.234 -32.647  1.00  0.00    -0.507 OA
ATOM     25  H   UNL     1      -2.835 -45.140 -32.832  1.00  0.00     0.293 HD
ENDBRANCH   6  24
BRANCH   8  26
ATOM     26  O   UNL     1      -4.774 -40.413 -34.372  1.00  0.00    -0.508 OA
ATOM     27  H   UNL     1      -5.219 -40.168 -33.494  1.00  0.00     0.293 HD
ENDBRANCH   8  26
TORSDOF 6
ENDMDL
