MODEL 1
REMARK VINA RESULT:    -7.111      0.000      0.000
REMARK INTER + INTRA:          -8.647
REMARK INTER:                  -8.358
REMARK INTRA:                  -0.289
REMARK UNBOUND:                -0.289
REMARK SMILES O=c1c(O)c(-c2ccc(O)cc2)oc2cc(O)cc(O)c12
REMARK SMILES IDX 5 1 3 2 2 3 1 4 21 5 19 6 18 7 16 8 15 9 14 10 13 11 6 12
REMARK SMILES IDX 7 13 8 14 9 15 12 16 11 17 10 18 4 20 20 22 17 24
REMARK H PARENT 10 19 4 21 20 23 17 25
REMARK Flexibility Score: inf
ROOT
ATOM      1  C   UNL     1       9.747  11.336 -16.197  1.00  0.00     0.180 A 
ATOM      2  C   UNL     1      10.497  10.185 -16.493  1.00  0.00     0.208 A 
ATOM      3  C   UNL     1      10.183   8.982 -15.842  1.00  0.00     0.238 A 
ATOM      4  O   UNL     1      10.893   7.967 -16.070  1.00  0.00    -0.285 OA
ATOM      5  C   UNL     1       9.114   8.940 -14.915  1.00  0.00     0.111 A 
ATOM      6  C   UNL     1       8.682   7.766 -14.228  1.00  0.00     0.134 A 
ATOM      7  C   UNL     1       7.698   7.868 -13.236  1.00  0.00     0.093 A 
ATOM      8  C   UNL     1       7.085   9.088 -12.954  1.00  0.00     0.123 A 
ATOM      9  C   UNL     1       7.457  10.231 -13.662  1.00  0.00     0.094 A 
ATOM     10  C   UNL     1       8.461  10.167 -14.631  1.00  0.00     0.146 A 
ATOM     11  O   UNL     1       8.792  11.280 -15.275  1.00  0.00    -0.452 OA
ENDROOT
BRANCH   1  12
ATOM     12  C   UNL     1      10.001  12.635 -16.861  1.00  0.00     0.021 A 
ATOM     13  C   UNL     1       9.378  12.919 -18.087  1.00  0.00     0.016 A 
ATOM     14  C   UNL     1       9.622  14.130 -18.742  1.00  0.00     0.047 A 
ATOM     15  C   UNL     1      10.504  15.066 -18.187  1.00  0.00     0.115 A 
ATOM     16  C   UNL     1      10.902  13.571 -16.318  1.00  0.00     0.016 A 
ATOM     17  C   UNL     1      11.144  14.781 -16.977  1.00  0.00     0.047 A 
BRANCH  15  18
ATOM     18  O   UNL     1      10.755  16.276 -18.829  1.00  0.00    -0.508 OA
ATOM     19  H   UNL     1      10.179  16.595 -19.600  1.00  0.00     0.293 HD
ENDBRANCH  15  18
ENDBRANCH   1  12
BRANCH   2  20
ATOM     20  O   UNL     1      11.563  10.254 -17.394  1.00  0.00    -0.502 OA
ATOM     21  H   UNL     1      12.504   9.976 -17.145  1.00  0.00     0.293 HD
ENDBRANCH   2  20
BRANCH   6  22
ATOM     22  O   UNL     1       9.165   6.481 -14.498  1.00  0.00    -0.507 OA
ATOM     23  H   UNL     1       8.659   5.773 -15.008  1.00  0.00     0.293 HD
ENDBRANCH   6  22
BRANCH   8  24
ATOM     24  O   UNL     1       6.099   9.149 -11.972  1.00  0.00    -0.508 OA
ATOM     25  H   UNL     1       6.232   8.728 -11.060  1.00  0.00     0.293 HD
ENDBRANCH   8  24
TORSDOF 5
ENDMDL
MODEL 2
REMARK VINA RESULT:    -6.717      1.912      7.242
REMARK INTER + INTRA:          -8.184
REMARK INTER:                  -7.895
REMARK INTRA:                  -0.289
REMARK UNBOUND:                -0.289
REMARK SMILES O=c1c(O)c(-c2ccc(O)cc2)oc2cc(O)cc(O)c12
REMARK SMILES IDX 5 1 3 2 2 3 1 4 21 5 19 6 18 7 16 8 15 9 14 10 13 11 6 12
REMARK SMILES IDX 7 13 8 14 9 15 12 16 11 17 10 18 4 20 20 22 17 24
REMARK H PARENT 10 19 4 21 20 23 17 25
REMARK Flexibility Score: inf
ROOT
ATOM      1  C   UNL     1       9.959  12.137 -17.274  1.00  0.00     0.180 A 
ATOM      2  C   UNL     1      10.703  13.210 -16.754  1.00  0.00     0.208 A 
ATOM      3  C   UNL     1      10.704  14.434 -17.441  1.00  0.00     0.238 A 
ATOM      4  O   UNL     1      11.416  15.375 -17.001  1.00  0.00    -0.285 OA
ATOM      5  C   UNL     1       9.949  14.575 -18.630  1.00  0.00     0.111 A 
ATOM      6  C   UNL     1       9.845  15.781 -19.386  1.00  0.00     0.134 A 
ATOM      7  C   UNL     1       9.175  15.771 -20.616  1.00  0.00     0.093 A 
ATOM      8  C   UNL     1       8.550  14.616 -21.085  1.00  0.00     0.123 A 
ATOM      9  C   UNL     1       8.595  13.446 -20.326  1.00  0.00     0.094 A 
ATOM     10  C   UNL     1       9.286  13.416 -19.112  1.00  0.00     0.146 A 
ATOM     11  O   UNL     1       9.313  12.281 -18.425  1.00  0.00    -0.452 OA
ENDROOT
BRANCH   1  12
ATOM     12  C   UNL     1       9.889  10.823 -16.593  1.00  0.00     0.021 A 
ATOM     13  C   UNL     1       8.897  10.599 -15.623  1.00  0.00     0.016 A 
ATOM     14  C   UNL     1       8.827   9.375 -14.952  1.00  0.00     0.047 A 
ATOM     15  C   UNL     1       9.756   8.364 -15.231  1.00  0.00     0.115 A 
ATOM     16  C   UNL     1      10.831   9.812 -16.854  1.00  0.00     0.016 A 
ATOM     17  C   UNL     1      10.759   8.588 -16.180  1.00  0.00     0.047 A 
BRANCH  15  18
ATOM     18  O   UNL     1       9.697   7.140 -14.569  1.00  0.00    -0.508 OA
ATOM     19  H   UNL     1       8.951   6.927 -13.916  1.00  0.00     0.293 HD
ENDBRANCH  15  18
ENDBRANCH   1  12
BRANCH   2  20
ATOM     20  O   UNL     1      11.460  13.042 -15.591  1.00  0.00    -0.502 OA
ATOM     21  H   UNL     1      11.498  12.163 -15.089  1.00  0.00     0.293 HD
ENDBRANCH   2  20
BRANCH   6  22
ATOM     22  O   UNL     1      10.354  17.014 -18.964  1.00  0.00    -0.507 OA
ATOM     23  H   UNL     1      11.221  17.136 -18.462  1.00  0.00     0.293 HD
ENDBRANCH   6  22
BRANCH   8  24
ATOM     24  O   UNL     1       7.880  14.645 -22.306  1.00  0.00    -0.508 OA
ATOM     25  H   UNL     1       7.386  13.834 -22.660  1.00  0.00     0.293 HD
ENDBRANCH   8  24
TORSDOF 5
ENDMDL
MODEL 3
REMARK VINA RESULT:    -6.652      3.832      6.848
REMARK INTER + INTRA:          -8.108
REMARK INTER:                  -7.851
REMARK INTRA:                  -0.257
REMARK UNBOUND:                -0.289
REMARK SMILES O=c1c(O)c(-c2ccc(O)cc2)oc2cc(O)cc(O)c12
REMARK SMILES IDX 5 1 3 2 2 3 1 4 21 5 19 6 18 7 16 8 15 9 14 10 13 11 6 12
REMARK SMILES IDX 7 13 8 14 9 15 12 16 11 17 10 18 4 20 20 22 17 24
REMARK H PARENT 10 19 4 21 20 23 17 25
REMARK Flexibility Score: inf
ROOT
ATOM      1  C   UNL     1       8.775  16.617 -19.089  1.00  0.00     0.180 A 
ATOM      2  C   UNL     1       8.620  16.225 -20.430  1.00  0.00     0.208 A 
ATOM      3  C   UNL     1       8.797  14.875 -20.769  1.00  0.00     0.238 A 
ATOM      4  O   UNL     1       8.710  14.539 -21.980  1.00  0.00    -0.285 OA
ATOM      5  C   UNL     1       9.110  13.930 -19.762  1.00  0.00     0.111 A 
ATOM      6  C   UNL     1       9.270  12.530 -19.985  1.00  0.00     0.134 A 
ATOM      7  C   UNL     1       9.708  11.708 -18.938  1.00  0.00     0.093 A 
ATOM      8  C   UNL     1       9.927  12.225 -17.662  1.00  0.00     0.123 A 
ATOM      9  C   UNL     1       9.715  13.582 -17.417  1.00  0.00     0.094 A 
ATOM     10  C   UNL     1       9.313  14.433 -18.450  1.00  0.00     0.146 A 
ATOM     11  O   UNL     1       9.133  15.720 -18.178  1.00  0.00    -0.452 OA
ENDROOT
BRANCH   1  12
ATOM     12  C   UNL     1       8.580  18.019 -18.650  1.00  0.00     0.021 A 
ATOM     13  C   UNL     1       9.620  18.948 -18.822  1.00  0.00     0.016 A 
ATOM     14  C   UNL     1       9.466  20.270 -18.394  1.00  0.00     0.047 A 
ATOM     15  C   UNL     1       8.277  20.676 -17.775  1.00  0.00     0.115 A 
ATOM     16  C   UNL     1       7.396  18.428 -18.010  1.00  0.00     0.016 A 
ATOM     17  C   UNL     1       7.246  19.751 -17.582  1.00  0.00     0.047 A 
BRANCH  15  18
ATOM     18  O   UNL     1       8.111  21.990 -17.345  1.00  0.00    -0.508 OA
ATOM     19  H   UNL     1       7.512  22.639 -17.842  1.00  0.00     0.293 HD
ENDBRANCH  15  18
ENDBRANCH   1  12
BRANCH   2  20
ATOM     20  O   UNL     1       8.333  17.178 -21.412  1.00  0.00    -0.502 OA
ATOM     21  H   UNL     1       8.892  17.280 -22.250  1.00  0.00     0.293 HD
ENDBRANCH   2  20
BRANCH   6  22
ATOM     22  O   UNL     1       8.990  11.896 -21.200  1.00  0.00    -0.507 OA
ATOM     23  H   UNL     1       8.853  10.902 -21.311  1.00  0.00     0.293 HD
ENDBRANCH   6  22
BRANCH   8  24
ATOM     24  O   UNL     1      10.347  11.376 -16.640  1.00  0.00    -0.508 OA
ATOM     25  H   UNL     1      11.051  10.664 -16.799  1.00  0.00     0.293 HD
ENDBRANCH   8  24
TORSDOF 5
ENDMDL
MODEL 4
REMARK VINA RESULT:    -6.429      2.274      3.361
REMARK INTER + INTRA:          -7.845
REMARK INTER:                  -7.981
REMARK INTRA:                   0.135
REMARK UNBOUND:                -0.289
REMARK SMILES O=c1c(O)c(-c2ccc(O)cc2)oc2cc(O)cc(O)c12
REMARK SMILES IDX 5 1 3 2 2 3 1 4 21 5 19 6 18 7 16 8 15 9 14 10 13 11 6 12
REMARK SMILES IDX 7 13 8 14 9 15 12 16 11 17 10 18 4 20 20 22 17 24
REMARK H PARENT 10 19 4 21 20 23 17 25
REMARK Flexibility Score: inf
ROOT
ATOM      1  C   UNL     1       9.158  12.806 -18.651  1.00  0.00     0.180 A 
ATOM      2  C   UNL     1       9.589  11.504 -18.962  1.00  0.00     0.208 A 
ATOM      3  C   UNL     1       9.627  10.539 -17.944  1.00  0.00     0.238 A 
ATOM      4  O   UNL     1      10.065   9.390 -18.216  1.00  0.00    -0.285 OA
ATOM      5  C   UNL     1       9.219  10.881 -16.632  1.00  0.00     0.111 A 
ATOM      6  C   UNL     1       9.178   9.972 -15.533  1.00  0.00     0.134 A 
ATOM      7  C   UNL     1       8.883  10.451 -14.250  1.00  0.00     0.093 A 
ATOM      8  C   UNL     1       8.563  11.792 -14.039  1.00  0.00     0.123 A 
ATOM      9  C   UNL     1       8.542  12.677 -15.116  1.00  0.00     0.094 A 
ATOM     10  C   UNL     1       8.867  12.236 -16.401  1.00  0.00     0.146 A 
ATOM     11  O   UNL     1       8.845  13.113 -17.398  1.00  0.00    -0.452 OA
ENDROOT
BRANCH   1  12
ATOM     12  C   UNL     1       9.068  13.872 -19.676  1.00  0.00     0.021 A 
ATOM     13  C   UNL     1       9.422  15.188 -19.337  1.00  0.00     0.016 A 
ATOM     14  C   UNL     1       9.322  16.214 -20.282  1.00  0.00     0.047 A 
ATOM     15  C   UNL     1       8.852  15.939 -21.573  1.00  0.00     0.115 A 
ATOM     16  C   UNL     1       8.578  13.606 -20.968  1.00  0.00     0.016 A 
ATOM     17  C   UNL     1       8.478  14.635 -21.910  1.00  0.00     0.047 A 
BRANCH  15  18
ATOM     18  O   UNL     1       8.748  16.952 -22.523  1.00  0.00    -0.508 OA
ATOM     19  H   UNL     1       7.859  17.191 -22.947  1.00  0.00     0.293 HD
ENDBRANCH  15  18
ENDBRANCH   1  12
BRANCH   2  20
ATOM     20  O   UNL     1      10.008  11.194 -20.258  1.00  0.00    -0.502 OA
ATOM     21  H   UNL     1      10.943  10.863 -20.463  1.00  0.00     0.293 HD
ENDBRANCH   2  20
BRANCH   6  22
ATOM     22  O   UNL     1       9.392   8.594 -15.650  1.00  0.00    -0.507 OA
ATOM     23  H   UNL     1      10.236   8.118 -15.370  1.00  0.00     0.293 HD
ENDBRANCH   6  22
BRANCH   8  24
ATOM     24  O   UNL     1       8.259  12.231 -12.752  1.00  0.00    -0.508 OA
ATOM     25  H   UNL     1       7.304  12.402 -12.462  1.00  0.00     0.293 HD
ENDBRANCH   8  24
TORSDOF 5
ENDMDL
MODEL 5
REMARK VINA RESULT:    -6.341      1.206      3.200
REMARK INTER + INTRA:          -7.742
REMARK INTER:                  -7.458
REMARK INTRA:                  -0.284
REMARK UNBOUND:                -0.289
REMARK SMILES O=c1c(O)c(-c2ccc(O)cc2)oc2cc(O)cc(O)c12
REMARK SMILES IDX 5 1 3 2 2 3 1 4 21 5 19 6 18 7 16 8 15 9 14 10 13 11 6 12
REMARK SMILES IDX 7 13 8 14 9 15 12 16 11 17 10 18 4 20 20 22 17 24
REMARK H PARENT 10 19 4 21 20 23 17 25
REMARK Flexibility Score: inf
ROOT
ATOM      1  C   UNL     1       8.750  12.074 -15.684  1.00  0.00     0.180 A 
ATOM      2  C   UNL     1       7.667  12.417 -14.856  1.00  0.00     0.208 A 
ATOM      3  C   UNL     1       7.079  11.423 -14.058  1.00  0.00     0.238 A 
ATOM      4  O   UNL     1       6.075  11.723 -13.359  1.00  0.00    -0.285 OA
ATOM      5  C   UNL     1       7.591  10.103 -14.085  1.00  0.00     0.111 A 
ATOM      6  C   UNL     1       7.099   9.026 -13.288  1.00  0.00     0.134 A 
ATOM      7  C   UNL     1       7.595   7.732 -13.492  1.00  0.00     0.093 A 
ATOM      8  C   UNL     1       8.610   7.488 -14.417  1.00  0.00     0.123 A 
ATOM      9  C   UNL     1       9.140   8.544 -15.159  1.00  0.00     0.094 A 
ATOM     10  C   UNL     1       8.640   9.839 -15.004  1.00  0.00     0.146 A 
ATOM     11  O   UNL     1       9.165  10.814 -15.737  1.00  0.00    -0.452 OA
ENDROOT
BRANCH   1  12
ATOM     12  C   UNL     1       9.438  13.073 -16.535  1.00  0.00     0.021 A 
ATOM     13  C   UNL     1      10.554  13.759 -16.031  1.00  0.00     0.016 A 
ATOM     14  C   UNL     1      11.204  14.722 -16.808  1.00  0.00     0.047 A 
ATOM     15  C   UNL     1      10.738  15.021 -18.095  1.00  0.00     0.115 A 
ATOM     16  C   UNL     1       8.962  13.391 -17.820  1.00  0.00     0.016 A 
ATOM     17  C   UNL     1       9.614  14.356 -18.595  1.00  0.00     0.047 A 
BRANCH  15  18
ATOM     18  O   UNL     1      11.377  15.978 -18.880  1.00  0.00    -0.508 OA
ATOM     19  H   UNL     1      10.873  16.769 -19.265  1.00  0.00     0.293 HD
ENDBRANCH  15  18
ENDBRANCH   1  12
BRANCH   2  20
ATOM     20  O   UNL     1       7.163  13.720 -14.861  1.00  0.00    -0.502 OA
ATOM     21  H   UNL     1       7.629  14.482 -15.339  1.00  0.00     0.293 HD
ENDBRANCH   2  20
BRANCH   6  22
ATOM     22  O   UNL     1       6.150   9.177 -12.271  1.00  0.00    -0.507 OA
ATOM     23  H   UNL     1       5.573   8.432 -11.909  1.00  0.00     0.293 HD
ENDBRANCH   6  22
BRANCH   8  24
ATOM     24  O   UNL     1       9.090   6.191 -14.583  1.00  0.00    -0.508 OA
ATOM     25  H   UNL     1       8.806   5.617 -15.369  1.00  0.00     0.293 HD
ENDBRANCH   8  24
TORSDOF 5
ENDMDL
MODEL 6
REMARK VINA RESULT:    -6.335      2.377      7.155
REMARK INTER + INTRA:          -7.735
REMARK INTER:                  -7.446
REMARK INTRA:                  -0.289
REMARK UNBOUND:                -0.289
REMARK SMILES O=c1c(O)c(-c2ccc(O)cc2)oc2cc(O)cc(O)c12
REMARK SMILES IDX 5 1 3 2 2 3 1 4 21 5 19 6 18 7 16 8 15 9 14 10 13 11 6 12
REMARK SMILES IDX 7 13 8 14 9 15 12 16 11 17 10 18 4 20 20 22 17 24
REMARK H PARENT 10 19 4 21 20 23 17 25
REMARK Flexibility Score: inf
ROOT
ATOM      1  C   UNL     1       9.096  11.571 -17.901  1.00  0.00     0.180 A 
ATOM      2  C   UNL     1       8.303  11.297 -19.028  1.00  0.00     0.208 A 
ATOM      3  C   UNL     1       8.088  12.314 -19.972  1.00  0.00     0.238 A 
ATOM      4  O   UNL     1       7.332  12.080 -20.952  1.00  0.00    -0.285 OA
ATOM      5  C   UNL     1       8.681  13.586 -19.785  1.00  0.00     0.111 A 
ATOM      6  C   UNL     1       8.563  14.677 -20.698  1.00  0.00     0.134 A 
ATOM      7  C   UNL     1       9.084  15.930 -20.348  1.00  0.00     0.093 A 
ATOM      8  C   UNL     1       9.773  16.114 -19.150  1.00  0.00     0.123 A 
ATOM      9  C   UNL     1       9.946  15.039 -18.278  1.00  0.00     0.094 A 
ATOM     10  C   UNL     1       9.407  13.786 -18.582  1.00  0.00     0.146 A 
ATOM     11  O   UNL     1       9.585  12.793 -17.720  1.00  0.00    -0.452 OA
ENDROOT
BRANCH   1  12
ATOM     12  C   UNL     1       9.389  10.543 -16.875  1.00  0.00     0.021 A 
ATOM     13  C   UNL     1      10.495   9.694 -17.043  1.00  0.00     0.016 A 
ATOM     14  C   UNL     1      10.776   8.702 -16.099  1.00  0.00     0.047 A 
ATOM     15  C   UNL     1       9.947   8.537 -14.982  1.00  0.00     0.115 A 
ATOM     16  C   UNL     1       8.549  10.360 -15.761  1.00  0.00     0.016 A 
ATOM     17  C   UNL     1       8.833   9.365 -14.819  1.00  0.00     0.047 A 
BRANCH  15  18
ATOM     18  O   UNL     1      10.217   7.552 -14.034  1.00  0.00    -0.508 OA
ATOM     19  H   UNL     1       9.968   6.583 -14.193  1.00  0.00     0.293 HD
ENDBRANCH  15  18
ENDBRANCH   1  12
BRANCH   2  20
ATOM     20  O   UNL     1       7.709  10.042 -19.182  1.00  0.00    -0.502 OA
ATOM     21  H   UNL     1       8.225   9.231 -19.500  1.00  0.00     0.293 HD
ENDBRANCH   2  20
BRANCH   6  22
ATOM     22  O   UNL     1       7.973  14.578 -21.962  1.00  0.00    -0.507 OA
ATOM     23  H   UNL     1       7.279  13.892 -22.220  1.00  0.00     0.293 HD
ENDBRANCH   6  22
BRANCH   8  24
ATOM     24  O   UNL     1      10.291  17.370 -18.842  1.00  0.00    -0.508 OA
ATOM     25  H   UNL     1      11.041  17.484 -18.169  1.00  0.00     0.293 HD
ENDBRANCH   8  24
TORSDOF 5
ENDMDL
MODEL 7
REMARK VINA RESULT:    -6.250      1.979      6.970
REMARK INTER + INTRA:          -7.635
REMARK INTER:                  -7.506
REMARK INTRA:                  -0.129
REMARK UNBOUND:                -0.289
REMARK SMILES O=c1c(O)c(-c2ccc(O)cc2)oc2cc(O)cc(O)c12
REMARK SMILES IDX 5 1 3 2 2 3 1 4 21 5 19 6 18 7 16 8 15 9 14 10 13 11 6 12
REMARK SMILES IDX 7 13 8 14 9 15 12 16 11 17 10 18 4 20 20 22 17 24
REMARK H PARENT 10 19 4 21 20 23 17 25
REMARK Flexibility Score: inf
ROOT
ATOM      1  C   UNL     1       8.354  11.132 -15.104  1.00  0.00     0.180 A 
ATOM      2  C   UNL     1       8.849  12.368 -14.656  1.00  0.00     0.208 A 
ATOM      3  C   UNL     1       9.298  13.304 -15.601  1.00  0.00     0.238 A 
ATOM      4  O   UNL     1       9.791  14.388 -15.191  1.00  0.00    -0.285 OA
ATOM      5  C   UNL     1       9.230  13.000 -16.982  1.00  0.00     0.111 A 
ATOM      6  C   UNL     1       9.619  13.889 -18.028  1.00  0.00     0.134 A 
ATOM      7  C   UNL     1       9.632  13.434 -19.353  1.00  0.00     0.093 A 
ATOM      8  C   UNL     1       9.208  12.146 -19.676  1.00  0.00     0.123 A 
ATOM      9  C   UNL     1       8.769  11.287 -18.667  1.00  0.00     0.094 A 
ATOM     10  C   UNL     1       8.779  11.700 -17.332  1.00  0.00     0.146 A 
ATOM     11  O   UNL     1       8.364  10.849 -16.402  1.00  0.00    -0.452 OA
ENDROOT
BRANCH   1  12
ATOM     12  C   UNL     1       7.840  10.103 -14.170  1.00  0.00     0.021 A 
ATOM     13  C   UNL     1       8.431   8.829 -14.150  1.00  0.00     0.016 A 
ATOM     14  C   UNL     1       7.947   7.837 -13.293  1.00  0.00     0.047 A 
ATOM     15  C   UNL     1       6.856   8.100 -12.455  1.00  0.00     0.115 A 
ATOM     16  C   UNL     1       6.732  10.356 -13.340  1.00  0.00     0.016 A 
ATOM     17  C   UNL     1       6.249   9.359 -12.484  1.00  0.00     0.047 A 
BRANCH  15  18
ATOM     18  O   UNL     1       6.365   7.120 -11.596  1.00  0.00    -0.508 OA
ATOM     19  H   UNL     1       5.842   7.361 -10.762  1.00  0.00     0.293 HD
ENDBRANCH  15  18
ENDBRANCH   1  12
BRANCH   2  20
ATOM     20  O   UNL     1       8.928  12.639 -13.287  1.00  0.00    -0.502 OA
ATOM     21  H   UNL     1       8.704  13.547 -12.899  1.00  0.00     0.293 HD
ENDBRANCH   2  20
BRANCH   6  22
ATOM     22  O   UNL     1       9.972  15.227 -17.825  1.00  0.00    -0.507 OA
ATOM     23  H   UNL     1      10.864  15.538 -17.469  1.00  0.00     0.293 HD
ENDBRANCH   6  22
BRANCH   8  24
ATOM     24  O   UNL     1       9.220  11.732 -21.006  1.00  0.00    -0.508 OA
ATOM     25  H   UNL     1       8.835  10.837 -21.286  1.00  0.00     0.293 HD
ENDBRANCH   8  24
TORSDOF 5
ENDMDL
MODEL 8
REMARK VINA RESULT:    -6.010      2.650      7.469
REMARK INTER + INTRA:          -7.352
REMARK INTER:                  -7.088
REMARK INTRA:                  -0.264
REMARK UNBOUND:                -0.289
REMARK SMILES O=c1c(O)c(-c2ccc(O)cc2)oc2cc(O)cc(O)c12
REMARK SMILES IDX 5 1 3 2 2 3 1 4 21 5 19 6 18 7 16 8 15 9 14 10 13 11 6 12
REMARK SMILES IDX 7 13 8 14 9 15 12 16 11 17 10 18 4 20 20 22 17 24
REMARK H PARENT 10 19 4 21 20 23 17 25
REMARK Flexibility Score: inf
ROOT
ATOM      1  C   UNL     1       9.187  12.911 -18.606  1.00  0.00     0.180 A 
ATOM      2  C   UNL     1       9.203  12.870 -20.010  1.00  0.00     0.208 A 
ATOM      3  C   UNL     1       8.968  14.052 -20.729  1.00  0.00     0.238 A 
ATOM      4  O   UNL     1       8.929  13.999 -21.986  1.00  0.00    -0.285 OA
ATOM      5  C   UNL     1       8.738  15.265 -20.035  1.00  0.00     0.111 A 
ATOM      6  C   UNL     1       8.530  16.530 -20.661  1.00  0.00     0.134 A 
ATOM      7  C   UNL     1       8.181  17.639 -19.880  1.00  0.00     0.093 A 
ATOM      8  C   UNL     1       8.099  17.544 -18.491  1.00  0.00     0.123 A 
ATOM      9  C   UNL     1       8.359  16.325 -17.863  1.00  0.00     0.094 A 
ATOM     10  C   UNL     1       8.673  15.193 -18.619  1.00  0.00     0.146 A 
ATOM     11  O   UNL     1       8.903  14.050 -17.984  1.00  0.00    -0.452 OA
ENDROOT
BRANCH   1  12
ATOM     12  C   UNL     1       9.450  11.711 -17.778  1.00  0.00     0.021 A 
ATOM     13  C   UNL     1       8.411  10.797 -17.536  1.00  0.00     0.016 A 
ATOM     14  C   UNL     1       8.631   9.670 -16.739  1.00  0.00     0.047 A 
ATOM     15  C   UNL     1       9.888   9.449 -16.163  1.00  0.00     0.115 A 
ATOM     16  C   UNL     1      10.705  11.493 -17.181  1.00  0.00     0.016 A 
ATOM     17  C   UNL     1      10.921  10.365 -16.383  1.00  0.00     0.047 A 
BRANCH  15  18
ATOM     18  O   UNL     1      10.120   8.329 -15.368  1.00  0.00    -0.508 OA
ATOM     19  H   UNL     1      11.042   7.914 -15.294  1.00  0.00     0.293 HD
ENDBRANCH  15  18
ENDBRANCH   1  12
BRANCH   2  20
ATOM     20  O   UNL     1       9.410  11.658 -20.675  1.00  0.00    -0.502 OA
ATOM     21  H   UNL     1       9.129  10.768 -20.283  1.00  0.00     0.293 HD
ENDBRANCH   2  20
BRANCH   6  22
ATOM     22  O   UNL     1       8.678  16.757 -22.033  1.00  0.00    -0.507 OA
ATOM     23  H   UNL     1       8.022  16.457 -22.739  1.00  0.00     0.293 HD
ENDBRANCH   6  22
BRANCH   8  24
ATOM     24  O   UNL     1       7.765  18.671 -17.744  1.00  0.00    -0.508 OA
ATOM     25  H   UNL     1       6.817  18.832 -17.422  1.00  0.00     0.293 HD
ENDBRANCH   8  24
TORSDOF 5
ENDMDL
MODEL 9
REMARK VINA RESULT:    -5.888      1.740      2.114
REMARK INTER + INTRA:          -7.209
REMARK INTER:                  -6.942
REMARK INTRA:                  -0.267
REMARK UNBOUND:                -0.289
REMARK SMILES O=c1c(O)c(-c2ccc(O)cc2)oc2cc(O)cc(O)c12
REMARK SMILES IDX 5 1 3 2 2 3 1 4 21 5 19 6 18 7 16 8 15 9 14 10 13 11 6 12
REMARK SMILES IDX 7 13 8 14 9 15 12 16 11 17 10 18 4 20 20 22 17 24
REMARK H PARENT 10 19 4 21 20 23 17 25
REMARK Flexibility Score: inf
ROOT
ATOM      1  C   UNL     1       8.694  11.069 -17.627  1.00  0.00     0.180 A 
ATOM      2  C   UNL     1       9.760  10.155 -17.587  1.00  0.00     0.208 A 
ATOM      3  C   UNL     1       9.827   9.233 -16.531  1.00  0.00     0.238 A 
ATOM      4  O   UNL     1      10.814   8.453 -16.470  1.00  0.00    -0.285 OA
ATOM      5  C   UNL     1       8.819   9.226 -15.537  1.00  0.00     0.111 A 
ATOM      6  C   UNL     1       8.765   8.310 -14.444  1.00  0.00     0.134 A 
ATOM      7  C   UNL     1       7.794   8.479 -13.448  1.00  0.00     0.093 A 
ATOM      8  C   UNL     1       6.837   9.489 -13.540  1.00  0.00     0.123 A 
ATOM      9  C   UNL     1       6.844  10.353 -14.634  1.00  0.00     0.094 A 
ATOM     10  C   UNL     1       7.822  10.232 -15.625  1.00  0.00     0.146 A 
ATOM     11  O   UNL     1       7.800  11.081 -16.645  1.00  0.00    -0.452 OA
ENDROOT
BRANCH   1  12
ATOM     12  C   UNL     1       8.542  12.055 -18.723  1.00  0.00     0.021 A 
ATOM     13  C   UNL     1       7.710  11.754 -19.813  1.00  0.00     0.016 A 
ATOM     14  C   UNL     1       7.570  12.660 -20.869  1.00  0.00     0.047 A 
ATOM     15  C   UNL     1       8.271  13.872 -20.854  1.00  0.00     0.115 A 
ATOM     16  C   UNL     1       9.258  13.266 -18.723  1.00  0.00     0.016 A 
ATOM     17  C   UNL     1       9.117  14.170 -19.782  1.00  0.00     0.047 A 
BRANCH  15  18
ATOM     18  O   UNL     1       8.139  14.783 -21.900  1.00  0.00    -0.508 OA
ATOM     19  H   UNL     1       7.249  14.934 -22.361  1.00  0.00     0.293 HD
ENDBRANCH  15  18
ENDBRANCH   1  12
BRANCH   2  20
ATOM     20  O   UNL     1      10.757  10.194 -18.567  1.00  0.00    -0.502 OA
ATOM     21  H   UNL     1      11.735  10.045 -18.353  1.00  0.00     0.293 HD
ENDBRANCH   2  20
BRANCH   6  22
ATOM     22  O   UNL     1       9.617   7.210 -14.304  1.00  0.00    -0.507 OA
ATOM     23  H   UNL     1       9.427   6.406 -13.724  1.00  0.00     0.293 HD
ENDBRANCH   6  22
BRANCH   8  24
ATOM     24  O   UNL     1       5.877   9.617 -12.539  1.00  0.00    -0.508 OA
ATOM     25  H   UNL     1       5.936   9.088 -11.676  1.00  0.00     0.293 HD
ENDBRANCH   8  24
TORSDOF 5
ENDMDL
