MODEL 1
REMARK VINA RESULT:    -3.919      0.000      0.000
REMARK INTER + INTRA:          -7.653
REMARK INTER:                  -6.210
REMARK INTRA:                  -1.443
REMARK UNBOUND:                -1.443
REMARK SMILES CCCCCCCCCCCC(=O)[O-]
REMARK SMILES IDX 7 1 8 2 9 3 10 4 11 5 12 6 13 7 14 8 6 9 5 10 4 11 3 12 2 13
REMARK SMILES IDX 1 14
REMARK H PARENT
REMARK Flexibility Score: inf
ROOT
ATOM      1  C   UNL     1     -22.953 -13.712 -19.206  1.00  0.00     0.000 C 
ENDROOT
BRANCH   1   2
ATOM      2  C   UNL     1     -22.770 -12.245 -18.802  1.00  0.00     0.000 C 
BRANCH   2   3
ATOM      3  C   UNL     1     -22.570 -12.111 -17.288  1.00  0.00     0.000 C 
BRANCH   3   4
ATOM      4  C   UNL     1     -22.878 -13.431 -16.572  1.00  0.00     0.006 C 
BRANCH   4   5
ATOM      5  C   UNL     1     -22.771 -13.271 -15.053  1.00  0.00     0.053 C 
BRANCH   5   6
ATOM      6  C   UNL     1     -23.911 -13.959 -14.371  1.00  0.00     0.041 C 
ATOM      7  O   UNL     1     -23.935 -15.215 -14.289  1.00  0.00    -0.550 OA
ATOM      8  O   UNL     1     -24.922 -13.211 -13.782  1.00  0.00    -0.550 OA
ENDBRANCH   5   6
ENDBRANCH   4   5
ENDBRANCH   3   4
ENDBRANCH   2   3
ENDBRANCH   1   2
BRANCH   1   9
ATOM      9  C   UNL     1     -22.364 -13.978 -20.599  1.00  0.00     0.000 C 
BRANCH   9  10
ATOM     10  C   UNL     1     -20.996 -13.308 -20.801  1.00  0.00    -0.000 C 
BRANCH  10  11
ATOM     11  C   UNL     1     -19.860 -14.052 -20.076  1.00  0.00    -0.000 C 
BRANCH  11  12
ATOM     12  C   UNL     1     -19.195 -13.196 -18.987  1.00  0.00    -0.000 C 
BRANCH  12  13
ATOM     13  C   UNL     1     -19.186 -13.890 -17.617  1.00  0.00    -0.003 C 
ATOM     14  C   UNL     1     -19.882 -15.247 -17.683  1.00  0.00     0.004 C 
ENDBRANCH  12  13
ENDBRANCH  11  12
ENDBRANCH  10  11
ENDBRANCH   9  10
ENDBRANCH   1   9
TORSDOF 10
ENDMDL
MODEL 2
REMARK VINA RESULT:    -3.912      1.007      1.415
REMARK INTER + INTRA:          -7.643
REMARK INTER:                  -6.476
REMARK INTRA:                  -1.167
REMARK UNBOUND:                -1.443
REMARK SMILES CCCCCCCCCCCC(=O)[O-]
REMARK SMILES IDX 7 1 8 2 9 3 10 4 11 5 12 6 13 7 14 8 6 9 5 10 4 11 3 12 2 13
REMARK SMILES IDX 1 14
REMARK H PARENT
REMARK Flexibility Score: inf
ROOT
ATOM      1  C   UNL     1     -22.745 -12.368 -19.088  1.00  0.00     0.000 C 
ENDROOT
BRANCH   1   2
ATOM      2  C   UNL     1     -22.412 -12.165 -17.605  1.00  0.00     0.000 C 
BRANCH   2   3
ATOM      3  C   UNL     1     -22.812 -13.393 -16.778  1.00  0.00     0.000 C 
BRANCH   3   4
ATOM      4  C   UNL     1     -22.615 -13.135 -15.279  1.00  0.00     0.006 C 
BRANCH   4   5
ATOM      5  C   UNL     1     -23.943 -12.784 -14.603  1.00  0.00     0.053 C 
BRANCH   5   6
ATOM      6  C   UNL     1     -24.655 -14.026 -14.170  1.00  0.00     0.041 C 
ATOM      7  O   UNL     1     -24.006 -15.077 -13.927  1.00  0.00    -0.550 OA
ATOM      8  O   UNL     1     -26.032 -14.009 -13.984  1.00  0.00    -0.550 OA
ENDBRANCH   5   6
ENDBRANCH   4   5
ENDBRANCH   3   4
ENDBRANCH   2   3
ENDBRANCH   1   2
BRANCH   1   9
ATOM      9  C   UNL     1     -21.499 -12.167 -19.964  1.00  0.00     0.000 C 
BRANCH   9  10
ATOM     10  C   UNL     1     -20.227 -11.926 -19.137  1.00  0.00    -0.000 C 
BRANCH  10  11
ATOM     11  C   UNL     1     -19.284 -13.143 -19.135  1.00  0.00    -0.000 C 
BRANCH  11  12
ATOM     12  C   UNL     1     -19.014 -13.678 -17.719  1.00  0.00    -0.000 C 
BRANCH  12  13
ATOM     13  C   UNL     1     -19.220 -15.196 -17.614  1.00  0.00    -0.003 C 
ATOM     14  C   UNL     1     -20.439 -15.642 -18.416  1.00  0.00     0.004 C 
ENDBRANCH  12  13
ENDBRANCH  11  12
ENDBRANCH  10  11
ENDBRANCH   9  10
ENDBRANCH   1   9
TORSDOF 10
ENDMDL
MODEL 3
REMARK VINA RESULT:    -3.816      1.063      3.007
REMARK INTER + INTRA:          -7.490
REMARK INTER:                  -6.035
REMARK INTRA:                  -1.455
REMARK UNBOUND:                -1.443
REMARK SMILES CCCCCCCCCCCC(=O)[O-]
REMARK SMILES IDX 7 1 8 2 9 3 10 4 11 5 12 6 13 7 14 8 6 9 5 10 4 11 3 12 2 13
REMARK SMILES IDX 1 14
REMARK H PARENT
REMARK Flexibility Score: inf
ROOT
ATOM      1  C   UNL     1     -19.085 -13.900 -17.813  1.00  0.00     0.000 C 
ENDROOT
BRANCH   1   2
ATOM      2  C   UNL     1     -20.397 -13.769 -17.031  1.00  0.00     0.000 C 
BRANCH   2   3
ATOM      3  C   UNL     1     -21.233 -15.049 -17.138  1.00  0.00     0.000 C 
BRANCH   3   4
ATOM      4  C   UNL     1     -22.611 -14.863 -16.491  1.00  0.00     0.006 C 
BRANCH   4   5
ATOM      5  C   UNL     1     -22.808 -13.419 -16.023  1.00  0.00     0.053 C 
BRANCH   5   6
ATOM      6  C   UNL     1     -23.600 -13.382 -14.754  1.00  0.00     0.041 C 
ATOM      7  O   UNL     1     -24.169 -12.318 -14.394  1.00  0.00    -0.550 OA
ATOM      8  O   UNL     1     -23.753 -14.535 -13.996  1.00  0.00    -0.550 OA
ENDBRANCH   5   6
ENDBRANCH   4   5
ENDBRANCH   3   4
ENDBRANCH   2   3
ENDBRANCH   1   2
BRANCH   1   9
ATOM      9  C   UNL     1     -19.253 -13.404 -19.257  1.00  0.00     0.000 C 
BRANCH   9  10
ATOM     10  C   UNL     1     -20.158 -12.167 -19.356  1.00  0.00    -0.000 C 
BRANCH  10  11
ATOM     11  C   UNL     1     -21.238 -12.309 -20.444  1.00  0.00    -0.000 C 
BRANCH  11  12
ATOM     12  C   UNL     1     -22.614 -12.675 -19.866  1.00  0.00    -0.000 C 
BRANCH  12  13
ATOM     13  C   UNL     1     -22.991 -14.141 -20.125  1.00  0.00    -0.003 C 
ATOM     14  C   UNL     1     -22.160 -14.729 -21.262  1.00  0.00     0.004 C 
ENDBRANCH  12  13
ENDBRANCH  11  12
ENDBRANCH  10  11
ENDBRANCH   9  10
ENDBRANCH   1   9
TORSDOF 10
ENDMDL
MODEL 4
REMARK VINA RESULT:    -3.777      0.933      1.561
REMARK INTER + INTRA:          -7.429
REMARK INTER:                  -6.114
REMARK INTRA:                  -1.315
REMARK UNBOUND:                -1.443
REMARK SMILES CCCCCCCCCCCC(=O)[O-]
REMARK SMILES IDX 7 1 8 2 9 3 10 4 11 5 12 6 13 7 14 8 6 9 5 10 4 11 3 12 2 13
REMARK SMILES IDX 1 14
REMARK H PARENT
REMARK Flexibility Score: inf
ROOT
ATOM      1  C   UNL     1     -22.227 -12.681 -20.074  1.00  0.00     0.000 C 
ENDROOT
BRANCH   1   2
ATOM      2  C   UNL     1     -22.617 -12.135 -18.696  1.00  0.00     0.000 C 
BRANCH   2   3
ATOM      3  C   UNL     1     -23.005 -13.271 -17.742  1.00  0.00     0.000 C 
BRANCH   3   4
ATOM      4  C   UNL     1     -22.426 -13.037 -16.342  1.00  0.00     0.006 C 
BRANCH   4   5
ATOM      5  C   UNL     1     -23.438 -12.329 -15.439  1.00  0.00     0.053 C 
BRANCH   5   6
ATOM      6  C   UNL     1     -23.964 -13.269 -14.401  1.00  0.00     0.041 C 
ATOM      7  O   UNL     1     -24.911 -12.918 -13.649  1.00  0.00    -0.550 OA
ATOM      8  O   UNL     1     -23.442 -14.552 -14.296  1.00  0.00    -0.550 OA
ENDBRANCH   5   6
ENDBRANCH   4   5
ENDBRANCH   3   4
ENDBRANCH   2   3
ENDBRANCH   1   2
BRANCH   1   9
ATOM      9  C   UNL     1     -22.781 -14.099 -20.281  1.00  0.00     0.000 C 
BRANCH   9  10
ATOM     10  C   UNL     1     -21.695 -15.104 -20.695  1.00  0.00    -0.000 C 
BRANCH  10  11
ATOM     11  C   UNL     1     -20.352 -14.848 -19.988  1.00  0.00    -0.000 C 
BRANCH  11  12
ATOM     12  C   UNL     1     -20.272 -15.523 -18.610  1.00  0.00    -0.000 C 
BRANCH  12  13
ATOM     13  C   UNL     1     -19.139 -14.958 -17.741  1.00  0.00    -0.003 C 
ATOM     14  C   UNL     1     -19.084 -13.435 -17.834  1.00  0.00     0.004 C 
ENDBRANCH  12  13
ENDBRANCH  11  12
ENDBRANCH  10  11
ENDBRANCH   9  10
ENDBRANCH   1   9
TORSDOF 10
ENDMDL
MODEL 5
REMARK VINA RESULT:    -3.742      2.436      4.638
REMARK INTER + INTRA:          -7.373
REMARK INTER:                  -6.174
REMARK INTRA:                  -1.199
REMARK UNBOUND:                -1.443
REMARK SMILES CCCCCCCCCCCC(=O)[O-]
REMARK SMILES IDX 7 1 8 2 9 3 10 4 11 5 12 6 13 7 14 8 6 9 5 10 4 11 3 12 2 13
REMARK SMILES IDX 1 14
REMARK H PARENT
REMARK Flexibility Score: inf
ROOT
ATOM      1  C   UNL     1     -21.914 -12.931 -19.582  1.00  0.00     0.000 C 
ENDROOT
BRANCH   1   2
ATOM      2  C   UNL     1     -20.703 -12.107 -19.128  1.00  0.00     0.000 C 
BRANCH   2   3
ATOM      3  C   UNL     1     -19.447 -12.980 -19.032  1.00  0.00     0.000 C 
BRANCH   3   4
ATOM      4  C   UNL     1     -19.364 -13.678 -17.669  1.00  0.00     0.006 C 
BRANCH   4   5
ATOM      5  C   UNL     1     -18.871 -15.119 -17.818  1.00  0.00     0.053 C 
BRANCH   5   6
ATOM      6  C   UNL     1     -20.012 -16.080 -17.695  1.00  0.00     0.041 C 
ATOM      7  O   UNL     1     -20.929 -16.089 -18.558  1.00  0.00    -0.550 OA
ATOM      8  O   UNL     1     -20.037 -16.999 -16.654  1.00  0.00    -0.550 OA
ENDBRANCH   5   6
ENDBRANCH   4   5
ENDBRANCH   3   4
ENDBRANCH   2   3
ENDBRANCH   1   2
BRANCH   1   9
ATOM      9  C   UNL     1     -22.979 -12.998 -18.477  1.00  0.00     0.000 C 
BRANCH   9  10
ATOM     10  C   UNL     1     -22.700 -12.020 -17.326  1.00  0.00    -0.000 C 
BRANCH  10  11
ATOM     11  C   UNL     1     -23.025 -12.621 -15.946  1.00  0.00    -0.000 C 
BRANCH  11  12
ATOM     12  C   UNL     1     -22.597 -14.092 -15.828  1.00  0.00    -0.000 C 
BRANCH  12  13
ATOM     13  C   UNL     1     -23.620 -14.943 -15.061  1.00  0.00    -0.003 C 
ATOM     14  C   UNL     1     -24.514 -14.070 -14.185  1.00  0.00     0.004 C 
ENDBRANCH  12  13
ENDBRANCH  11  12
ENDBRANCH  10  11
ENDBRANCH   9  10
ENDBRANCH   1   9
TORSDOF 10
ENDMDL
MODEL 6
REMARK VINA RESULT:    -3.684      1.799      3.210
REMARK INTER + INTRA:          -7.280
REMARK INTER:                  -6.399
REMARK INTRA:                  -0.881
REMARK UNBOUND:                -1.443
REMARK SMILES CCCCCCCCCCCC(=O)[O-]
REMARK SMILES IDX 7 1 8 2 9 3 10 4 11 5 12 6 13 7 14 8 6 9 5 10 4 11 3 12 2 13
REMARK SMILES IDX 1 14
REMARK H PARENT
REMARK Flexibility Score: inf
ROOT
ATOM      1  C   UNL     1     -23.084 -12.154 -16.291  1.00  0.00     0.000 C 
ENDROOT
BRANCH   1   2
ATOM      2  C   UNL     1     -23.087 -12.951 -14.982  1.00  0.00     0.000 C 
BRANCH   2   3
ATOM      3  C   UNL     1     -24.317 -12.610 -14.131  1.00  0.00     0.000 C 
BRANCH   3   4
ATOM      4  C   UNL     1     -25.249 -13.820 -13.999  1.00  0.00     0.006 C 
BRANCH   4   5
ATOM      5  C   UNL     1     -24.495 -15.125 -14.266  1.00  0.00     0.053 C 
BRANCH   5   6
ATOM      6  C   UNL     1     -25.325 -16.302 -13.860  1.00  0.00     0.041 C 
ATOM      7  O   UNL     1     -26.015 -16.259 -12.807  1.00  0.00    -0.550 OA
ATOM      8  O   UNL     1     -25.378 -17.429 -14.671  1.00  0.00    -0.550 OA
ENDBRANCH   5   6
ENDBRANCH   4   5
ENDBRANCH   3   4
ENDBRANCH   2   3
ENDBRANCH   1   2
BRANCH   1   9
ATOM      9  C   UNL     1     -22.322 -12.906 -17.392  1.00  0.00     0.000 C 
BRANCH   9  10
ATOM     10  C   UNL     1     -22.112 -14.391 -17.058  1.00  0.00    -0.000 C 
BRANCH  10  11
ATOM     11  C   UNL     1     -20.676 -14.865 -17.345  1.00  0.00    -0.000 C 
BRANCH  11  12
ATOM     12  C   UNL     1     -19.684 -13.699 -17.474  1.00  0.00    -0.000 C 
BRANCH  12  13
ATOM     13  C   UNL     1     -18.876 -13.754 -18.779  1.00  0.00    -0.003 C 
ATOM     14  C   UNL     1     -19.536 -12.913 -19.869  1.00  0.00     0.004 C 
ENDBRANCH  12  13
ENDBRANCH  11  12
ENDBRANCH  10  11
ENDBRANCH   9  10
ENDBRANCH   1   9
TORSDOF 10
ENDMDL
MODEL 7
REMARK VINA RESULT:    -3.639      2.827      4.971
REMARK INTER + INTRA:          -7.209
REMARK INTER:                  -5.890
REMARK INTRA:                  -1.320
REMARK UNBOUND:                -1.443
REMARK SMILES CCCCCCCCCCCC(=O)[O-]
REMARK SMILES IDX 7 1 8 2 9 3 10 4 11 5 12 6 13 7 14 8 6 9 5 10 4 11 3 12 2 13
REMARK SMILES IDX 1 14
REMARK H PARENT
REMARK Flexibility Score: inf
ROOT
ATOM      1  C   UNL     1     -20.317 -13.172 -18.569  1.00  0.00     0.000 C 
ENDROOT
BRANCH   1   2
ATOM      2  C   UNL     1     -21.251 -11.957 -18.624  1.00  0.00     0.000 C 
BRANCH   2   3
ATOM      3  C   UNL     1     -22.636 -12.350 -19.150  1.00  0.00     0.000 C 
BRANCH   3   4
ATOM      4  C   UNL     1     -22.522 -13.293 -20.353  1.00  0.00     0.006 C 
BRANCH   4   5
ATOM      5  C   UNL     1     -23.341 -14.567 -20.133  1.00  0.00     0.053 C 
BRANCH   5   6
ATOM      6  C   UNL     1     -22.506 -15.781 -20.396  1.00  0.00     0.041 C 
ATOM      7  O   UNL     1     -21.397 -15.672 -20.982  1.00  0.00    -0.550 OA
ATOM      8  O   UNL     1     -22.928 -17.026 -19.948  1.00  0.00    -0.550 OA
ENDBRANCH   5   6
ENDBRANCH   4   5
ENDBRANCH   3   4
ENDBRANCH   2   3
ENDBRANCH   1   2
BRANCH   1   9
ATOM      9  C   UNL     1     -20.318 -13.803 -17.168  1.00  0.00     0.000 C 
BRANCH   9  10
ATOM     10  C   UNL     1     -21.206 -15.054 -17.083  1.00  0.00    -0.000 C 
BRANCH  10  11
ATOM     11  C   UNL     1     -22.537 -14.786 -16.358  1.00  0.00    -0.000 C 
BRANCH  11  12
ATOM     12  C   UNL     1     -22.477 -13.547 -15.451  1.00  0.00    -0.000 C 
BRANCH  12  13
ATOM     13  C   UNL     1     -23.764 -13.350 -14.637  1.00  0.00    -0.003 C 
ATOM     14  C   UNL     1     -24.306 -14.685 -14.135  1.00  0.00     0.004 C 
ENDBRANCH  12  13
ENDBRANCH  11  12
ENDBRANCH  10  11
ENDBRANCH   9  10
ENDBRANCH   1   9
TORSDOF 10
ENDMDL
MODEL 8
REMARK VINA RESULT:    -3.612      2.920      5.720
REMARK INTER + INTRA:          -7.166
REMARK INTER:                  -6.206
REMARK INTRA:                  -0.961
REMARK UNBOUND:                -1.443
REMARK SMILES CCCCCCCCCCCC(=O)[O-]
REMARK SMILES IDX 7 1 8 2 9 3 10 4 11 5 12 6 13 7 14 8 6 9 5 10 4 11 3 12 2 13
REMARK SMILES IDX 1 14
REMARK H PARENT
REMARK Flexibility Score: inf
ROOT
ATOM      1  C   UNL     1     -21.655 -14.363 -17.078  1.00  0.00     0.000 C 
ENDROOT
BRANCH   1   2
ATOM      2  C   UNL     1     -20.303 -13.736 -17.438  1.00  0.00     0.000 C 
BRANCH   2   3
ATOM      3  C   UNL     1     -20.425 -12.835 -18.673  1.00  0.00     0.000 C 
BRANCH   3   4
ATOM      4  C   UNL     1     -20.380 -13.660 -19.964  1.00  0.00     0.006 C 
BRANCH   4   5
ATOM      5  C   UNL     1     -21.632 -13.423 -20.813  1.00  0.00     0.053 C 
BRANCH   5   6
ATOM      6  C   UNL     1     -22.325 -14.717 -21.099  1.00  0.00     0.041 C 
ATOM      7  O   UNL     1     -23.133 -15.201 -20.263  1.00  0.00    -0.550 OA
ATOM      8  O   UNL     1     -22.118 -15.364 -22.311  1.00  0.00    -0.550 OA
ENDBRANCH   5   6
ENDBRANCH   4   5
ENDBRANCH   3   4
ENDBRANCH   2   3
ENDBRANCH   1   2
BRANCH   1   9
ATOM      9  C   UNL     1     -22.800 -13.361 -17.291  1.00  0.00     0.000 C 
BRANCH   9  10
ATOM     10  C   UNL     1     -22.977 -12.403 -16.103  1.00  0.00    -0.000 C 
BRANCH  10  11
ATOM     11  C   UNL     1     -23.105 -13.144 -14.760  1.00  0.00    -0.000 C 
BRANCH  11  12
ATOM     12  C   UNL     1     -24.476 -12.934 -14.098  1.00  0.00    -0.000 C 
BRANCH  12  13
ATOM     13  C   UNL     1     -25.284 -14.236 -13.990  1.00  0.00    -0.003 C 
ATOM     14  C   UNL     1     -24.434 -15.443 -14.375  1.00  0.00     0.004 C 
ENDBRANCH  12  13
ENDBRANCH  11  12
ENDBRANCH  10  11
ENDBRANCH   9  10
ENDBRANCH   1   9
TORSDOF 10
ENDMDL
MODEL 9
REMARK VINA RESULT:    -3.603      2.778      5.087
REMARK INTER + INTRA:          -7.153
REMARK INTER:                  -6.127
REMARK INTRA:                  -1.025
REMARK UNBOUND:                -1.443
REMARK SMILES CCCCCCCCCCCC(=O)[O-]
REMARK SMILES IDX 7 1 8 2 9 3 10 4 11 5 12 6 13 7 14 8 6 9 5 10 4 11 3 12 2 13
REMARK SMILES IDX 1 14
REMARK H PARENT
REMARK Flexibility Score: inf
ROOT
ATOM      1  C   UNL     1     -22.889 -13.505 -19.632  1.00  0.00     0.000 C 
ENDROOT
BRANCH   1   2
ATOM      2  C   UNL     1     -21.801 -13.605 -20.707  1.00  0.00     0.000 C 
BRANCH   2   3
ATOM      3  C   UNL     1     -20.889 -12.372 -20.687  1.00  0.00     0.000 C 
BRANCH   3   4
ATOM      4  C   UNL     1     -19.461 -12.750 -20.279  1.00  0.00     0.006 C 
BRANCH   4   5
ATOM      5  C   UNL     1     -19.392 -14.203 -19.801  1.00  0.00     0.053 C 
BRANCH   5   6
ATOM      6  C   UNL     1     -18.542 -14.312 -18.574  1.00  0.00     0.041 C 
ATOM      7  O   UNL     1     -17.600 -15.146 -18.528  1.00  0.00    -0.550 OA
ATOM      8  O   UNL     1     -18.758 -13.458 -17.500  1.00  0.00    -0.550 OA
ENDBRANCH   5   6
ENDBRANCH   4   5
ENDBRANCH   3   4
ENDBRANCH   2   3
ENDBRANCH   1   2
BRANCH   1   9
ATOM      9  C   UNL     1     -22.700 -12.244 -18.774  1.00  0.00     0.000 C 
BRANCH   9  10
ATOM     10  C   UNL     1     -22.265 -12.566 -17.336  1.00  0.00    -0.000 C 
BRANCH  10  11
ATOM     11  C   UNL     1     -22.314 -14.073 -17.027  1.00  0.00    -0.000 C 
BRANCH  11  12
ATOM     12  C   UNL     1     -22.934 -14.374 -15.654  1.00  0.00    -0.000 C 
BRANCH  12  13
ATOM     13  C   UNL     1     -23.021 -13.128 -14.760  1.00  0.00    -0.003 C 
ATOM     14  C   UNL     1     -24.445 -12.913 -14.255  1.00  0.00     0.004 C 
ENDBRANCH  12  13
ENDBRANCH  11  12
ENDBRANCH  10  11
ENDBRANCH   9  10
ENDBRANCH   1   9
TORSDOF 10
ENDMDL
