MODEL 1
REMARK VINA RESULT:     5.449      0.000      0.000
REMARK INTER + INTRA:           6.244
REMARK INTER:                   6.564
REMARK INTRA:                  -0.319
REMARK UNBOUND:                -0.319
REMARK SMILES O=c1c(O)c(-c2ccc(O)c(O)c2)oc2cc(O)cc(O)c12
REMARK SMILES IDX 5 1 3 2 2 3 1 4 22 5 20 6 19 7 17 8 16 9 15 10 14 11 6 12
REMARK SMILES IDX 7 13 8 14 9 15 13 16 11 17 10 18 12 20 4 22 21 24 18 26
REMARK H PARENT 10 19 12 21 4 23 21 25 18 27
REMARK Flexibility Score: inf
ROOT
ATOM      1  C   UNL     1      -0.343  -9.199   8.067  1.00  0.00     0.180 A 
ATOM      2  C   UNL     1      -1.667  -9.096   7.606  1.00  0.00     0.208 A 
ATOM      3  C   UNL     1      -1.926  -9.274   6.238  1.00  0.00     0.238 A 
ATOM      4  O   UNL     1      -3.105  -9.127   5.822  1.00  0.00    -0.285 OA
ATOM      5  C   UNL     1      -0.863  -9.570   5.351  1.00  0.00     0.111 A 
ATOM      6  C   UNL     1      -1.016  -9.810   3.953  1.00  0.00     0.134 A 
ATOM      7  C   UNL     1       0.121  -9.964   3.150  1.00  0.00     0.093 A 
ATOM      8  C   UNL     1       1.400  -9.952   3.702  1.00  0.00     0.123 A 
ATOM      9  C   UNL     1       1.559  -9.778   5.079  1.00  0.00     0.094 A 
ATOM     10  C   UNL     1       0.446  -9.585   5.901  1.00  0.00     0.146 A 
ATOM     11  O   UNL     1       0.641  -9.412   7.202  1.00  0.00    -0.452 OA
ENDROOT
BRANCH   1  12
ATOM     12  C   UNL     1       0.007  -9.048   9.499  1.00  0.00     0.025 A 
ATOM     13  C   UNL     1      -0.131 -10.117  10.403  1.00  0.00     0.016 A 
ATOM     14  C   UNL     1       0.228  -9.959  11.744  1.00  0.00     0.051 A 
ATOM     15  C   UNL     1       0.741  -8.737  12.198  1.00  0.00     0.157 A 
ATOM     16  C   UNL     1       0.541  -7.833   9.956  1.00  0.00     0.062 A 
ATOM     17  C   UNL     1       0.901  -7.673  11.302  1.00  0.00     0.158 A 
BRANCH  15  18
ATOM     18  O   UNL     1       1.099  -8.575  13.535  1.00  0.00    -0.504 OA
ATOM     19  H   UNL     1       2.051  -8.358  13.806  1.00  0.00     0.293 HD
ENDBRANCH  15  18
BRANCH  17  20
ATOM     20  O   UNL     1       1.419  -6.461  11.756  1.00  0.00    -0.504 OA
ATOM     21  H   UNL     1       1.408  -6.215  12.740  1.00  0.00     0.293 HD
ENDBRANCH  17  20
ENDBRANCH   1  12
BRANCH   2  22
ATOM     22  O   UNL     1      -2.698  -8.782   8.495  1.00  0.00    -0.502 OA
ATOM     23  H   UNL     1      -3.149  -9.479   9.075  1.00  0.00     0.293 HD
ENDBRANCH   2  22
BRANCH   6  24
ATOM     24  O   UNL     1      -2.254  -9.933   3.314  1.00  0.00    -0.507 OA
ATOM     25  H   UNL     1      -2.920  -9.184   3.203  1.00  0.00     0.293 HD
ENDBRANCH   6  24
BRANCH   8  26
ATOM     26  O   UNL     1       2.508 -10.125   2.876  1.00  0.00    -0.508 OA
ATOM     27  H   UNL     1       2.745  -9.447   2.161  1.00  0.00     0.293 HD
ENDBRANCH   8  26
TORSDOF 6
ENDMDL
