MODEL 1
REMARK VINA RESULT:    -4.202      0.000      0.000
REMARK INTER + INTRA:          -7.968
REMARK INTER:                  -7.150
REMARK INTRA:                  -0.818
REMARK UNBOUND:                -0.818
REMARK SMILES CCCCCCCCCCCCCC(=O)[O-]
REMARK SMILES IDX 8 1 9 2 10 3 11 4 12 5 13 6 14 7 15 8 16 9 7 10 6 11 5 12
REMARK SMILES IDX 4 13 3 14 2 15 1 16
REMARK H PARENT
REMARK Flexibility Score: inf
ROOT
ATOM      1  C   UNL     1      32.378  -0.402  42.959  1.00  0.00     0.000 C 
ENDROOT
BRANCH   1   2
ATOM      2  C   UNL     1      31.009  -0.761  42.359  1.00  0.00     0.000 C 
BRANCH   2   3
ATOM      3  C   UNL     1      30.129  -1.480  43.394  1.00  0.00     0.000 C 
BRANCH   3   4
ATOM      4  C   UNL     1      30.863  -1.738  44.718  1.00  0.00     0.000 C 
BRANCH   4   5
ATOM      5  C   UNL     1      30.030  -1.332  45.947  1.00  0.00     0.006 C 
BRANCH   5   6
ATOM      6  C   UNL     1      28.524  -1.362  45.660  1.00  0.00     0.053 C 
BRANCH   6   7
ATOM      7  C   UNL     1      27.886  -2.614  46.178  1.00  0.00     0.041 C 
ATOM      8  O   UNL     1      28.433  -3.732  45.987  1.00  0.00    -0.550 OA
ATOM      9  O   UNL     1      26.702  -2.543  46.902  1.00  0.00    -0.550 OA
ENDBRANCH   6   7
ENDBRANCH   5   6
ENDBRANCH   4   5
ENDBRANCH   3   4
ENDBRANCH   2   3
ENDBRANCH   1   2
BRANCH   1  10
ATOM     10  C   UNL     1      33.444  -0.133  41.884  1.00  0.00     0.000 C 
BRANCH  10  11
ATOM     11  C   UNL     1      34.676  -1.043  42.034  1.00  0.00    -0.000 C 
BRANCH  11  12
ATOM     12  C   UNL     1      35.791  -0.403  42.882  1.00  0.00    -0.000 C 
BRANCH  12  13
ATOM     13  C   UNL     1      36.817  -1.390  43.475  1.00  0.00    -0.000 C 
BRANCH  13  14
ATOM     14  C   UNL     1      36.860  -2.772  42.799  1.00  0.00    -0.000 C 
BRANCH  14  15
ATOM     15  C   UNL     1      36.551  -3.920  43.770  1.00  0.00    -0.003 C 
ATOM     16  C   UNL     1      35.057  -4.232  43.794  1.00  0.00     0.004 C 
ENDBRANCH  14  15
ENDBRANCH  13  14
ENDBRANCH  12  13
ENDBRANCH  11  12
ENDBRANCH  10  11
ENDBRANCH   1  10
TORSDOF 12
ENDMDL
MODEL 2
REMARK VINA RESULT:    -4.053      3.054      7.216
REMARK INTER + INTRA:          -7.714
REMARK INTER:                  -7.025
REMARK INTRA:                  -0.689
REMARK UNBOUND:                -0.818
REMARK SMILES CCCCCCCCCCCCCC(=O)[O-]
REMARK SMILES IDX 8 1 9 2 10 3 11 4 12 5 13 6 14 7 15 8 16 9 7 10 6 11 5 12
REMARK SMILES IDX 4 13 3 14 2 15 1 16
REMARK H PARENT
REMARK Flexibility Score: inf
ROOT
ATOM      1  C   UNL     1      31.359  -0.757  42.419  1.00  0.00     0.000 C 
ENDROOT
BRANCH   1   2
ATOM      2  C   UNL     1      32.685  -0.262  43.017  1.00  0.00     0.000 C 
BRANCH   2   3
ATOM      3  C   UNL     1      33.782  -0.202  41.943  1.00  0.00     0.000 C 
BRANCH   3   4
ATOM      4  C   UNL     1      35.197  -0.243  42.540  1.00  0.00     0.000 C 
BRANCH   4   5
ATOM      5  C   UNL     1      35.934  -1.559  42.228  1.00  0.00     0.006 C 
BRANCH   5   6
ATOM      6  C   UNL     1      36.557  -2.184  43.482  1.00  0.00     0.053 C 
BRANCH   6   7
ATOM      7  C   UNL     1      36.336  -3.664  43.532  1.00  0.00     0.041 C 
ATOM      8  O   UNL     1      35.174  -4.129  43.675  1.00  0.00    -0.550 OA
ATOM      9  O   UNL     1      37.410  -4.533  43.385  1.00  0.00    -0.550 OA
ENDBRANCH   6   7
ENDBRANCH   5   6
ENDBRANCH   4   5
ENDBRANCH   3   4
ENDBRANCH   2   3
ENDBRANCH   1   2
BRANCH   1  10
ATOM     10  C   UNL     1      30.420  -1.361  43.476  1.00  0.00     0.000 C 
BRANCH  10  11
ATOM     11  C   UNL     1      31.183  -1.979  44.660  1.00  0.00    -0.000 C 
BRANCH  11  12
ATOM     12  C   UNL     1      30.353  -2.004  45.957  1.00  0.00    -0.000 C 
BRANCH  12  13
ATOM     13  C   UNL     1      29.114  -1.087  45.964  1.00  0.00    -0.000 C 
BRANCH  13  14
ATOM     14  C   UNL     1      27.759  -1.819  45.965  1.00  0.00    -0.000 C 
BRANCH  14  15
ATOM     15  C   UNL     1      27.825  -3.191  46.649  1.00  0.00    -0.003 C 
ATOM     16  C   UNL     1      26.630  -3.401  47.575  1.00  0.00     0.004 C 
ENDBRANCH  14  15
ENDBRANCH  13  14
ENDBRANCH  12  13
ENDBRANCH  11  12
ENDBRANCH  10  11
ENDBRANCH   1  10
TORSDOF 12
ENDMDL
MODEL 3
REMARK VINA RESULT:    -4.031      2.890      6.548
REMARK INTER + INTRA:          -7.676
REMARK INTER:                  -6.569
REMARK INTRA:                  -1.107
REMARK UNBOUND:                -0.818
REMARK SMILES CCCCCCCCCCCCCC(=O)[O-]
REMARK SMILES IDX 8 1 9 2 10 3 11 4 12 5 13 6 14 7 15 8 16 9 7 10 6 11 5 12
REMARK SMILES IDX 4 13 3 14 2 15 1 16
REMARK H PARENT
REMARK Flexibility Score: inf
ROOT
ATOM      1  C   UNL     1      31.983  -0.604  42.983  1.00  0.00     0.000 C 
ENDROOT
BRANCH   1   2
ATOM      2  C   UNL     1      33.191   0.306  42.711  1.00  0.00     0.000 C 
BRANCH   2   3
ATOM      3  C   UNL     1      34.340  -0.486  42.070  1.00  0.00     0.000 C 
BRANCH   3   4
ATOM      4  C   UNL     1      35.702  -0.172  42.707  1.00  0.00     0.000 C 
BRANCH   4   5
ATOM      5  C   UNL     1      36.428  -1.435  43.207  1.00  0.00     0.006 C 
BRANCH   5   6
ATOM      6  C   UNL     1      35.798  -2.720  42.659  1.00  0.00     0.053 C 
BRANCH   6   7
ATOM      7  C   UNL     1      35.861  -3.837  43.654  1.00  0.00     0.041 C 
ATOM      8  O   UNL     1      36.968  -4.201  44.132  1.00  0.00    -0.550 OA
ATOM      9  O   UNL     1      34.692  -4.457  44.080  1.00  0.00    -0.550 OA
ENDBRANCH   6   7
ENDBRANCH   5   6
ENDBRANCH   4   5
ENDBRANCH   3   4
ENDBRANCH   2   3
ENDBRANCH   1   2
BRANCH   1  10
ATOM     10  C   UNL     1      30.822  -0.358  42.004  1.00  0.00     0.000 C 
BRANCH  10  11
ATOM     11  C   UNL     1      29.727  -1.434  42.105  1.00  0.00    -0.000 C 
BRANCH  11  12
ATOM     12  C   UNL     1      28.568  -1.020  43.031  1.00  0.00    -0.000 C 
BRANCH  12  13
ATOM     13  C   UNL     1      28.488  -1.784  44.368  1.00  0.00    -0.000 C 
BRANCH  13  14
ATOM     14  C   UNL     1      29.198  -1.103  45.553  1.00  0.00    -0.000 C 
BRANCH  14  15
ATOM     15  C   UNL     1      30.411  -1.898  46.056  1.00  0.00    -0.003 C 
ATOM     16  C   UNL     1      30.583  -3.195  45.269  1.00  0.00     0.004 C 
ENDBRANCH  14  15
ENDBRANCH  13  14
ENDBRANCH  12  13
ENDBRANCH  11  12
ENDBRANCH  10  11
ENDBRANCH   1  10
TORSDOF 12
ENDMDL
MODEL 4
REMARK VINA RESULT:    -3.816      0.944      1.963
REMARK INTER + INTRA:          -7.311
REMARK INTER:                  -6.508
REMARK INTRA:                  -0.803
REMARK UNBOUND:                -0.818
REMARK SMILES CCCCCCCCCCCCCC(=O)[O-]
REMARK SMILES IDX 8 1 9 2 10 3 11 4 12 5 13 6 14 7 15 8 16 9 7 10 6 11 5 12
REMARK SMILES IDX 4 13 3 14 2 15 1 16
REMARK H PARENT
REMARK Flexibility Score: inf
ROOT
ATOM      1  C   UNL     1      31.081  -1.302  43.444  1.00  0.00     0.000 C 
ENDROOT
BRANCH   1   2
ATOM      2  C   UNL     1      30.847  -2.216  44.657  1.00  0.00     0.000 C 
BRANCH   2   3
ATOM      3  C   UNL     1      30.738  -1.393  45.950  1.00  0.00     0.000 C 
BRANCH   3   4
ATOM      4  C   UNL     1      29.369  -0.715  46.106  1.00  0.00     0.000 C 
BRANCH   4   5
ATOM      5  C   UNL     1      28.236  -1.501  45.421  1.00  0.00     0.006 C 
BRANCH   5   6
ATOM      6  C   UNL     1      27.199  -2.015  46.427  1.00  0.00     0.053 C 
BRANCH   6   7
ATOM      7  C   UNL     1      27.479  -3.426  46.841  1.00  0.00     0.041 C 
ATOM      8  O   UNL     1      26.904  -3.920  47.847  1.00  0.00    -0.550 OA
ATOM      9  O   UNL     1      28.352  -4.210  46.096  1.00  0.00    -0.550 OA
ENDBRANCH   6   7
ENDBRANCH   5   6
ENDBRANCH   4   5
ENDBRANCH   3   4
ENDBRANCH   2   3
ENDBRANCH   1   2
BRANCH   1  10
ATOM     10  C   UNL     1      32.457  -0.616  43.474  1.00  0.00     0.000 C 
BRANCH  10  11
ATOM     11  C   UNL     1      32.836   0.007  42.119  1.00  0.00    -0.000 C 
BRANCH  11  12
ATOM     12  C   UNL     1      34.340   0.321  42.007  1.00  0.00    -0.000 C 
BRANCH  12  13
ATOM     13  C   UNL     1      35.248  -0.444  42.991  1.00  0.00    -0.000 C 
BRANCH  13  14
ATOM     14  C   UNL     1      36.141  -1.523  42.353  1.00  0.00    -0.000 C 
BRANCH  14  15
ATOM     15  C   UNL     1      36.490  -2.658  43.325  1.00  0.00    -0.003 C 
ATOM     16  C   UNL     1      35.374  -3.698  43.380  1.00  0.00     0.004 C 
ENDBRANCH  14  15
ENDBRANCH  13  14
ENDBRANCH  12  13
ENDBRANCH  11  12
ENDBRANCH  10  11
ENDBRANCH   1  10
TORSDOF 12
ENDMDL
MODEL 5
REMARK VINA RESULT:    -3.609      1.537      1.919
REMARK INTER + INTRA:          -6.958
REMARK INTER:                  -6.391
REMARK INTRA:                  -0.568
REMARK UNBOUND:                -0.818
REMARK SMILES CCCCCCCCCCCCCC(=O)[O-]
REMARK SMILES IDX 8 1 9 2 10 3 11 4 12 5 13 6 14 7 15 8 16 9 7 10 6 11 5 12
REMARK SMILES IDX 4 13 3 14 2 15 1 16
REMARK H PARENT
REMARK Flexibility Score: inf
ROOT
ATOM      1  C   UNL     1      31.971  -0.377  41.915  1.00  0.00     0.000 C 
ENDROOT
BRANCH   1   2
ATOM      2  C   UNL     1      30.980  -1.118  42.827  1.00  0.00     0.000 C 
BRANCH   2   3
ATOM      3  C   UNL     1      29.546  -0.998  42.289  1.00  0.00     0.000 C 
BRANCH   3   4
ATOM      4  C   UNL     1      28.487  -1.138  43.392  1.00  0.00     0.000 C 
BRANCH   4   5
ATOM      5  C   UNL     1      28.472  -2.541  44.025  1.00  0.00     0.006 C 
BRANCH   5   6
ATOM      6  C   UNL     1      28.479  -2.484  45.558  1.00  0.00     0.053 C 
BRANCH   6   7
ATOM      7  C   UNL     1      29.648  -1.706  46.078  1.00  0.00     0.041 C 
ATOM      8  O   UNL     1      30.780  -2.251  46.180  1.00  0.00    -0.550 OA
ATOM      9  O   UNL     1      29.498  -0.368  46.419  1.00  0.00    -0.550 OA
ENDBRANCH   6   7
ENDBRANCH   5   6
ENDBRANCH   4   5
ENDBRANCH   3   4
ENDBRANCH   2   3
ENDBRANCH   1   2
BRANCH   1  10
ATOM     10  C   UNL     1      33.232   0.087  42.663  1.00  0.00     0.000 C 
BRANCH  10  11
ATOM     11  C   UNL     1      34.519  -0.536  42.092  1.00  0.00    -0.000 C 
BRANCH  11  12
ATOM     12  C   UNL     1      35.741  -0.320  43.004  1.00  0.00    -0.000 C 
BRANCH  12  13
ATOM     13  C   UNL     1      36.687  -1.532  43.135  1.00  0.00    -0.000 C 
BRANCH  13  14
ATOM     14  C   UNL     1      35.988  -2.884  43.362  1.00  0.00    -0.000 C 
BRANCH  14  15
ATOM     15  C   UNL     1      36.954  -4.074  43.279  1.00  0.00    -0.003 C 
ATOM     16  C   UNL     1      38.406  -3.611  43.364  1.00  0.00     0.004 C 
ENDBRANCH  14  15
ENDBRANCH  13  14
ENDBRANCH  12  13
ENDBRANCH  11  12
ENDBRANCH  10  11
ENDBRANCH   1  10
TORSDOF 12
ENDMDL
MODEL 6
REMARK VINA RESULT:    -3.582     12.295     14.683
REMARK INTER + INTRA:          -6.913
REMARK INTER:                  -6.035
REMARK INTRA:                  -0.878
REMARK UNBOUND:                -0.818
REMARK SMILES CCCCCCCCCCCCCC(=O)[O-]
REMARK SMILES IDX 8 1 9 2 10 3 11 4 12 5 13 6 14 7 15 8 16 9 7 10 6 11 5 12
REMARK SMILES IDX 4 13 3 14 2 15 1 16
REMARK H PARENT
REMARK Flexibility Score: inf
ROOT
ATOM      1  C   UNL     1      20.543  -9.823  44.009  1.00  0.00     0.000 C 
ENDROOT
BRANCH   1   2
ATOM      2  C   UNL     1      20.537  -9.381  42.537  1.00  0.00     0.000 C 
BRANCH   2   3
ATOM      3  C   UNL     1      21.224  -8.017  42.372  1.00  0.00     0.000 C 
BRANCH   3   4
ATOM      4  C   UNL     1      20.722  -6.975  43.382  1.00  0.00     0.000 C 
BRANCH   4   5
ATOM      5  C   UNL     1      20.113  -5.736  42.702  1.00  0.00     0.006 C 
BRANCH   5   6
ATOM      6  C   UNL     1      20.815  -4.440  43.127  1.00  0.00     0.053 C 
BRANCH   6   7
ATOM      7  C   UNL     1      20.112  -3.778  44.271  1.00  0.00     0.041 C 
ATOM      8  O   UNL     1      20.650  -3.738  45.410  1.00  0.00    -0.550 OA
ATOM      9  O   UNL     1      18.876  -3.175  44.074  1.00  0.00    -0.550 OA
ENDBRANCH   6   7
ENDBRANCH   5   6
ENDBRANCH   4   5
ENDBRANCH   3   4
ENDBRANCH   2   3
ENDBRANCH   1   2
BRANCH   1  10
ATOM     10  C   UNL     1      21.928 -10.297  44.480  1.00  0.00     0.000 C 
BRANCH  10  11
ATOM     11  C   UNL     1      21.900 -11.725  45.053  1.00  0.00    -0.000 C 
BRANCH  11  12
ATOM     12  C   UNL     1      22.637 -12.740  44.160  1.00  0.00    -0.000 C 
BRANCH  12  13
ATOM     13  C   UNL     1      21.728 -13.721  43.390  1.00  0.00    -0.000 C 
BRANCH  13  14
ATOM     14  C   UNL     1      20.217 -13.506  43.590  1.00  0.00    -0.000 C 
BRANCH  14  15
ATOM     15  C   UNL     1      19.508 -14.748  44.146  1.00  0.00    -0.003 C 
ATOM     16  C   UNL     1      20.245 -15.305  45.361  1.00  0.00     0.004 C 
ENDBRANCH  14  15
ENDBRANCH  13  14
ENDBRANCH  12  13
ENDBRANCH  11  12
ENDBRANCH  10  11
ENDBRANCH   1  10
TORSDOF 12
ENDMDL
MODEL 7
REMARK VINA RESULT:    -3.504     12.958     15.572
REMARK INTER + INTRA:          -6.781
REMARK INTER:                  -5.926
REMARK INTRA:                  -0.854
REMARK UNBOUND:                -0.818
REMARK SMILES CCCCCCCCCCCCCC(=O)[O-]
REMARK SMILES IDX 8 1 9 2 10 3 11 4 12 5 13 6 14 7 15 8 16 9 7 10 6 11 5 12
REMARK SMILES IDX 4 13 3 14 2 15 1 16
REMARK H PARENT
REMARK Flexibility Score: inf
ROOT
ATOM      1  C   UNL     1      21.407 -10.899  45.526  1.00  0.00     0.000 C 
ENDROOT
BRANCH   1   2
ATOM      2  C   UNL     1      21.923 -12.346  45.511  1.00  0.00     0.000 C 
BRANCH   2   3
ATOM      3  C   UNL     1      22.473 -12.717  44.125  1.00  0.00     0.000 C 
BRANCH   3   4
ATOM      4  C   UNL     1      21.688 -13.858  43.462  1.00  0.00     0.000 C 
BRANCH   4   5
ATOM      5  C   UNL     1      20.164 -13.690  43.603  1.00  0.00     0.006 C 
BRANCH   5   6
ATOM      6  C   UNL     1      19.483 -14.974  44.092  1.00  0.00     0.053 C 
BRANCH   6   7
ATOM      7  C   UNL     1      19.668 -15.173  45.565  1.00  0.00     0.041 C 
ATOM      8  O   UNL     1      20.375 -16.123  45.994  1.00  0.00    -0.550 OA
ATOM      9  O   UNL     1      19.086 -14.289  46.465  1.00  0.00    -0.550 OA
ENDBRANCH   6   7
ENDBRANCH   5   6
ENDBRANCH   4   5
ENDBRANCH   3   4
ENDBRANCH   2   3
ENDBRANCH   1   2
BRANCH   1  10
ATOM     10  C   UNL     1      21.781 -10.121  44.254  1.00  0.00     0.000 C 
BRANCH  10  11
ATOM     11  C   UNL     1      20.737  -9.052  43.887  1.00  0.00    -0.000 C 
BRANCH  11  12
ATOM     12  C   UNL     1      20.717  -8.730  42.381  1.00  0.00    -0.000 C 
BRANCH  12  13
ATOM     13  C   UNL     1      20.289  -7.293  42.020  1.00  0.00    -0.000 C 
BRANCH  13  14
ATOM     14  C   UNL     1      21.220  -6.184  42.542  1.00  0.00    -0.000 C 
BRANCH  14  15
ATOM     15  C   UNL     1      20.522  -5.233  43.524  1.00  0.00    -0.003 C 
ATOM     16  C   UNL     1      20.679  -3.779  43.088  1.00  0.00     0.004 C 
ENDBRANCH  14  15
ENDBRANCH  13  14
ENDBRANCH  12  13
ENDBRANCH  11  12
ENDBRANCH  10  11
ENDBRANCH   1  10
TORSDOF 12
ENDMDL
MODEL 8
REMARK VINA RESULT:    -3.460     12.343     14.540
REMARK INTER + INTRA:          -6.706
REMARK INTER:                  -5.241
REMARK INTRA:                  -1.465
REMARK UNBOUND:                -0.818
REMARK SMILES CCCCCCCCCCCCCC(=O)[O-]
REMARK SMILES IDX 8 1 9 2 10 3 11 4 12 5 13 6 14 7 15 8 16 9 7 10 6 11 5 12
REMARK SMILES IDX 4 13 3 14 2 15 1 16
REMARK H PARENT
REMARK Flexibility Score: inf
ROOT
ATOM      1  C   UNL     1      19.242 -10.280  43.178  1.00  0.00     0.000 C 
ENDROOT
BRANCH   1   2
ATOM      2  C   UNL     1      19.983  -9.059  43.746  1.00  0.00     0.000 C 
BRANCH   2   3
ATOM      3  C   UNL     1      21.342  -8.872  43.055  1.00  0.00     0.000 C 
BRANCH   3   4
ATOM      4  C   UNL     1      21.608  -7.413  42.657  1.00  0.00     0.000 C 
BRANCH   4   5
ATOM      5  C   UNL     1      20.588  -6.436  43.270  1.00  0.00     0.006 C 
BRANCH   5   6
ATOM      6  C   UNL     1      20.575  -5.084  42.546  1.00  0.00     0.053 C 
BRANCH   6   7
ATOM      7  C   UNL     1      20.482  -3.941  43.509  1.00  0.00     0.041 C 
ATOM      8  O   UNL     1      20.561  -4.146  44.750  1.00  0.00    -0.550 OA
ATOM      9  O   UNL     1      20.340  -2.642  43.036  1.00  0.00    -0.550 OA
ENDBRANCH   6   7
ENDBRANCH   5   6
ENDBRANCH   4   5
ENDBRANCH   3   4
ENDBRANCH   2   3
ENDBRANCH   1   2
BRANCH   1  10
ATOM     10  C   UNL     1      19.888 -10.821  41.892  1.00  0.00     0.000 C 
BRANCH  10  11
ATOM     11  C   UNL     1      20.063 -12.350  41.916  1.00  0.00    -0.000 C 
BRANCH  11  12
ATOM     12  C   UNL     1      19.648 -12.976  43.261  1.00  0.00    -0.000 C 
BRANCH  12  13
ATOM     13  C   UNL     1      20.800 -13.577  44.091  1.00  0.00    -0.000 C 
BRANCH  13  14
ATOM     14  C   UNL     1      22.214 -13.185  43.626  1.00  0.00    -0.000 C 
BRANCH  14  15
ATOM     15  C   UNL     1      22.820 -12.047  44.460  1.00  0.00    -0.003 C 
ATOM     16  C   UNL     1      21.893 -11.652  45.606  1.00  0.00     0.004 C 
ENDBRANCH  14  15
ENDBRANCH  13  14
ENDBRANCH  12  13
ENDBRANCH  11  12
ENDBRANCH  10  11
ENDBRANCH   1  10
TORSDOF 12
ENDMDL
MODEL 9
REMARK VINA RESULT:    -3.268     12.080     15.346
REMARK INTER + INTRA:          -6.379
REMARK INTER:                  -5.548
REMARK INTRA:                  -0.831
REMARK UNBOUND:                -0.818
REMARK SMILES CCCCCCCCCCCCCC(=O)[O-]
REMARK SMILES IDX 8 1 9 2 10 3 11 4 12 5 13 6 14 7 15 8 16 9 7 10 6 11 5 12
REMARK SMILES IDX 4 13 3 14 2 15 1 16
REMARK H PARENT
REMARK Flexibility Score: inf
ROOT
ATOM      1  C   UNL     1      20.869 -11.052  46.117  1.00  0.00     0.000 C 
ENDROOT
BRANCH   1   2
ATOM      2  C   UNL     1      19.761 -11.295  47.154  1.00  0.00     0.000 C 
BRANCH   2   3
ATOM      3  C   UNL     1      19.417 -12.789  47.248  1.00  0.00     0.000 C 
BRANCH   3   4
ATOM      4  C   UNL     1      20.352 -13.667  46.402  1.00  0.00     0.000 C 
BRANCH   4   5
ATOM      5  C   UNL     1      19.697 -14.140  45.092  1.00  0.00     0.006 C 
BRANCH   5   6
ATOM      6  C   UNL     1      20.731 -14.650  44.080  1.00  0.00     0.053 C 
BRANCH   6   7
ATOM      7  C   UNL     1      21.397 -13.524  43.352  1.00  0.00     0.041 C 
ATOM      8  O   UNL     1      20.780 -12.897  42.450  1.00  0.00    -0.550 OA
ATOM      9  O   UNL     1      22.690 -13.144  43.691  1.00  0.00    -0.550 OA
ENDBRANCH   6   7
ENDBRANCH   5   6
ENDBRANCH   4   5
ENDBRANCH   3   4
ENDBRANCH   2   3
ENDBRANCH   1   2
BRANCH   1  10
ATOM     10  C   UNL     1      20.375 -10.263  44.894  1.00  0.00     0.000 C 
BRANCH  10  11
ATOM     11  C   UNL     1      21.531  -9.688  44.056  1.00  0.00    -0.000 C 
BRANCH  11  12
ATOM     12  C   UNL     1      21.041  -8.855  42.856  1.00  0.00    -0.000 C 
BRANCH  12  13
ATOM     13  C   UNL     1      21.819  -7.548  42.600  1.00  0.00    -0.000 C 
BRANCH  13  14
ATOM     14  C   UNL     1      20.945  -6.309  42.333  1.00  0.00    -0.000 C 
BRANCH  14  15
ATOM     15  C   UNL     1      21.771  -5.040  42.087  1.00  0.00    -0.003 C 
ATOM     16  C   UNL     1      21.337  -3.912  43.019  1.00  0.00     0.004 C 
ENDBRANCH  14  15
ENDBRANCH  13  14
ENDBRANCH  12  13
ENDBRANCH  11  12
ENDBRANCH  10  11
ENDBRANCH   1  10
TORSDOF 12
ENDMDL
