MODEL 1
REMARK VINA RESULT:    -3.201      0.000      0.000
REMARK INTER + INTRA:          -6.902
REMARK INTER:                  -5.447
REMARK INTRA:                  -1.455
REMARK UNBOUND:                -1.455
REMARK SMILES CCCCCCCCCCCCCC(=O)[O-]
REMARK SMILES IDX 8 1 9 2 10 3 11 4 12 5 13 6 14 7 15 8 16 9 7 10 6 11 5 12
REMARK SMILES IDX 4 13 3 14 2 15 1 16
REMARK H PARENT
REMARK Flexibility Score: inf
ROOT
ATOM      1  C   UNL     1      32.118   7.344 -10.536  1.00  0.00     0.000 C 
ENDROOT
BRANCH   1   2
ATOM      2  C   UNL     1      32.100   6.113  -9.613  1.00  0.00     0.000 C 
BRANCH   2   3
ATOM      3  C   UNL     1      33.012   6.277  -8.383  1.00  0.00     0.000 C 
BRANCH   3   4
ATOM      4  C   UNL     1      32.559   5.511  -7.123  1.00  0.00     0.000 C 
BRANCH   4   5
ATOM      5  C   UNL     1      33.661   5.272  -6.070  1.00  0.00     0.006 C 
BRANCH   5   6
ATOM      6  C   UNL     1      35.093   5.434  -6.603  1.00  0.00     0.053 C 
BRANCH   6   7
ATOM      7  C   UNL     1      35.834   6.527  -5.896  1.00  0.00     0.041 C 
ATOM      8  O   UNL     1      35.722   6.663  -4.650  1.00  0.00    -0.550 OA
ATOM      9  O   UNL     1      36.620   7.416  -6.618  1.00  0.00    -0.550 OA
ENDBRANCH   6   7
ENDBRANCH   5   6
ENDBRANCH   4   5
ENDBRANCH   3   4
ENDBRANCH   2   3
ENDBRANCH   1   2
BRANCH   1  10
ATOM     10  C   UNL     1      30.733   7.998 -10.673  1.00  0.00     0.000 C 
BRANCH  10  11
ATOM     11  C   UNL     1      29.612   6.974 -10.906  1.00  0.00    -0.000 C 
BRANCH  11  12
ATOM     12  C   UNL     1      28.486   7.151  -9.875  1.00  0.00    -0.000 C 
BRANCH  12  13
ATOM     13  C   UNL     1      28.907   8.020  -8.677  1.00  0.00    -0.000 C 
BRANCH  13  14
ATOM     14  C   UNL     1      29.302   7.180  -7.450  1.00  0.00    -0.000 C 
BRANCH  14  15
ATOM     15  C   UNL     1      29.579   8.046  -6.210  1.00  0.00    -0.003 C 
ATOM     16  C   UNL     1      30.920   8.777  -6.284  1.00  0.00     0.004 C 
ENDBRANCH  14  15
ENDBRANCH  13  14
ENDBRANCH  12  13
ENDBRANCH  11  12
ENDBRANCH  10  11
ENDBRANCH   1  10
TORSDOF 12
ENDMDL
MODEL 2
REMARK VINA RESULT:    -3.187      4.442      8.232
REMARK INTER + INTRA:          -6.878
REMARK INTER:                  -5.068
REMARK INTRA:                  -1.809
REMARK UNBOUND:                -1.455
REMARK SMILES CCCCCCCCCCCCCC(=O)[O-]
REMARK SMILES IDX 8 1 9 2 10 3 11 4 12 5 13 6 14 7 15 8 16 9 7 10 6 11 5 12
REMARK SMILES IDX 4 13 3 14 2 15 1 16
REMARK H PARENT
REMARK Flexibility Score: inf
ROOT
ATOM      1  C   UNL     1      38.477   4.284  -7.055  1.00  0.00     0.000 C 
ENDROOT
BRANCH   1   2
ATOM      2  C   UNL     1      38.525   4.695  -8.538  1.00  0.00     0.000 C 
BRANCH   2   3
ATOM      3  C   UNL     1      37.277   5.480  -8.980  1.00  0.00     0.000 C 
BRANCH   3   4
ATOM      4  C   UNL     1      35.935   4.740  -8.793  1.00  0.00     0.000 C 
BRANCH   4   5
ATOM      5  C   UNL     1      34.934   5.429  -7.844  1.00  0.00     0.006 C 
BRANCH   5   6
ATOM      6  C   UNL     1      34.470   4.555  -6.668  1.00  0.00     0.053 C 
BRANCH   6   7
ATOM      7  C   UNL     1      34.900   5.117  -5.349  1.00  0.00     0.041 C 
ATOM      8  O   UNL     1      34.325   4.756  -4.289  1.00  0.00    -0.550 OA
ATOM      9  O   UNL     1      35.913   6.065  -5.292  1.00  0.00    -0.550 OA
ENDBRANCH   6   7
ENDBRANCH   5   6
ENDBRANCH   4   5
ENDBRANCH   3   4
ENDBRANCH   2   3
ENDBRANCH   1   2
BRANCH   1  10
ATOM     10  C   UNL     1      39.839   3.798  -6.534  1.00  0.00     0.000 C 
BRANCH  10  11
ATOM     11  C   UNL     1      40.320   2.516  -7.232  1.00  0.00    -0.000 C 
BRANCH  11  12
ATOM     12  C   UNL     1      39.876   1.269  -6.451  1.00  0.00    -0.000 C 
BRANCH  12  13
ATOM     13  C   UNL     1      38.740   0.502  -7.149  1.00  0.00    -0.000 C 
BRANCH  13  14
ATOM     14  C   UNL     1      38.603   0.876  -8.635  1.00  0.00    -0.000 C 
BRANCH  14  15
ATOM     15  C   UNL     1      37.149   1.179  -9.032  1.00  0.00    -0.003 C 
ATOM     16  C   UNL     1      36.199   1.200  -7.834  1.00  0.00     0.004 C 
ENDBRANCH  14  15
ENDBRANCH  13  14
ENDBRANCH  12  13
ENDBRANCH  11  12
ENDBRANCH  10  11
ENDBRANCH   1  10
TORSDOF 12
ENDMDL
MODEL 3
REMARK VINA RESULT:    -3.174      1.436      2.905
REMARK INTER + INTRA:          -6.856
REMARK INTER:                  -5.342
REMARK INTRA:                  -1.514
REMARK UNBOUND:                -1.455
REMARK SMILES CCCCCCCCCCCCCC(=O)[O-]
REMARK SMILES IDX 8 1 9 2 10 3 11 4 12 5 13 6 14 7 15 8 16 9 7 10 6 11 5 12
REMARK SMILES IDX 4 13 3 14 2 15 1 16
REMARK H PARENT
REMARK Flexibility Score: inf
ROOT
ATOM      1  C   UNL     1      32.631   7.435  -9.383  1.00  0.00     0.000 C 
ENDROOT
BRANCH   1   2
ATOM      2  C   UNL     1      34.137   7.453  -9.699  1.00  0.00     0.000 C 
BRANCH   2   3
ATOM      3  C   UNL     1      34.776   6.054  -9.639  1.00  0.00     0.000 C 
BRANCH   3   4
ATOM      4  C   UNL     1      35.869   5.875  -8.565  1.00  0.00     0.000 C 
BRANCH   4   5
ATOM      5  C   UNL     1      35.904   6.969  -7.478  1.00  0.00     0.006 C 
BRANCH   5   6
ATOM      6  C   UNL     1      36.216   6.449  -6.065  1.00  0.00     0.053 C 
BRANCH   6   7
ATOM      7  C   UNL     1      34.985   6.363  -5.216  1.00  0.00     0.041 C 
ATOM      8  O   UNL     1      34.173   7.324  -5.179  1.00  0.00    -0.550 OA
ATOM      9  O   UNL     1      34.752   5.236  -4.438  1.00  0.00    -0.550 OA
ENDBRANCH   6   7
ENDBRANCH   5   6
ENDBRANCH   4   5
ENDBRANCH   3   4
ENDBRANCH   2   3
ENDBRANCH   1   2
BRANCH   1  10
ATOM     10  C   UNL     1      32.138   6.047  -8.943  1.00  0.00     0.000 C 
BRANCH  10  11
ATOM     11  C   UNL     1      31.806   5.981  -7.444  1.00  0.00    -0.000 C 
BRANCH  11  12
ATOM     12  C   UNL     1      31.117   7.273  -6.979  1.00  0.00    -0.000 C 
BRANCH  12  13
ATOM     13  C   UNL     1      29.584   7.152  -6.947  1.00  0.00    -0.000 C 
BRANCH  13  14
ATOM     14  C   UNL     1      28.898   8.071  -7.973  1.00  0.00    -0.000 C 
BRANCH  14  15
ATOM     15  C   UNL     1      28.695   7.385  -9.333  1.00  0.00    -0.003 C 
ATOM     16  C   UNL     1      29.089   8.275 -10.512  1.00  0.00     0.004 C 
ENDBRANCH  14  15
ENDBRANCH  13  14
ENDBRANCH  12  13
ENDBRANCH  11  12
ENDBRANCH  10  11
ENDBRANCH   1  10
TORSDOF 12
ENDMDL
MODEL 4
REMARK VINA RESULT:    -3.162     12.255     13.998
REMARK INTER + INTRA:          -6.836
REMARK INTER:                  -5.615
REMARK INTRA:                  -1.221
REMARK UNBOUND:                -1.455
REMARK SMILES CCCCCCCCCCCCCC(=O)[O-]
REMARK SMILES IDX 8 1 9 2 10 3 11 4 12 5 13 6 14 7 15 8 16 9 7 10 6 11 5 12
REMARK SMILES IDX 4 13 3 14 2 15 1 16
REMARK H PARENT
REMARK Flexibility Score: inf
ROOT
ATOM      1  C   UNL     1      28.840  -1.658   3.890  1.00  0.00     0.000 C 
ENDROOT
BRANCH   1   2
ATOM      2  C   UNL     1      29.088  -0.401   4.742  1.00  0.00     0.000 C 
BRANCH   2   3
ATOM      3  C   UNL     1      30.224   0.479   4.190  1.00  0.00     0.000 C 
BRANCH   3   4
ATOM      4  C   UNL     1      31.302  -0.271   3.380  1.00  0.00     0.000 C 
BRANCH   4   5
ATOM      5  C   UNL     1      31.572   0.291   1.970  1.00  0.00     0.006 C 
BRANCH   5   6
ATOM      6  C   UNL     1      32.820   1.182   1.870  1.00  0.00     0.053 C 
BRANCH   6   7
ATOM      7  C   UNL     1      32.534   2.468   1.158  1.00  0.00     0.041 C 
ATOM      8  O   UNL     1      33.383   2.956   0.367  1.00  0.00    -0.550 OA
ATOM      9  O   UNL     1      31.345   3.146   1.395  1.00  0.00    -0.550 OA
ENDBRANCH   6   7
ENDBRANCH   5   6
ENDBRANCH   4   5
ENDBRANCH   3   4
ENDBRANCH   2   3
ENDBRANCH   1   2
BRANCH   1  10
ATOM     10  C   UNL     1      27.884  -1.395   2.715  1.00  0.00     0.000 C 
BRANCH  10  11
ATOM     11  C   UNL     1      27.721  -2.616   1.795  1.00  0.00    -0.000 C 
BRANCH  11  12
ATOM     12  C   UNL     1      26.241  -3.001   1.657  1.00  0.00    -0.000 C 
BRANCH  12  13
ATOM     13  C   UNL     1      25.344  -2.308   2.696  1.00  0.00    -0.000 C 
BRANCH  13  14
ATOM     14  C   UNL     1      24.927  -3.250   3.838  1.00  0.00    -0.000 C 
BRANCH  14  15
ATOM     15  C   UNL     1      25.407  -2.756   5.212  1.00  0.00    -0.003 C 
ATOM     16  C   UNL     1      25.198  -1.254   5.408  1.00  0.00     0.004 C 
ENDBRANCH  14  15
ENDBRANCH  13  14
ENDBRANCH  12  13
ENDBRANCH  11  12
ENDBRANCH  10  11
ENDBRANCH   1  10
TORSDOF 12
ENDMDL
MODEL 5
REMARK VINA RESULT:    -3.150      4.952      7.414
REMARK INTER + INTRA:          -6.815
REMARK INTER:                  -5.213
REMARK INTRA:                  -1.602
REMARK UNBOUND:                -1.455
REMARK SMILES CCCCCCCCCCCCCC(=O)[O-]
REMARK SMILES IDX 8 1 9 2 10 3 11 4 12 5 13 6 14 7 15 8 16 9 7 10 6 11 5 12
REMARK SMILES IDX 4 13 3 14 2 15 1 16
REMARK H PARENT
REMARK Flexibility Score: inf
ROOT
ATOM      1  C   UNL     1      36.142   2.177  -9.014  1.00  0.00     0.000 C 
ENDROOT
BRANCH   1   2
ATOM      2  C   UNL     1      36.006   1.369  -7.712  1.00  0.00     0.000 C 
BRANCH   2   3
ATOM      3  C   UNL     1      36.839   0.075  -7.723  1.00  0.00     0.000 C 
BRANCH   3   4
ATOM      4  C   UNL     1      37.922  -0.000  -8.821  1.00  0.00     0.000 C 
BRANCH   4   5
ATOM      5  C   UNL     1      39.350   0.351  -8.358  1.00  0.00     0.006 C 
BRANCH   5   6
ATOM      6  C   UNL     1      39.512   0.468  -6.834  1.00  0.00     0.053 C 
BRANCH   6   7
ATOM      7  C   UNL     1      40.518   1.511  -6.456  1.00  0.00     0.041 C 
ATOM      8  O   UNL     1      41.600   1.607  -7.091  1.00  0.00    -0.550 OA
ATOM      9  O   UNL     1      40.275   2.356  -5.380  1.00  0.00    -0.550 OA
ENDBRANCH   6   7
ENDBRANCH   5   6
ENDBRANCH   4   5
ENDBRANCH   3   4
ENDBRANCH   2   3
ENDBRANCH   1   2
BRANCH   1  10
ATOM     10  C   UNL     1      36.606   3.621  -8.766  1.00  0.00     0.000 C 
BRANCH  10  11
ATOM     11  C   UNL     1      37.838   3.702  -7.850  1.00  0.00    -0.000 C 
BRANCH  11  12
ATOM     12  C   UNL     1      37.752   4.925  -6.925  1.00  0.00    -0.000 C 
BRANCH  12  13
ATOM     13  C   UNL     1      36.561   5.840  -7.255  1.00  0.00    -0.000 C 
BRANCH  13  14
ATOM     14  C   UNL     1      35.893   6.417  -5.995  1.00  0.00    -0.000 C 
BRANCH  14  15
ATOM     15  C   UNL     1      34.932   5.419  -5.331  1.00  0.00    -0.003 C 
ATOM     16  C   UNL     1      33.941   4.803  -6.319  1.00  0.00     0.004 C 
ENDBRANCH  14  15
ENDBRANCH  13  14
ENDBRANCH  12  13
ENDBRANCH  11  12
ENDBRANCH  10  11
ENDBRANCH   1  10
TORSDOF 12
ENDMDL
MODEL 6
REMARK VINA RESULT:    -3.106      3.893      7.593
REMARK INTER + INTRA:          -6.741
REMARK INTER:                  -5.199
REMARK INTRA:                  -1.542
REMARK UNBOUND:                -1.455
REMARK SMILES CCCCCCCCCCCCCC(=O)[O-]
REMARK SMILES IDX 8 1 9 2 10 3 11 4 12 5 13 6 14 7 15 8 16 9 7 10 6 11 5 12
REMARK SMILES IDX 4 13 3 14 2 15 1 16
REMARK H PARENT
REMARK Flexibility Score: inf
ROOT
ATOM      1  C   UNL     1      36.740   4.007  -8.923  1.00  0.00     0.000 C 
ENDROOT
BRANCH   1   2
ATOM      2  C   UNL     1      37.438   5.152  -8.169  1.00  0.00     0.000 C 
BRANCH   2   3
ATOM      3  C   UNL     1      37.025   5.229  -6.688  1.00  0.00     0.000 C 
BRANCH   3   4
ATOM      4  C   UNL     1      36.525   6.611  -6.216  1.00  0.00     0.000 C 
BRANCH   4   5
ATOM      5  C   UNL     1      35.232   6.589  -5.376  1.00  0.00     0.006 C 
BRANCH   5   6
ATOM      6  C   UNL     1      34.231   5.496  -5.781  1.00  0.00     0.053 C 
BRANCH   6   7
ATOM      7  C   UNL     1      33.089   6.049  -6.576  1.00  0.00     0.041 C 
ATOM      8  O   UNL     1      32.193   5.282  -7.015  1.00  0.00    -0.550 OA
ATOM      9  O   UNL     1      33.033   7.407  -6.862  1.00  0.00    -0.550 OA
ENDBRANCH   6   7
ENDBRANCH   5   6
ENDBRANCH   4   5
ENDBRANCH   3   4
ENDBRANCH   2   3
ENDBRANCH   1   2
BRANCH   1  10
ATOM     10  C   UNL     1      35.912   3.106  -7.993  1.00  0.00     0.000 C 
BRANCH  10  11
ATOM     11  C   UNL     1      35.780   1.668  -8.518  1.00  0.00    -0.000 C 
BRANCH  11  12
ATOM     12  C   UNL     1      36.597   0.694  -7.655  1.00  0.00    -0.000 C 
BRANCH  12  13
ATOM     13  C   UNL     1      38.048   0.540  -8.141  1.00  0.00    -0.000 C 
BRANCH  13  14
ATOM     14  C   UNL     1      39.073   1.013  -7.095  1.00  0.00    -0.000 C 
BRANCH  14  15
ATOM     15  C   UNL     1      39.817   2.284  -7.536  1.00  0.00    -0.003 C 
ATOM     16  C   UNL     1      40.121   3.227  -6.372  1.00  0.00     0.004 C 
ENDBRANCH  14  15
ENDBRANCH  13  14
ENDBRANCH  12  13
ENDBRANCH  11  12
ENDBRANCH  10  11
ENDBRANCH   1  10
TORSDOF 12
ENDMDL
MODEL 7
REMARK VINA RESULT:    -3.060     12.780     15.059
REMARK INTER + INTRA:          -6.662
REMARK INTER:                  -5.040
REMARK INTRA:                  -1.622
REMARK UNBOUND:                -1.455
REMARK SMILES CCCCCCCCCCCCCC(=O)[O-]
REMARK SMILES IDX 8 1 9 2 10 3 11 4 12 5 13 6 14 7 15 8 16 9 7 10 6 11 5 12
REMARK SMILES IDX 4 13 3 14 2 15 1 16
REMARK H PARENT
REMARK Flexibility Score: inf
ROOT
ATOM      1  C   UNL     1      38.117   2.740   4.043  1.00  0.00     0.000 C 
ENDROOT
BRANCH   1   2
ATOM      2  C   UNL     1      38.996   4.002   3.990  1.00  0.00     0.000 C 
BRANCH   2   3
ATOM      3  C   UNL     1      38.854   4.880   5.246  1.00  0.00     0.000 C 
BRANCH   3   4
ATOM      4  C   UNL     1      37.423   5.371   5.547  1.00  0.00     0.000 C 
BRANCH   4   5
ATOM      5  C   UNL     1      37.170   6.866   5.268  1.00  0.00     0.006 C 
BRANCH   5   6
ATOM      6  C   UNL     1      36.863   7.194   3.798  1.00  0.00     0.053 C 
BRANCH   6   7
ATOM      7  C   UNL     1      38.008   7.888   3.128  1.00  0.00     0.041 C 
ATOM      8  O   UNL     1      38.941   8.378   3.816  1.00  0.00    -0.550 OA
ATOM      9  O   UNL     1      38.028   8.024   1.746  1.00  0.00    -0.550 OA
ENDBRANCH   6   7
ENDBRANCH   5   6
ENDBRANCH   4   5
ENDBRANCH   3   4
ENDBRANCH   2   3
ENDBRANCH   1   2
BRANCH   1  10
ATOM     10  C   UNL     1      38.653   1.609   3.151  1.00  0.00     0.000 C 
BRANCH  10  11
ATOM     11  C   UNL     1      39.610   2.115   2.060  1.00  0.00    -0.000 C 
BRANCH  11  12
ATOM     12  C   UNL     1      40.800   1.158   1.889  1.00  0.00    -0.000 C 
BRANCH  12  13
ATOM     13  C   UNL     1      41.500   0.833   3.219  1.00  0.00    -0.000 C 
BRANCH  13  14
ATOM     14  C   UNL     1      42.382   1.990   3.719  1.00  0.00    -0.000 C 
BRANCH  14  15
ATOM     15  C   UNL     1      42.035   2.414   5.156  1.00  0.00    -0.003 C 
ATOM     16  C   UNL     1      41.219   1.360   5.904  1.00  0.00     0.004 C 
ENDBRANCH  14  15
ENDBRANCH  13  14
ENDBRANCH  12  13
ENDBRANCH  11  12
ENDBRANCH  10  11
ENDBRANCH   1  10
TORSDOF 12
ENDMDL
MODEL 8
REMARK VINA RESULT:    -3.033      4.086      6.242
REMARK INTER + INTRA:          -6.615
REMARK INTER:                  -5.427
REMARK INTRA:                  -1.188
REMARK UNBOUND:                -1.455
REMARK SMILES CCCCCCCCCCCCCC(=O)[O-]
REMARK SMILES IDX 8 1 9 2 10 3 11 4 12 5 13 6 14 7 15 8 16 9 7 10 6 11 5 12
REMARK SMILES IDX 4 13 3 14 2 15 1 16
REMARK H PARENT
REMARK Flexibility Score: inf
ROOT
ATOM      1  C   UNL     1      36.817   4.885  -8.988  1.00  0.00     0.000 C 
ENDROOT
BRANCH   1   2
ATOM      2  C   UNL     1      35.956   3.677  -8.580  1.00  0.00     0.000 C 
BRANCH   2   3
ATOM      3  C   UNL     1      36.552   2.336  -9.044  1.00  0.00     0.000 C 
BRANCH   3   4
ATOM      4  C   UNL     1      36.647   1.246  -7.955  1.00  0.00     0.000 C 
BRANCH   4   5
ATOM      5  C   UNL     1      38.081   0.845  -7.554  1.00  0.00     0.006 C 
BRANCH   5   6
ATOM      6  C   UNL     1      39.049   2.027  -7.392  1.00  0.00     0.053 C 
BRANCH   6   7
ATOM      7  C   UNL     1      40.158   1.716  -6.435  1.00  0.00     0.041 C 
ATOM      8  O   UNL     1      41.301   2.215  -6.606  1.00  0.00    -0.550 OA
ATOM      9  O   UNL     1      39.939   0.847  -5.373  1.00  0.00    -0.550 OA
ENDBRANCH   6   7
ENDBRANCH   5   6
ENDBRANCH   4   5
ENDBRANCH   3   4
ENDBRANCH   2   3
ENDBRANCH   1   2
BRANCH   1  10
ATOM     10  C   UNL     1      36.767   6.021  -7.953  1.00  0.00     0.000 C 
BRANCH  10  11
ATOM     11  C   UNL     1      36.705   5.506  -6.507  1.00  0.00    -0.000 C 
BRANCH  11  12
ATOM     12  C   UNL     1      35.617   6.243  -5.710  1.00  0.00    -0.000 C 
BRANCH  12  13
ATOM     13  C   UNL     1      34.465   5.320  -5.280  1.00  0.00    -0.000 C 
BRANCH  13  14
ATOM     14  C   UNL     1      33.519   4.975  -6.443  1.00  0.00    -0.000 C 
BRANCH  14  15
ATOM     15  C   UNL     1      33.118   6.213  -7.261  1.00  0.00    -0.003 C 
ATOM     16  C   UNL     1      31.627   6.535  -7.157  1.00  0.00     0.004 C 
ENDBRANCH  14  15
ENDBRANCH  13  14
ENDBRANCH  12  13
ENDBRANCH  11  12
ENDBRANCH  10  11
ENDBRANCH   1  10
TORSDOF 12
ENDMDL
MODEL 9
REMARK VINA RESULT:    -2.004     12.917     15.401
REMARK INTER + INTRA:          -4.866
REMARK INTER:                  -2.661
REMARK INTRA:                  -2.205
REMARK UNBOUND:                -1.455
REMARK SMILES CCCCCCCCCCCCCC(=O)[O-]
REMARK SMILES IDX 8 1 9 2 10 3 11 4 12 5 13 6 14 7 15 8 16 9 7 10 6 11 5 12
REMARK SMILES IDX 4 13 3 14 2 15 1 16
REMARK H PARENT
REMARK Flexibility Score: inf
ROOT
ATOM      1  C   UNL     1      39.064  -0.537   4.762  1.00  0.00     0.000 C 
ENDROOT
BRANCH   1   2
ATOM      2  C   UNL     1      40.361  -1.174   4.233  1.00  0.00     0.000 C 
BRANCH   2   3
ATOM      3  C   UNL     1      40.350  -1.372   2.707  1.00  0.00     0.000 C 
BRANCH   3   4
ATOM      4  C   UNL     1      41.551  -0.762   1.955  1.00  0.00     0.000 C 
BRANCH   4   5
ATOM      5  C   UNL     1      41.235  -0.213   0.549  1.00  0.00     0.006 C 
BRANCH   5   6
ATOM      6  C   UNL     1      39.770   0.204   0.346  1.00  0.00     0.053 C 
BRANCH   6   7
ATOM      7  C   UNL     1      39.103  -0.598  -0.728  1.00  0.00     0.041 C 
ATOM      8  O   UNL     1      37.931  -1.028  -0.563  1.00  0.00    -0.550 OA
ATOM      9  O   UNL     1      39.788  -0.901  -1.899  1.00  0.00    -0.550 OA
ENDBRANCH   6   7
ENDBRANCH   5   6
ENDBRANCH   4   5
ENDBRANCH   3   4
ENDBRANCH   2   3
ENDBRANCH   1   2
BRANCH   1  10
ATOM     10  C   UNL     1      38.393   0.379   3.726  1.00  0.00     0.000 C 
BRANCH  10  11
ATOM     11  C   UNL     1      38.039   1.762   4.296  1.00  0.00    -0.000 C 
BRANCH  11  12
ATOM     12  C   UNL     1      39.284   2.659   4.367  1.00  0.00    -0.000 C 
BRANCH  12  13
ATOM     13  C   UNL     1      40.063   2.704   3.042  1.00  0.00    -0.000 C 
BRANCH  13  14
ATOM     14  C   UNL     1      41.587   2.698   3.254  1.00  0.00    -0.000 C 
BRANCH  14  15
ATOM     15  C   UNL     1      41.982   2.238   4.666  1.00  0.00    -0.003 C 
ATOM     16  C   UNL     1      43.125   1.223   4.662  1.00  0.00     0.004 C 
ENDBRANCH  14  15
ENDBRANCH  13  14
ENDBRANCH  12  13
ENDBRANCH  11  12
ENDBRANCH  10  11
ENDBRANCH   1  10
TORSDOF 12
ENDMDL
