MODEL 1
REMARK VINA RESULT:    -4.556      0.000      0.000
REMARK INTER + INTRA:         -10.725
REMARK INTER:                  -8.285
REMARK INTRA:                  -2.440
REMARK UNBOUND:                -2.440
REMARK SMILES CCCCCCCCCCCCCCCC(=O)[O-]
REMARK SMILES IDX 9 1 10 2 11 3 12 4 13 5 14 6 15 7 16 8 17 9 18 10 8 11 7 12
REMARK SMILES IDX 6 13 5 14 4 15 3 16 2 17 1 18
REMARK H PARENT
REMARK Flexibility Score: inf
ROOT
ATOM      1  C   UNL     1    -104.564 -87.639  36.777  1.00  0.00     0.000 C 
ENDROOT
BRANCH   1   2
ATOM      2  C   UNL     1    -104.524 -86.983  38.167  1.00  0.00     0.000 C 
BRANCH   2   3
ATOM      3  C   UNL     1    -105.241 -85.622  38.208  1.00  0.00     0.000 C 
BRANCH   3   4
ATOM      4  C   UNL     1    -105.113 -84.848  39.536  1.00  0.00     0.000 C 
BRANCH   4   5
ATOM      5  C   UNL     1    -105.170 -83.316  39.407  1.00  0.00     0.000 C 
BRANCH   5   6
ATOM      6  C   UNL     1    -103.862 -82.633  39.834  1.00  0.00     0.006 C 
BRANCH   6   7
ATOM      7  C   UNL     1    -104.104 -81.166  40.203  1.00  0.00     0.053 C 
BRANCH   7   8
ATOM      8  C   UNL     1    -104.469 -80.374  38.988  1.00  0.00     0.041 C 
ATOM      9  O   UNL     1    -103.616 -80.177  38.081  1.00  0.00    -0.550 OA
ATOM     10  O   UNL     1    -105.762 -79.893  38.833  1.00  0.00    -0.550 OA
ENDBRANCH   7   8
ENDBRANCH   6   7
ENDBRANCH   5   6
ENDBRANCH   4   5
ENDBRANCH   3   4
ENDBRANCH   2   3
ENDBRANCH   1   2
BRANCH   1  11
ATOM     11  C   UNL     1    -105.636 -87.025  35.858  1.00  0.00     0.000 C 
BRANCH  11  12
ATOM     12  C   UNL     1    -105.110 -86.431  34.535  1.00  0.00    -0.000 C 
BRANCH  12  13
ATOM     13  C   UNL     1    -105.613 -85.013  34.205  1.00  0.00    -0.000 C 
BRANCH  13  14
ATOM     14  C   UNL     1    -104.503 -83.952  34.291  1.00  0.00    -0.000 C 
BRANCH  14  15
ATOM     15  C   UNL     1    -104.477 -83.235  35.651  1.00  0.00    -0.000 C 
BRANCH  15  16
ATOM     16  C   UNL     1    -103.056 -83.081  36.214  1.00  0.00    -0.000 C 
BRANCH  16  17
ATOM     17  C   UNL     1    -102.327 -84.430  36.239  1.00  0.00    -0.003 C 
ATOM     18  C   UNL     1    -101.751 -84.720  37.622  1.00  0.00     0.004 C 
ENDBRANCH  16  17
ENDBRANCH  15  16
ENDBRANCH  14  15
ENDBRANCH  13  14
ENDBRANCH  12  13
ENDBRANCH  11  12
ENDBRANCH   1  11
TORSDOF 14
ENDMDL
MODEL 2
REMARK VINA RESULT:    -4.491      1.302      2.590
REMARK INTER + INTRA:         -10.606
REMARK INTER:                  -8.326
REMARK INTRA:                  -2.280
REMARK UNBOUND:                -2.440
REMARK SMILES CCCCCCCCCCCCCCCC(=O)[O-]
REMARK SMILES IDX 9 1 10 2 11 3 12 4 13 5 14 6 15 7 16 8 17 9 18 10 8 11 7 12
REMARK SMILES IDX 6 13 5 14 4 15 3 16 2 17 1 18
REMARK H PARENT
REMARK Flexibility Score: inf
ROOT
ATOM      1  C   UNL     1    -105.116 -85.465  38.667  1.00  0.00     0.000 C 
ENDROOT
BRANCH   1   2
ATOM      2  C   UNL     1    -104.570 -84.380  39.609  1.00  0.00     0.000 C 
BRANCH   2   3
ATOM      3  C   UNL     1    -103.051 -84.487  39.829  1.00  0.00     0.000 C 
BRANCH   3   4
ATOM      4  C   UNL     1    -102.271 -83.162  39.698  1.00  0.00     0.000 C 
BRANCH   4   5
ATOM      5  C   UNL     1    -102.993 -81.921  40.253  1.00  0.00     0.000 C 
BRANCH   5   6
ATOM      6  C   UNL     1    -103.173 -80.816  39.202  1.00  0.00     0.006 C 
BRANCH   6   7
ATOM      7  C   UNL     1    -103.606 -81.406  37.856  1.00  0.00     0.053 C 
BRANCH   7   8
ATOM      8  C   UNL     1    -105.037 -81.072  37.575  1.00  0.00     0.041 C 
ATOM      9  O   UNL     1    -105.861 -80.968  38.522  1.00  0.00    -0.550 OA
ATOM     10  O   UNL     1    -105.452 -80.830  36.272  1.00  0.00    -0.550 OA
ENDBRANCH   7   8
ENDBRANCH   6   7
ENDBRANCH   5   6
ENDBRANCH   4   5
ENDBRANCH   3   4
ENDBRANCH   2   3
ENDBRANCH   1   2
BRANCH   1  11
ATOM     11  C   UNL     1    -104.070 -86.543  38.328  1.00  0.00     0.000 C 
BRANCH  11  12
ATOM     12  C   UNL     1    -104.578 -87.703  37.447  1.00  0.00    -0.000 C 
BRANCH  12  13
ATOM     13  C   UNL     1    -105.563 -87.301  36.334  1.00  0.00    -0.000 C 
BRANCH  13  14
ATOM     14  C   UNL     1    -104.868 -86.635  35.135  1.00  0.00    -0.000 C 
BRANCH  14  15
ATOM     15  C   UNL     1    -105.370 -85.204  34.883  1.00  0.00    -0.000 C 
BRANCH  15  16
ATOM     16  C   UNL     1    -104.344 -84.134  35.286  1.00  0.00    -0.000 C 
BRANCH  16  17
ATOM     17  C   UNL     1    -102.917 -84.598  34.970  1.00  0.00    -0.003 C 
ATOM     18  C   UNL     1    -102.005 -84.440  36.184  1.00  0.00     0.004 C 
ENDBRANCH  16  17
ENDBRANCH  15  16
ENDBRANCH  14  15
ENDBRANCH  13  14
ENDBRANCH  12  13
ENDBRANCH  11  12
ENDBRANCH   1  11
TORSDOF 14
ENDMDL
MODEL 3
REMARK VINA RESULT:    -4.478      2.179      4.915
REMARK INTER + INTRA:         -10.583
REMARK INTER:                  -8.841
REMARK INTRA:                  -1.742
REMARK UNBOUND:                -2.440
REMARK SMILES CCCCCCCCCCCCCCCC(=O)[O-]
REMARK SMILES IDX 9 1 10 2 11 3 12 4 13 5 14 6 15 7 16 8 17 9 18 10 8 11 7 12
REMARK SMILES IDX 6 13 5 14 4 15 3 16 2 17 1 18
REMARK H PARENT
REMARK Flexibility Score: inf
ROOT
ATOM      1  C   UNL     1    -103.751 -87.252  38.613  1.00  0.00     0.000 C 
ENDROOT
BRANCH   1   2
ATOM      2  C   UNL     1    -104.925 -87.482  37.647  1.00  0.00     0.000 C 
BRANCH   2   3
ATOM      3  C   UNL     1    -104.536 -87.276  36.172  1.00  0.00     0.000 C 
BRANCH   3   4
ATOM      4  C   UNL     1    -105.499 -86.393  35.353  1.00  0.00     0.000 C 
BRANCH   4   5
ATOM      5  C   UNL     1    -104.820 -85.333  34.468  1.00  0.00     0.000 C 
BRANCH   5   6
ATOM      6  C   UNL     1    -104.667 -83.977  35.173  1.00  0.00     0.006 C 
BRANCH   6   7
ATOM      7  C   UNL     1    -103.294 -83.362  34.886  1.00  0.00     0.053 C 
BRANCH   7   8
ATOM      8  C   UNL     1    -102.203 -84.290  35.320  1.00  0.00     0.041 C 
ATOM      9  O   UNL     1    -101.359 -84.709  34.484  1.00  0.00    -0.550 OA
ATOM     10  O   UNL     1    -102.091 -84.655  36.654  1.00  0.00    -0.550 OA
ENDBRANCH   7   8
ENDBRANCH   6   7
ENDBRANCH   5   6
ENDBRANCH   4   5
ENDBRANCH   3   4
ENDBRANCH   2   3
ENDBRANCH   1   2
BRANCH   1  11
ATOM     11  C   UNL     1    -103.863 -85.922  39.382  1.00  0.00     0.000 C 
BRANCH  11  12
ATOM     12  C   UNL     1    -105.163 -85.126  39.139  1.00  0.00    -0.000 C 
BRANCH  12  13
ATOM     13  C   UNL     1    -105.145 -83.670  39.639  1.00  0.00    -0.000 C 
BRANCH  13  14
ATOM     14  C   UNL     1    -104.714 -82.672  38.552  1.00  0.00    -0.000 C 
BRANCH  14  15
ATOM     15  C   UNL     1    -103.273 -82.174  38.746  1.00  0.00    -0.000 C 
BRANCH  15  16
ATOM     16  C   UNL     1    -103.042 -81.548  40.130  1.00  0.00    -0.000 C 
BRANCH  16  17
ATOM     17  C   UNL     1    -103.717 -80.175  40.230  1.00  0.00    -0.003 C 
ATOM     18  C   UNL     1    -104.022 -79.814  41.681  1.00  0.00     0.004 C 
ENDBRANCH  16  17
ENDBRANCH  15  16
ENDBRANCH  14  15
ENDBRANCH  13  14
ENDBRANCH  12  13
ENDBRANCH  11  12
ENDBRANCH   1  11
TORSDOF 14
ENDMDL
MODEL 4
REMARK VINA RESULT:    -4.463      3.312      5.544
REMARK INTER + INTRA:         -10.556
REMARK INTER:                  -8.282
REMARK INTRA:                  -2.274
REMARK UNBOUND:                -2.440
REMARK SMILES CCCCCCCCCCCCCCCC(=O)[O-]
REMARK SMILES IDX 9 1 10 2 11 3 12 4 13 5 14 6 15 7 16 8 17 9 18 10 8 11 7 12
REMARK SMILES IDX 6 13 5 14 4 15 3 16 2 17 1 18
REMARK H PARENT
REMARK Flexibility Score: inf
ROOT
ATOM      1  C   UNL     1    -105.121 -86.609  37.301  1.00  0.00     0.000 C 
ENDROOT
BRANCH   1   2
ATOM      2  C   UNL     1    -104.951 -87.493  36.056  1.00  0.00     0.000 C 
BRANCH   2   3
ATOM      3  C   UNL     1    -105.434 -86.808  34.765  1.00  0.00     0.000 C 
BRANCH   3   4
ATOM      4  C   UNL     1    -105.633 -85.281  34.863  1.00  0.00     0.000 C 
BRANCH   4   5
ATOM      5  C   UNL     1    -105.102 -84.476  33.664  1.00  0.00     0.000 C 
BRANCH   5   6
ATOM      6  C   UNL     1    -103.846 -85.099  33.037  1.00  0.00     0.006 C 
BRANCH   6   7
ATOM      7  C   UNL     1    -102.821 -84.019  32.673  1.00  0.00     0.053 C 
BRANCH   7   8
ATOM      8  C   UNL     1    -102.477 -84.093  31.219  1.00  0.00     0.041 C 
ATOM      9  O   UNL     1    -101.285 -83.942  30.842  1.00  0.00    -0.550 OA
ATOM     10  O   UNL     1    -103.465 -84.374  30.285  1.00  0.00    -0.550 OA
ENDBRANCH   7   8
ENDBRANCH   6   7
ENDBRANCH   5   6
ENDBRANCH   4   5
ENDBRANCH   3   4
ENDBRANCH   2   3
ENDBRANCH   1   2
BRANCH   1  11
ATOM     11  C   UNL     1    -104.079 -86.910  38.395  1.00  0.00     0.000 C 
BRANCH  11  12
ATOM     12  C   UNL     1    -103.875 -85.792  39.438  1.00  0.00    -0.000 C 
BRANCH  12  13
ATOM     13  C   UNL     1    -105.137 -84.986  39.795  1.00  0.00    -0.000 C 
BRANCH  13  14
ATOM     14  C   UNL     1    -104.997 -83.487  39.483  1.00  0.00    -0.000 C 
BRANCH  14  15
ATOM     15  C   UNL     1    -103.774 -83.180  38.604  1.00  0.00    -0.000 C 
BRANCH  15  16
ATOM     16  C   UNL     1    -104.155 -82.803  37.164  1.00  0.00    -0.000 C 
BRANCH  16  17
ATOM     17  C   UNL     1    -102.969 -83.002  36.213  1.00  0.00    -0.003 C 
ATOM     18  C   UNL     1    -102.302 -84.356  36.439  1.00  0.00     0.004 C 
ENDBRANCH  16  17
ENDBRANCH  15  16
ENDBRANCH  14  15
ENDBRANCH  13  14
ENDBRANCH  12  13
ENDBRANCH  11  12
ENDBRANCH   1  11
TORSDOF 14
ENDMDL
MODEL 5
REMARK VINA RESULT:    -4.451      1.901      4.787
REMARK INTER + INTRA:         -10.533
REMARK INTER:                  -8.973
REMARK INTRA:                  -1.560
REMARK UNBOUND:                -2.440
REMARK SMILES CCCCCCCCCCCCCCCC(=O)[O-]
REMARK SMILES IDX 9 1 10 2 11 3 12 4 13 5 14 6 15 7 16 8 17 9 18 10 8 11 7 12
REMARK SMILES IDX 6 13 5 14 4 15 3 16 2 17 1 18
REMARK H PARENT
REMARK Flexibility Score: inf
ROOT
ATOM      1  C   UNL     1    -104.716 -87.107  35.637  1.00  0.00     0.000 C 
ENDROOT
BRANCH   1   2
ATOM      2  C   UNL     1    -105.730 -86.413  34.714  1.00  0.00     0.000 C 
BRANCH   2   3
ATOM      3  C   UNL     1    -105.599 -84.879  34.727  1.00  0.00     0.000 C 
BRANCH   3   4
ATOM      4  C   UNL     1    -105.122 -84.246  33.404  1.00  0.00     0.000 C 
BRANCH   4   5
ATOM      5  C   UNL     1    -103.816 -84.829  32.834  1.00  0.00     0.000 C 
BRANCH   5   6
ATOM      6  C   UNL     1    -102.597 -83.933  33.101  1.00  0.00     0.006 C 
BRANCH   6   7
ATOM      7  C   UNL     1    -101.777 -84.460  34.283  1.00  0.00     0.053 C 
BRANCH   7   8
ATOM      8  C   UNL     1    -102.293 -83.898  35.570  1.00  0.00     0.041 C 
ATOM      9  O   UNL     1    -102.207 -84.569  36.633  1.00  0.00    -0.550 OA
ATOM     10  O   UNL     1    -102.826 -82.617  35.605  1.00  0.00    -0.550 OA
ENDBRANCH   7   8
ENDBRANCH   6   7
ENDBRANCH   5   6
ENDBRANCH   4   5
ENDBRANCH   3   4
ENDBRANCH   2   3
ENDBRANCH   1   2
BRANCH   1  11
ATOM     11  C   UNL     1    -105.269 -87.357  37.052  1.00  0.00     0.000 C 
BRANCH  11  12
ATOM     12  C   UNL     1    -104.217 -87.368  38.180  1.00  0.00    -0.000 C 
BRANCH  12  13
ATOM     13  C   UNL     1    -104.114 -86.066  38.996  1.00  0.00    -0.000 C 
BRANCH  13  14
ATOM     14  C   UNL     1    -105.287 -85.106  38.739  1.00  0.00    -0.000 C 
BRANCH  14  15
ATOM     15  C   UNL     1    -105.210 -83.837  39.603  1.00  0.00    -0.000 C 
BRANCH  15  16
ATOM     16  C   UNL     1    -104.280 -82.769  39.008  1.00  0.00    -0.000 C 
BRANCH  16  17
ATOM     17  C   UNL     1    -103.303 -82.242  40.066  1.00  0.00    -0.003 C 
ATOM     18  C   UNL     1    -102.154 -83.221  40.291  1.00  0.00     0.004 C 
ENDBRANCH  16  17
ENDBRANCH  15  16
ENDBRANCH  14  15
ENDBRANCH  13  14
ENDBRANCH  12  13
ENDBRANCH  11  12
ENDBRANCH   1  11
TORSDOF 14
ENDMDL
MODEL 6
REMARK VINA RESULT:    -4.417      2.811      5.502
REMARK INTER + INTRA:         -10.472
REMARK INTER:                  -8.480
REMARK INTRA:                  -1.992
REMARK UNBOUND:                -2.440
REMARK SMILES CCCCCCCCCCCCCCCC(=O)[O-]
REMARK SMILES IDX 9 1 10 2 11 3 12 4 13 5 14 6 15 7 16 8 17 9 18 10 8 11 7 12
REMARK SMILES IDX 6 13 5 14 4 15 3 16 2 17 1 18
REMARK H PARENT
REMARK Flexibility Score: inf
ROOT
ATOM      1  C   UNL     1    -105.163 -83.556  39.484  1.00  0.00     0.000 C 
ENDROOT
BRANCH   1   2
ATOM      2  C   UNL     1    -103.753 -82.951  39.401  1.00  0.00     0.000 C 
BRANCH   2   3
ATOM      3  C   UNL     1    -103.438 -82.356  38.017  1.00  0.00     0.000 C 
BRANCH   3   4
ATOM      4  C   UNL     1    -103.935 -83.184  36.814  1.00  0.00     0.000 C 
BRANCH   4   5
ATOM      5  C   UNL     1    -102.837 -83.937  36.041  1.00  0.00     0.000 C 
BRANCH   5   6
ATOM      6  C   UNL     1    -102.455 -83.246  34.724  1.00  0.00     0.006 C 
BRANCH   6   7
ATOM      7  C   UNL     1    -101.752 -84.223  33.776  1.00  0.00     0.053 C 
BRANCH   7   8
ATOM      8  C   UNL     1    -102.227 -84.024  32.372  1.00  0.00     0.041 C 
ATOM      9  O   UNL     1    -101.402 -84.009  31.420  1.00  0.00    -0.550 OA
ATOM     10  O   UNL     1    -103.585 -83.901  32.108  1.00  0.00    -0.550 OA
ENDBRANCH   7   8
ENDBRANCH   6   7
ENDBRANCH   5   6
ENDBRANCH   4   5
ENDBRANCH   3   4
ENDBRANCH   2   3
ENDBRANCH   1   2
BRANCH   1  11
ATOM     11  C   UNL     1    -105.152 -85.048  39.865  1.00  0.00     0.000 C 
BRANCH  11  12
ATOM     12  C   UNL     1    -103.811 -85.777  39.638  1.00  0.00    -0.000 C 
BRANCH  12  13
ATOM     13  C   UNL     1    -103.788 -86.756  38.449  1.00  0.00    -0.000 C 
BRANCH  13  14
ATOM     14  C   UNL     1    -105.028 -86.631  37.550  1.00  0.00    -0.000 C 
BRANCH  14  15
ATOM     15  C   UNL     1    -105.137 -87.779  36.533  1.00  0.00    -0.000 C 
BRANCH  15  16
ATOM     16  C   UNL     1    -105.855 -87.362  35.240  1.00  0.00    -0.000 C 
BRANCH  16  17
ATOM     17  C   UNL     1    -105.064 -86.277  34.501  1.00  0.00    -0.003 C 
ATOM     18  C   UNL     1    -105.931 -85.050  34.230  1.00  0.00     0.004 C 
ENDBRANCH  16  17
ENDBRANCH  15  16
ENDBRANCH  14  15
ENDBRANCH  13  14
ENDBRANCH  12  13
ENDBRANCH  11  12
ENDBRANCH   1  11
TORSDOF 14
ENDMDL
MODEL 7
REMARK VINA RESULT:    -4.376      2.069      3.675
REMARK INTER + INTRA:         -10.397
REMARK INTER:                  -8.500
REMARK INTRA:                  -1.898
REMARK UNBOUND:                -2.440
REMARK SMILES CCCCCCCCCCCCCCCC(=O)[O-]
REMARK SMILES IDX 9 1 10 2 11 3 12 4 13 5 14 6 15 7 16 8 17 9 18 10 8 11 7 12
REMARK SMILES IDX 6 13 5 14 4 15 3 16 2 17 1 18
REMARK H PARENT
REMARK Flexibility Score: inf
ROOT
ATOM      1  C   UNL     1    -104.146 -86.873  38.209  1.00  0.00     0.000 C 
ENDROOT
BRANCH   1   2
ATOM      2  C   UNL     1    -103.966 -86.025  39.478  1.00  0.00     0.000 C 
BRANCH   2   3
ATOM      3  C   UNL     1    -105.001 -84.891  39.591  1.00  0.00     0.000 C 
BRANCH   3   4
ATOM      4  C   UNL     1    -104.412 -83.476  39.773  1.00  0.00     0.000 C 
BRANCH   4   5
ATOM      5  C   UNL     1    -105.100 -82.372  38.951  1.00  0.00     0.000 C 
BRANCH   5   6
ATOM      6  C   UNL     1    -104.204 -81.812  37.836  1.00  0.00     0.006 C 
BRANCH   6   7
ATOM      7  C   UNL     1    -104.359 -82.626  36.548  1.00  0.00     0.053 C 
BRANCH   7   8
ATOM      8  C   UNL     1    -103.029 -83.134  36.086  1.00  0.00     0.041 C 
ATOM      9  O   UNL     1    -102.468 -84.083  36.696  1.00  0.00    -0.550 OA
ATOM     10  O   UNL     1    -102.432 -82.592  34.957  1.00  0.00    -0.550 OA
ENDBRANCH   7   8
ENDBRANCH   6   7
ENDBRANCH   5   6
ENDBRANCH   4   5
ENDBRANCH   3   4
ENDBRANCH   2   3
ENDBRANCH   1   2
BRANCH   1  11
ATOM     11  C   UNL     1    -105.113 -86.235  37.196  1.00  0.00     0.000 C 
BRANCH  11  12
ATOM     12  C   UNL     1    -104.908 -86.662  35.727  1.00  0.00    -0.000 C 
BRANCH  12  13
ATOM     13  C   UNL     1    -105.513 -85.714  34.676  1.00  0.00    -0.000 C 
BRANCH  13  14
ATOM     14  C   UNL     1    -104.506 -85.314  33.585  1.00  0.00    -0.000 C 
BRANCH  14  15
ATOM     15  C   UNL     1    -104.882 -83.994  32.891  1.00  0.00    -0.000 C 
BRANCH  15  16
ATOM     16  C   UNL     1    -106.104 -83.316  33.527  1.00  0.00    -0.000 C 
BRANCH  16  17
ATOM     17  C   UNL     1    -107.192 -83.053  32.478  1.00  0.00    -0.003 C 
ATOM     18  C   UNL     1    -108.395 -83.970  32.689  1.00  0.00     0.004 C 
ENDBRANCH  16  17
ENDBRANCH  15  16
ENDBRANCH  14  15
ENDBRANCH  13  14
ENDBRANCH  12  13
ENDBRANCH  11  12
ENDBRANCH   1  11
TORSDOF 14
ENDMDL
MODEL 8
REMARK VINA RESULT:    -4.322      2.580      5.633
REMARK INTER + INTRA:         -10.299
REMARK INTER:                  -8.041
REMARK INTRA:                  -2.258
REMARK UNBOUND:                -2.440
REMARK SMILES CCCCCCCCCCCCCCCC(=O)[O-]
REMARK SMILES IDX 9 1 10 2 11 3 12 4 13 5 14 6 15 7 16 8 17 9 18 10 8 11 7 12
REMARK SMILES IDX 6 13 5 14 4 15 3 16 2 17 1 18
REMARK H PARENT
REMARK Flexibility Score: inf
ROOT
ATOM      1  C   UNL     1    -103.821 -83.322  38.241  1.00  0.00     0.000 C 
ENDROOT
BRANCH   1   2
ATOM      2  C   UNL     1    -103.810 -83.571  36.724  1.00  0.00     0.000 C 
BRANCH   2   3
ATOM      3  C   UNL     1    -102.575 -84.361  36.256  1.00  0.00     0.000 C 
BRANCH   3   4
ATOM      4  C   UNL     1    -102.589 -84.792  34.775  1.00  0.00     0.000 C 
BRANCH   4   5
ATOM      5  C   UNL     1    -103.213 -83.773  33.804  1.00  0.00     0.000 C 
BRANCH   5   6
ATOM      6  C   UNL     1    -104.354 -84.369  32.967  1.00  0.00     0.006 C 
BRANCH   6   7
ATOM      7  C   UNL     1    -105.718 -84.006  33.562  1.00  0.00     0.053 C 
BRANCH   7   8
ATOM      8  C   UNL     1    -106.357 -82.906  32.774  1.00  0.00     0.041 C 
ATOM      9  O   UNL     1    -106.226 -82.865  31.522  1.00  0.00    -0.550 OA
ATOM     10  O   UNL     1    -107.135 -81.953  33.417  1.00  0.00    -0.550 OA
ENDBRANCH   7   8
ENDBRANCH   6   7
ENDBRANCH   5   6
ENDBRANCH   4   5
ENDBRANCH   3   4
ENDBRANCH   2   3
ENDBRANCH   1   2
BRANCH   1  11
ATOM     11  C   UNL     1    -105.072 -83.894  38.932  1.00  0.00     0.000 C 
BRANCH  11  12
ATOM     12  C   UNL     1    -104.865 -85.234  39.669  1.00  0.00    -0.000 C 
BRANCH  12  13
ATOM     13  C   UNL     1    -103.447 -85.827  39.569  1.00  0.00    -0.000 C 
BRANCH  13  14
ATOM     14  C   UNL     1    -103.416 -87.174  38.828  1.00  0.00    -0.000 C 
BRANCH  14  15
ATOM     15  C   UNL     1    -104.730 -87.471  38.088  1.00  0.00    -0.000 C 
BRANCH  15  16
ATOM     16  C   UNL     1    -104.552 -87.536  36.564  1.00  0.00    -0.000 C 
BRANCH  16  17
ATOM     17  C   UNL     1    -105.618 -86.694  35.852  1.00  0.00    -0.003 C 
ATOM     18  C   UNL     1    -106.261 -87.471  34.706  1.00  0.00     0.004 C 
ENDBRANCH  16  17
ENDBRANCH  15  16
ENDBRANCH  14  15
ENDBRANCH  13  14
ENDBRANCH  12  13
ENDBRANCH  11  12
ENDBRANCH   1  11
TORSDOF 14
ENDMDL
MODEL 9
REMARK VINA RESULT:    -4.297      3.424      6.005
REMARK INTER + INTRA:         -10.253
REMARK INTER:                  -8.272
REMARK INTRA:                  -1.982
REMARK UNBOUND:                -2.440
REMARK SMILES CCCCCCCCCCCCCCCC(=O)[O-]
REMARK SMILES IDX 9 1 10 2 11 3 12 4 13 5 14 6 15 7 16 8 17 9 18 10 8 11 7 12
REMARK SMILES IDX 6 13 5 14 4 15 3 16 2 17 1 18
REMARK H PARENT
REMARK Flexibility Score: inf
ROOT
ATOM      1  C   UNL     1    -103.163 -83.242  36.311  1.00  0.00     0.000 C 
ENDROOT
BRANCH   1   2
ATOM      2  C   UNL     1    -103.476 -84.519  35.516  1.00  0.00     0.000 C 
BRANCH   2   3
ATOM      3  C   UNL     1    -104.934 -84.984  35.679  1.00  0.00     0.000 C 
BRANCH   3   4
ATOM      4  C   UNL     1    -105.696 -85.242  34.363  1.00  0.00     0.000 C 
BRANCH   4   5
ATOM      5  C   UNL     1    -105.610 -84.108  33.326  1.00  0.00     0.000 C 
BRANCH   5   6
ATOM      6  C   UNL     1    -106.729 -83.068  33.486  1.00  0.00     0.006 C 
BRANCH   6   7
ATOM      7  C   UNL     1    -108.019 -83.543  32.811  1.00  0.00     0.053 C 
BRANCH   7   8
ATOM      8  C   UNL     1    -108.143 -82.951  31.443  1.00  0.00     0.041 C 
ATOM      9  O   UNL     1    -108.117 -81.701  31.289  1.00  0.00    -0.550 OA
ATOM     10  O   UNL     1    -108.239 -83.780  30.333  1.00  0.00    -0.550 OA
ENDBRANCH   7   8
ENDBRANCH   6   7
ENDBRANCH   5   6
ENDBRANCH   4   5
ENDBRANCH   3   4
ENDBRANCH   2   3
ENDBRANCH   1   2
BRANCH   1  11
ATOM     11  C   UNL     1    -104.378 -82.306  36.442  1.00  0.00     0.000 C 
BRANCH  11  12
ATOM     12  C   UNL     1    -104.718 -81.861  37.879  1.00  0.00    -0.000 C 
BRANCH  12  13
ATOM     13  C   UNL     1    -104.260 -82.822  38.991  1.00  0.00    -0.000 C 
BRANCH  13  14
ATOM     14  C   UNL     1    -105.396 -83.717  39.513  1.00  0.00    -0.000 C 
BRANCH  14  15
ATOM     15  C   UNL     1    -105.068 -85.214  39.397  1.00  0.00    -0.000 C 
BRANCH  15  16
ATOM     16  C   UNL     1    -103.558 -85.488  39.324  1.00  0.00    -0.000 C 
BRANCH  16  17
ATOM     17  C   UNL     1    -103.284 -86.971  39.048  1.00  0.00    -0.003 C 
ATOM     18  C   UNL     1    -104.274 -87.535  38.032  1.00  0.00     0.004 C 
ENDBRANCH  16  17
ENDBRANCH  15  16
ENDBRANCH  14  15
ENDBRANCH  13  14
ENDBRANCH  12  13
ENDBRANCH  11  12
ENDBRANCH   1  11
TORSDOF 14
ENDMDL
