MODEL 1
REMARK VINA RESULT:    -4.547      0.000      0.000
REMARK INTER + INTRA:          -4.877
REMARK INTER:                  -5.477
REMARK INTRA:                   0.600
REMARK UNBOUND:                 0.600
REMARK SMILES O=c1c(O)c(-c2ccc(O)cc2O)oc2cc(O)cc(O)c12
REMARK SMILES IDX 5 1 3 2 2 3 1 4 22 5 20 6 19 7 17 8 16 9 15 10 14 11 6 12
REMARK SMILES IDX 8 13 7 14 9 15 11 16 12 17 10 18 13 20 4 22 21 24 18 26
REMARK H PARENT 10 19 13 21 4 23 21 25 18 27
REMARK Flexibility Score: inf
ROOT
ATOM      1  C   UNL     1       4.293  -6.796  14.184  1.00  0.00     0.184 A 
ATOM      2  C   UNL     1       4.107  -7.787  13.204  1.00  0.00     0.208 A 
ATOM      3  C   UNL     1       4.184  -9.136  13.582  1.00  0.00     0.238 A 
ATOM      4  O   UNL     1       4.008 -10.034  12.714  1.00  0.00    -0.285 OA
ATOM      5  C   UNL     1       4.465  -9.469  14.923  1.00  0.00     0.111 A 
ATOM      6  C   UNL     1       4.564 -10.804  15.384  1.00  0.00     0.134 A 
ATOM      7  C   UNL     1       4.856 -11.053  16.734  1.00  0.00     0.093 A 
ATOM      8  C   UNL     1       5.052  -9.997  17.627  1.00  0.00     0.123 A 
ATOM      9  C   UNL     1       4.956  -8.677  17.178  1.00  0.00     0.094 A 
ATOM     10  C   UNL     1       4.664  -8.407  15.838  1.00  0.00     0.146 A 
ATOM     11  O   UNL     1       4.572  -7.144  15.437  1.00  0.00    -0.451 OA
ENDROOT
BRANCH   1  12
ATOM     12  C   UNL     1       4.215  -5.357  13.858  1.00  0.00     0.063 A 
ATOM     13  C   UNL     1       3.959  -3.619  12.177  1.00  0.00     0.047 A 
ATOM     14  C   UNL     1       4.031  -4.972  12.520  1.00  0.00     0.020 A 
ATOM     15  C   UNL     1       4.084  -2.635  13.165  1.00  0.00     0.119 A 
ATOM     16  C   UNL     1       4.290  -3.009  14.496  1.00  0.00     0.093 A 
ATOM     17  C   UNL     1       4.370  -4.364  14.849  1.00  0.00     0.130 A 
BRANCH  15  18
ATOM     18  O   UNL     1       4.010  -1.283  12.834  1.00  0.00    -0.508 OA
ATOM     19  H   UNL     1       4.720  -0.838  12.265  1.00  0.00     0.293 HD
ENDBRANCH  15  18
BRANCH  17  20
ATOM     20  O   UNL     1       4.625  -4.723  16.172  1.00  0.00    -0.507 OA
ATOM     21  H   UNL     1       3.896  -4.710  16.877  1.00  0.00     0.293 HD
ENDBRANCH  17  20
ENDBRANCH   1  12
BRANCH   2  22
ATOM     22  O   UNL     1       3.875  -7.424  11.875  1.00  0.00    -0.502 OA
ATOM     23  H   UNL     1       3.977  -8.080  11.109  1.00  0.00     0.293 HD
ENDBRANCH   2  22
BRANCH   6  24
ATOM     24  O   UNL     1       4.375 -11.880  14.517  1.00  0.00    -0.507 OA
ATOM     25  H   UNL     1       4.477 -12.840  14.828  1.00  0.00     0.293 HD
ENDBRANCH   6  24
BRANCH   8  26
ATOM     26  O   UNL     1       5.342 -10.272  18.963  1.00  0.00    -0.508 OA
ATOM     27  H   UNL     1       4.830 -10.975  19.482  1.00  0.00     0.293 HD
ENDBRANCH   8  26
TORSDOF 6
ENDMDL
MODEL 2
REMARK VINA RESULT:    -3.453     15.984     18.512
REMARK INTER + INTRA:          -3.558
REMARK INTER:                  -3.226
REMARK INTRA:                  -0.332
REMARK UNBOUND:                 0.600
REMARK SMILES O=c1c(O)c(-c2ccc(O)cc2O)oc2cc(O)cc(O)c12
REMARK SMILES IDX 5 1 3 2 2 3 1 4 22 5 20 6 19 7 17 8 16 9 15 10 14 11 6 12
REMARK SMILES IDX 8 13 7 14 9 15 11 16 12 17 10 18 13 20 4 22 21 24 18 26
REMARK H PARENT 10 19 13 21 4 23 21 25 18 27
REMARK Flexibility Score: inf
ROOT
ATOM      1  C   UNL     1      12.810 -12.821  29.023  1.00  0.00     0.184 A 
ATOM      2  C   UNL     1      13.531 -12.060  29.960  1.00  0.00     0.208 A 
ATOM      3  C   UNL     1      12.882 -11.006  30.621  1.00  0.00     0.238 A 
ATOM      4  O   UNL     1      13.515 -10.323  31.471  1.00  0.00    -0.285 OA
ATOM      5  C   UNL     1      11.534 -10.720  30.318  1.00  0.00     0.111 A 
ATOM      6  C   UNL     1      10.809  -9.673  30.936  1.00  0.00     0.134 A 
ATOM      7  C   UNL     1       9.472  -9.446  30.574  1.00  0.00     0.093 A 
ATOM      8  C   UNL     1       8.850 -10.241  29.610  1.00  0.00     0.123 A 
ATOM      9  C   UNL     1       9.562 -11.277  28.996  1.00  0.00     0.094 A 
ATOM     10  C   UNL     1      10.893 -11.521  29.344  1.00  0.00     0.146 A 
ATOM     11  O   UNL     1      11.545 -12.515  28.751  1.00  0.00    -0.451 OA
ENDROOT
BRANCH   1  12
ATOM     12  C   UNL     1      13.429 -13.951  28.300  1.00  0.00     0.063 A 
ATOM     13  C   UNL     1      14.352 -14.841  26.234  1.00  0.00     0.047 A 
ATOM     14  C   UNL     1      13.770 -13.789  26.948  1.00  0.00     0.020 A 
ATOM     15  C   UNL     1      14.586 -16.071  26.860  1.00  0.00     0.119 A 
ATOM     16  C   UNL     1      14.228 -16.248  28.199  1.00  0.00     0.093 A 
ATOM     17  C   UNL     1      13.639 -15.201  28.922  1.00  0.00     0.130 A 
BRANCH  15  18
ATOM     18  O   UNL     1      15.169 -17.124  26.158  1.00  0.00    -0.508 OA
ATOM     19  H   UNL     1      14.620 -17.728  25.557  1.00  0.00     0.293 HD
ENDBRANCH  15  18
BRANCH  17  20
ATOM     20  O   UNL     1      13.242 -15.407  30.243  1.00  0.00    -0.507 OA
ATOM     21  H   UNL     1      12.762 -16.252  30.528  1.00  0.00     0.293 HD
ENDBRANCH  17  20
ENDBRANCH   1  12
BRANCH   2  22
ATOM     22  O   UNL     1      14.878 -12.340  30.204  1.00  0.00    -0.502 OA
ATOM     23  H   UNL     1      15.432 -11.806  30.863  1.00  0.00     0.293 HD
ENDBRANCH   2  22
BRANCH   6  24
ATOM     24  O   UNL     1      11.402  -8.860  31.902  1.00  0.00    -0.507 OA
ATOM     25  H   UNL     1      11.350  -7.848  31.853  1.00  0.00     0.293 HD
ENDBRANCH   6  24
BRANCH   8  26
ATOM     26  O   UNL     1       7.522  -9.994  29.268  1.00  0.00    -0.508 OA
ATOM     27  H   UNL     1       7.274  -9.552  28.391  1.00  0.00     0.293 HD
ENDBRANCH   8  26
TORSDOF 6
ENDMDL
MODEL 3
REMARK VINA RESULT:    -2.630     19.303     20.418
REMARK INTER + INTRA:          -2.568
REMARK INTER:                  -3.102
REMARK INTRA:                   0.534
REMARK UNBOUND:                 0.600
REMARK SMILES O=c1c(O)c(-c2ccc(O)cc2O)oc2cc(O)cc(O)c12
REMARK SMILES IDX 5 1 3 2 2 3 1 4 22 5 20 6 19 7 17 8 16 9 15 10 14 11 6 12
REMARK SMILES IDX 8 13 7 14 9 15 11 16 12 17 10 18 13 20 4 22 21 24 18 26
REMARK H PARENT 10 19 13 21 4 23 21 25 18 27
REMARK Flexibility Score: inf
ROOT
ATOM      1  C   UNL     1      23.865  -9.786  14.224  1.00  0.00     0.184 A 
ATOM      2  C   UNL     1      23.977  -8.808  13.221  1.00  0.00     0.208 A 
ATOM      3  C   UNL     1      23.909  -7.454  13.584  1.00  0.00     0.238 A 
ATOM      4  O   UNL     1      24.019  -6.566  12.694  1.00  0.00    -0.285 OA
ATOM      5  C   UNL     1      23.712  -7.105  14.936  1.00  0.00     0.111 A 
ATOM      6  C   UNL     1      23.630  -5.765  15.385  1.00  0.00     0.134 A 
ATOM      7  C   UNL     1      23.423  -5.499  16.748  1.00  0.00     0.093 A 
ATOM      8  C   UNL     1      23.297  -6.544  17.665  1.00  0.00     0.123 A 
ATOM      9  C   UNL     1      23.378  -7.870  17.228  1.00  0.00     0.094 A 
ATOM     10  C   UNL     1      23.586  -8.155  15.877  1.00  0.00     0.146 A 
ATOM     11  O   UNL     1      23.664  -9.423  15.487  1.00  0.00    -0.451 OA
ENDROOT
BRANCH   1  12
ATOM     12  C   UNL     1      23.937 -11.229  13.912  1.00  0.00     0.063 A 
ATOM     13  C   UNL     1      23.908 -12.998  12.246  1.00  0.00     0.047 A 
ATOM     14  C   UNL     1      23.849 -11.641  12.573  1.00  0.00     0.020 A 
ATOM     15  C   UNL     1      24.042 -13.961  13.254  1.00  0.00     0.119 A 
ATOM     16  C   UNL     1      24.107 -13.560  14.591  1.00  0.00     0.093 A 
ATOM     17  C   UNL     1      24.043 -12.201  14.930  1.00  0.00     0.130 A 
BRANCH  15  18
ATOM     18  O   UNL     1      24.105 -15.316  12.937  1.00  0.00    -0.508 OA
ATOM     19  H   UNL     1      24.050 -16.030  13.654  1.00  0.00     0.293 HD
ENDBRANCH  15  18
BRANCH  17  20
ATOM     20  O   UNL     1      24.060 -11.818  16.271  1.00  0.00    -0.507 OA
ATOM     21  H   UNL     1      24.790 -12.127  16.903  1.00  0.00     0.293 HD
ENDBRANCH  17  20
ENDBRANCH   1  12
BRANCH   2  22
ATOM     22  O   UNL     1      24.125  -9.187  11.884  1.00  0.00    -0.502 OA
ATOM     23  H   UNL     1      23.399  -9.679  11.377  1.00  0.00     0.293 HD
ENDBRANCH   2  22
BRANCH   6  24
ATOM     24  O   UNL     1      23.750  -4.699  14.493  1.00  0.00    -0.507 OA
ATOM     25  H   UNL     1      24.253  -3.853  14.737  1.00  0.00     0.293 HD
ENDBRANCH   6  24
BRANCH   8  26
ATOM     26  O   UNL     1      23.092  -6.253  19.013  1.00  0.00    -0.508 OA
ATOM     27  H   UNL     1      23.664  -6.670  19.738  1.00  0.00     0.293 HD
ENDBRANCH   8  26
TORSDOF 6
ENDMDL
