MODEL 1
REMARK VINA RESULT:    -4.460      0.000      0.000
REMARK INTER + INTRA:         -13.476
REMARK INTER:                 -10.196
REMARK INTRA:                  -3.280
REMARK UNBOUND:                -3.280
REMARK SMILES CCCCCCCCCCCCCCCCCCCCCCCC(=O)[O-]
REMARK SMILES IDX 13 1 14 2 15 3 16 4 17 5 18 6 19 7 20 8 21 9 22 10 23 11
REMARK SMILES IDX 24 12 25 13 26 14 12 15 11 16 10 17 9 18 8 19 7 20 6 21 5 22
REMARK SMILES IDX 4 23 3 24 2 25 1 26
REMARK H PARENT
REMARK Flexibility Score: inf
ROOT
ATOM      1  C   UNL     1     -47.029 -35.655  39.058  1.00  0.00     0.000 C 
ENDROOT
BRANCH   1   2
ATOM      2  C   UNL     1     -45.734 -36.361  38.615  1.00  0.00     0.000 C 
BRANCH   2   3
ATOM      3  C   UNL     1     -45.858 -36.989  37.216  1.00  0.00     0.000 C 
BRANCH   3   4
ATOM      4  C   UNL     1     -44.495 -37.135  36.516  1.00  0.00     0.000 C 
BRANCH   4   5
ATOM      5  C   UNL     1     -43.881 -35.782  36.121  1.00  0.00     0.000 C 
BRANCH   5   6
ATOM      6  C   UNL     1     -42.579 -35.473  36.879  1.00  0.00     0.000 C 
BRANCH   6   7
ATOM      7  C   UNL     1     -41.318 -35.776  36.049  1.00  0.00     0.000 C 
BRANCH   7   8
ATOM      8  C   UNL     1     -40.003 -35.381  36.751  1.00  0.00     0.000 C 
BRANCH   8   9
ATOM      9  C   UNL     1     -40.229 -34.341  37.862  1.00  0.00     0.000 C 
BRANCH   9  10
ATOM     10  C   UNL     1     -39.480 -34.679  39.166  1.00  0.00     0.006 C 
BRANCH  10  11
ATOM     11  C   UNL     1     -39.746 -36.104  39.683  1.00  0.00     0.053 C 
BRANCH  11  12
ATOM     12  C   UNL     1     -38.722 -36.555  40.680  1.00  0.00     0.041 C 
ATOM     13  O   UNL     1     -38.488 -35.864  41.707  1.00  0.00    -0.550 OA
ATOM     14  O   UNL     1     -38.015 -37.733  40.469  1.00  0.00    -0.550 OA
ENDBRANCH  11  12
ENDBRANCH  10  11
ENDBRANCH   9  10
ENDBRANCH   8   9
ENDBRANCH   7   8
ENDBRANCH   6   7
ENDBRANCH   5   6
ENDBRANCH   4   5
ENDBRANCH   3   4
ENDBRANCH   2   3
ENDBRANCH   1   2
BRANCH   1  15
ATOM     15  C   UNL     1     -47.031 -35.302  40.554  1.00  0.00     0.000 C 
BRANCH  15  16
ATOM     16  C   UNL     1     -46.802 -33.803  40.809  1.00  0.00     0.000 C 
BRANCH  16  17
ATOM     17  C   UNL     1     -48.117 -33.015  40.951  1.00  0.00     0.000 C 
BRANCH  17  18
ATOM     18  C   UNL     1     -48.265 -31.818  39.990  1.00  0.00    -0.000 C 
BRANCH  18  19
ATOM     19  C   UNL     1     -48.585 -32.182  38.526  1.00  0.00    -0.000 C 
BRANCH  19  20
ATOM     20  C   UNL     1     -48.204 -31.108  37.490  1.00  0.00    -0.000 C 
BRANCH  20  21
ATOM     21  C   UNL     1     -47.180 -31.608  36.461  1.00  0.00    -0.000 C 
BRANCH  21  22
ATOM     22  C   UNL     1     -46.244 -32.655  37.081  1.00  0.00    -0.000 C 
BRANCH  22  23
ATOM     23  C   UNL     1     -44.997 -32.036  37.736  1.00  0.00    -0.000 C 
BRANCH  23  24
ATOM     24  C   UNL     1     -44.091 -33.028  38.492  1.00  0.00    -0.000 C 
BRANCH  24  25
ATOM     25  C   UNL     1     -43.006 -32.380  39.371  1.00  0.00    -0.003 C 
ATOM     26  C   UNL     1     -42.626 -33.239  40.576  1.00  0.00     0.004 C 
ENDBRANCH  24  25
ENDBRANCH  23  24
ENDBRANCH  22  23
ENDBRANCH  21  22
ENDBRANCH  20  21
ENDBRANCH  19  20
ENDBRANCH  18  19
ENDBRANCH  17  18
ENDBRANCH  16  17
ENDBRANCH  15  16
ENDBRANCH   1  15
TORSDOF 22
ENDMDL
MODEL 2
REMARK VINA RESULT:    -4.434      2.763      5.153
REMARK INTER + INTRA:         -13.416
REMARK INTER:                 -10.437
REMARK INTRA:                  -2.979
REMARK UNBOUND:                -3.280
REMARK SMILES CCCCCCCCCCCCCCCCCCCCCCCC(=O)[O-]
REMARK SMILES IDX 13 1 14 2 15 3 16 4 17 5 18 6 19 7 20 8 21 9 22 10 23 11
REMARK SMILES IDX 24 12 25 13 26 14 12 15 11 16 10 17 9 18 8 19 7 20 6 21 5 22
REMARK SMILES IDX 4 23 3 24 2 25 1 26
REMARK H PARENT
REMARK Flexibility Score: inf
ROOT
ATOM      1  C   UNL     1     -44.792 -36.021  36.738  1.00  0.00     0.000 C 
ENDROOT
BRANCH   1   2
ATOM      2  C   UNL     1     -43.515 -35.478  36.069  1.00  0.00     0.000 C 
BRANCH   2   3
ATOM      3  C   UNL     1     -42.251 -35.769  36.896  1.00  0.00     0.000 C 
BRANCH   3   4
ATOM      4  C   UNL     1     -40.970 -35.727  36.044  1.00  0.00     0.000 C 
BRANCH   4   5
ATOM      5  C   UNL     1     -39.704 -35.489  36.883  1.00  0.00     0.000 C 
BRANCH   5   6
ATOM      6  C   UNL     1     -39.999 -35.365  38.387  1.00  0.00     0.000 C 
BRANCH   6   7
ATOM      7  C   UNL     1     -40.204 -33.907  38.837  1.00  0.00     0.000 C 
BRANCH   7   8
ATOM      8  C   UNL     1     -41.507 -33.680  39.633  1.00  0.00     0.000 C 
BRANCH   8   9
ATOM      9  C   UNL     1     -42.089 -32.274  39.402  1.00  0.00     0.000 C 
BRANCH   9  10
ATOM     10  C   UNL     1     -41.143 -31.352  38.610  1.00  0.00     0.006 C 
BRANCH  10  11
ATOM     11  C   UNL     1     -41.564 -29.872  38.622  1.00  0.00     0.053 C 
BRANCH  11  12
ATOM     12  C   UNL     1     -41.124 -29.157  39.864  1.00  0.00     0.041 C 
ATOM     13  O   UNL     1     -40.029 -28.535  39.885  1.00  0.00    -0.550 OA
ATOM     14  O   UNL     1     -41.919 -29.189  41.004  1.00  0.00    -0.550 OA
ENDBRANCH  11  12
ENDBRANCH  10  11
ENDBRANCH   9  10
ENDBRANCH   8   9
ENDBRANCH   7   8
ENDBRANCH   6   7
ENDBRANCH   5   6
ENDBRANCH   4   5
ENDBRANCH   3   4
ENDBRANCH   2   3
ENDBRANCH   1   2
BRANCH   1  15
ATOM     15  C   UNL     1     -44.880 -37.555  36.690  1.00  0.00     0.000 C 
BRANCH  15  16
ATOM     16  C   UNL     1     -45.990 -38.113  37.596  1.00  0.00     0.000 C 
BRANCH  16  17
ATOM     17  C   UNL     1     -46.981 -37.030  38.059  1.00  0.00     0.000 C 
BRANCH  17  18
ATOM     18  C   UNL     1     -47.364 -37.093  39.552  1.00  0.00    -0.000 C 
BRANCH  18  19
ATOM     19  C   UNL     1     -46.188 -37.315  40.526  1.00  0.00    -0.000 C 
BRANCH  19  20
ATOM     20  C   UNL     1     -45.248 -36.107  40.697  1.00  0.00    -0.000 C 
BRANCH  20  21
ATOM     21  C   UNL     1     -45.858 -34.994  41.563  1.00  0.00    -0.000 C 
BRANCH  21  22
ATOM     22  C   UNL     1     -45.821 -33.646  40.830  1.00  0.00    -0.000 C 
BRANCH  22  23
ATOM     23  C   UNL     1     -45.420 -33.776  39.349  1.00  0.00    -0.000 C 
BRANCH  23  24
ATOM     24  C   UNL     1     -45.730 -32.544  38.475  1.00  0.00    -0.000 C 
BRANCH  24  25
ATOM     25  C   UNL     1     -46.430 -32.853  37.139  1.00  0.00    -0.003 C 
ATOM     26  C   UNL     1     -47.335 -31.716  36.666  1.00  0.00     0.004 C 
ENDBRANCH  24  25
ENDBRANCH  23  24
ENDBRANCH  22  23
ENDBRANCH  21  22
ENDBRANCH  20  21
ENDBRANCH  19  20
ENDBRANCH  18  19
ENDBRANCH  17  18
ENDBRANCH  16  17
ENDBRANCH  15  16
ENDBRANCH   1  15
TORSDOF 22
ENDMDL
MODEL 3
REMARK VINA RESULT:    -4.381      4.550      6.936
REMARK INTER + INTRA:         -13.295
REMARK INTER:                 -10.456
REMARK INTRA:                  -2.838
REMARK UNBOUND:                -3.280
REMARK SMILES CCCCCCCCCCCCCCCCCCCCCCCC(=O)[O-]
REMARK SMILES IDX 13 1 14 2 15 3 16 4 17 5 18 6 19 7 20 8 21 9 22 10 23 11
REMARK SMILES IDX 24 12 25 13 26 14 12 15 11 16 10 17 9 18 8 19 7 20 6 21 5 22
REMARK SMILES IDX 4 23 3 24 2 25 1 26
REMARK H PARENT
REMARK Flexibility Score: inf
ROOT
ATOM      1  C   UNL     1     -40.911 -33.397  38.743  1.00  0.00     0.000 C 
ENDROOT
BRANCH   1   2
ATOM      2  C   UNL     1     -39.765 -34.311  39.214  1.00  0.00     0.000 C 
BRANCH   2   3
ATOM      3  C   UNL     1     -39.635 -35.579  38.353  1.00  0.00     0.000 C 
BRANCH   3   4
ATOM      4  C   UNL     1     -39.755 -35.282  36.848  1.00  0.00     0.000 C 
BRANCH   4   5
ATOM      5  C   UNL     1     -40.810 -36.155  36.150  1.00  0.00     0.000 C 
BRANCH   5   6
ATOM      6  C   UNL     1     -42.112 -35.394  35.850  1.00  0.00     0.000 C 
BRANCH   6   7
ATOM      7  C   UNL     1     -43.357 -36.084  36.435  1.00  0.00     0.000 C 
BRANCH   7   8
ATOM      8  C   UNL     1     -44.082 -35.249  37.512  1.00  0.00     0.000 C 
BRANCH   8   9
ATOM      9  C   UNL     1     -45.379 -34.617  36.978  1.00  0.00     0.000 C 
BRANCH   9  10
ATOM     10  C   UNL     1     -45.442 -33.093  37.199  1.00  0.00     0.006 C 
BRANCH  10  11
ATOM     11  C   UNL     1     -46.867 -32.515  37.139  1.00  0.00     0.053 C 
BRANCH  11  12
ATOM     12  C   UNL     1     -47.382 -32.111  38.487  1.00  0.00     0.041 C 
ATOM     13  O   UNL     1     -46.782 -31.229  39.158  1.00  0.00    -0.550 OA
ATOM     14  O   UNL     1     -48.518 -32.719  39.010  1.00  0.00    -0.550 OA
ENDBRANCH  11  12
ENDBRANCH  10  11
ENDBRANCH   9  10
ENDBRANCH   8   9
ENDBRANCH   7   8
ENDBRANCH   6   7
ENDBRANCH   5   6
ENDBRANCH   4   5
ENDBRANCH   3   4
ENDBRANCH   2   3
ENDBRANCH   1   2
BRANCH   1  15
ATOM     15  C   UNL     1     -41.954 -33.139  39.843  1.00  0.00     0.000 C 
BRANCH  15  16
ATOM     16  C   UNL     1     -42.945 -32.024  39.470  1.00  0.00     0.000 C 
BRANCH  16  17
ATOM     17  C   UNL     1     -42.280 -30.873  38.693  1.00  0.00     0.000 C 
BRANCH  17  18
ATOM     18  C   UNL     1     -41.566 -29.824  39.569  1.00  0.00    -0.000 C 
BRANCH  18  19
ATOM     19  C   UNL     1     -42.285 -29.462  40.885  1.00  0.00    -0.000 C 
BRANCH  19  20
ATOM     20  C   UNL     1     -42.909 -28.054  40.919  1.00  0.00    -0.000 C 
BRANCH  20  21
ATOM     21  C   UNL     1     -42.765 -27.305  39.586  1.00  0.00    -0.000 C 
BRANCH  21  22
ATOM     22  C   UNL     1     -42.163 -25.910  39.803  1.00  0.00    -0.000 C 
BRANCH  22  23
ATOM     23  C   UNL     1     -41.627 -25.700  41.230  1.00  0.00    -0.000 C 
BRANCH  23  24
ATOM     24  C   UNL     1     -40.090 -25.672  41.356  1.00  0.00    -0.000 C 
BRANCH  24  25
ATOM     25  C   UNL     1     -39.348 -26.721  40.509  1.00  0.00    -0.003 C 
ATOM     26  C   UNL     1     -38.896 -27.932  41.325  1.00  0.00     0.004 C 
ENDBRANCH  24  25
ENDBRANCH  23  24
ENDBRANCH  22  23
ENDBRANCH  21  22
ENDBRANCH  20  21
ENDBRANCH  19  20
ENDBRANCH  18  19
ENDBRANCH  17  18
ENDBRANCH  16  17
ENDBRANCH  15  16
ENDBRANCH   1  15
TORSDOF 22
ENDMDL
MODEL 4
REMARK VINA RESULT:    -4.366      5.301      7.547
REMARK INTER + INTRA:         -13.262
REMARK INTER:                 -10.053
REMARK INTRA:                  -3.208
REMARK UNBOUND:                -3.280
REMARK SMILES CCCCCCCCCCCCCCCCCCCCCCCC(=O)[O-]
REMARK SMILES IDX 13 1 14 2 15 3 16 4 17 5 18 6 19 7 20 8 21 9 22 10 23 11
REMARK SMILES IDX 24 12 25 13 26 14 12 15 11 16 10 17 9 18 8 19 7 20 6 21 5 22
REMARK SMILES IDX 4 23 3 24 2 25 1 26
REMARK H PARENT
REMARK Flexibility Score: inf
ROOT
ATOM      1  C   UNL     1     -44.401 -29.134  38.743  1.00  0.00     0.000 C 
ENDROOT
BRANCH   1   2
ATOM      2  C   UNL     1     -44.422 -30.560  39.322  1.00  0.00     0.000 C 
BRANCH   2   3
ATOM      3  C   UNL     1     -43.683 -31.569  38.426  1.00  0.00     0.000 C 
BRANCH   3   4
ATOM      4  C   UNL     1     -42.410 -32.121  39.089  1.00  0.00     0.000 C 
BRANCH   4   5
ATOM      5  C   UNL     1     -41.124 -31.669  38.379  1.00  0.00     0.000 C 
BRANCH   5   6
ATOM      6  C   UNL     1     -40.064 -32.779  38.298  1.00  0.00     0.000 C 
BRANCH   6   7
ATOM      7  C   UNL     1     -40.647 -34.182  38.545  1.00  0.00     0.000 C 
BRANCH   7   8
ATOM      8  C   UNL     1     -40.259 -35.216  37.468  1.00  0.00     0.000 C 
BRANCH   8   9
ATOM      9  C   UNL     1     -41.223 -35.193  36.269  1.00  0.00     0.000 C 
BRANCH   9  10
ATOM     10  C   UNL     1     -42.494 -36.032  36.502  1.00  0.00     0.006 C 
BRANCH  10  11
ATOM     11  C   UNL     1     -43.763 -35.189  36.725  1.00  0.00     0.053 C 
BRANCH  11  12
ATOM     12  C   UNL     1     -44.995 -36.029  36.866  1.00  0.00     0.041 C 
ATOM     13  O   UNL     1     -46.059 -35.526  37.316  1.00  0.00    -0.550 OA
ATOM     14  O   UNL     1     -44.967 -37.374  36.513  1.00  0.00    -0.550 OA
ENDBRANCH  11  12
ENDBRANCH  10  11
ENDBRANCH   9  10
ENDBRANCH   8   9
ENDBRANCH   7   8
ENDBRANCH   6   7
ENDBRANCH   5   6
ENDBRANCH   4   5
ENDBRANCH   3   4
ENDBRANCH   2   3
ENDBRANCH   1   2
BRANCH   1  15
ATOM     15  C   UNL     1     -43.422 -28.208  39.482  1.00  0.00     0.000 C 
BRANCH  15  16
ATOM     16  C   UNL     1     -42.996 -28.767  40.850  1.00  0.00     0.000 C 
BRANCH  16  17
ATOM     17  C   UNL     1     -41.473 -28.717  41.066  1.00  0.00     0.000 C 
BRANCH  17  18
ATOM     18  C   UNL     1     -40.649 -28.368  39.810  1.00  0.00    -0.000 C 
BRANCH  18  19
ATOM     19  C   UNL     1     -39.118 -28.465  39.977  1.00  0.00    -0.000 C 
BRANCH  19  20
ATOM     20  C   UNL     1     -38.407 -27.125  40.248  1.00  0.00    -0.000 C 
BRANCH  20  21
ATOM     21  C   UNL     1     -39.277 -25.908  39.900  1.00  0.00    -0.000 C 
BRANCH  21  22
ATOM     22  C   UNL     1     -38.968 -24.729  40.833  1.00  0.00    -0.000 C 
BRANCH  22  23
ATOM     23  C   UNL     1     -40.233 -24.078  41.421  1.00  0.00    -0.000 C 
BRANCH  23  24
ATOM     24  C   UNL     1     -41.313 -25.066  41.906  1.00  0.00    -0.000 C 
BRANCH  24  25
ATOM     25  C   UNL     1     -42.647 -25.000  41.140  1.00  0.00    -0.003 C 
ATOM     26  C   UNL     1     -42.663 -23.911  40.068  1.00  0.00     0.004 C 
ENDBRANCH  24  25
ENDBRANCH  23  24
ENDBRANCH  22  23
ENDBRANCH  21  22
ENDBRANCH  20  21
ENDBRANCH  19  20
ENDBRANCH  18  19
ENDBRANCH  17  18
ENDBRANCH  16  17
ENDBRANCH  15  16
ENDBRANCH   1  15
TORSDOF 22
ENDMDL
MODEL 5
REMARK VINA RESULT:    -4.349      5.001      7.238
REMARK INTER + INTRA:         -13.223
REMARK INTER:                 -10.589
REMARK INTRA:                  -2.634
REMARK UNBOUND:                -3.280
REMARK SMILES CCCCCCCCCCCCCCCCCCCCCCCC(=O)[O-]
REMARK SMILES IDX 13 1 14 2 15 3 16 4 17 5 18 6 19 7 20 8 21 9 22 10 23 11
REMARK SMILES IDX 24 12 25 13 26 14 12 15 11 16 10 17 9 18 8 19 7 20 6 21 5 22
REMARK SMILES IDX 4 23 3 24 2 25 1 26
REMARK H PARENT
REMARK Flexibility Score: inf
ROOT
ATOM      1  C   UNL     1     -42.553 -31.878  38.384  1.00  0.00     0.000 C 
ENDROOT
BRANCH   1   2
ATOM      2  C   UNL     1     -42.311 -32.486  39.778  1.00  0.00     0.000 C 
BRANCH   2   3
ATOM      3  C   UNL     1     -41.566 -33.830  39.711  1.00  0.00     0.000 C 
BRANCH   3   4
ATOM      4  C   UNL     1     -40.504 -33.857  38.598  1.00  0.00     0.000 C 
BRANCH   4   5
ATOM      5  C   UNL     1     -39.918 -35.259  38.367  1.00  0.00     0.000 C 
BRANCH   5   6
ATOM      6  C   UNL     1     -39.908 -35.666  36.885  1.00  0.00     0.000 C 
BRANCH   6   7
ATOM      7  C   UNL     1     -41.183 -35.234  36.137  1.00  0.00     0.000 C 
BRANCH   7   8
ATOM      8  C   UNL     1     -42.439 -36.036  36.537  1.00  0.00     0.000 C 
BRANCH   8   9
ATOM      9  C   UNL     1     -43.655 -35.125  36.779  1.00  0.00     0.000 C 
BRANCH   9  10
ATOM     10  C   UNL     1     -44.550 -35.609  37.937  1.00  0.00     0.006 C 
BRANCH  10  11
ATOM     11  C   UNL     1     -45.756 -36.449  37.480  1.00  0.00     0.053 C 
BRANCH  11  12
ATOM     12  C   UNL     1     -46.586 -36.936  38.628  1.00  0.00     0.041 C 
ATOM     13  O   UNL     1     -46.124 -36.917  39.800  1.00  0.00    -0.550 OA
ATOM     14  O   UNL     1     -47.868 -37.425  38.403  1.00  0.00    -0.550 OA
ENDBRANCH  11  12
ENDBRANCH  10  11
ENDBRANCH   9  10
ENDBRANCH   8   9
ENDBRANCH   7   8
ENDBRANCH   6   7
ENDBRANCH   5   6
ENDBRANCH   4   5
ENDBRANCH   3   4
ENDBRANCH   2   3
ENDBRANCH   1   2
BRANCH   1  15
ATOM     15  C   UNL     1     -43.577 -30.732  38.406  1.00  0.00     0.000 C 
BRANCH  15  16
ATOM     16  C   UNL     1     -42.927 -29.361  38.657  1.00  0.00     0.000 C 
BRANCH  16  17
ATOM     17  C   UNL     1     -43.239 -28.802  40.057  1.00  0.00     0.000 C 
BRANCH  17  18
ATOM     18  C   UNL     1     -42.061 -28.844  41.052  1.00  0.00    -0.000 C 
BRANCH  18  19
ATOM     19  C   UNL     1     -40.670 -28.575  40.441  1.00  0.00    -0.000 C 
BRANCH  19  20
ATOM     20  C   UNL     1     -39.688 -27.831  41.364  1.00  0.00    -0.000 C 
BRANCH  20  21
ATOM     21  C   UNL     1     -38.729 -26.909  40.595  1.00  0.00    -0.000 C 
BRANCH  21  22
ATOM     22  C   UNL     1     -39.197 -25.449  40.667  1.00  0.00    -0.000 C 
BRANCH  22  23
ATOM     23  C   UNL     1     -40.119 -25.170  41.866  1.00  0.00    -0.000 C 
BRANCH  23  24
ATOM     24  C   UNL     1     -41.387 -24.354  41.543  1.00  0.00    -0.000 C 
BRANCH  24  25
ATOM     25  C   UNL     1     -42.510 -25.144  40.846  1.00  0.00    -0.003 C 
ATOM     26  C   UNL     1     -43.806 -24.345  40.716  1.00  0.00     0.004 C 
ENDBRANCH  24  25
ENDBRANCH  23  24
ENDBRANCH  22  23
ENDBRANCH  21  22
ENDBRANCH  20  21
ENDBRANCH  19  20
ENDBRANCH  18  19
ENDBRANCH  17  18
ENDBRANCH  16  17
ENDBRANCH  15  16
ENDBRANCH   1  15
TORSDOF 22
ENDMDL
MODEL 6
REMARK VINA RESULT:    -4.346      3.810      7.505
REMARK INTER + INTRA:         -13.216
REMARK INTER:                  -9.265
REMARK INTRA:                  -3.950
REMARK UNBOUND:                -3.280
REMARK SMILES CCCCCCCCCCCCCCCCCCCCCCCC(=O)[O-]
REMARK SMILES IDX 13 1 14 2 15 3 16 4 17 5 18 6 19 7 20 8 21 9 22 10 23 11
REMARK SMILES IDX 24 12 25 13 26 14 12 15 11 16 10 17 9 18 8 19 7 20 6 21 5 22
REMARK SMILES IDX 4 23 3 24 2 25 1 26
REMARK H PARENT
REMARK Flexibility Score: inf
ROOT
ATOM      1  C   UNL     1     -41.982 -35.333  35.899  1.00  0.00     0.000 C 
ENDROOT
BRANCH   1   2
ATOM      2  C   UNL     1     -43.279 -35.916  36.487  1.00  0.00     0.000 C 
BRANCH   2   3
ATOM      3  C   UNL     1     -44.463 -34.939  36.381  1.00  0.00     0.000 C 
BRANCH   3   4
ATOM      4  C   UNL     1     -45.677 -35.396  37.210  1.00  0.00     0.000 C 
BRANCH   4   5
ATOM      5  C   UNL     1     -45.276 -36.155  38.485  1.00  0.00     0.000 C 
BRANCH   5   6
ATOM      6  C   UNL     1     -45.566 -35.361  39.769  1.00  0.00     0.000 C 
BRANCH   6   7
ATOM      7  C   UNL     1     -46.878 -35.787  40.451  1.00  0.00     0.000 C 
BRANCH   7   8
ATOM      8  C   UNL     1     -47.929 -34.659  40.536  1.00  0.00     0.000 C 
BRANCH   8   9
ATOM      9  C   UNL     1     -47.494 -33.403  39.762  1.00  0.00     0.000 C 
BRANCH   9  10
ATOM     10  C   UNL     1     -48.646 -32.406  39.533  1.00  0.00     0.006 C 
BRANCH  10  11
ATOM     11  C   UNL     1     -48.278 -30.946  39.850  1.00  0.00     0.053 C 
BRANCH  11  12
ATOM     12  C   UNL     1     -49.295 -30.271  40.719  1.00  0.00     0.041 C 
ATOM     13  O   UNL     1     -48.938 -29.393  41.550  1.00  0.00    -0.550 OA
ATOM     14  O   UNL     1     -50.637 -30.619  40.621  1.00  0.00    -0.550 OA
ENDBRANCH  11  12
ENDBRANCH  10  11
ENDBRANCH   9  10
ENDBRANCH   8   9
ENDBRANCH   7   8
ENDBRANCH   6   7
ENDBRANCH   5   6
ENDBRANCH   4   5
ENDBRANCH   3   4
ENDBRANCH   2   3
ENDBRANCH   1   2
BRANCH   1  15
ATOM     15  C   UNL     1     -40.765 -36.244  36.126  1.00  0.00     0.000 C 
BRANCH  15  16
ATOM     16  C   UNL     1     -39.586 -35.505  36.781  1.00  0.00     0.000 C 
BRANCH  16  17
ATOM     17  C   UNL     1     -39.584 -35.630  38.316  1.00  0.00     0.000 C 
BRANCH  17  18
ATOM     18  C   UNL     1     -40.139 -34.404  39.069  1.00  0.00    -0.000 C 
BRANCH  18  19
ATOM     19  C   UNL     1     -41.633 -34.481  39.445  1.00  0.00    -0.000 C 
BRANCH  19  20
ATOM     20  C   UNL     1     -42.473 -33.260  39.026  1.00  0.00    -0.000 C 
BRANCH  20  21
ATOM     21  C   UNL     1     -43.094 -32.523  40.222  1.00  0.00    -0.000 C 
BRANCH  21  22
ATOM     22  C   UNL     1     -44.250 -31.620  39.770  1.00  0.00    -0.000 C 
BRANCH  22  23
ATOM     23  C   UNL     1     -44.567 -31.753  38.271  1.00  0.00    -0.000 C 
BRANCH  23  24
ATOM     24  C   UNL     1     -44.868 -30.427  37.543  1.00  0.00    -0.000 C 
BRANCH  24  25
ATOM     25  C   UNL     1     -46.185 -30.405  36.747  1.00  0.00    -0.003 C 
ATOM     26  C   UNL     1     -46.716 -31.805  36.437  1.00  0.00     0.004 C 
ENDBRANCH  24  25
ENDBRANCH  23  24
ENDBRANCH  22  23
ENDBRANCH  21  22
ENDBRANCH  20  21
ENDBRANCH  19  20
ENDBRANCH  18  19
ENDBRANCH  17  18
ENDBRANCH  16  17
ENDBRANCH  15  16
ENDBRANCH   1  15
TORSDOF 22
ENDMDL
MODEL 7
REMARK VINA RESULT:    -4.345      3.303      5.371
REMARK INTER + INTRA:         -13.213
REMARK INTER:                 -10.032
REMARK INTRA:                  -3.180
REMARK UNBOUND:                -3.280
REMARK SMILES CCCCCCCCCCCCCCCCCCCCCCCC(=O)[O-]
REMARK SMILES IDX 13 1 14 2 15 3 16 4 17 5 18 6 19 7 20 8 21 9 22 10 23 11
REMARK SMILES IDX 24 12 25 13 26 14 12 15 11 16 10 17 9 18 8 19 7 20 6 21 5 22
REMARK SMILES IDX 4 23 3 24 2 25 1 26
REMARK H PARENT
REMARK Flexibility Score: inf
ROOT
ATOM      1  C   UNL     1     -41.731 -32.452  38.949  1.00  0.00     0.000 C 
ENDROOT
BRANCH   1   2
ATOM      2  C   UNL     1     -40.443 -33.134  38.452  1.00  0.00     0.000 C 
BRANCH   2   3
ATOM      3  C   UNL     1     -40.076 -34.375  39.284  1.00  0.00     0.000 C 
BRANCH   3   4
ATOM      4  C   UNL     1     -39.638 -35.561  38.408  1.00  0.00     0.000 C 
BRANCH   4   5
ATOM      5  C   UNL     1     -39.744 -35.262  36.904  1.00  0.00     0.000 C 
BRANCH   5   6
ATOM      6  C   UNL     1     -40.739 -36.183  36.180  1.00  0.00     0.000 C 
BRANCH   6   7
ATOM      7  C   UNL     1     -42.061 -35.477  35.828  1.00  0.00     0.000 C 
BRANCH   7   8
ATOM      8  C   UNL     1     -43.060 -35.409  37.002  1.00  0.00     0.000 C 
BRANCH   8   9
ATOM      9  C   UNL     1     -44.503 -35.695  36.551  1.00  0.00     0.000 C 
BRANCH   9  10
ATOM     10  C   UNL     1     -44.931 -37.155  36.791  1.00  0.00     0.006 C 
BRANCH  10  11
ATOM     11  C   UNL     1     -46.435 -37.325  37.070  1.00  0.00     0.053 C 
BRANCH  11  12
ATOM     12  C   UNL     1     -46.759 -37.278  38.532  1.00  0.00     0.041 C 
ATOM     13  O   UNL     1     -45.902 -36.866  39.359  1.00  0.00    -0.550 OA
ATOM     14  O   UNL     1     -48.004 -37.702  38.985  1.00  0.00    -0.550 OA
ENDBRANCH  11  12
ENDBRANCH  10  11
ENDBRANCH   9  10
ENDBRANCH   8   9
ENDBRANCH   7   8
ENDBRANCH   6   7
ENDBRANCH   5   6
ENDBRANCH   4   5
ENDBRANCH   3   4
ENDBRANCH   2   3
ENDBRANCH   1   2
BRANCH   1  15
ATOM     15  C   UNL     1     -42.230 -33.030  40.283  1.00  0.00     0.000 C 
BRANCH  15  16
ATOM     16  C   UNL     1     -43.673 -33.556  40.197  1.00  0.00     0.000 C 
BRANCH  16  17
ATOM     17  C   UNL     1     -44.552 -32.731  39.240  1.00  0.00     0.000 C 
BRANCH  17  18
ATOM     18  C   UNL     1     -45.334 -31.580  39.904  1.00  0.00    -0.000 C 
BRANCH  18  19
ATOM     19  C   UNL     1     -45.491 -30.307  39.046  1.00  0.00    -0.000 C 
BRANCH  19  20
ATOM     20  C   UNL     1     -44.778 -30.350  37.682  1.00  0.00    -0.000 C 
BRANCH  20  21
ATOM     21  C   UNL     1     -44.201 -28.988  37.266  1.00  0.00    -0.000 C 
BRANCH  21  22
ATOM     22  C   UNL     1     -43.834 -28.149  38.498  1.00  0.00    -0.000 C 
BRANCH  22  23
ATOM     23  C   UNL     1     -42.372 -27.670  38.487  1.00  0.00    -0.000 C 
BRANCH  23  24
ATOM     24  C   UNL     1     -41.321 -28.762  38.771  1.00  0.00    -0.000 C 
BRANCH  24  25
ATOM     25  C   UNL     1     -41.068 -29.050  40.262  1.00  0.00    -0.003 C 
ATOM     26  C   UNL     1     -42.356 -29.296  41.047  1.00  0.00     0.004 C 
ENDBRANCH  24  25
ENDBRANCH  23  24
ENDBRANCH  22  23
ENDBRANCH  21  22
ENDBRANCH  20  21
ENDBRANCH  19  20
ENDBRANCH  18  19
ENDBRANCH  17  18
ENDBRANCH  16  17
ENDBRANCH  15  16
ENDBRANCH   1  15
TORSDOF 22
ENDMDL
MODEL 8
REMARK VINA RESULT:    -4.279      4.073      7.165
REMARK INTER + INTRA:         -13.062
REMARK INTER:                  -9.090
REMARK INTRA:                  -3.973
REMARK UNBOUND:                -3.280
REMARK SMILES CCCCCCCCCCCCCCCCCCCCCCCC(=O)[O-]
REMARK SMILES IDX 13 1 14 2 15 3 16 4 17 5 18 6 19 7 20 8 21 9 22 10 23 11
REMARK SMILES IDX 24 12 25 13 26 14 12 15 11 16 10 17 9 18 8 19 7 20 6 21 5 22
REMARK SMILES IDX 4 23 3 24 2 25 1 26
REMARK H PARENT
REMARK Flexibility Score: inf
ROOT
ATOM      1  C   UNL     1     -47.482 -33.730  39.612  1.00  0.00     0.000 C 
ENDROOT
BRANCH   1   2
ATOM      2  C   UNL     1     -47.787 -32.544  40.545  1.00  0.00     0.000 C 
BRANCH   2   3
ATOM      3  C   UNL     1     -46.543 -32.068  41.314  1.00  0.00     0.000 C 
BRANCH   3   4
ATOM      4  C   UNL     1     -45.241 -32.306  40.529  1.00  0.00     0.000 C 
BRANCH   4   5
ATOM      5  C   UNL     1     -44.486 -31.004  40.218  1.00  0.00     0.000 C 
BRANCH   5   6
ATOM      6  C   UNL     1     -44.407 -30.704  38.712  1.00  0.00     0.000 C 
BRANCH   6   7
ATOM      7  C   UNL     1     -45.751 -30.912  37.990  1.00  0.00     0.000 C 
BRANCH   7   8
ATOM      8  C   UNL     1     -45.860 -30.154  36.650  1.00  0.00     0.000 C 
BRANCH   8   9
ATOM      9  C   UNL     1     -46.907 -30.781  35.713  1.00  0.00     0.000 C 
BRANCH   9  10
ATOM     10  C   UNL     1     -47.920 -31.675  36.454  1.00  0.00     0.006 C 
BRANCH  10  11
ATOM     11  C   UNL     1     -49.354 -31.118  36.457  1.00  0.00     0.053 C 
BRANCH  11  12
ATOM     12  C   UNL     1     -49.501 -29.908  37.329  1.00  0.00     0.041 C 
ATOM     13  O   UNL     1     -49.342 -30.000  38.575  1.00  0.00    -0.550 OA
ATOM     14  O   UNL     1     -49.826 -28.679  36.766  1.00  0.00    -0.550 OA
ENDBRANCH  11  12
ENDBRANCH  10  11
ENDBRANCH   9  10
ENDBRANCH   8   9
ENDBRANCH   7   8
ENDBRANCH   6   7
ENDBRANCH   5   6
ENDBRANCH   4   5
ENDBRANCH   3   4
ENDBRANCH   2   3
ENDBRANCH   1   2
BRANCH   1  15
ATOM     15  C   UNL     1     -47.609 -35.089  40.319  1.00  0.00     0.000 C 
BRANCH  15  16
ATOM     16  C   UNL     1     -46.279 -35.859  40.366  1.00  0.00     0.000 C 
BRANCH  16  17
ATOM     17  C   UNL     1     -46.407 -37.301  39.843  1.00  0.00     0.000 C 
BRANCH  17  18
ATOM     18  C   UNL     1     -47.268 -37.460  38.573  1.00  0.00    -0.000 C 
BRANCH  18  19
ATOM     19  C   UNL     1     -46.591 -37.025  37.257  1.00  0.00    -0.000 C 
BRANCH  19  20
ATOM     20  C   UNL     1     -45.167 -37.572  37.047  1.00  0.00    -0.000 C 
BRANCH  20  21
ATOM     21  C   UNL     1     -44.188 -36.506  36.532  1.00  0.00    -0.000 C 
BRANCH  21  22
ATOM     22  C   UNL     1     -44.849 -35.120  36.508  1.00  0.00    -0.000 C 
BRANCH  22  23
ATOM     23  C   UNL     1     -44.365 -34.203  37.645  1.00  0.00    -0.000 C 
BRANCH  23  24
ATOM     24  C   UNL     1     -43.254 -34.793  38.537  1.00  0.00    -0.000 C 
BRANCH  24  25
ATOM     25  C   UNL     1     -41.867 -34.147  38.363  1.00  0.00    -0.003 C 
ATOM     26  C   UNL     1     -41.031 -34.182  39.641  1.00  0.00     0.004 C 
ENDBRANCH  24  25
ENDBRANCH  23  24
ENDBRANCH  22  23
ENDBRANCH  21  22
ENDBRANCH  20  21
ENDBRANCH  19  20
ENDBRANCH  18  19
ENDBRANCH  17  18
ENDBRANCH  16  17
ENDBRANCH  15  16
ENDBRANCH   1  15
TORSDOF 22
ENDMDL
MODEL 9
REMARK VINA RESULT:    -4.252      8.984     11.786
REMARK INTER + INTRA:         -13.000
REMARK INTER:                  -8.196
REMARK INTRA:                  -4.805
REMARK UNBOUND:                -3.280
REMARK SMILES CCCCCCCCCCCCCCCCCCCCCCCC(=O)[O-]
REMARK SMILES IDX 13 1 14 2 15 3 16 4 17 5 18 6 19 7 20 8 21 9 22 10 23 11
REMARK SMILES IDX 24 12 25 13 26 14 12 15 11 16 10 17 9 18 8 19 7 20 6 21 5 22
REMARK SMILES IDX 4 23 3 24 2 25 1 26
REMARK H PARENT
REMARK Flexibility Score: inf
ROOT
ATOM      1  C   UNL     1     -40.375 -25.250  41.740  1.00  0.00     0.000 C 
ENDROOT
BRANCH   1   2
ATOM      2  C   UNL     1     -39.367 -26.142  40.991  1.00  0.00     0.000 C 
BRANCH   2   3
ATOM      3  C   UNL     1     -39.541 -27.633  41.325  1.00  0.00     0.000 C 
BRANCH   3   4
ATOM      4  C   UNL     1     -40.467 -28.354  40.330  1.00  0.00     0.000 C 
BRANCH   4   5
ATOM      5  C   UNL     1     -41.729 -28.925  40.998  1.00  0.00     0.000 C 
BRANCH   5   6
ATOM      6  C   UNL     1     -43.025 -28.301  40.458  1.00  0.00     0.000 C 
BRANCH   6   7
ATOM      7  C   UNL     1     -43.384 -26.974  41.152  1.00  0.00     0.000 C 
BRANCH   7   8
ATOM      8  C   UNL     1     -44.190 -26.005  40.261  1.00  0.00     0.000 C 
BRANCH   8   9
ATOM      9  C   UNL     1     -43.905 -24.532  40.602  1.00  0.00     0.000 C 
BRANCH   9  10
ATOM     10  C   UNL     1     -44.810 -23.549  39.835  1.00  0.00     0.006 C 
BRANCH  10  11
ATOM     11  C   UNL     1     -45.592 -24.199  38.678  1.00  0.00     0.053 C 
BRANCH  11  12
ATOM     12  C   UNL     1     -45.825 -23.254  37.539  1.00  0.00     0.041 C 
ATOM     13  O   UNL     1     -45.225 -23.419  36.444  1.00  0.00    -0.550 OA
ATOM     14  O   UNL     1     -46.697 -22.182  37.690  1.00  0.00    -0.550 OA
ENDBRANCH  11  12
ENDBRANCH  10  11
ENDBRANCH   9  10
ENDBRANCH   8   9
ENDBRANCH   7   8
ENDBRANCH   6   7
ENDBRANCH   5   6
ENDBRANCH   4   5
ENDBRANCH   3   4
ENDBRANCH   2   3
ENDBRANCH   1   2
BRANCH   1  15
ATOM     15  C   UNL     1     -40.387 -23.803  41.222  1.00  0.00     0.000 C 
BRANCH  15  16
ATOM     16  C   UNL     1     -39.532 -23.620  39.957  1.00  0.00     0.000 C 
BRANCH  16  17
ATOM     17  C   UNL     1     -39.968 -22.408  39.115  1.00  0.00     0.000 C 
BRANCH  17  18
ATOM     18  C   UNL     1     -41.493 -22.244  38.949  1.00  0.00    -0.000 C 
BRANCH  18  19
ATOM     19  C   UNL     1     -42.010 -22.301  37.497  1.00  0.00    -0.000 C 
BRANCH  19  20
ATOM     20  C   UNL     1     -41.076 -21.667  36.449  1.00  0.00    -0.000 C 
BRANCH  20  21
ATOM     21  C   UNL     1     -40.710 -22.635  35.313  1.00  0.00    -0.000 C 
BRANCH  21  22
ATOM     22  C   UNL     1     -39.648 -23.643  35.772  1.00  0.00    -0.000 C 
BRANCH  22  23
ATOM     23  C   UNL     1     -40.163 -25.093  35.794  1.00  0.00    -0.000 C 
BRANCH  23  24
ATOM     24  C   UNL     1     -40.133 -25.780  37.174  1.00  0.00    -0.000 C 
BRANCH  24  25
ATOM     25  C   UNL     1     -41.505 -25.933  37.855  1.00  0.00    -0.003 C 
ATOM     26  C   UNL     1     -42.667 -25.911  36.863  1.00  0.00     0.004 C 
ENDBRANCH  24  25
ENDBRANCH  23  24
ENDBRANCH  22  23
ENDBRANCH  21  22
ENDBRANCH  20  21
ENDBRANCH  19  20
ENDBRANCH  18  19
ENDBRANCH  17  18
ENDBRANCH  16  17
ENDBRANCH  15  16
ENDBRANCH   1  15
TORSDOF 22
ENDMDL
