MODEL 1
REMARK VINA RESULT:    -4.325      0.000      0.000
REMARK INTER + INTRA:         -11.000
REMARK INTER:                  -8.371
REMARK INTRA:                  -2.630
REMARK UNBOUND:                -2.630
REMARK SMILES CCCCCCCCCCCCCCCCCC(=O)[O-]
REMARK SMILES IDX 10 1 11 2 12 3 13 4 14 5 15 6 16 7 17 8 18 9 19 10 20 11
REMARK SMILES IDX 9 12 8 13 7 14 6 15 5 16 4 17 3 18 2 19 1 20
REMARK H PARENT
REMARK Flexibility Score: inf
ROOT
ATOM      1  C   UNL     1     -13.301 -34.331 -27.281  1.00  0.00     0.000 C 
ENDROOT
BRANCH   1   2
ATOM      2  C   UNL     1     -14.702 -34.631 -27.844  1.00  0.00     0.000 C 
BRANCH   2   3
ATOM      3  C   UNL     1     -15.203 -36.030 -27.452  1.00  0.00     0.000 C 
BRANCH   3   4
ATOM      4  C   UNL     1     -14.265 -37.151 -27.932  1.00  0.00     0.000 C 
BRANCH   4   5
ATOM      5  C   UNL     1     -13.791 -38.060 -26.787  1.00  0.00     0.000 C 
BRANCH   5   6
ATOM      6  C   UNL     1     -14.061 -37.511 -25.372  1.00  0.00     0.000 C 
BRANCH   6   7
ATOM      7  C   UNL     1     -12.911 -37.767 -24.374  1.00  0.00     0.006 C 
BRANCH   7   8
ATOM      8  C   UNL     1     -12.218 -36.470 -23.936  1.00  0.00     0.053 C 
BRANCH   8   9
ATOM      9  C   UNL     1     -11.097 -36.133 -24.866  1.00  0.00     0.041 C 
ATOM     10  O   UNL     1     -10.480 -37.047 -25.472  1.00  0.00    -0.550 OA
ATOM     11  O   UNL     1     -10.702 -34.810 -25.027  1.00  0.00    -0.550 OA
ENDBRANCH   8   9
ENDBRANCH   7   8
ENDBRANCH   6   7
ENDBRANCH   5   6
ENDBRANCH   4   5
ENDBRANCH   3   4
ENDBRANCH   2   3
ENDBRANCH   1   2
BRANCH   1  12
ATOM     12  C   UNL     1     -12.269 -34.055 -28.386  1.00  0.00     0.000 C 
BRANCH  12  13
ATOM     13  C   UNL     1     -11.223 -35.175 -28.514  1.00  0.00    -0.000 C 
BRANCH  13  14
ATOM     14  C   UNL     1     -10.154 -34.864 -29.575  1.00  0.00    -0.000 C 
BRANCH  14  15
ATOM     15  C   UNL     1      -9.854 -36.072 -30.480  1.00  0.00    -0.000 C 
BRANCH  15  16
ATOM     16  C   UNL     1     -10.638 -37.328 -30.067  1.00  0.00    -0.000 C 
BRANCH  16  17
ATOM     17  C   UNL     1     -11.251 -38.063 -31.267  1.00  0.00    -0.000 C 
BRANCH  17  18
ATOM     18  C   UNL     1     -11.867 -37.073 -32.263  1.00  0.00    -0.000 C 
BRANCH  18  19
ATOM     19  C   UNL     1     -13.392 -37.024 -32.119  1.00  0.00    -0.003 C 
ATOM     20  C   UNL     1     -13.832 -35.796 -31.328  1.00  0.00     0.004 C 
ENDBRANCH  18  19
ENDBRANCH  17  18
ENDBRANCH  16  17
ENDBRANCH  15  16
ENDBRANCH  14  15
ENDBRANCH  13  14
ENDBRANCH  12  13
ENDBRANCH   1  12
TORSDOF 16
ENDMDL
MODEL 2
REMARK VINA RESULT:    -4.241      2.505      5.772
REMARK INTER + INTRA:         -10.837
REMARK INTER:                  -8.286
REMARK INTRA:                  -2.551
REMARK UNBOUND:                -2.630
REMARK SMILES CCCCCCCCCCCCCCCCCC(=O)[O-]
REMARK SMILES IDX 10 1 11 2 12 3 13 4 14 5 15 6 16 7 17 8 18 9 19 10 20 11
REMARK SMILES IDX 9 12 8 13 7 14 6 15 5 16 4 17 3 18 2 19 1 20
REMARK H PARENT
REMARK Flexibility Score: inf
ROOT
ATOM      1  C   UNL     1     -11.812 -35.006 -28.242  1.00  0.00     0.000 C 
ENDROOT
BRANCH   1   2
ATOM      2  C   UNL     1     -11.016 -34.303 -29.357  1.00  0.00     0.000 C 
BRANCH   2   3
ATOM      3  C   UNL     1      -9.624 -34.920 -29.562  1.00  0.00     0.000 C 
BRANCH   3   4
ATOM      4  C   UNL     1      -9.608 -35.991 -30.668  1.00  0.00     0.000 C 
BRANCH   4   5
ATOM      5  C   UNL     1      -9.728 -37.420 -30.113  1.00  0.00     0.000 C 
BRANCH   5   6
ATOM      6  C   UNL     1     -11.127 -38.053 -30.256  1.00  0.00     0.000 C 
BRANCH   6   7
ATOM      7  C   UNL     1     -12.033 -37.338 -31.281  1.00  0.00     0.006 C 
BRANCH   7   8
ATOM      8  C   UNL     1     -13.477 -37.194 -30.782  1.00  0.00     0.053 C 
BRANCH   8   9
ATOM      9  C   UNL     1     -14.072 -35.908 -31.260  1.00  0.00     0.041 C 
ATOM     10  O   UNL     1     -14.515 -35.068 -30.433  1.00  0.00    -0.550 OA
ATOM     11  O   UNL     1     -14.179 -35.655 -32.622  1.00  0.00    -0.550 OA
ENDBRANCH   8   9
ENDBRANCH   7   8
ENDBRANCH   6   7
ENDBRANCH   5   6
ENDBRANCH   4   5
ENDBRANCH   3   4
ENDBRANCH   2   3
ENDBRANCH   1   2
BRANCH   1  12
ATOM     12  C   UNL     1     -12.725 -34.040 -27.471  1.00  0.00     0.000 C 
BRANCH  12  13
ATOM     13  C   UNL     1     -12.451 -34.046 -25.957  1.00  0.00    -0.000 C 
BRANCH  13  14
ATOM     14  C   UNL     1     -11.369 -35.063 -25.559  1.00  0.00    -0.000 C 
BRANCH  14  15
ATOM     15  C   UNL     1     -11.431 -35.434 -24.067  1.00  0.00    -0.000 C 
BRANCH  15  16
ATOM     16  C   UNL     1     -12.034 -36.828 -23.830  1.00  0.00    -0.000 C 
BRANCH  16  17
ATOM     17  C   UNL     1     -12.258 -37.605 -25.136  1.00  0.00    -0.000 C 
BRANCH  17  18
ATOM     18  C   UNL     1     -13.747 -37.894 -25.355  1.00  0.00    -0.000 C 
BRANCH  18  19
ATOM     19  C   UNL     1     -14.167 -37.562 -26.792  1.00  0.00    -0.003 C 
ATOM     20  C   UNL     1     -15.245 -36.482 -26.816  1.00  0.00     0.004 C 
ENDBRANCH  18  19
ENDBRANCH  17  18
ENDBRANCH  16  17
ENDBRANCH  15  16
ENDBRANCH  14  15
ENDBRANCH  13  14
ENDBRANCH  12  13
ENDBRANCH   1  12
TORSDOF 16
ENDMDL
MODEL 3
REMARK VINA RESULT:    -4.196     18.882     21.209
REMARK INTER + INTRA:         -10.751
REMARK INTER:                  -7.255
REMARK INTRA:                  -3.497
REMARK UNBOUND:                -2.630
REMARK SMILES CCCCCCCCCCCCCCCCCC(=O)[O-]
REMARK SMILES IDX 10 1 11 2 12 3 13 4 14 5 15 6 16 7 17 8 18 9 19 10 20 11
REMARK SMILES IDX 9 12 8 13 7 14 6 15 5 16 4 17 3 18 2 19 1 20
REMARK H PARENT
REMARK Flexibility Score: inf
ROOT
ATOM      1  C   UNL     1     -25.006 -22.420 -30.473  1.00  0.00     0.000 C 
ENDROOT
BRANCH   1   2
ATOM      2  C   UNL     1     -26.497 -22.751 -30.280  1.00  0.00     0.000 C 
BRANCH   2   3
ATOM      3  C   UNL     1     -27.233 -22.937 -31.616  1.00  0.00     0.000 C 
BRANCH   3   4
ATOM      4  C   UNL     1     -28.451 -22.007 -31.755  1.00  0.00     0.000 C 
BRANCH   4   5
ATOM      5  C   UNL     1     -28.634 -21.083 -30.539  1.00  0.00     0.000 C 
BRANCH   5   6
ATOM      6  C   UNL     1     -28.640 -19.577 -30.867  1.00  0.00     0.000 C 
BRANCH   6   7
ATOM      7  C   UNL     1     -28.237 -18.679 -29.678  1.00  0.00     0.006 C 
BRANCH   7   8
ATOM      8  C   UNL     1     -27.600 -19.477 -28.532  1.00  0.00     0.053 C 
BRANCH   8   9
ATOM      9  C   UNL     1     -26.611 -18.636 -27.792  1.00  0.00     0.041 C 
ATOM     10  O   UNL     1     -25.725 -17.999 -28.419  1.00  0.00    -0.550 OA
ATOM     11  O   UNL     1     -26.638 -18.591 -26.403  1.00  0.00    -0.550 OA
ENDBRANCH   8   9
ENDBRANCH   7   8
ENDBRANCH   6   7
ENDBRANCH   5   6
ENDBRANCH   4   5
ENDBRANCH   3   4
ENDBRANCH   2   3
ENDBRANCH   1   2
BRANCH   1  12
ATOM     12  C   UNL     1     -24.622 -21.059 -29.873  1.00  0.00     0.000 C 
BRANCH  12  13
ATOM     13  C   UNL     1     -24.004 -20.106 -30.911  1.00  0.00    -0.000 C 
BRANCH  13  14
ATOM     14  C   UNL     1     -25.062 -19.260 -31.638  1.00  0.00    -0.000 C 
BRANCH  14  15
ATOM     15  C   UNL     1     -24.953 -19.369 -33.169  1.00  0.00    -0.000 C 
BRANCH  15  16
ATOM     16  C   UNL     1     -26.173 -20.059 -33.800  1.00  0.00    -0.000 C 
BRANCH  16  17
ATOM     17  C   UNL     1     -25.798 -21.333 -34.573  1.00  0.00    -0.000 C 
BRANCH  17  18
ATOM     18  C   UNL     1     -24.342 -21.731 -34.302  1.00  0.00    -0.000 C 
BRANCH  18  19
ATOM     19  C   UNL     1     -24.239 -23.208 -33.907  1.00  0.00    -0.003 C 
ATOM     20  C   UNL     1     -22.885 -23.519 -33.277  1.00  0.00     0.004 C 
ENDBRANCH  18  19
ENDBRANCH  17  18
ENDBRANCH  16  17
ENDBRANCH  15  16
ENDBRANCH  14  15
ENDBRANCH  13  14
ENDBRANCH  12  13
ENDBRANCH   1  12
TORSDOF 16
ENDMDL
MODEL 4
REMARK VINA RESULT:    -4.190      2.943      6.009
REMARK INTER + INTRA:         -10.739
REMARK INTER:                  -7.816
REMARK INTRA:                  -2.923
REMARK UNBOUND:                -2.630
REMARK SMILES CCCCCCCCCCCCCCCCCC(=O)[O-]
REMARK SMILES IDX 10 1 11 2 12 3 13 4 14 5 15 6 16 7 17 8 18 9 19 10 20 11
REMARK SMILES IDX 9 12 8 13 7 14 6 15 5 16 4 17 3 18 2 19 1 20
REMARK H PARENT
REMARK Flexibility Score: inf
ROOT
ATOM      1  C   UNL     1      -9.272 -35.809 -27.837  1.00  0.00     0.000 C 
ENDROOT
BRANCH   1   2
ATOM      2  C   UNL     1      -9.410 -35.983 -29.360  1.00  0.00     0.000 C 
BRANCH   2   3
ATOM      3  C   UNL     1      -9.456 -37.461 -29.779  1.00  0.00     0.000 C 
BRANCH   3   4
ATOM      4  C   UNL     1     -10.777 -37.839 -30.472  1.00  0.00     0.000 C 
BRANCH   4   5
ATOM      5  C   UNL     1     -11.432 -36.647 -31.189  1.00  0.00     0.000 C 
BRANCH   5   6
ATOM      6  C   UNL     1     -12.378 -37.029 -32.345  1.00  0.00     0.000 C 
BRANCH   6   7
ATOM      7  C   UNL     1     -13.875 -36.943 -31.980  1.00  0.00     0.006 C 
BRANCH   7   8
ATOM      8  C   UNL     1     -14.476 -35.567 -32.300  1.00  0.00     0.053 C 
BRANCH   8   9
ATOM      9  C   UNL     1     -15.772 -35.379 -31.579  1.00  0.00     0.041 C 
ATOM     10  O   UNL     1     -15.979 -34.335 -30.907  1.00  0.00    -0.550 OA
ATOM     11  O   UNL     1     -16.736 -36.380 -31.611  1.00  0.00    -0.550 OA
ENDBRANCH   8   9
ENDBRANCH   7   8
ENDBRANCH   6   7
ENDBRANCH   5   6
ENDBRANCH   4   5
ENDBRANCH   3   4
ENDBRANCH   2   3
ENDBRANCH   1   2
BRANCH   1  12
ATOM     12  C   UNL     1      -9.775 -37.033 -27.056  1.00  0.00     0.000 C 
BRANCH  12  13
ATOM     13  C   UNL     1     -10.673 -36.649 -25.866  1.00  0.00    -0.000 C 
BRANCH  13  14
ATOM     14  C   UNL     1     -10.840 -35.127 -25.722  1.00  0.00    -0.000 C 
BRANCH  14  15
ATOM     15  C   UNL     1     -12.315 -34.690 -25.781  1.00  0.00    -0.000 C 
BRANCH  15  16
ATOM     16  C   UNL     1     -12.625 -33.829 -27.016  1.00  0.00    -0.000 C 
BRANCH  16  17
ATOM     17  C   UNL     1     -12.749 -34.661 -28.301  1.00  0.00    -0.000 C 
BRANCH  17  18
ATOM     18  C   UNL     1     -13.971 -35.585 -28.242  1.00  0.00    -0.000 C 
BRANCH  18  19
ATOM     19  C   UNL     1     -13.547 -37.058 -28.211  1.00  0.00    -0.003 C 
ATOM     20  C   UNL     1     -14.093 -37.763 -26.973  1.00  0.00     0.004 C 
ENDBRANCH  18  19
ENDBRANCH  17  18
ENDBRANCH  16  17
ENDBRANCH  15  16
ENDBRANCH  14  15
ENDBRANCH  13  14
ENDBRANCH  12  13
ENDBRANCH   1  12
TORSDOF 16
ENDMDL
MODEL 5
REMARK VINA RESULT:    -4.170      1.719      3.316
REMARK INTER + INTRA:         -10.700
REMARK INTER:                  -7.464
REMARK INTRA:                  -3.236
REMARK UNBOUND:                -2.630
REMARK SMILES CCCCCCCCCCCCCCCCCC(=O)[O-]
REMARK SMILES IDX 10 1 11 2 12 3 13 4 14 5 15 6 16 7 17 8 18 9 19 10 20 11
REMARK SMILES IDX 9 12 8 13 7 14 6 15 5 16 4 17 3 18 2 19 1 20
REMARK H PARENT
REMARK Flexibility Score: inf
ROOT
ATOM      1  C   UNL     1     -14.540 -34.412 -27.645  1.00  0.00     0.000 C 
ENDROOT
BRANCH   1   2
ATOM      2  C   UNL     1     -13.072 -34.237 -27.217  1.00  0.00     0.000 C 
BRANCH   2   3
ATOM      3  C   UNL     1     -12.119 -34.137 -28.420  1.00  0.00     0.000 C 
BRANCH   3   4
ATOM      4  C   UNL     1     -11.018 -35.212 -28.392  1.00  0.00     0.000 C 
BRANCH   4   5
ATOM      5  C   UNL     1     -10.507 -35.502 -26.972  1.00  0.00     0.000 C 
BRANCH   5   6
ATOM      6  C   UNL     1     -10.139 -36.976 -26.706  1.00  0.00     0.000 C 
BRANCH   6   7
ATOM      7  C   UNL     1     -10.598 -37.493 -25.326  1.00  0.00     0.006 C 
BRANCH   7   8
ATOM      8  C   UNL     1     -11.100 -36.364 -24.416  1.00  0.00     0.053 C 
BRANCH   8   9
ATOM      9  C   UNL     1     -11.083 -36.796 -22.984  1.00  0.00     0.041 C 
ATOM     10  O   UNL     1     -10.003 -36.806 -22.338  1.00  0.00    -0.550 OA
ATOM     11  O   UNL     1     -12.253 -37.233 -22.376  1.00  0.00    -0.550 OA
ENDBRANCH   8   9
ENDBRANCH   7   8
ENDBRANCH   6   7
ENDBRANCH   5   6
ENDBRANCH   4   5
ENDBRANCH   3   4
ENDBRANCH   2   3
ENDBRANCH   1   2
BRANCH   1  12
ATOM     12  C   UNL     1     -15.176 -35.684 -27.062  1.00  0.00     0.000 C 
BRANCH  12  13
ATOM     13  C   UNL     1     -14.139 -36.628 -26.427  1.00  0.00    -0.000 C 
BRANCH  13  14
ATOM     14  C   UNL     1     -14.136 -38.021 -27.079  1.00  0.00    -0.000 C 
BRANCH  14  15
ATOM     15  C   UNL     1     -13.198 -38.097 -28.297  1.00  0.00    -0.000 C 
BRANCH  15  16
ATOM     16  C   UNL     1     -13.953 -37.971 -29.631  1.00  0.00    -0.000 C 
BRANCH  16  17
ATOM     17  C   UNL     1     -13.132 -37.245 -30.707  1.00  0.00    -0.000 C 
BRANCH  17  18
ATOM     18  C   UNL     1     -13.731 -35.869 -31.021  1.00  0.00    -0.000 C 
BRANCH  18  19
ATOM     19  C   UNL     1     -15.258 -35.891 -30.892  1.00  0.00    -0.003 C 
ATOM     20  C   UNL     1     -15.865 -34.551 -31.294  1.00  0.00     0.004 C 
ENDBRANCH  18  19
ENDBRANCH  17  18
ENDBRANCH  16  17
ENDBRANCH  15  16
ENDBRANCH  14  15
ENDBRANCH  13  14
ENDBRANCH  12  13
ENDBRANCH   1  12
TORSDOF 16
ENDMDL
MODEL 6
REMARK VINA RESULT:    -4.166      1.503      3.767
REMARK INTER + INTRA:         -10.693
REMARK INTER:                  -7.708
REMARK INTRA:                  -2.984
REMARK UNBOUND:                -2.630
REMARK SMILES CCCCCCCCCCCCCCCCCC(=O)[O-]
REMARK SMILES IDX 10 1 11 2 12 3 13 4 14 5 15 6 16 7 17 8 18 9 19 10 20 11
REMARK SMILES IDX 9 12 8 13 7 14 6 15 5 16 4 17 3 18 2 19 1 20
REMARK H PARENT
REMARK Flexibility Score: inf
ROOT
ATOM      1  C   UNL     1     -11.867 -34.511 -29.096  1.00  0.00     0.000 C 
ENDROOT
BRANCH   1   2
ATOM      2  C   UNL     1     -10.535 -33.886 -29.547  1.00  0.00     0.000 C 
BRANCH   2   3
ATOM      3  C   UNL     1      -9.436 -34.939 -29.761  1.00  0.00     0.000 C 
BRANCH   3   4
ATOM      4  C   UNL     1      -8.887 -35.498 -28.436  1.00  0.00     0.000 C 
BRANCH   4   5
ATOM      5  C   UNL     1      -8.948 -37.032 -28.367  1.00  0.00     0.000 C 
BRANCH   5   6
ATOM      6  C   UNL     1      -9.948 -37.594 -27.338  1.00  0.00     0.000 C 
BRANCH   6   7
ATOM      7  C   UNL     1     -10.377 -36.573 -26.263  1.00  0.00     0.006 C 
BRANCH   7   8
ATOM      8  C   UNL     1     -11.357 -37.172 -25.245  1.00  0.00     0.053 C 
BRANCH   8   9
ATOM      9  C   UNL     1     -11.668 -36.181 -24.170  1.00  0.00     0.041 C 
ATOM     10  O   UNL     1     -11.388 -34.964 -24.328  1.00  0.00    -0.550 OA
ATOM     11  O   UNL     1     -12.226 -36.609 -22.971  1.00  0.00    -0.550 OA
ENDBRANCH   8   9
ENDBRANCH   7   8
ENDBRANCH   6   7
ENDBRANCH   5   6
ENDBRANCH   4   5
ENDBRANCH   3   4
ENDBRANCH   2   3
ENDBRANCH   1   2
BRANCH   1  12
ATOM     12  C   UNL     1     -12.334 -33.981 -27.732  1.00  0.00     0.000 C 
BRANCH  12  13
ATOM     13  C   UNL     1     -13.605 -34.684 -27.225  1.00  0.00    -0.000 C 
BRANCH  13  14
ATOM     14  C   UNL     1     -13.804 -36.070 -27.861  1.00  0.00    -0.000 C 
BRANCH  14  15
ATOM     15  C   UNL     1     -15.206 -36.242 -28.472  1.00  0.00    -0.000 C 
BRANCH  15  16
ATOM     16  C   UNL     1     -15.231 -35.950 -29.981  1.00  0.00    -0.000 C 
BRANCH  16  17
ATOM     17  C   UNL     1     -14.456 -36.994 -30.798  1.00  0.00    -0.000 C 
BRANCH  17  18
ATOM     18  C   UNL     1     -13.488 -36.319 -31.777  1.00  0.00    -0.000 C 
BRANCH  18  19
ATOM     19  C   UNL     1     -12.207 -37.144 -31.942  1.00  0.00    -0.003 C 
ATOM     20  C   UNL     1     -11.823 -37.835 -30.636  1.00  0.00     0.004 C 
ENDBRANCH  18  19
ENDBRANCH  17  18
ENDBRANCH  16  17
ENDBRANCH  15  16
ENDBRANCH  14  15
ENDBRANCH  13  14
ENDBRANCH  12  13
ENDBRANCH   1  12
TORSDOF 16
ENDMDL
MODEL 7
REMARK VINA RESULT:    -4.145      2.616      5.488
REMARK INTER + INTRA:         -10.652
REMARK INTER:                  -8.212
REMARK INTRA:                  -2.440
REMARK UNBOUND:                -2.630
REMARK SMILES CCCCCCCCCCCCCCCCCC(=O)[O-]
REMARK SMILES IDX 10 1 11 2 12 3 13 4 14 5 15 6 16 7 17 8 18 9 19 10 20 11
REMARK SMILES IDX 9 12 8 13 7 14 6 15 5 16 4 17 3 18 2 19 1 20
REMARK H PARENT
REMARK Flexibility Score: inf
ROOT
ATOM      1  C   UNL     1     -11.875 -34.060 -28.740  1.00  0.00     0.000 C 
ENDROOT
BRANCH   1   2
ATOM      2  C   UNL     1     -12.623 -33.990 -27.397  1.00  0.00     0.000 C 
BRANCH   2   3
ATOM      3  C   UNL     1     -13.680 -35.097 -27.257  1.00  0.00     0.000 C 
BRANCH   3   4
ATOM      4  C   UNL     1     -14.981 -34.771 -28.012  1.00  0.00     0.000 C 
BRANCH   4   5
ATOM      5  C   UNL     1     -15.298 -35.792 -29.117  1.00  0.00     0.000 C 
BRANCH   5   6
ATOM      6  C   UNL     1     -15.586 -35.178 -30.501  1.00  0.00     0.000 C 
BRANCH   6   7
ATOM      7  C   UNL     1     -14.321 -34.941 -31.354  1.00  0.00     0.006 C 
BRANCH   7   8
ATOM      8  C   UNL     1     -14.176 -35.972 -32.482  1.00  0.00     0.053 C 
BRANCH   8   9
ATOM      9  C   UNL     1     -13.110 -36.967 -32.150  1.00  0.00     0.041 C 
ATOM     10  O   UNL     1     -13.285 -37.796 -31.219  1.00  0.00    -0.550 OA
ATOM     11  O   UNL     1     -11.904 -36.950 -32.840  1.00  0.00    -0.550 OA
ENDBRANCH   8   9
ENDBRANCH   7   8
ENDBRANCH   6   7
ENDBRANCH   5   6
ENDBRANCH   4   5
ENDBRANCH   3   4
ENDBRANCH   2   3
ENDBRANCH   1   2
BRANCH   1  12
ATOM     12  C   UNL     1     -11.516 -35.499 -29.140  1.00  0.00     0.000 C 
BRANCH  12  13
ATOM     13  C   UNL     1     -10.177 -35.590 -29.893  1.00  0.00    -0.000 C 
BRANCH  13  14
ATOM     14  C   UNL     1      -9.168 -36.513 -29.190  1.00  0.00    -0.000 C 
BRANCH  14  15
ATOM     15  C   UNL     1      -9.177 -36.338 -27.661  1.00  0.00    -0.000 C 
BRANCH  15  16
ATOM     16  C   UNL     1      -9.425 -37.661 -26.918  1.00  0.00    -0.000 C 
BRANCH  16  17
ATOM     17  C   UNL     1     -10.827 -37.737 -26.297  1.00  0.00    -0.000 C 
BRANCH  17  18
ATOM     18  C   UNL     1     -10.760 -37.609 -24.770  1.00  0.00    -0.000 C 
BRANCH  18  19
ATOM     19  C   UNL     1     -11.716 -36.523 -24.266  1.00  0.00    -0.003 C 
ATOM     20  C   UNL     1     -11.064 -35.145 -24.321  1.00  0.00     0.004 C 
ENDBRANCH  18  19
ENDBRANCH  17  18
ENDBRANCH  16  17
ENDBRANCH  15  16
ENDBRANCH  14  15
ENDBRANCH  13  14
ENDBRANCH  12  13
ENDBRANCH   1  12
TORSDOF 16
ENDMDL
MODEL 8
REMARK VINA RESULT:    -4.055     18.385     21.095
REMARK INTER + INTRA:         -10.477
REMARK INTER:                  -7.284
REMARK INTRA:                  -3.193
REMARK UNBOUND:                -2.630
REMARK SMILES CCCCCCCCCCCCCCCCCC(=O)[O-]
REMARK SMILES IDX 10 1 11 2 12 3 13 4 14 5 15 6 16 7 17 8 18 9 19 10 20 11
REMARK SMILES IDX 9 12 8 13 7 14 6 15 5 16 4 17 3 18 2 19 1 20
REMARK H PARENT
REMARK Flexibility Score: inf
ROOT
ATOM      1  C   UNL     1     -24.795 -20.635 -29.844  1.00  0.00     0.000 C 
ENDROOT
BRANCH   1   2
ATOM      2  C   UNL     1     -24.726 -22.124 -30.227  1.00  0.00     0.000 C 
BRANCH   2   3
ATOM      3  C   UNL     1     -26.119 -22.766 -30.337  1.00  0.00     0.000 C 
BRANCH   3   4
ATOM      4  C   UNL     1     -26.489 -23.133 -31.785  1.00  0.00     0.000 C 
BRANCH   4   5
ATOM      5  C   UNL     1     -25.292 -23.039 -32.746  1.00  0.00     0.000 C 
BRANCH   5   6
ATOM      6  C   UNL     1     -25.447 -21.997 -33.872  1.00  0.00     0.000 C 
BRANCH   6   7
ATOM      7  C   UNL     1     -24.122 -21.638 -34.576  1.00  0.00     0.006 C 
BRANCH   7   8
ATOM      8  C   UNL     1     -22.943 -21.557 -33.596  1.00  0.00     0.053 C 
BRANCH   8   9
ATOM      9  C   UNL     1     -21.845 -22.479 -34.017  1.00  0.00     0.041 C 
ATOM     10  O   UNL     1     -20.951 -22.080 -34.809  1.00  0.00    -0.550 OA
ATOM     11  O   UNL     1     -21.833 -23.795 -33.572  1.00  0.00    -0.550 OA
ENDBRANCH   8   9
ENDBRANCH   7   8
ENDBRANCH   6   7
ENDBRANCH   5   6
ENDBRANCH   4   5
ENDBRANCH   3   4
ENDBRANCH   2   3
ENDBRANCH   1   2
BRANCH   1  12
ATOM     12  C   UNL     1     -24.221 -19.719 -30.937  1.00  0.00     0.000 C 
BRANCH  12  13
ATOM     13  C   UNL     1     -25.105 -18.488 -31.203  1.00  0.00    -0.000 C 
BRANCH  13  14
ATOM     14  C   UNL     1     -26.004 -18.665 -32.438  1.00  0.00    -0.000 C 
BRANCH  14  15
ATOM     15  C   UNL     1     -27.501 -18.650 -32.082  1.00  0.00    -0.000 C 
BRANCH  15  16
ATOM     16  C   UNL     1     -28.105 -20.062 -32.012  1.00  0.00    -0.000 C 
BRANCH  16  17
ATOM     17  C   UNL     1     -28.904 -20.299 -30.722  1.00  0.00    -0.000 C 
BRANCH  17  18
ATOM     18  C   UNL     1     -28.356 -19.446 -29.571  1.00  0.00    -0.000 C 
BRANCH  18  19
ATOM     19  C   UNL     1     -28.011 -20.316 -28.357  1.00  0.00    -0.003 C 
ATOM     20  C   UNL     1     -27.265 -19.511 -27.296  1.00  0.00     0.004 C 
ENDBRANCH  18  19
ENDBRANCH  17  18
ENDBRANCH  16  17
ENDBRANCH  15  16
ENDBRANCH  14  15
ENDBRANCH  13  14
ENDBRANCH  12  13
ENDBRANCH   1  12
TORSDOF 16
ENDMDL
MODEL 9
REMARK VINA RESULT:    -4.027      3.042      6.132
REMARK INTER + INTRA:         -10.423
REMARK INTER:                  -7.844
REMARK INTRA:                  -2.579
REMARK UNBOUND:                -2.630
REMARK SMILES CCCCCCCCCCCCCCCCCC(=O)[O-]
REMARK SMILES IDX 10 1 11 2 12 3 13 4 14 5 15 6 16 7 17 8 18 9 19 10 20 11
REMARK SMILES IDX 9 12 8 13 7 14 6 15 5 16 4 17 3 18 2 19 1 20
REMARK H PARENT
REMARK Flexibility Score: inf
ROOT
ATOM      1  C   UNL     1      -8.958 -35.982 -27.655  1.00  0.00     0.000 C 
ENDROOT
BRANCH   1   2
ATOM      2  C   UNL     1      -9.148 -35.471 -29.094  1.00  0.00     0.000 C 
BRANCH   2   3
ATOM      3  C   UNL     1      -9.153 -36.611 -30.125  1.00  0.00     0.000 C 
BRANCH   3   4
ATOM      4  C   UNL     1     -10.425 -36.619 -30.992  1.00  0.00     0.000 C 
BRANCH   4   5
ATOM      5  C   UNL     1     -11.667 -36.129 -30.229  1.00  0.00     0.000 C 
BRANCH   5   6
ATOM      6  C   UNL     1     -12.632 -37.245 -29.781  1.00  0.00     0.000 C 
BRANCH   6   7
ATOM      7  C   UNL     1     -14.082 -37.049 -30.270  1.00  0.00     0.006 C 
BRANCH   7   8
ATOM      8  C   UNL     1     -14.262 -35.744 -31.057  1.00  0.00     0.053 C 
BRANCH   8   9
ATOM      9  C   UNL     1     -15.682 -35.283 -30.992  1.00  0.00     0.041 C 
ATOM     10  O   UNL     1     -16.000 -34.307 -30.263  1.00  0.00    -0.550 OA
ATOM     11  O   UNL     1     -16.666 -35.960 -31.702  1.00  0.00    -0.550 OA
ENDBRANCH   8   9
ENDBRANCH   7   8
ENDBRANCH   6   7
ENDBRANCH   5   6
ENDBRANCH   4   5
ENDBRANCH   3   4
ENDBRANCH   2   3
ENDBRANCH   1   2
BRANCH   1  12
ATOM     12  C   UNL     1      -9.104 -37.508 -27.548  1.00  0.00     0.000 C 
BRANCH  12  13
ATOM     13  C   UNL     1     -10.409 -37.932 -26.852  1.00  0.00    -0.000 C 
BRANCH  13  14
ATOM     14  C   UNL     1     -10.366 -37.701 -25.332  1.00  0.00    -0.000 C 
BRANCH  14  15
ATOM     15  C   UNL     1     -11.745 -37.879 -24.672  1.00  0.00    -0.000 C 
BRANCH  15  16
ATOM     16  C   UNL     1     -12.367 -36.543 -24.237  1.00  0.00    -0.000 C 
BRANCH  16  17
ATOM     17  C   UNL     1     -11.476 -35.338 -24.573  1.00  0.00    -0.000 C 
BRANCH  17  18
ATOM     18  C   UNL     1     -12.213 -34.343 -25.477  1.00  0.00    -0.000 C 
BRANCH  18  19
ATOM     19  C   UNL     1     -12.486 -34.950 -26.857  1.00  0.00    -0.003 C 
ATOM     20  C   UNL     1     -13.718 -34.324 -27.502  1.00  0.00     0.004 C 
ENDBRANCH  18  19
ENDBRANCH  17  18
ENDBRANCH  16  17
ENDBRANCH  15  16
ENDBRANCH  14  15
ENDBRANCH  13  14
ENDBRANCH  12  13
ENDBRANCH   1  12
TORSDOF 16
ENDMDL
