MODEL 1
REMARK VINA RESULT:    -4.377      0.000      0.000
REMARK INTER + INTRA:         -16.704
REMARK INTER:                 -11.540
REMARK INTRA:                  -5.163
REMARK UNBOUND:                -5.163
REMARK SMILES CCCCCCCCCCCCCCCCCCCCCCCCCCCCCC(=O)[O-]
REMARK SMILES IDX 16 1 17 2 18 3 19 4 20 5 21 6 22 7 23 8 24 9 25 10 26 11
REMARK SMILES IDX 27 12 28 13 29 14 30 15 31 16 32 17 15 18 14 19 13 20 12 21
REMARK SMILES IDX 11 22 10 23 9 24 8 25 7 26 6 27 5 28 4 29 3 30 2 31 1 32
REMARK H PARENT
REMARK Flexibility Score: inf
ROOT
ATOM      1  C   UNL     1      25.068   2.727   8.763  1.00  0.00     0.000 C 
ENDROOT
BRANCH   1   2
ATOM      2  C   UNL     1      24.388   3.727   9.710  1.00  0.00     0.000 C 
BRANCH   2   3
ATOM      3  C   UNL     1      25.383   4.261  10.747  1.00  0.00     0.000 C 
BRANCH   3   4
ATOM      4  C   UNL     1      26.730   4.610  10.094  1.00  0.00     0.000 C 
BRANCH   4   5
ATOM      5  C   UNL     1      27.929   3.944  10.796  1.00  0.00     0.000 C 
BRANCH   5   6
ATOM      6  C   UNL     1      28.806   3.058   9.894  1.00  0.00     0.000 C 
BRANCH   6   7
ATOM      7  C   UNL     1      28.602   3.339   8.394  1.00  0.00     0.000 C 
BRANCH   7   8
ATOM      8  C   UNL     1      28.605   2.055   7.550  1.00  0.00     0.000 C 
BRANCH   8   9
ATOM      9  C   UNL     1      28.672   0.778   8.405  1.00  0.00     0.000 C 
BRANCH   9  10
ATOM     10  C   UNL     1      28.045  -0.441   7.705  1.00  0.00     0.000 C 
BRANCH  10  11
ATOM     11  C   UNL     1      26.723  -0.155   6.965  1.00  0.00     0.000 C 
BRANCH  11  12
ATOM     12  C   UNL     1      26.745  -0.446   5.451  1.00  0.00     0.000 C 
BRANCH  12  13
ATOM     13  C   UNL     1      26.839   0.801   4.550  1.00  0.00     0.006 C 
BRANCH  13  14
ATOM     14  C   UNL     1      26.466   0.552   3.080  1.00  0.00     0.053 C 
BRANCH  14  15
ATOM     15  C   UNL     1      25.074   0.017   2.938  1.00  0.00     0.041 C 
ATOM     16  O   UNL     1      24.885  -1.193   2.648  1.00  0.00    -0.550 OA
ATOM     17  O   UNL     1      23.984   0.850   3.160  1.00  0.00    -0.550 OA
ENDBRANCH  14  15
ENDBRANCH  13  14
ENDBRANCH  12  13
ENDBRANCH  11  12
ENDBRANCH  10  11
ENDBRANCH   9  10
ENDBRANCH   8   9
ENDBRANCH   7   8
ENDBRANCH   6   7
ENDBRANCH   5   6
ENDBRANCH   4   5
ENDBRANCH   3   4
ENDBRANCH   2   3
ENDBRANCH   1   2
BRANCH   1  18
ATOM     18  C   UNL     1      25.051   3.194   7.299  1.00  0.00     0.000 C 
BRANCH  18  19
ATOM     19  C   UNL     1      23.879   4.145   6.999  1.00  0.00     0.000 C 
BRANCH  19  20
ATOM     20  C   UNL     1      24.344   5.573   6.672  1.00  0.00     0.000 C 
BRANCH  20  21
ATOM     21  C   UNL     1      25.865   5.746   6.827  1.00  0.00     0.000 C 
BRANCH  21  22
ATOM     22  C   UNL     1      26.286   7.221   6.948  1.00  0.00     0.000 C 
BRANCH  22  23
ATOM     23  C   UNL     1      26.446   7.737   8.393  1.00  0.00     0.000 C 
BRANCH  23  24
ATOM     24  C   UNL     1      25.259   8.593   8.882  1.00  0.00    -0.000 C 
BRANCH  24  25
ATOM     25  C   UNL     1      24.271   7.782   9.739  1.00  0.00    -0.000 C 
BRANCH  25  26
ATOM     26  C   UNL     1      22.838   7.818   9.188  1.00  0.00    -0.000 C 
BRANCH  26  27
ATOM     27  C   UNL     1      21.962   6.682   9.739  1.00  0.00    -0.000 C 
BRANCH  27  28
ATOM     28  C   UNL     1      21.160   6.012   8.617  1.00  0.00    -0.000 C 
BRANCH  28  29
ATOM     29  C   UNL     1      21.120   6.898   7.363  1.00  0.00    -0.000 C 
BRANCH  29  30
ATOM     30  C   UNL     1      19.691   7.153   6.862  1.00  0.00    -0.000 C 
BRANCH  30  31
ATOM     31  C   UNL     1      19.040   8.375   7.526  1.00  0.00    -0.003 C 
ATOM     32  C   UNL     1      19.991   9.569   7.529  1.00  0.00     0.004 C 
ENDBRANCH  30  31
ENDBRANCH  29  30
ENDBRANCH  28  29
ENDBRANCH  27  28
ENDBRANCH  26  27
ENDBRANCH  25  26
ENDBRANCH  24  25
ENDBRANCH  23  24
ENDBRANCH  22  23
ENDBRANCH  21  22
ENDBRANCH  20  21
ENDBRANCH  19  20
ENDBRANCH  18  19
ENDBRANCH   1  18
TORSDOF 28
ENDMDL
MODEL 2
REMARK VINA RESULT:    -4.224      2.993      7.837
REMARK INTER + INTRA:         -16.301
REMARK INTER:                 -10.610
REMARK INTRA:                  -5.691
REMARK UNBOUND:                -5.163
REMARK SMILES CCCCCCCCCCCCCCCCCCCCCCCCCCCCCC(=O)[O-]
REMARK SMILES IDX 16 1 17 2 18 3 19 4 20 5 21 6 22 7 23 8 24 9 25 10 26 11
REMARK SMILES IDX 27 12 28 13 29 14 30 15 31 16 32 17 15 18 14 19 13 20 12 21
REMARK SMILES IDX 11 22 10 23 9 24 8 25 7 26 6 27 5 28 4 29 3 30 2 31 1 32
REMARK H PARENT
REMARK Flexibility Score: inf
ROOT
ATOM      1  C   UNL     1      26.146   5.510  10.356  1.00  0.00     0.000 C 
ENDROOT
BRANCH   1   2
ATOM      2  C   UNL     1      24.619   5.563  10.513  1.00  0.00     0.000 C 
BRANCH   2   3
ATOM      3  C   UNL     1      23.979   6.352   9.365  1.00  0.00     0.000 C 
BRANCH   3   4
ATOM      4  C   UNL     1      25.014   6.689   8.279  1.00  0.00     0.000 C 
BRANCH   4   5
ATOM      5  C   UNL     1      24.829   5.862   6.993  1.00  0.00     0.000 C 
BRANCH   5   6
ATOM      6  C   UNL     1      25.824   4.701   6.814  1.00  0.00     0.000 C 
BRANCH   6   7
ATOM      7  C   UNL     1      25.132   3.340   6.624  1.00  0.00     0.000 C 
BRANCH   7   8
ATOM      8  C   UNL     1      24.515   2.806   7.926  1.00  0.00     0.000 C 
BRANCH   8   9
ATOM      9  C   UNL     1      23.018   2.479   7.788  1.00  0.00     0.000 C 
BRANCH   9  10
ATOM     10  C   UNL     1      22.333   3.285   6.670  1.00  0.00     0.000 C 
BRANCH  10  11
ATOM     11  C   UNL     1      20.794   3.187   6.649  1.00  0.00     0.000 C 
BRANCH  11  12
ATOM     12  C   UNL     1      20.053   4.539   6.643  1.00  0.00     0.000 C 
BRANCH  12  13
ATOM     13  C   UNL     1      20.726   5.654   7.467  1.00  0.00     0.006 C 
BRANCH  13  14
ATOM     14  C   UNL     1      20.942   6.967   6.698  1.00  0.00     0.053 C 
BRANCH  14  15
ATOM     15  C   UNL     1      20.818   8.166   7.588  1.00  0.00     0.041 C 
ATOM     16  O   UNL     1      21.004   8.057   8.829  1.00  0.00    -0.550 OA
ATOM     17  O   UNL     1      20.532   9.411   7.041  1.00  0.00    -0.550 OA
ENDBRANCH  14  15
ENDBRANCH  13  14
ENDBRANCH  12  13
ENDBRANCH  11  12
ENDBRANCH  10  11
ENDBRANCH   9  10
ENDBRANCH   8   9
ENDBRANCH   7   8
ENDBRANCH   6   7
ENDBRANCH   5   6
ENDBRANCH   4   5
ENDBRANCH   3   4
ENDBRANCH   2   3
ENDBRANCH   1   2
BRANCH   1  18
ATOM     18  C   UNL     1      26.699   4.078  10.427  1.00  0.00     0.000 C 
BRANCH  18  19
ATOM     19  C   UNL     1      28.158   4.033  10.915  1.00  0.00     0.000 C 
BRANCH  19  20
ATOM     20  C   UNL     1      29.068   3.211   9.990  1.00  0.00     0.000 C 
BRANCH  20  21
ATOM     21  C   UNL     1      28.705   3.382   8.504  1.00  0.00     0.000 C 
BRANCH  21  22
ATOM     22  C   UNL     1      28.447   2.040   7.797  1.00  0.00     0.000 C 
BRANCH  22  23
ATOM     23  C   UNL     1      27.723   0.981   8.652  1.00  0.00     0.000 C 
BRANCH  23  24
ATOM     24  C   UNL     1      28.457  -0.375   8.716  1.00  0.00    -0.000 C 
BRANCH  24  25
ATOM     25  C   UNL     1      29.044  -0.783   7.352  1.00  0.00    -0.000 C 
BRANCH  25  26
ATOM     26  C   UNL     1      28.388  -2.047   6.778  1.00  0.00    -0.000 C 
BRANCH  26  27
ATOM     27  C   UNL     1      27.092  -2.428   7.509  1.00  0.00    -0.000 C 
BRANCH  27  28
ATOM     28  C   UNL     1      25.872  -2.246   6.598  1.00  0.00    -0.000 C 
BRANCH  28  29
ATOM     29  C   UNL     1      25.323  -0.815   6.690  1.00  0.00    -0.000 C 
BRANCH  29  30
ATOM     30  C   UNL     1      25.058  -0.191   5.312  1.00  0.00    -0.000 C 
BRANCH  30  31
ATOM     31  C   UNL     1      26.293  -0.227   4.399  1.00  0.00    -0.003 C 
ATOM     32  C   UNL     1      27.184   0.989   4.634  1.00  0.00     0.004 C 
ENDBRANCH  30  31
ENDBRANCH  29  30
ENDBRANCH  28  29
ENDBRANCH  27  28
ENDBRANCH  26  27
ENDBRANCH  25  26
ENDBRANCH  24  25
ENDBRANCH  23  24
ENDBRANCH  22  23
ENDBRANCH  21  22
ENDBRANCH  20  21
ENDBRANCH  19  20
ENDBRANCH  18  19
ENDBRANCH   1  18
TORSDOF 28
ENDMDL
MODEL 3
REMARK VINA RESULT:    -4.193      2.200      8.365
REMARK INTER + INTRA:         -16.219
REMARK INTER:                 -10.801
REMARK INTRA:                  -5.418
REMARK UNBOUND:                -5.163
REMARK SMILES CCCCCCCCCCCCCCCCCCCCCCCCCCCCCC(=O)[O-]
REMARK SMILES IDX 16 1 17 2 18 3 19 4 20 5 21 6 22 7 23 8 24 9 25 10 26 11
REMARK SMILES IDX 27 12 28 13 29 14 30 15 31 16 32 17 15 18 14 19 13 20 12 21
REMARK SMILES IDX 11 22 10 23 9 24 8 25 7 26 6 27 5 28 4 29 3 30 2 31 1 32
REMARK H PARENT
REMARK Flexibility Score: inf
ROOT
ATOM      1  C   UNL     1      25.632   6.619   7.443  1.00  0.00     0.000 C 
ENDROOT
BRANCH   1   2
ATOM      2  C   UNL     1      24.292   6.931   8.127  1.00  0.00     0.000 C 
BRANCH   2   3
ATOM      3  C   UNL     1      24.501   7.831   9.351  1.00  0.00     0.000 C 
BRANCH   3   4
ATOM      4  C   UNL     1      23.445   7.551  10.432  1.00  0.00     0.000 C 
BRANCH   4   5
ATOM      5  C   UNL     1      22.450   6.447  10.029  1.00  0.00     0.000 C 
BRANCH   5   6
ATOM      6  C   UNL     1      21.015   6.637  10.554  1.00  0.00     0.000 C 
BRANCH   6   7
ATOM      7  C   UNL     1      20.641   8.115  10.760  1.00  0.00     0.000 C 
BRANCH   7   8
ATOM      8  C   UNL     1      19.860   8.695   9.570  1.00  0.00     0.000 C 
BRANCH   8   9
ATOM      9  C   UNL     1      20.767   9.404   8.550  1.00  0.00     0.000 C 
BRANCH   9  10
ATOM     10  C   UNL     1      20.498   8.958   7.102  1.00  0.00     0.000 C 
BRANCH  10  11
ATOM     11  C   UNL     1      20.623   7.441   6.856  1.00  0.00     0.000 C 
BRANCH  11  12
ATOM     12  C   UNL     1      19.291   6.705   6.612  1.00  0.00     0.000 C 
BRANCH  12  13
ATOM     13  C   UNL     1      19.200   5.298   7.236  1.00  0.00     0.006 C 
BRANCH  13  14
ATOM     14  C   UNL     1      20.552   4.583   7.386  1.00  0.00     0.053 C 
BRANCH  14  15
ATOM     15  C   UNL     1      20.820   3.645   6.250  1.00  0.00     0.041 C 
ATOM     16  O   UNL     1      21.433   4.047   5.226  1.00  0.00    -0.550 OA
ATOM     17  O   UNL     1      20.423   2.316   6.337  1.00  0.00    -0.550 OA
ENDBRANCH  14  15
ENDBRANCH  13  14
ENDBRANCH  12  13
ENDBRANCH  11  12
ENDBRANCH  10  11
ENDBRANCH   9  10
ENDBRANCH   8   9
ENDBRANCH   7   8
ENDBRANCH   6   7
ENDBRANCH   5   6
ENDBRANCH   4   5
ENDBRANCH   3   4
ENDBRANCH   2   3
ENDBRANCH   1   2
BRANCH   1  18
ATOM     18  C   UNL     1      26.813   6.620   8.426  1.00  0.00     0.000 C 
BRANCH  18  19
ATOM     19  C   UNL     1      27.173   5.205   8.914  1.00  0.00     0.000 C 
BRANCH  19  20
ATOM     20  C   UNL     1      26.717   4.942  10.357  1.00  0.00     0.000 C 
BRANCH  20  21
ATOM     21  C   UNL     1      25.328   4.281  10.423  1.00  0.00     0.000 C 
BRANCH  21  22
ATOM     22  C   UNL     1      25.177   3.111   9.435  1.00  0.00     0.000 C 
BRANCH  22  23
ATOM     23  C   UNL     1      24.068   3.289   8.379  1.00  0.00     0.000 C 
BRANCH  23  24
ATOM     24  C   UNL     1      24.586   3.277   6.926  1.00  0.00    -0.000 C 
BRANCH  24  25
ATOM     25  C   UNL     1      25.438   2.031   6.622  1.00  0.00    -0.000 C 
BRANCH  25  26
ATOM     26  C   UNL     1      26.916   2.368   6.377  1.00  0.00    -0.000 C 
BRANCH  26  27
ATOM     27  C   UNL     1      27.830   1.900   7.520  1.00  0.00    -0.000 C 
BRANCH  27  28
ATOM     28  C   UNL     1      27.367   0.547   8.075  1.00  0.00    -0.000 C 
BRANCH  28  29
ATOM     29  C   UNL     1      28.522  -0.464   8.096  1.00  0.00    -0.000 C 
BRANCH  29  30
ATOM     30  C   UNL     1      28.353  -1.536   9.184  1.00  0.00    -0.000 C 
BRANCH  30  31
ATOM     31  C   UNL     1      28.359  -2.962   8.615  1.00  0.00    -0.003 C 
ATOM     32  C   UNL     1      28.669  -2.955   7.121  1.00  0.00     0.004 C 
ENDBRANCH  30  31
ENDBRANCH  29  30
ENDBRANCH  28  29
ENDBRANCH  27  28
ENDBRANCH  26  27
ENDBRANCH  25  26
ENDBRANCH  24  25
ENDBRANCH  23  24
ENDBRANCH  22  23
ENDBRANCH  21  22
ENDBRANCH  20  21
ENDBRANCH  19  20
ENDBRANCH  18  19
ENDBRANCH   1  18
TORSDOF 28
ENDMDL
MODEL 4
REMARK VINA RESULT:    -4.177      2.792      5.566
REMARK INTER + INTRA:         -16.177
REMARK INTER:                 -10.261
REMARK INTRA:                  -5.915
REMARK UNBOUND:                -5.163
REMARK SMILES CCCCCCCCCCCCCCCCCCCCCCCCCCCCCC(=O)[O-]
REMARK SMILES IDX 16 1 17 2 18 3 19 4 20 5 21 6 22 7 23 8 24 9 25 10 26 11
REMARK SMILES IDX 27 12 28 13 29 14 30 15 31 16 32 17 15 18 14 19 13 20 12 21
REMARK SMILES IDX 11 22 10 23 9 24 8 25 7 26 6 27 5 28 4 29 3 30 2 31 1 32
REMARK H PARENT
REMARK Flexibility Score: inf
ROOT
ATOM      1  C   UNL     1      27.895   1.468   8.726  1.00  0.00     0.000 C 
ENDROOT
BRANCH   1   2
ATOM      2  C   UNL     1      28.917   0.324   8.793  1.00  0.00     0.000 C 
BRANCH   2   3
ATOM      3  C   UNL     1      28.239  -1.029   8.542  1.00  0.00     0.000 C 
BRANCH   3   4
ATOM      4  C   UNL     1      28.204  -1.362   7.043  1.00  0.00     0.000 C 
BRANCH   4   5
ATOM      5  C   UNL     1      26.870  -0.982   6.373  1.00  0.00     0.000 C 
BRANCH   5   6
ATOM      6  C   UNL     1      26.988  -0.008   5.187  1.00  0.00     0.000 C 
BRANCH   6   7
ATOM      7  C   UNL     1      26.285   1.337   5.440  1.00  0.00     0.000 C 
BRANCH   7   8
ATOM      8  C   UNL     1      24.859   1.163   5.987  1.00  0.00     0.000 C 
BRANCH   8   9
ATOM      9  C   UNL     1      23.877   0.627   4.931  1.00  0.00     0.000 C 
BRANCH   9  10
ATOM     10  C   UNL     1      23.026  -0.546   5.450  1.00  0.00     0.000 C 
BRANCH  10  11
ATOM     11  C   UNL     1      23.178  -0.841   6.956  1.00  0.00     0.000 C 
BRANCH  11  12
ATOM     12  C   UNL     1      21.977  -0.424   7.829  1.00  0.00     0.000 C 
BRANCH  12  13
ATOM     13  C   UNL     1      21.987   1.048   8.289  1.00  0.00     0.006 C 
BRANCH  13  14
ATOM     14  C   UNL     1      21.139   1.989   7.421  1.00  0.00     0.053 C 
BRANCH  14  15
ATOM     15  C   UNL     1      19.966   2.541   8.171  1.00  0.00     0.041 C 
ATOM     16  O   UNL     1      20.079   2.853   9.386  1.00  0.00    -0.550 OA
ATOM     17  O   UNL     1      18.756   2.744   7.518  1.00  0.00    -0.550 OA
ENDBRANCH  14  15
ENDBRANCH  13  14
ENDBRANCH  12  13
ENDBRANCH  11  12
ENDBRANCH  10  11
ENDBRANCH   9  10
ENDBRANCH   8   9
ENDBRANCH   7   8
ENDBRANCH   6   7
ENDBRANCH   5   6
ENDBRANCH   4   5
ENDBRANCH   3   4
ENDBRANCH   2   3
ENDBRANCH   1   2
BRANCH   1  18
ATOM     18  C   UNL     1      28.427   2.692   7.963  1.00  0.00     0.000 C 
BRANCH  18  19
ATOM     19  C   UNL     1      28.574   3.930   8.867  1.00  0.00     0.000 C 
BRANCH  19  20
ATOM     20  C   UNL     1      27.860   3.767  10.217  1.00  0.00     0.000 C 
BRANCH  20  21
ATOM     21  C   UNL     1      26.884   4.921  10.509  1.00  0.00     0.000 C 
BRANCH  21  22
ATOM     22  C   UNL     1      25.426   4.447  10.646  1.00  0.00     0.000 C 
BRANCH  22  23
ATOM     23  C   UNL     1      24.897   3.616   9.459  1.00  0.00     0.000 C 
BRANCH  23  24
ATOM     24  C   UNL     1      23.704   4.267   8.728  1.00  0.00    -0.000 C 
BRANCH  24  25
ATOM     25  C   UNL     1      23.996   4.501   7.235  1.00  0.00    -0.000 C 
BRANCH  25  26
ATOM     26  C   UNL     1      25.482   4.770   6.954  1.00  0.00    -0.000 C 
BRANCH  26  27
ATOM     27  C   UNL     1      25.764   6.241   6.609  1.00  0.00    -0.000 C 
BRANCH  27  28
ATOM     28  C   UNL     1      26.650   6.896   7.675  1.00  0.00    -0.000 C 
BRANCH  28  29
ATOM     29  C   UNL     1      26.104   8.274   8.074  1.00  0.00    -0.000 C 
BRANCH  29  30
ATOM     30  C   UNL     1      25.352   8.250   9.413  1.00  0.00    -0.000 C 
BRANCH  30  31
ATOM     31  C   UNL     1      23.866   7.897   9.251  1.00  0.00    -0.003 C 
ATOM     32  C   UNL     1      23.250   7.489  10.587  1.00  0.00     0.004 C 
ENDBRANCH  30  31
ENDBRANCH  29  30
ENDBRANCH  28  29
ENDBRANCH  27  28
ENDBRANCH  26  27
ENDBRANCH  25  26
ENDBRANCH  24  25
ENDBRANCH  23  24
ENDBRANCH  22  23
ENDBRANCH  21  22
ENDBRANCH  20  21
ENDBRANCH  19  20
ENDBRANCH  18  19
ENDBRANCH   1  18
TORSDOF 28
ENDMDL
MODEL 5
REMARK VINA RESULT:    -4.164      1.607      3.385
REMARK INTER + INTRA:         -16.143
REMARK INTER:                 -10.691
REMARK INTRA:                  -5.451
REMARK UNBOUND:                -5.163
REMARK SMILES CCCCCCCCCCCCCCCCCCCCCCCCCCCCCC(=O)[O-]
REMARK SMILES IDX 16 1 17 2 18 3 19 4 20 5 21 6 22 7 23 8 24 9 25 10 26 11
REMARK SMILES IDX 27 12 28 13 29 14 30 15 31 16 32 17 15 18 14 19 13 20 12 21
REMARK SMILES IDX 11 22 10 23 9 24 8 25 7 26 6 27 5 28 4 29 3 30 2 31 1 32
REMARK H PARENT
REMARK Flexibility Score: inf
ROOT
ATOM      1  C   UNL     1      25.952   5.030   7.177  1.00  0.00     0.000 C 
ENDROOT
BRANCH   1   2
ATOM      2  C   UNL     1      24.926   4.343   8.091  1.00  0.00     0.000 C 
BRANCH   2   3
ATOM      3  C   UNL     1      25.508   4.113   9.490  1.00  0.00     0.000 C 
BRANCH   3   4
ATOM      4  C   UNL     1      26.966   4.593   9.570  1.00  0.00     0.000 C 
BRANCH   4   5
ATOM      5  C   UNL     1      27.747   3.953  10.733  1.00  0.00     0.000 C 
BRANCH   5   6
ATOM      6  C   UNL     1      28.911   3.037  10.313  1.00  0.00     0.000 C 
BRANCH   6   7
ATOM      7  C   UNL     1      28.659   2.319   8.976  1.00  0.00     0.000 C 
BRANCH   7   8
ATOM      8  C   UNL     1      28.661   0.789   9.120  1.00  0.00     0.000 C 
BRANCH   8   9
ATOM      9  C   UNL     1      27.730   0.092   8.113  1.00  0.00     0.000 C 
BRANCH   9  10
ATOM     10  C   UNL     1      27.165   1.059   7.056  1.00  0.00     0.000 C 
BRANCH  10  11
ATOM     11  C   UNL     1      25.628   1.063   6.937  1.00  0.00     0.000 C 
BRANCH  11  12
ATOM     12  C   UNL     1      25.078   1.560   5.585  1.00  0.00     0.000 C 
BRANCH  12  13
ATOM     13  C   UNL     1      25.172   0.542   4.431  1.00  0.00     0.006 C 
BRANCH  13  14
ATOM     14  C   UNL     1      26.366   0.761   3.489  1.00  0.00     0.053 C 
BRANCH  14  15
ATOM     15  C   UNL     1      26.296  -0.118   2.279  1.00  0.00     0.041 C 
ATOM     16  O   UNL     1      26.800  -1.272   2.302  1.00  0.00    -0.550 OA
ATOM     17  O   UNL     1      25.641   0.324   1.136  1.00  0.00    -0.550 OA
ENDBRANCH  14  15
ENDBRANCH  13  14
ENDBRANCH  12  13
ENDBRANCH  11  12
ENDBRANCH  10  11
ENDBRANCH   9  10
ENDBRANCH   8   9
ENDBRANCH   7   8
ENDBRANCH   6   7
ENDBRANCH   5   6
ENDBRANCH   4   5
ENDBRANCH   3   4
ENDBRANCH   2   3
ENDBRANCH   1   2
BRANCH   1  18
ATOM     18  C   UNL     1      25.572   6.482   6.847  1.00  0.00     0.000 C 
BRANCH  18  19
ATOM     19  C   UNL     1      26.610   7.494   7.365  1.00  0.00     0.000 C 
BRANCH  19  20
ATOM     20  C   UNL     1      26.158   8.200   8.653  1.00  0.00     0.000 C 
BRANCH  20  21
ATOM     21  C   UNL     1      24.631   8.154   8.844  1.00  0.00     0.000 C 
BRANCH  21  22
ATOM     22  C   UNL     1      24.218   7.528  10.187  1.00  0.00     0.000 C 
BRANCH  22  23
ATOM     23  C   UNL     1      22.758   7.037  10.256  1.00  0.00     0.000 C 
BRANCH  23  24
ATOM     24  C   UNL     1      22.287   6.310   8.979  1.00  0.00    -0.000 C 
BRANCH  24  25
ATOM     25  C   UNL     1      20.941   6.852   8.464  1.00  0.00    -0.000 C 
BRANCH  25  26
ATOM     26  C   UNL     1      20.858   6.878   6.931  1.00  0.00    -0.000 C 
BRANCH  26  27
ATOM     27  C   UNL     1      21.931   6.004   6.264  1.00  0.00    -0.000 C 
BRANCH  27  28
ATOM     28  C   UNL     1      21.302   4.779   5.590  1.00  0.00    -0.000 C 
BRANCH  28  29
ATOM     29  C   UNL     1      21.905   3.478   6.139  1.00  0.00    -0.000 C 
BRANCH  29  30
ATOM     30  C   UNL     1      21.296   3.065   7.487  1.00  0.00    -0.000 C 
BRANCH  30  31
ATOM     31  C   UNL     1      22.125   1.990   8.205  1.00  0.00    -0.003 C 
ATOM     32  C   UNL     1      21.902   0.616   7.579  1.00  0.00     0.004 C 
ENDBRANCH  30  31
ENDBRANCH  29  30
ENDBRANCH  28  29
ENDBRANCH  27  28
ENDBRANCH  26  27
ENDBRANCH  25  26
ENDBRANCH  24  25
ENDBRANCH  23  24
ENDBRANCH  22  23
ENDBRANCH  21  22
ENDBRANCH  20  21
ENDBRANCH  19  20
ENDBRANCH  18  19
ENDBRANCH   1  18
TORSDOF 28
ENDMDL
MODEL 6
REMARK VINA RESULT:    -4.135      1.452      3.671
REMARK INTER + INTRA:         -16.066
REMARK INTER:                 -10.314
REMARK INTRA:                  -5.752
REMARK UNBOUND:                -5.163
REMARK SMILES CCCCCCCCCCCCCCCCCCCCCCCCCCCCCC(=O)[O-]
REMARK SMILES IDX 16 1 17 2 18 3 19 4 20 5 21 6 22 7 23 8 24 9 25 10 26 11
REMARK SMILES IDX 27 12 28 13 29 14 30 15 31 16 32 17 15 18 14 19 13 20 12 21
REMARK SMILES IDX 11 22 10 23 9 24 8 25 7 26 6 27 5 28 4 29 3 30 2 31 1 32
REMARK H PARENT
REMARK Flexibility Score: inf
ROOT
ATOM      1  C   UNL     1      23.113   3.539   9.257  1.00  0.00     0.000 C 
ENDROOT
BRANCH   1   2
ATOM      2  C   UNL     1      24.639   3.669   9.127  1.00  0.00     0.000 C 
BRANCH   2   3
ATOM      3  C   UNL     1      25.246   4.264  10.403  1.00  0.00     0.000 C 
BRANCH   3   4
ATOM      4  C   UNL     1      26.782   4.232  10.353  1.00  0.00     0.000 C 
BRANCH   4   5
ATOM      5  C   UNL     1      27.329   3.627   9.046  1.00  0.00     0.000 C 
BRANCH   5   6
ATOM      6  C   UNL     1      28.753   3.050   9.139  1.00  0.00     0.000 C 
BRANCH   6   7
ATOM      7  C   UNL     1      28.791   1.638   9.749  1.00  0.00     0.000 C 
BRANCH   7   8
ATOM      8  C   UNL     1      28.170   0.579   8.823  1.00  0.00     0.000 C 
BRANCH   8   9
ATOM      9  C   UNL     1      28.818   0.552   7.428  1.00  0.00     0.000 C 
BRANCH   9  10
ATOM     10  C   UNL     1      27.782   0.499   6.291  1.00  0.00     0.000 C 
BRANCH  10  11
ATOM     11  C   UNL     1      27.227   1.870   5.855  1.00  0.00     0.000 C 
BRANCH  11  12
ATOM     12  C   UNL     1      25.712   2.059   6.066  1.00  0.00     0.000 C 
BRANCH  12  13
ATOM     13  C   UNL     1      24.996   0.873   6.741  1.00  0.00     0.006 C 
BRANCH  13  14
ATOM     14  C   UNL     1      23.532   0.688   6.311  1.00  0.00     0.053 C 
BRANCH  14  15
ATOM     15  C   UNL     1      23.308   1.102   4.890  1.00  0.00     0.041 C 
ATOM     16  O   UNL     1      23.842   0.456   3.949  1.00  0.00    -0.550 OA
ATOM     17  O   UNL     1      22.480   2.179   4.601  1.00  0.00    -0.550 OA
ENDBRANCH  14  15
ENDBRANCH  13  14
ENDBRANCH  12  13
ENDBRANCH  11  12
ENDBRANCH  10  11
ENDBRANCH   9  10
ENDBRANCH   8   9
ENDBRANCH   7   8
ENDBRANCH   6   7
ENDBRANCH   5   6
ENDBRANCH   4   5
ENDBRANCH   3   4
ENDBRANCH   2   3
ENDBRANCH   1   2
BRANCH   1  18
ATOM     18  C   UNL     1      22.383   3.790   7.928  1.00  0.00     0.000 C 
BRANCH  18  19
ATOM     19  C   UNL     1      23.198   4.674   6.967  1.00  0.00     0.000 C 
BRANCH  19  20
ATOM     20  C   UNL     1      22.401   5.882   6.453  1.00  0.00     0.000 C 
BRANCH  20  21
ATOM     21  C   UNL     1      21.116   5.467   5.713  1.00  0.00     0.000 C 
BRANCH  21  22
ATOM     22  C   UNL     1      19.922   6.382   6.035  1.00  0.00     0.000 C 
BRANCH  22  23
ATOM     23  C   UNL     1      20.242   7.566   6.969  1.00  0.00     0.000 C 
BRANCH  23  24
ATOM     24  C   UNL     1      19.147   7.841   8.021  1.00  0.00    -0.000 C 
BRANCH  24  25
ATOM     25  C   UNL     1      19.653   7.624   9.458  1.00  0.00    -0.000 C 
BRANCH  25  26
ATOM     26  C   UNL     1      20.754   6.556   9.545  1.00  0.00    -0.000 C 
BRANCH  26  27
ATOM     27  C   UNL     1      21.993   7.042  10.313  1.00  0.00    -0.000 C 
BRANCH  27  28
ATOM     28  C   UNL     1      22.868   7.943   9.434  1.00  0.00    -0.000 C 
BRANCH  28  29
ATOM     29  C   UNL     1      24.359   7.651   9.656  1.00  0.00    -0.000 C 
BRANCH  29  30
ATOM     30  C   UNL     1      25.274   8.637   8.915  1.00  0.00    -0.000 C 
BRANCH  30  31
ATOM     31  C   UNL     1      26.513   7.958   8.315  1.00  0.00    -0.003 C 
ATOM     32  C   UNL     1      26.117   6.791   7.414  1.00  0.00     0.004 C 
ENDBRANCH  30  31
ENDBRANCH  29  30
ENDBRANCH  28  29
ENDBRANCH  27  28
ENDBRANCH  26  27
ENDBRANCH  25  26
ENDBRANCH  24  25
ENDBRANCH  23  24
ENDBRANCH  22  23
ENDBRANCH  21  22
ENDBRANCH  20  21
ENDBRANCH  19  20
ENDBRANCH  18  19
ENDBRANCH   1  18
TORSDOF 28
ENDMDL
MODEL 7
REMARK VINA RESULT:    -4.057      1.623      3.435
REMARK INTER + INTRA:         -15.862
REMARK INTER:                 -10.980
REMARK INTRA:                  -4.883
REMARK UNBOUND:                -5.163
REMARK SMILES CCCCCCCCCCCCCCCCCCCCCCCCCCCCCC(=O)[O-]
REMARK SMILES IDX 16 1 17 2 18 3 19 4 20 5 21 6 22 7 23 8 24 9 25 10 26 11
REMARK SMILES IDX 27 12 28 13 29 14 30 15 31 16 32 17 15 18 14 19 13 20 12 21
REMARK SMILES IDX 11 22 10 23 9 24 8 25 7 26 6 27 5 28 4 29 3 30 2 31 1 32
REMARK H PARENT
REMARK Flexibility Score: inf
ROOT
ATOM      1  C   UNL     1      25.772   5.969   9.019  1.00  0.00     0.000 C 
ENDROOT
BRANCH   1   2
ATOM      2  C   UNL     1      27.167   5.371   9.255  1.00  0.00     0.000 C 
BRANCH   2   3
ATOM      3  C   UNL     1      27.160   4.431  10.466  1.00  0.00     0.000 C 
BRANCH   3   4
ATOM      4  C   UNL     1      28.298   3.402  10.377  1.00  0.00     0.000 C 
BRANCH   4   5
ATOM      5  C   UNL     1      28.590   2.950   8.934  1.00  0.00     0.000 C 
BRANCH   5   6
ATOM      6  C   UNL     1      27.906   1.638   8.510  1.00  0.00     0.000 C 
BRANCH   6   7
ATOM      7  C   UNL     1      28.875   0.444   8.457  1.00  0.00     0.000 C 
BRANCH   7   8
ATOM      8  C   UNL     1      28.407  -0.733   9.327  1.00  0.00     0.000 C 
BRANCH   8   9
ATOM      9  C   UNL     1      28.340  -2.060   8.551  1.00  0.00     0.000 C 
BRANCH   9  10
ATOM     10  C   UNL     1      28.328  -1.858   7.025  1.00  0.00     0.000 C 
BRANCH  10  11
ATOM     11  C   UNL     1      27.210  -2.614   6.280  1.00  0.00     0.000 C 
BRANCH  11  12
ATOM     12  C   UNL     1      25.800  -2.008   6.426  1.00  0.00     0.000 C 
BRANCH  12  13
ATOM     13  C   UNL     1      25.752  -0.467   6.435  1.00  0.00     0.006 C 
BRANCH  13  14
ATOM     14  C   UNL     1      25.446   0.165   5.068  1.00  0.00     0.053 C 
BRANCH  14  15
ATOM     15  C   UNL     1      26.691   0.616   4.367  1.00  0.00     0.041 C 
ATOM     16  O   UNL     1      27.620   1.166   5.015  1.00  0.00    -0.550 OA
ATOM     17  O   UNL     1      26.838   0.397   3.003  1.00  0.00    -0.550 OA
ENDBRANCH  14  15
ENDBRANCH  13  14
ENDBRANCH  12  13
ENDBRANCH  11  12
ENDBRANCH  10  11
ENDBRANCH   9  10
ENDBRANCH   8   9
ENDBRANCH   7   8
ENDBRANCH   6   7
ENDBRANCH   5   6
ENDBRANCH   4   5
ENDBRANCH   3   4
ENDBRANCH   2   3
ENDBRANCH   1   2
BRANCH   1  18
ATOM     18  C   UNL     1      25.255   5.719   7.593  1.00  0.00     0.000 C 
BRANCH  18  19
ATOM     19  C   UNL     1      25.997   4.566   6.893  1.00  0.00     0.000 C 
BRANCH  19  20
ATOM     20  C   UNL     1      25.096   3.348   6.639  1.00  0.00     0.000 C 
BRANCH  20  21
ATOM     21  C   UNL     1      24.489   2.785   7.937  1.00  0.00     0.000 C 
BRANCH  21  22
ATOM     22  C   UNL     1      23.053   2.268   7.747  1.00  0.00     0.000 C 
BRANCH  22  23
ATOM     23  C   UNL     1      22.140   3.177   6.900  1.00  0.00     0.000 C 
BRANCH  23  24
ATOM     24  C   UNL     1      21.845   4.544   7.554  1.00  0.00    -0.000 C 
BRANCH  24  25
ATOM     25  C   UNL     1      21.682   5.665   6.511  1.00  0.00    -0.000 C 
BRANCH  25  26
ATOM     26  C   UNL     1      20.291   5.673   5.860  1.00  0.00    -0.000 C 
BRANCH  26  27
ATOM     27  C   UNL     1      19.413   6.835   6.350  1.00  0.00    -0.000 C 
BRANCH  27  28
ATOM     28  C   UNL     1      20.262   7.919   7.025  1.00  0.00    -0.000 C 
BRANCH  28  29
ATOM     29  C   UNL     1      19.764   8.200   8.450  1.00  0.00    -0.000 C 
BRANCH  29  30
ATOM     30  C   UNL     1      20.537   7.408   9.515  1.00  0.00    -0.000 C 
BRANCH  30  31
ATOM     31  C   UNL     1      22.004   7.848   9.632  1.00  0.00    -0.003 C 
ATOM     32  C   UNL     1      22.708   7.113  10.769  1.00  0.00     0.004 C 
ENDBRANCH  30  31
ENDBRANCH  29  30
ENDBRANCH  28  29
ENDBRANCH  27  28
ENDBRANCH  26  27
ENDBRANCH  25  26
ENDBRANCH  24  25
ENDBRANCH  23  24
ENDBRANCH  22  23
ENDBRANCH  21  22
ENDBRANCH  20  21
ENDBRANCH  19  20
ENDBRANCH  18  19
ENDBRANCH   1  18
TORSDOF 28
ENDMDL
MODEL 8
REMARK VINA RESULT:    -4.052      2.546      4.148
REMARK INTER + INTRA:         -15.849
REMARK INTER:                  -9.970
REMARK INTRA:                  -5.879
REMARK UNBOUND:                -5.163
REMARK SMILES CCCCCCCCCCCCCCCCCCCCCCCCCCCCCC(=O)[O-]
REMARK SMILES IDX 16 1 17 2 18 3 19 4 20 5 21 6 22 7 23 8 24 9 25 10 26 11
REMARK SMILES IDX 27 12 28 13 29 14 30 15 31 16 32 17 15 18 14 19 13 20 12 21
REMARK SMILES IDX 11 22 10 23 9 24 8 25 7 26 6 27 5 28 4 29 3 30 2 31 1 32
REMARK H PARENT
REMARK Flexibility Score: inf
ROOT
ATOM      1  C   UNL     1      25.593   4.138  10.057  1.00  0.00     0.000 C 
ENDROOT
BRANCH   1   2
ATOM      2  C   UNL     1      26.953   4.794  10.338  1.00  0.00     0.000 C 
BRANCH   2   3
ATOM      3  C   UNL     1      28.027   3.732  10.602  1.00  0.00     0.000 C 
BRANCH   3   4
ATOM      4  C   UNL     1      29.021   3.646   9.434  1.00  0.00     0.000 C 
BRANCH   4   5
ATOM      5  C   UNL     1      28.585   2.648   8.344  1.00  0.00     0.000 C 
BRANCH   5   6
ATOM      6  C   UNL     1      28.336   1.211   8.836  1.00  0.00     0.000 C 
BRANCH   6   7
ATOM      7  C   UNL     1      27.096   0.563   8.195  1.00  0.00     0.000 C 
BRANCH   7   8
ATOM      8  C   UNL     1      26.586   1.347   6.976  1.00  0.00     0.000 C 
BRANCH   8   9
ATOM      9  C   UNL     1      25.194   0.886   6.509  1.00  0.00     0.000 C 
BRANCH   9  10
ATOM     10  C   UNL     1      24.357   2.031   5.912  1.00  0.00     0.000 C 
BRANCH  10  11
ATOM     11  C   UNL     1      22.976   2.234   6.568  1.00  0.00     0.000 C 
BRANCH  11  12
ATOM     12  C   UNL     1      21.973   3.061   5.738  1.00  0.00     0.000 C 
BRANCH  12  13
ATOM     13  C   UNL     1      20.506   2.963   6.204  1.00  0.00     0.006 C 
BRANCH  13  14
ATOM     14  C   UNL     1      20.262   1.932   7.317  1.00  0.00     0.053 C 
BRANCH  14  15
ATOM     15  C   UNL     1      19.793   2.576   8.585  1.00  0.00     0.041 C 
ATOM     16  O   UNL     1      18.696   3.194   8.614  1.00  0.00    -0.550 OA
ATOM     17  O   UNL     1      20.550   2.462   9.744  1.00  0.00    -0.550 OA
ENDBRANCH  14  15
ENDBRANCH  13  14
ENDBRANCH  12  13
ENDBRANCH  11  12
ENDBRANCH  10  11
ENDBRANCH   9  10
ENDBRANCH   8   9
ENDBRANCH   7   8
ENDBRANCH   6   7
ENDBRANCH   5   6
ENDBRANCH   4   5
ENDBRANCH   3   4
ENDBRANCH   2   3
ENDBRANCH   1   2
BRANCH   1  18
ATOM     18  C   UNL     1      25.130   4.336   8.605  1.00  0.00     0.000 C 
BRANCH  18  19
ATOM     19  C   UNL     1      26.134   5.156   7.774  1.00  0.00     0.000 C 
BRANCH  19  20
ATOM     20  C   UNL     1      25.572   6.520   7.345  1.00  0.00     0.000 C 
BRANCH  20  21
ATOM     21  C   UNL     1      26.165   7.683   8.160  1.00  0.00     0.000 C 
BRANCH  21  22
ATOM     22  C   UNL     1      25.087   8.526   8.864  1.00  0.00     0.000 C 
BRANCH  22  23
ATOM     23  C   UNL     1      24.327   7.801   9.993  1.00  0.00     0.000 C 
BRANCH  23  24
ATOM     24  C   UNL     1      22.816   7.640   9.721  1.00  0.00    -0.000 C 
BRANCH  24  25
ATOM     25  C   UNL     1      22.378   6.164   9.730  1.00  0.00    -0.000 C 
BRANCH  25  26
ATOM     26  C   UNL     1      21.488   5.802   8.532  1.00  0.00    -0.000 C 
BRANCH  26  27
ATOM     27  C   UNL     1      22.022   6.363   7.205  1.00  0.00    -0.000 C 
BRANCH  27  28
ATOM     28  C   UNL     1      20.871   6.759   6.273  1.00  0.00    -0.000 C 
BRANCH  28  29
ATOM     29  C   UNL     1      19.868   7.671   6.993  1.00  0.00    -0.000 C 
BRANCH  29  30
ATOM     30  C   UNL     1      20.405   9.095   7.203  1.00  0.00    -0.000 C 
BRANCH  30  31
ATOM     31  C   UNL     1      19.994   9.688   8.558  1.00  0.00    -0.003 C 
ATOM     32  C   UNL     1      19.178   8.686   9.371  1.00  0.00     0.004 C 
ENDBRANCH  30  31
ENDBRANCH  29  30
ENDBRANCH  28  29
ENDBRANCH  27  28
ENDBRANCH  26  27
ENDBRANCH  25  26
ENDBRANCH  24  25
ENDBRANCH  23  24
ENDBRANCH  22  23
ENDBRANCH  21  22
ENDBRANCH  20  21
ENDBRANCH  19  20
ENDBRANCH  18  19
ENDBRANCH   1  18
TORSDOF 28
ENDMDL
MODEL 9
REMARK VINA RESULT:    -4.020      1.439      3.549
REMARK INTER + INTRA:         -15.765
REMARK INTER:                 -10.123
REMARK INTRA:                  -5.641
REMARK UNBOUND:                -5.163
REMARK SMILES CCCCCCCCCCCCCCCCCCCCCCCCCCCCCC(=O)[O-]
REMARK SMILES IDX 16 1 17 2 18 3 19 4 20 5 21 6 22 7 23 8 24 9 25 10 26 11
REMARK SMILES IDX 27 12 28 13 29 14 30 15 31 16 32 17 15 18 14 19 13 20 12 21
REMARK SMILES IDX 11 22 10 23 9 24 8 25 7 26 6 27 5 28 4 29 3 30 2 31 1 32
REMARK H PARENT
REMARK Flexibility Score: inf
ROOT
ATOM      1  C   UNL     1      24.192   4.513   6.771  1.00  0.00     0.000 C 
ENDROOT
BRANCH   1   2
ATOM      2  C   UNL     1      24.579   5.991   6.935  1.00  0.00     0.000 C 
BRANCH   2   3
ATOM      3  C   UNL     1      26.093   6.142   7.116  1.00  0.00     0.000 C 
BRANCH   3   4
ATOM      4  C   UNL     1      26.423   6.926   8.396  1.00  0.00     0.000 C 
BRANCH   4   5
ATOM      5  C   UNL     1      25.427   6.659   9.539  1.00  0.00     0.000 C 
BRANCH   5   6
ATOM      6  C   UNL     1      25.691   5.379  10.351  1.00  0.00     0.000 C 
BRANCH   6   7
ATOM      7  C   UNL     1      27.189   5.096  10.559  1.00  0.00     0.000 C 
BRANCH   7   8
ATOM      8  C   UNL     1      27.612   3.726  10.005  1.00  0.00     0.000 C 
BRANCH   8   9
ATOM      9  C   UNL     1      28.553   3.837   8.793  1.00  0.00     0.000 C 
BRANCH   9  10
ATOM     10  C   UNL     1      28.646   2.527   7.991  1.00  0.00     0.000 C 
BRANCH  10  11
ATOM     11  C   UNL     1      28.494   1.241   8.828  1.00  0.00     0.000 C 
BRANCH  11  12
ATOM     12  C   UNL     1      27.749   0.088   8.126  1.00  0.00     0.000 C 
BRANCH  12  13
ATOM     13  C   UNL     1      27.677   0.199   6.590  1.00  0.00     0.006 C 
BRANCH  13  14
ATOM     14  C   UNL     1      26.420  -0.428   5.968  1.00  0.00     0.053 C 
BRANCH  14  15
ATOM     15  C   UNL     1      26.447  -0.373   4.471  1.00  0.00     0.041 C 
ATOM     16  O   UNL     1      26.075  -1.367   3.793  1.00  0.00    -0.550 OA
ATOM     17  O   UNL     1      26.849   0.789   3.825  1.00  0.00    -0.550 OA
ENDBRANCH  14  15
ENDBRANCH  13  14
ENDBRANCH  12  13
ENDBRANCH  11  12
ENDBRANCH  10  11
ENDBRANCH   9  10
ENDBRANCH   8   9
ENDBRANCH   7   8
ENDBRANCH   6   7
ENDBRANCH   5   6
ENDBRANCH   4   5
ENDBRANCH   3   4
ENDBRANCH   2   3
ENDBRANCH   1   2
BRANCH   1  18
ATOM     18  C   UNL     1      25.343   3.558   7.126  1.00  0.00     0.000 C 
BRANCH  18  19
ATOM     19  C   UNL     1      24.872   2.354   7.962  1.00  0.00     0.000 C 
BRANCH  19  20
ATOM     20  C   UNL     1      23.730   2.712   8.925  1.00  0.00     0.000 C 
BRANCH  20  21
ATOM     21  C   UNL     1      22.429   1.955   8.603  1.00  0.00     0.000 C 
BRANCH  21  22
ATOM     22  C   UNL     1      21.212   2.512   9.361  1.00  0.00     0.000 C 
BRANCH  22  23
ATOM     23  C   UNL     1      20.620   3.810   8.777  1.00  0.00     0.000 C 
BRANCH  23  24
ATOM     24  C   UNL     1      20.809   5.043   9.686  1.00  0.00    -0.000 C 
BRANCH  24  25
ATOM     25  C   UNL     1      21.919   5.978   9.174  1.00  0.00    -0.000 C 
BRANCH  25  26
ATOM     26  C   UNL     1      21.751   7.425   9.663  1.00  0.00    -0.000 C 
BRANCH  26  27
ATOM     27  C   UNL     1      21.354   8.390   8.536  1.00  0.00    -0.000 C 
BRANCH  27  28
ATOM     28  C   UNL     1      19.831   8.555   8.464  1.00  0.00    -0.000 C 
BRANCH  28  29
ATOM     29  C   UNL     1      19.302   8.192   7.069  1.00  0.00    -0.000 C 
BRANCH  29  30
ATOM     30  C   UNL     1      19.032   6.688   6.910  1.00  0.00    -0.000 C 
BRANCH  30  31
ATOM     31  C   UNL     1      19.505   6.143   5.555  1.00  0.00    -0.003 C 
ATOM     32  C   UNL     1      21.029   6.100   5.483  1.00  0.00     0.004 C 
ENDBRANCH  30  31
ENDBRANCH  29  30
ENDBRANCH  28  29
ENDBRANCH  27  28
ENDBRANCH  26  27
ENDBRANCH  25  26
ENDBRANCH  24  25
ENDBRANCH  23  24
ENDBRANCH  22  23
ENDBRANCH  21  22
ENDBRANCH  20  21
ENDBRANCH  19  20
ENDBRANCH  18  19
ENDBRANCH   1  18
TORSDOF 28
ENDMDL
