MODEL 1
REMARK VINA RESULT:    -4.550      0.000      0.000
REMARK INTER + INTRA:          -9.637
REMARK INTER:                  -8.275
REMARK INTRA:                  -1.362
REMARK UNBOUND:                -1.362
REMARK SMILES CCCCCCCCCCCCCCCC(=O)[O-]
REMARK SMILES IDX 9 1 10 2 11 3 12 4 13 5 14 6 15 7 16 8 17 9 18 10 8 11 7 12
REMARK SMILES IDX 6 13 5 14 4 15 3 16 2 17 1 18
REMARK H PARENT
REMARK Flexibility Score: inf
ROOT
ATOM      1  C   UNL     1      18.595  -7.351  44.421  1.00  0.00     0.000 C 
ENDROOT
BRANCH   1   2
ATOM      2  C   UNL     1      18.475  -6.084  43.559  1.00  0.00     0.000 C 
BRANCH   2   3
ATOM      3  C   UNL     1      19.800  -5.700  42.885  1.00  0.00     0.000 C 
BRANCH   3   4
ATOM      4  C   UNL     1      20.079  -4.199  43.036  1.00  0.00     0.000 C 
BRANCH   4   5
ATOM      5  C   UNL     1      19.733  -3.715  44.451  1.00  0.00     0.000 C 
BRANCH   5   6
ATOM      6  C   UNL     1      20.980  -3.375  45.288  1.00  0.00     0.006 C 
BRANCH   6   7
ATOM      7  C   UNL     1      22.174  -2.866  44.465  1.00  0.00     0.053 C 
BRANCH   7   8
ATOM      8  C   UNL     1      22.563  -1.470  44.845  1.00  0.00     0.041 C 
ATOM      9  O   UNL     1      23.090  -1.243  45.966  1.00  0.00    -0.550 OA
ATOM     10  O   UNL     1      22.375  -0.426  43.947  1.00  0.00    -0.550 OA
ENDBRANCH   7   8
ENDBRANCH   6   7
ENDBRANCH   5   6
ENDBRANCH   4   5
ENDBRANCH   3   4
ENDBRANCH   2   3
ENDBRANCH   1   2
BRANCH   1  11
ATOM     11  C   UNL     1      18.740  -7.033  45.920  1.00  0.00     0.000 C 
BRANCH  11  12
ATOM     12  C   UNL     1      20.205  -6.846  46.345  1.00  0.00    -0.000 C 
BRANCH  12  13
ATOM     13  C   UNL     1      20.342  -6.326  47.784  1.00  0.00    -0.000 C 
BRANCH  13  14
ATOM     14  C   UNL     1      20.347  -7.486  48.787  1.00  0.00    -0.000 C 
BRANCH  14  15
ATOM     15  C   UNL     1      20.386  -6.967  50.230  1.00  0.00    -0.000 C 
BRANCH  15  16
ATOM     16  C   UNL     1      21.373  -7.780  51.080  1.00  0.00    -0.000 C 
BRANCH  16  17
ATOM     17  C   UNL     1      22.757  -7.121  51.170  1.00  0.00    -0.003 C 
ATOM     18  C   UNL     1      22.697  -5.599  51.042  1.00  0.00     0.004 C 
ENDBRANCH  16  17
ENDBRANCH  15  16
ENDBRANCH  14  15
ENDBRANCH  13  14
ENDBRANCH  12  13
ENDBRANCH  11  12
ENDBRANCH   1  11
TORSDOF 14
ENDMDL
MODEL 2
REMARK VINA RESULT:    -4.533      2.725      6.062
REMARK INTER + INTRA:          -9.605
REMARK INTER:                  -7.528
REMARK INTRA:                  -2.077
REMARK UNBOUND:                -1.362
REMARK SMILES CCCCCCCCCCCCCCCC(=O)[O-]
REMARK SMILES IDX 9 1 10 2 11 3 12 4 13 5 14 6 15 7 16 8 17 9 18 10 8 11 7 12
REMARK SMILES IDX 6 13 5 14 4 15 3 16 2 17 1 18
REMARK H PARENT
REMARK Flexibility Score: inf
ROOT
ATOM      1  C   UNL     1      19.832  -7.792  44.369  1.00  0.00     0.000 C 
ENDROOT
BRANCH   1   2
ATOM      2  C   UNL     1      20.390  -7.600  45.789  1.00  0.00     0.000 C 
BRANCH   2   3
ATOM      3  C   UNL     1      19.546  -6.633  46.630  1.00  0.00     0.000 C 
BRANCH   3   4
ATOM      4  C   UNL     1      20.246  -6.300  47.954  1.00  0.00     0.000 C 
BRANCH   4   5
ATOM      5  C   UNL     1      20.337  -7.540  48.854  1.00  0.00     0.000 C 
BRANCH   5   6
ATOM      6  C   UNL     1      20.333  -7.191  50.354  1.00  0.00     0.006 C 
BRANCH   6   7
ATOM      7  C   UNL     1      21.595  -7.635  51.110  1.00  0.00     0.053 C 
BRANCH   7   8
ATOM      8  C   UNL     1      22.778  -6.776  50.784  1.00  0.00     0.041 C 
ATOM      9  O   UNL     1      22.696  -5.523  50.879  1.00  0.00    -0.550 OA
ATOM     10  O   UNL     1      23.980  -7.362  50.405  1.00  0.00    -0.550 OA
ENDBRANCH   7   8
ENDBRANCH   6   7
ENDBRANCH   5   6
ENDBRANCH   4   5
ENDBRANCH   3   4
ENDBRANCH   2   3
ENDBRANCH   1   2
BRANCH   1  11
ATOM     11  C   UNL     1      20.849  -7.414  43.278  1.00  0.00     0.000 C 
BRANCH  11  12
ATOM     12  C   UNL     1      20.626  -5.996  42.730  1.00  0.00    -0.000 C 
BRANCH  12  13
ATOM     13  C   UNL     1      19.204  -5.478  42.994  1.00  0.00    -0.000 C 
BRANCH  13  14
ATOM     14  C   UNL     1      19.234  -4.207  43.852  1.00  0.00    -0.000 C 
BRANCH  14  15
ATOM     15  C   UNL     1      20.656  -3.639  43.946  1.00  0.00    -0.000 C 
BRANCH  15  16
ATOM     16  C   UNL     1      21.076  -3.447  45.410  1.00  0.00    -0.000 C 
BRANCH  16  17
ATOM     17  C   UNL     1      22.584  -3.649  45.622  1.00  0.00    -0.003 C 
ATOM     18  C   UNL     1      23.038  -5.077  45.323  1.00  0.00     0.004 C 
ENDBRANCH  16  17
ENDBRANCH  15  16
ENDBRANCH  14  15
ENDBRANCH  13  14
ENDBRANCH  12  13
ENDBRANCH  11  12
ENDBRANCH   1  11
TORSDOF 14
ENDMDL
MODEL 3
REMARK VINA RESULT:    -4.517      2.657      6.293
REMARK INTER + INTRA:          -9.577
REMARK INTER:                  -7.732
REMARK INTRA:                  -1.845
REMARK UNBOUND:                -1.362
REMARK SMILES CCCCCCCCCCCCCCCC(=O)[O-]
REMARK SMILES IDX 9 1 10 2 11 3 12 4 13 5 14 6 15 7 16 8 17 9 18 10 8 11 7 12
REMARK SMILES IDX 6 13 5 14 4 15 3 16 2 17 1 18
REMARK H PARENT
REMARK Flexibility Score: inf
ROOT
ATOM      1  C   UNL     1      20.567  -5.371  46.837  1.00  0.00     0.000 C 
ENDROOT
BRANCH   1   2
ATOM      2  C   UNL     1      19.732  -6.545  47.374  1.00  0.00     0.000 C 
BRANCH   2   3
ATOM      3  C   UNL     1      20.529  -7.452  48.322  1.00  0.00     0.000 C 
BRANCH   3   4
ATOM      4  C   UNL     1      20.174  -7.165  49.786  1.00  0.00     0.000 C 
BRANCH   4   5
ATOM      5  C   UNL     1      21.437  -7.100  50.656  1.00  0.00     0.000 C 
BRANCH   5   6
ATOM      6  C   UNL     1      22.409  -5.990  50.214  1.00  0.00     0.006 C 
BRANCH   6   7
ATOM      7  C   UNL     1      22.882  -5.072  51.353  1.00  0.00     0.053 C 
BRANCH   7   8
ATOM      8  C   UNL     1      23.613  -3.870  50.839  1.00  0.00     0.041 C 
ATOM      9  O   UNL     1      24.825  -3.959  50.510  1.00  0.00    -0.550 OA
ATOM     10  O   UNL     1      22.946  -2.660  50.693  1.00  0.00    -0.550 OA
ENDBRANCH   7   8
ENDBRANCH   6   7
ENDBRANCH   5   6
ENDBRANCH   4   5
ENDBRANCH   3   4
ENDBRANCH   2   3
ENDBRANCH   1   2
BRANCH   1  11
ATOM     11  C   UNL     1      22.008  -5.783  46.488  1.00  0.00     0.000 C 
BRANCH  11  12
ATOM     12  C   UNL     1      22.220  -5.967  44.977  1.00  0.00    -0.000 C 
BRANCH  12  13
ATOM     13  C   UNL     1      21.957  -7.409  44.516  1.00  0.00    -0.000 C 
BRANCH  13  14
ATOM     14  C   UNL     1      20.921  -7.443  43.387  1.00  0.00    -0.000 C 
BRANCH  14  15
ATOM     15  C   UNL     1      19.516  -7.722  43.936  1.00  0.00    -0.000 C 
BRANCH  15  16
ATOM     16  C   UNL     1      18.565  -6.555  43.633  1.00  0.00    -0.000 C 
BRANCH  16  17
ATOM     17  C   UNL     1      19.252  -5.420  42.857  1.00  0.00    -0.003 C 
ATOM     18  C   UNL     1      18.748  -4.036  43.266  1.00  0.00     0.004 C 
ENDBRANCH  16  17
ENDBRANCH  15  16
ENDBRANCH  14  15
ENDBRANCH  13  14
ENDBRANCH  12  13
ENDBRANCH  11  12
ENDBRANCH   1  11
TORSDOF 14
ENDMDL
MODEL 4
REMARK VINA RESULT:    -4.487      2.662      4.573
REMARK INTER + INTRA:          -9.520
REMARK INTER:                  -7.622
REMARK INTRA:                  -1.898
REMARK UNBOUND:                -1.362
REMARK SMILES CCCCCCCCCCCCCCCC(=O)[O-]
REMARK SMILES IDX 9 1 10 2 11 3 12 4 13 5 14 6 15 7 16 8 17 9 18 10 8 11 7 12
REMARK SMILES IDX 6 13 5 14 4 15 3 16 2 17 1 18
REMARK H PARENT
REMARK Flexibility Score: inf
ROOT
ATOM      1  C   UNL     1      20.577  -7.390  48.665  1.00  0.00     0.000 C 
ENDROOT
BRANCH   1   2
ATOM      2  C   UNL     1      19.861  -6.377  47.757  1.00  0.00     0.000 C 
BRANCH   2   3
ATOM      3  C   UNL     1      19.711  -6.880  46.314  1.00  0.00     0.000 C 
BRANCH   3   4
ATOM      4  C   UNL     1      21.005  -7.539  45.823  1.00  0.00     0.000 C 
BRANCH   4   5
ATOM      5  C   UNL     1      21.557  -6.816  44.587  1.00  0.00     0.000 C 
BRANCH   5   6
ATOM      6  C   UNL     1      20.583  -6.845  43.394  1.00  0.00     0.006 C 
BRANCH   6   7
ATOM      7  C   UNL     1      20.168  -5.457  42.882  1.00  0.00     0.053 C 
BRANCH   7   8
ATOM      8  C   UNL     1      18.723  -5.168  43.151  1.00  0.00     0.041 C 
ATOM      9  O   UNL     1      17.906  -6.114  43.306  1.00  0.00    -0.550 OA
ATOM     10  O   UNL     1      18.285  -3.854  43.263  1.00  0.00    -0.550 OA
ENDBRANCH   7   8
ENDBRANCH   6   7
ENDBRANCH   5   6
ENDBRANCH   4   5
ENDBRANCH   3   4
ENDBRANCH   2   3
ENDBRANCH   1   2
BRANCH   1  11
ATOM     11  C   UNL     1      20.279  -7.161  50.157  1.00  0.00     0.000 C 
BRANCH  11  12
ATOM     12  C   UNL     1      21.386  -7.710  51.070  1.00  0.00    -0.000 C 
BRANCH  12  13
ATOM     13  C   UNL     1      22.756  -7.074  50.787  1.00  0.00    -0.000 C 
BRANCH  13  14
ATOM     14  C   UNL     1      22.759  -5.588  51.168  1.00  0.00    -0.000 C 
BRANCH  14  15
ATOM     15  C   UNL     1      23.616  -4.771  50.194  1.00  0.00    -0.000 C 
BRANCH  15  16
ATOM     16  C   UNL     1      22.878  -4.547  48.866  1.00  0.00    -0.000 C 
BRANCH  16  17
ATOM     17  C   UNL     1      23.761  -4.834  47.643  1.00  0.00    -0.003 C 
ATOM     18  C   UNL     1      24.068  -6.321  47.472  1.00  0.00     0.004 C 
ENDBRANCH  16  17
ENDBRANCH  15  16
ENDBRANCH  14  15
ENDBRANCH  13  14
ENDBRANCH  12  13
ENDBRANCH  11  12
ENDBRANCH   1  11
TORSDOF 14
ENDMDL
MODEL 5
REMARK VINA RESULT:    -4.468      2.077      5.857
REMARK INTER + INTRA:          -9.486
REMARK INTER:                  -7.465
REMARK INTRA:                  -2.021
REMARK UNBOUND:                -1.362
REMARK SMILES CCCCCCCCCCCCCCCC(=O)[O-]
REMARK SMILES IDX 9 1 10 2 11 3 12 4 13 5 14 6 15 7 16 8 17 9 18 10 8 11 7 12
REMARK SMILES IDX 6 13 5 14 4 15 3 16 2 17 1 18
REMARK H PARENT
REMARK Flexibility Score: inf
ROOT
ATOM      1  C   UNL     1      20.147  -7.265  49.785  1.00  0.00     0.000 C 
ENDROOT
BRANCH   1   2
ATOM      2  C   UNL     1      21.315  -6.959  50.736  1.00  0.00     0.000 C 
BRANCH   2   3
ATOM      3  C   UNL     1      22.685  -7.152  50.070  1.00  0.00     0.000 C 
BRANCH   3   4
ATOM      4  C   UNL     1      23.513  -5.862  50.130  1.00  0.00     0.000 C 
BRANCH   4   5
ATOM      5  C   UNL     1      23.005  -4.935  51.244  1.00  0.00     0.000 C 
BRANCH   5   6
ATOM      6  C   UNL     1      22.959  -3.456  50.815  1.00  0.00     0.006 C 
BRANCH   6   7
ATOM      7  C   UNL     1      23.261  -3.219  49.327  1.00  0.00     0.053 C 
BRANCH   7   8
ATOM      8  C   UNL     1      22.510  -2.044  48.781  1.00  0.00     0.041 C 
ATOM      9  O   UNL     1      21.923  -1.250  49.562  1.00  0.00    -0.550 OA
ATOM     10  O   UNL     1      22.485  -1.809  47.412  1.00  0.00    -0.550 OA
ENDBRANCH   7   8
ENDBRANCH   6   7
ENDBRANCH   5   6
ENDBRANCH   4   5
ENDBRANCH   3   4
ENDBRANCH   2   3
ENDBRANCH   1   2
BRANCH   1  11
ATOM     11  C   UNL     1      20.594  -7.383  48.318  1.00  0.00     0.000 C 
BRANCH  11  12
ATOM     12  C   UNL     1      19.854  -6.401  47.395  1.00  0.00    -0.000 C 
BRANCH  12  13
ATOM     13  C   UNL     1      20.664  -5.126  47.117  1.00  0.00    -0.000 C 
BRANCH  13  14
ATOM     14  C   UNL     1      22.055  -5.470  46.570  1.00  0.00    -0.000 C 
BRANCH  14  15
ATOM     15  C   UNL     1      22.162  -5.125  45.079  1.00  0.00    -0.000 C 
BRANCH  15  16
ATOM     16  C   UNL     1      22.283  -6.398  44.227  1.00  0.00    -0.000 C 
BRANCH  16  17
ATOM     17  C   UNL     1      21.079  -6.600  43.295  1.00  0.00    -0.003 C 
ATOM     18  C   UNL     1      20.196  -7.774  43.717  1.00  0.00     0.004 C 
ENDBRANCH  16  17
ENDBRANCH  15  16
ENDBRANCH  14  15
ENDBRANCH  13  14
ENDBRANCH  12  13
ENDBRANCH  11  12
ENDBRANCH   1  11
TORSDOF 14
ENDMDL
MODEL 6
REMARK VINA RESULT:    -4.432      2.424      3.782
REMARK INTER + INTRA:          -9.421
REMARK INTER:                  -7.317
REMARK INTRA:                  -2.104
REMARK UNBOUND:                -1.362
REMARK SMILES CCCCCCCCCCCCCCCC(=O)[O-]
REMARK SMILES IDX 9 1 10 2 11 3 12 4 13 5 14 6 15 7 16 8 17 9 18 10 8 11 7 12
REMARK SMILES IDX 6 13 5 14 4 15 3 16 2 17 1 18
REMARK H PARENT
REMARK Flexibility Score: inf
ROOT
ATOM      1  C   UNL     1      22.312  -4.850  45.056  1.00  0.00     0.000 C 
ENDROOT
BRANCH   1   2
ATOM      2  C   UNL     1      22.747  -6.321  45.169  1.00  0.00     0.000 C 
BRANCH   2   3
ATOM      3  C   UNL     1      21.979  -7.239  44.207  1.00  0.00     0.000 C 
BRANCH   3   4
ATOM      4  C   UNL     1      21.152  -8.276  44.979  1.00  0.00     0.000 C 
BRANCH   4   5
ATOM      5  C   UNL     1      19.651  -8.084  44.721  1.00  0.00     0.000 C 
BRANCH   5   6
ATOM      6  C   UNL     1      19.364  -7.236  43.468  1.00  0.00     0.006 C 
BRANCH   6   7
ATOM      7  C   UNL     1      18.310  -6.137  43.675  1.00  0.00     0.053 C 
BRANCH   7   8
ATOM      8  C   UNL     1      18.671  -4.870  42.962  1.00  0.00     0.041 C 
ATOM      9  O   UNL     1      18.073  -3.797  43.236  1.00  0.00    -0.550 OA
ATOM     10  O   UNL     1      19.691  -4.869  42.018  1.00  0.00    -0.550 OA
ENDBRANCH   7   8
ENDBRANCH   6   7
ENDBRANCH   5   6
ENDBRANCH   4   5
ENDBRANCH   3   4
ENDBRANCH   2   3
ENDBRANCH   1   2
BRANCH   1  11
ATOM     11  C   UNL     1      20.962  -4.579  45.742  1.00  0.00     0.000 C 
BRANCH  11  12
ATOM     12  C   UNL     1      21.004  -4.849  47.254  1.00  0.00    -0.000 C 
BRANCH  12  13
ATOM     13  C   UNL     1      20.066  -5.989  47.677  1.00  0.00    -0.000 C 
BRANCH  13  14
ATOM     14  C   UNL     1      20.839  -7.091  48.412  1.00  0.00    -0.000 C 
BRANCH  14  15
ATOM     15  C   UNL     1      20.219  -7.376  49.786  1.00  0.00    -0.000 C 
BRANCH  15  16
ATOM     16  C   UNL     1      21.226  -7.100  50.912  1.00  0.00    -0.000 C 
BRANCH  16  17
ATOM     17  C   UNL     1      22.526  -6.462  50.398  1.00  0.00    -0.003 C 
ATOM     18  C   UNL     1      22.875  -5.164  51.125  1.00  0.00     0.004 C 
ENDBRANCH  16  17
ENDBRANCH  15  16
ENDBRANCH  14  15
ENDBRANCH  13  14
ENDBRANCH  12  13
ENDBRANCH  11  12
ENDBRANCH   1  11
TORSDOF 14
ENDMDL
MODEL 7
REMARK VINA RESULT:    -4.378      2.300      6.369
REMARK INTER + INTRA:          -9.323
REMARK INTER:                  -7.389
REMARK INTRA:                  -1.934
REMARK UNBOUND:                -1.362
REMARK SMILES CCCCCCCCCCCCCCCC(=O)[O-]
REMARK SMILES IDX 9 1 10 2 11 3 12 4 13 5 14 6 15 7 16 8 17 9 18 10 8 11 7 12
REMARK SMILES IDX 6 13 5 14 4 15 3 16 2 17 1 18
REMARK H PARENT
REMARK Flexibility Score: inf
ROOT
ATOM      1  C   UNL     1      22.052  -5.133  46.422  1.00  0.00     0.000 C 
ENDROOT
BRANCH   1   2
ATOM      2  C   UNL     1      20.765  -5.568  47.141  1.00  0.00     0.000 C 
BRANCH   2   3
ATOM      3  C   UNL     1      20.915  -6.918  47.857  1.00  0.00     0.000 C 
BRANCH   3   4
ATOM      4  C   UNL     1      19.901  -7.050  49.000  1.00  0.00     0.000 C 
BRANCH   4   5
ATOM      5  C   UNL     1      20.613  -7.190  50.353  1.00  0.00     0.000 C 
BRANCH   5   6
ATOM      6  C   UNL     1      22.147  -7.203  50.222  1.00  0.00     0.006 C 
BRANCH   6   7
ATOM      7  C   UNL     1      22.876  -6.289  51.219  1.00  0.00     0.053 C 
BRANCH   7   8
ATOM      8  C   UNL     1      23.609  -5.179  50.532  1.00  0.00     0.041 C 
ATOM      9  O   UNL     1      23.005  -4.426  49.723  1.00  0.00    -0.550 OA
ATOM     10  O   UNL     1      24.952  -4.955  50.810  1.00  0.00    -0.550 OA
ENDBRANCH   7   8
ENDBRANCH   6   7
ENDBRANCH   5   6
ENDBRANCH   4   5
ENDBRANCH   3   4
ENDBRANCH   2   3
ENDBRANCH   1   2
BRANCH   1  11
ATOM     11  C   UNL     1      21.816  -3.976  45.435  1.00  0.00     0.000 C 
BRANCH  11  12
ATOM     12  C   UNL     1      20.355  -3.894  44.963  1.00  0.00    -0.000 C 
BRANCH  12  13
ATOM     13  C   UNL     1      20.232  -3.825  43.433  1.00  0.00    -0.000 C 
BRANCH  13  14
ATOM     14  C   UNL     1      19.644  -5.125  42.871  1.00  0.00    -0.000 C 
BRANCH  14  15
ATOM     15  C   UNL     1      20.664  -6.268  42.945  1.00  0.00    -0.000 C 
BRANCH  15  16
ATOM     16  C   UNL     1      20.169  -7.388  43.872  1.00  0.00    -0.000 C 
BRANCH  16  17
ATOM     17  C   UNL     1      18.637  -7.454  43.952  1.00  0.00    -0.003 C 
ATOM     18  C   UNL     1      18.110  -7.262  45.373  1.00  0.00     0.004 C 
ENDBRANCH  16  17
ENDBRANCH  15  16
ENDBRANCH  14  15
ENDBRANCH  13  14
ENDBRANCH  12  13
ENDBRANCH  11  12
ENDBRANCH   1  11
TORSDOF 14
ENDMDL
MODEL 8
REMARK VINA RESULT:    -4.371      2.449      6.083
REMARK INTER + INTRA:          -9.311
REMARK INTER:                  -7.135
REMARK INTRA:                  -2.176
REMARK UNBOUND:                -1.362
REMARK SMILES CCCCCCCCCCCCCCCC(=O)[O-]
REMARK SMILES IDX 9 1 10 2 11 3 12 4 13 5 14 6 15 7 16 8 17 9 18 10 8 11 7 12
REMARK SMILES IDX 6 13 5 14 4 15 3 16 2 17 1 18
REMARK H PARENT
REMARK Flexibility Score: inf
ROOT
ATOM      1  C   UNL     1      21.664  -4.505  44.837  1.00  0.00     0.000 C 
ENDROOT
BRANCH   1   2
ATOM      2  C   UNL     1      21.920  -5.141  46.213  1.00  0.00     0.000 C 
BRANCH   2   3
ATOM      3  C   UNL     1      20.621  -5.534  46.932  1.00  0.00     0.000 C 
BRANCH   3   4
ATOM      4  C   UNL     1      20.750  -6.917  47.583  1.00  0.00     0.000 C 
BRANCH   4   5
ATOM      5  C   UNL     1      19.911  -7.001  48.866  1.00  0.00     0.000 C 
BRANCH   5   6
ATOM      6  C   UNL     1      20.773  -7.121  50.136  1.00  0.00     0.006 C 
BRANCH   6   7
ATOM      7  C   UNL     1      22.285  -7.007  49.888  1.00  0.00     0.053 C 
BRANCH   7   8
ATOM      8  C   UNL     1      22.838  -5.703  50.375  1.00  0.00     0.041 C 
ATOM      9  O   UNL     1      22.845  -4.696  49.618  1.00  0.00    -0.550 OA
ATOM     10  O   UNL     1      23.313  -5.591  51.676  1.00  0.00    -0.550 OA
ENDBRANCH   7   8
ENDBRANCH   6   7
ENDBRANCH   5   6
ENDBRANCH   4   5
ENDBRANCH   3   4
ENDBRANCH   2   3
ENDBRANCH   1   2
BRANCH   1  11
ATOM     11  C   UNL     1      20.315  -3.769  44.767  1.00  0.00     0.000 C 
BRANCH  11  12
ATOM     12  C   UNL     1      19.710  -3.780  43.354  1.00  0.00    -0.000 C 
BRANCH  12  13
ATOM     13  C   UNL     1      18.440  -4.640  43.262  1.00  0.00    -0.000 C 
BRANCH  13  14
ATOM     14  C   UNL     1      18.794  -6.122  43.082  1.00  0.00    -0.000 C 
BRANCH  14  15
ATOM     15  C   UNL     1      18.314  -6.952  44.279  1.00  0.00    -0.000 C 
BRANCH  15  16
ATOM     16  C   UNL     1      19.287  -8.103  44.576  1.00  0.00    -0.000 C 
BRANCH  16  17
ATOM     17  C   UNL     1      20.329  -8.296  43.464  1.00  0.00    -0.003 C 
ATOM     18  C   UNL     1      21.764  -8.146  43.967  1.00  0.00     0.004 C 
ENDBRANCH  16  17
ENDBRANCH  15  16
ENDBRANCH  14  15
ENDBRANCH  13  14
ENDBRANCH  12  13
ENDBRANCH  11  12
ENDBRANCH   1  11
TORSDOF 14
ENDMDL
MODEL 9
REMARK VINA RESULT:    -4.353      2.771      4.374
REMARK INTER + INTRA:          -9.278
REMARK INTER:                  -7.463
REMARK INTRA:                  -1.815
REMARK UNBOUND:                -1.362
REMARK SMILES CCCCCCCCCCCCCCCC(=O)[O-]
REMARK SMILES IDX 9 1 10 2 11 3 12 4 13 5 14 6 15 7 16 8 17 9 18 10 8 11 7 12
REMARK SMILES IDX 6 13 5 14 4 15 3 16 2 17 1 18
REMARK H PARENT
REMARK Flexibility Score: inf
ROOT
ATOM      1  C   UNL     1      20.745  -7.429  48.089  1.00  0.00     0.000 C 
ENDROOT
BRANCH   1   2
ATOM      2  C   UNL     1      20.196  -6.613  46.907  1.00  0.00     0.000 C 
BRANCH   2   3
ATOM      3  C   UNL     1      20.514  -5.116  47.025  1.00  0.00     0.000 C 
BRANCH   3   4
ATOM      4  C   UNL     1      21.340  -4.633  45.826  1.00  0.00     0.000 C 
BRANCH   4   5
ATOM      5  C   UNL     1      20.650  -3.457  45.121  1.00  0.00     0.000 C 
BRANCH   5   6
ATOM      6  C   UNL     1      20.283  -3.769  43.659  1.00  0.00     0.006 C 
BRANCH   6   7
ATOM      7  C   UNL     1      18.891  -4.395  43.476  1.00  0.00     0.053 C 
BRANCH   7   8
ATOM      8  C   UNL     1      18.955  -5.888  43.377  1.00  0.00     0.041 C 
ATOM      9  O   UNL     1      17.926  -6.582  43.591  1.00  0.00    -0.550 OA
ATOM     10  O   UNL     1      20.143  -6.512  43.016  1.00  0.00    -0.550 OA
ENDBRANCH   7   8
ENDBRANCH   6   7
ENDBRANCH   5   6
ENDBRANCH   4   5
ENDBRANCH   3   4
ENDBRANCH   2   3
ENDBRANCH   1   2
BRANCH   1  11
ATOM     11  C   UNL     1      20.033  -7.101  49.414  1.00  0.00     0.000 C 
BRANCH  11  12
ATOM     12  C   UNL     1      20.918  -7.374  50.641  1.00  0.00    -0.000 C 
BRANCH  12  13
ATOM     13  C   UNL     1      22.416  -7.366  50.303  1.00  0.00    -0.000 C 
BRANCH  13  14
ATOM     14  C   UNL     1      23.183  -6.417  51.232  1.00  0.00    -0.000 C 
BRANCH  14  15
ATOM     15  C   UNL     1      22.941  -4.952  50.845  1.00  0.00    -0.000 C 
BRANCH  15  16
ATOM     16  C   UNL     1      23.320  -4.701  49.378  1.00  0.00    -0.000 C 
BRANCH  16  17
ATOM     17  C   UNL     1      23.087  -3.245  48.949  1.00  0.00    -0.003 C 
ATOM     18  C   UNL     1      23.964  -2.829  47.768  1.00  0.00     0.004 C 
ENDBRANCH  16  17
ENDBRANCH  15  16
ENDBRANCH  14  15
ENDBRANCH  13  14
ENDBRANCH  12  13
ENDBRANCH  11  12
ENDBRANCH   1  11
TORSDOF 14
ENDMDL
