MODEL 1
REMARK VINA RESULT:    -1.295      0.000      0.000
REMARK INTER + INTRA:          -3.781
REMARK INTER:                  -2.053
REMARK INTRA:                  -1.728
REMARK UNBOUND:                -1.728
REMARK SMILES CCCCCCCCCCCC(=O)[O-]
REMARK SMILES IDX 7 1 8 2 9 3 10 4 11 5 12 6 13 7 14 8 6 9 5 10 4 11 3 12 2 13
REMARK SMILES IDX 1 14
REMARK H PARENT
REMARK Flexibility Score: inf
ROOT
ATOM      1  C   UNL     1      21.771 -29.996  -1.567  1.00  0.00     0.000 C 
ENDROOT
BRANCH   1   2
ATOM      2  C   UNL     1      23.056 -29.170  -1.712  1.00  0.00     0.000 C 
BRANCH   2   3
ATOM      3  C   UNL     1      23.718 -28.942  -0.348  1.00  0.00     0.000 C 
BRANCH   3   4
ATOM      4  C   UNL     1      23.625 -27.467   0.071  1.00  0.00     0.006 C 
BRANCH   4   5
ATOM      5  C   UNL     1      23.108 -26.571  -1.061  1.00  0.00     0.053 C 
BRANCH   5   6
ATOM      6  C   UNL     1      21.986 -25.690  -0.603  1.00  0.00     0.041 C 
ATOM      7  O   UNL     1      20.918 -25.627  -1.267  1.00  0.00    -0.550 OA
ATOM      8  O   UNL     1      22.108 -24.964   0.575  1.00  0.00    -0.550 OA
ENDBRANCH   5   6
ENDBRANCH   4   5
ENDBRANCH   3   4
ENDBRANCH   2   3
ENDBRANCH   1   2
BRANCH   1   9
ATOM      9  C   UNL     1      20.499 -29.139  -1.674  1.00  0.00     0.000 C 
BRANCH   9  10
ATOM     10  C   UNL     1      19.836 -28.890  -0.311  1.00  0.00    -0.000 C 
BRANCH  10  11
ATOM     11  C   UNL     1      20.214 -29.990   0.692  1.00  0.00    -0.000 C 
BRANCH  11  12
ATOM     12  C   UNL     1      20.565 -29.431   2.080  1.00  0.00    -0.000 C 
BRANCH  12  13
ATOM     13  C   UNL     1      20.581 -27.897   2.114  1.00  0.00    -0.003 C 
ATOM     14  C   UNL     1      21.564 -27.381   3.161  1.00  0.00     0.004 C 
ENDBRANCH  12  13
ENDBRANCH  11  12
ENDBRANCH  10  11
ENDBRANCH   9  10
ENDBRANCH   1   9
TORSDOF 10
ENDMDL
MODEL 2
REMARK VINA RESULT:    -1.251      7.747      9.441
REMARK INTER + INTRA:          -3.711
REMARK INTER:                  -2.338
REMARK INTRA:                  -1.373
REMARK UNBOUND:                -1.728
REMARK SMILES CCCCCCCCCCCC(=O)[O-]
REMARK SMILES IDX 7 1 8 2 9 3 10 4 11 5 12 6 13 7 14 8 6 9 5 10 4 11 3 12 2 13
REMARK SMILES IDX 1 14
REMARK H PARENT
REMARK Flexibility Score: inf
ROOT
ATOM      1  C   UNL     1      16.877 -35.312   1.403  1.00  0.00     0.000 C 
ENDROOT
BRANCH   1   2
ATOM      2  C   UNL     1      16.006 -35.536   0.158  1.00  0.00     0.000 C 
BRANCH   2   3
ATOM      3  C   UNL     1      15.157 -34.297  -0.147  1.00  0.00     0.000 C 
BRANCH   3   4
ATOM      4  C   UNL     1      13.888 -34.272   0.717  1.00  0.00     0.006 C 
BRANCH   4   5
ATOM      5  C   UNL     1      12.935 -33.137   0.319  1.00  0.00     0.053 C 
BRANCH   5   6
ATOM      6  C   UNL     1      12.474 -33.271  -1.101  1.00  0.00     0.041 C 
ATOM      7  O   UNL     1      12.552 -32.291  -1.887  1.00  0.00    -0.550 OA
ATOM      8  O   UNL     1      11.990 -34.488  -1.563  1.00  0.00    -0.550 OA
ENDBRANCH   5   6
ENDBRANCH   4   5
ENDBRANCH   3   4
ENDBRANCH   2   3
ENDBRANCH   1   2
BRANCH   1   9
ATOM      9  C   UNL     1      17.911 -34.191   1.210  1.00  0.00     0.000 C 
BRANCH   9  10
ATOM     10  C   UNL     1      17.680 -33.002   2.153  1.00  0.00    -0.000 C 
BRANCH  10  11
ATOM     11  C   UNL     1      16.922 -33.442   3.416  1.00  0.00    -0.000 C 
BRANCH  11  12
ATOM     12  C   UNL     1      15.608 -32.672   3.617  1.00  0.00    -0.000 C 
BRANCH  12  13
ATOM     13  C   UNL     1      15.521 -31.410   2.747  1.00  0.00    -0.003 C 
ATOM     14  C   UNL     1      14.157 -30.739   2.886  1.00  0.00     0.004 C 
ENDBRANCH  12  13
ENDBRANCH  11  12
ENDBRANCH  10  11
ENDBRANCH   9  10
ENDBRANCH   1   9
TORSDOF 10
ENDMDL
MODEL 3
REMARK VINA RESULT:    -1.243      2.708      4.115
REMARK INTER + INTRA:          -3.698
REMARK INTER:                  -2.134
REMARK INTRA:                  -1.564
REMARK UNBOUND:                -1.728
REMARK SMILES CCCCCCCCCCCC(=O)[O-]
REMARK SMILES IDX 7 1 8 2 9 3 10 4 11 5 12 6 13 7 14 8 6 9 5 10 4 11 3 12 2 13
REMARK SMILES IDX 1 14
REMARK H PARENT
REMARK Flexibility Score: inf
ROOT
ATOM      1  C   UNL     1      21.602 -26.851  -0.378  1.00  0.00     0.000 C 
ENDROOT
BRANCH   1   2
ATOM      2  C   UNL     1      20.917 -25.558   0.087  1.00  0.00     0.000 C 
BRANCH   2   3
ATOM      3  C   UNL     1      20.383 -25.705   1.516  1.00  0.00     0.000 C 
BRANCH   3   4
ATOM      4  C   UNL     1      21.129 -26.813   2.274  1.00  0.00     0.006 C 
BRANCH   4   5
ATOM      5  C   UNL     1      20.214 -27.574   3.242  1.00  0.00     0.053 C 
BRANCH   5   6
ATOM      6  C   UNL     1      20.998 -28.437   4.184  1.00  0.00     0.041 C 
ATOM      7  O   UNL     1      20.826 -29.684   4.193  1.00  0.00    -0.550 OA
ATOM      8  O   UNL     1      21.942 -27.866   5.028  1.00  0.00    -0.550 OA
ENDBRANCH   5   6
ENDBRANCH   4   5
ENDBRANCH   3   4
ENDBRANCH   2   3
ENDBRANCH   1   2
BRANCH   1   9
ATOM      9  C   UNL     1      20.995 -27.409  -1.676  1.00  0.00     0.000 C 
BRANCH   9  10
ATOM     10  C   UNL     1      20.540 -28.869  -1.537  1.00  0.00    -0.000 C 
BRANCH  10  11
ATOM     11  C   UNL     1      19.754 -29.078  -0.233  1.00  0.00    -0.000 C 
BRANCH  11  12
ATOM     12  C   UNL     1      20.319 -30.222   0.623  1.00  0.00    -0.000 C 
BRANCH  12  13
ATOM     13  C   UNL     1      21.756 -30.599   0.234  1.00  0.00    -0.003 C 
ATOM     14  C   UNL     1      22.762 -30.023   1.226  1.00  0.00     0.004 C 
ENDBRANCH  12  13
ENDBRANCH  11  12
ENDBRANCH  10  11
ENDBRANCH   9  10
ENDBRANCH   1   9
TORSDOF 10
ENDMDL
MODEL 4
REMARK VINA RESULT:    -1.236      6.860      8.831
REMARK INTER + INTRA:          -3.687
REMARK INTER:                  -2.497
REMARK INTRA:                  -1.190
REMARK UNBOUND:                -1.728
REMARK SMILES CCCCCCCCCCCC(=O)[O-]
REMARK SMILES IDX 7 1 8 2 9 3 10 4 11 5 12 6 13 7 14 8 6 9 5 10 4 11 3 12 2 13
REMARK SMILES IDX 1 14
REMARK H PARENT
REMARK Flexibility Score: inf
ROOT
ATOM      1  C   UNL     1      16.413 -34.040   1.311  1.00  0.00     0.000 C 
ENDROOT
BRANCH   1   2
ATOM      2  C   UNL     1      15.225 -33.821   2.258  1.00  0.00     0.000 C 
BRANCH   2   3
ATOM      3  C   UNL     1      14.826 -32.341   2.304  1.00  0.00     0.000 C 
BRANCH   3   4
ATOM      4  C   UNL     1      15.594 -31.596   3.405  1.00  0.00     0.006 C 
BRANCH   4   5
ATOM      5  C   UNL     1      16.545 -30.535   2.837  1.00  0.00     0.053 C 
BRANCH   5   6
ATOM      6  C   UNL     1      17.965 -31.012   2.822  1.00  0.00     0.041 C 
ATOM      7  O   UNL     1      18.817 -30.444   2.089  1.00  0.00    -0.550 OA
ATOM      8  O   UNL     1      18.354 -32.063   3.642  1.00  0.00    -0.550 OA
ENDBRANCH   5   6
ENDBRANCH   4   5
ENDBRANCH   3   4
ENDBRANCH   2   3
ENDBRANCH   1   2
BRANCH   1   9
ATOM      9  C   UNL     1      16.025 -34.819   0.043  1.00  0.00     0.000 C 
BRANCH   9  10
ATOM     10  C   UNL     1      14.738 -35.637   0.221  1.00  0.00    -0.000 C 
BRANCH  10  11
ATOM     11  C   UNL     1      13.690 -35.248  -0.834  1.00  0.00    -0.000 C 
BRANCH  11  12
ATOM     12  C   UNL     1      13.956 -33.865  -1.451  1.00  0.00    -0.000 C 
BRANCH  12  13
ATOM     13  C   UNL     1      12.714 -32.963  -1.437  1.00  0.00    -0.003 C 
ATOM     14  C   UNL     1      12.082 -32.919  -0.049  1.00  0.00     0.004 C 
ENDBRANCH  12  13
ENDBRANCH  11  12
ENDBRANCH  10  11
ENDBRANCH   9  10
ENDBRANCH   1   9
TORSDOF 10
ENDMDL
MODEL 5
REMARK VINA RESULT:    -1.224      8.670     10.606
REMARK INTER + INTRA:          -3.668
REMARK INTER:                  -2.376
REMARK INTRA:                  -1.291
REMARK UNBOUND:                -1.728
REMARK SMILES CCCCCCCCCCCC(=O)[O-]
REMARK SMILES IDX 7 1 8 2 9 3 10 4 11 5 12 6 13 7 14 8 6 9 5 10 4 11 3 12 2 13
REMARK SMILES IDX 1 14
REMARK H PARENT
REMARK Flexibility Score: inf
ROOT
ATOM      1  C   UNL     1      13.998 -33.652   1.249  1.00  0.00     0.000 C 
ENDROOT
BRANCH   1   2
ATOM      2  C   UNL     1      12.928 -33.154   0.266  1.00  0.00     0.000 C 
BRANCH   2   3
ATOM      3  C   UNL     1      13.308 -33.497  -1.179  1.00  0.00     0.000 C 
BRANCH   3   4
ATOM      4  C   UNL     1      14.509 -34.455  -1.221  1.00  0.00     0.006 C 
BRANCH   4   5
ATOM      5  C   UNL     1      14.255 -35.667  -2.125  1.00  0.00     0.053 C 
BRANCH   5   6
ATOM      6  C   UNL     1      14.058 -36.922  -1.329  1.00  0.00     0.041 C 
ATOM      7  O   UNL     1      13.511 -36.874  -0.196  1.00  0.00    -0.550 OA
ATOM      8  O   UNL     1      14.448 -38.147  -1.855  1.00  0.00    -0.550 OA
ENDBRANCH   5   6
ENDBRANCH   4   5
ENDBRANCH   3   4
ENDBRANCH   2   3
ENDBRANCH   1   2
BRANCH   1   9
ATOM      9  C   UNL     1      14.600 -32.518   2.095  1.00  0.00     0.000 C 
BRANCH   9  10
ATOM     10  C   UNL     1      16.091 -32.729   2.393  1.00  0.00    -0.000 C 
BRANCH  10  11
ATOM     11  C   UNL     1      16.542 -34.137   1.973  1.00  0.00    -0.000 C 
BRANCH  11  12
ATOM     12  C   UNL     1      17.802 -34.118   1.093  1.00  0.00    -0.000 C 
BRANCH  12  13
ATOM     13  C   UNL     1      17.810 -35.240   0.046  1.00  0.00    -0.003 C 
ATOM     14  C   UNL     1      17.135 -36.498   0.584  1.00  0.00     0.004 C 
ENDBRANCH  12  13
ENDBRANCH  11  12
ENDBRANCH  10  11
ENDBRANCH   9  10
ENDBRANCH   1   9
TORSDOF 10
ENDMDL
MODEL 6
REMARK VINA RESULT:    -1.198      2.793      4.815
REMARK INTER + INTRA:          -3.626
REMARK INTER:                  -2.181
REMARK INTRA:                  -1.445
REMARK UNBOUND:                -1.728
REMARK SMILES CCCCCCCCCCCC(=O)[O-]
REMARK SMILES IDX 7 1 8 2 9 3 10 4 11 5 12 6 13 7 14 8 6 9 5 10 4 11 3 12 2 13
REMARK SMILES IDX 1 14
REMARK H PARENT
REMARK Flexibility Score: inf
ROOT
ATOM      1  C   UNL     1      20.995 -25.472   0.062  1.00  0.00     0.000 C 
ENDROOT
BRANCH   1   2
ATOM      2  C   UNL     1      20.545 -25.834   1.484  1.00  0.00     0.000 C 
BRANCH   2   3
ATOM      3  C   UNL     1      21.734 -26.295   2.335  1.00  0.00     0.000 C 
BRANCH   3   4
ATOM      4  C   UNL     1      21.416 -27.609   3.064  1.00  0.00     0.006 C 
BRANCH   4   5
ATOM      5  C   UNL     1      19.942 -27.704   3.476  1.00  0.00     0.053 C 
BRANCH   5   6
ATOM      6  C   UNL     1      19.550 -29.109   3.819  1.00  0.00     0.041 C 
ATOM      7  O   UNL     1      20.433 -29.989   3.992  1.00  0.00    -0.550 OA
ATOM      8  O   UNL     1      18.210 -29.438   3.979  1.00  0.00    -0.550 OA
ENDBRANCH   5   6
ENDBRANCH   4   5
ENDBRANCH   3   4
ENDBRANCH   2   3
ENDBRANCH   1   2
BRANCH   1   9
ATOM      9  C   UNL     1      22.414 -25.972  -0.257  1.00  0.00     0.000 C 
BRANCH   9  10
ATOM     10  C   UNL     1      22.414 -27.236  -1.129  1.00  0.00    -0.000 C 
BRANCH  10  11
ATOM     11  C   UNL     1      21.077 -27.392  -1.870  1.00  0.00    -0.000 C 
BRANCH  11  12
ATOM     12  C   UNL     1      20.467 -28.793  -1.704  1.00  0.00    -0.000 C 
BRANCH  12  13
ATOM     13  C   UNL     1      19.864 -29.015  -0.310  1.00  0.00    -0.003 C 
ATOM     14  C   UNL     1      20.563 -30.161   0.416  1.00  0.00     0.004 C 
ENDBRANCH  12  13
ENDBRANCH  11  12
ENDBRANCH  10  11
ENDBRANCH   9  10
ENDBRANCH   1   9
TORSDOF 10
ENDMDL
MODEL 7
REMARK VINA RESULT:    -1.190      7.073      9.130
REMARK INTER + INTRA:          -3.614
REMARK INTER:                  -2.183
REMARK INTRA:                  -1.431
REMARK UNBOUND:                -1.728
REMARK SMILES CCCCCCCCCCCC(=O)[O-]
REMARK SMILES IDX 7 1 8 2 9 3 10 4 11 5 12 6 13 7 14 8 6 9 5 10 4 11 3 12 2 13
REMARK SMILES IDX 1 14
REMARK H PARENT
REMARK Flexibility Score: inf
ROOT
ATOM      1  C   UNL     1      13.617 -33.210   1.085  1.00  0.00     0.000 C 
ENDROOT
BRANCH   1   2
ATOM      2  C   UNL     1      14.684 -33.975   1.880  1.00  0.00     0.000 C 
BRANCH   2   3
ATOM      3  C   UNL     1      15.981 -33.164   1.978  1.00  0.00     0.000 C 
BRANCH   3   4
ATOM      4  C   UNL     1      17.185 -34.078   2.249  1.00  0.00     0.006 C 
BRANCH   4   5
ATOM      5  C   UNL     1      18.295 -33.905   1.204  1.00  0.00     0.053 C 
BRANCH   5   6
ATOM      6  C   UNL     1      19.401 -33.028   1.708  1.00  0.00     0.041 C 
ATOM      7  O   UNL     1      20.437 -32.855   1.016  1.00  0.00    -0.550 OA
ATOM      8  O   UNL     1      19.270 -32.377   2.928  1.00  0.00    -0.550 OA
ENDBRANCH   5   6
ENDBRANCH   4   5
ENDBRANCH   3   4
ENDBRANCH   2   3
ENDBRANCH   1   2
BRANCH   1   9
ATOM      9  C   UNL     1      13.093 -34.005  -0.123  1.00  0.00     0.000 C 
BRANCH   9  10
ATOM     10  C   UNL     1      14.025 -33.915  -1.340  1.00  0.00    -0.000 C 
BRANCH  10  11
ATOM     11  C   UNL     1      14.565 -35.302  -1.722  1.00  0.00    -0.000 C 
BRANCH  11  12
ATOM     12  C   UNL     1      16.028 -35.506  -1.298  1.00  0.00    -0.000 C 
BRANCH  12  13
ATOM     13  C   UNL     1      16.197 -36.637  -0.274  1.00  0.00    -0.003 C 
ATOM     14  C   UNL     1      14.853 -37.280   0.059  1.00  0.00     0.004 C 
ENDBRANCH  12  13
ENDBRANCH  11  12
ENDBRANCH  10  11
ENDBRANCH   9  10
ENDBRANCH   1   9
TORSDOF 10
ENDMDL
MODEL 8
REMARK VINA RESULT:    -1.187      2.342      4.251
REMARK INTER + INTRA:          -3.609
REMARK INTER:                  -2.113
REMARK INTRA:                  -1.496
REMARK UNBOUND:                -1.728
REMARK SMILES CCCCCCCCCCCC(=O)[O-]
REMARK SMILES IDX 7 1 8 2 9 3 10 4 11 5 12 6 13 7 14 8 6 9 5 10 4 11 3 12 2 13
REMARK SMILES IDX 1 14
REMARK H PARENT
REMARK Flexibility Score: inf
ROOT
ATOM      1  C   UNL     1      20.429 -28.773   2.171  1.00  0.00     0.000 C 
ENDROOT
BRANCH   1   2
ATOM      2  C   UNL     1      21.858 -28.214   2.214  1.00  0.00     0.000 C 
BRANCH   2   3
ATOM      3  C   UNL     1      21.855 -26.688   2.075  1.00  0.00     0.000 C 
BRANCH   3   4
ATOM      4  C   UNL     1      20.476 -26.177   1.630  1.00  0.00     0.006 C 
BRANCH   4   5
ATOM      5  C   UNL     1      19.958 -25.044   2.525  1.00  0.00     0.053 C 
BRANCH   5   6
ATOM      6  C   UNL     1      19.709 -25.513   3.927  1.00  0.00     0.041 C 
ATOM      7  O   UNL     1      20.378 -25.038   4.881  1.00  0.00    -0.550 OA
ATOM      8  O   UNL     1      18.716 -26.450   4.181  1.00  0.00    -0.550 OA
ENDBRANCH   5   6
ENDBRANCH   4   5
ENDBRANCH   3   4
ENDBRANCH   2   3
ENDBRANCH   1   2
BRANCH   1   9
ATOM      9  C   UNL     1      20.237 -29.829   1.070  1.00  0.00     0.000 C 
BRANCH   9  10
ATOM     10  C   UNL     1      19.768 -29.221  -0.259  1.00  0.00    -0.000 C 
BRANCH  10  11
ATOM     11  C   UNL     1      20.921 -29.161  -1.273  1.00  0.00    -0.000 C 
BRANCH  11  12
ATOM     12  C   UNL     1      20.896 -27.882  -2.125  1.00  0.00    -0.000 C 
BRANCH  12  13
ATOM     13  C   UNL     1      21.975 -26.873  -1.710  1.00  0.00    -0.003 C 
ATOM     14  C   UNL     1      23.249 -27.585  -1.261  1.00  0.00     0.004 C 
ENDBRANCH  12  13
ENDBRANCH  11  12
ENDBRANCH  10  11
ENDBRANCH   9  10
ENDBRANCH   1   9
TORSDOF 10
ENDMDL
MODEL 9
REMARK VINA RESULT:    -1.187      7.303      9.105
REMARK INTER + INTRA:          -3.609
REMARK INTER:                  -2.333
REMARK INTRA:                  -1.276
REMARK UNBOUND:                -1.728
REMARK SMILES CCCCCCCCCCCC(=O)[O-]
REMARK SMILES IDX 7 1 8 2 9 3 10 4 11 5 12 6 13 7 14 8 6 9 5 10 4 11 3 12 2 13
REMARK SMILES IDX 1 14
REMARK H PARENT
REMARK Flexibility Score: inf
ROOT
ATOM      1  C   UNL     1      15.429 -34.518  -0.080  1.00  0.00     0.000 C 
ENDROOT
BRANCH   1   2
ATOM      2  C   UNL     1      14.928 -35.193   1.205  1.00  0.00     0.000 C 
BRANCH   2   3
ATOM      3  C   UNL     1      15.324 -34.379   2.442  1.00  0.00     0.000 C 
BRANCH   3   4
ATOM      4  C   UNL     1      15.696 -32.939   2.059  1.00  0.00     0.006 C 
BRANCH   4   5
ATOM      5  C   UNL     1      16.851 -32.391   2.907  1.00  0.00     0.053 C 
BRANCH   5   6
ATOM      6  C   UNL     1      16.887 -30.893   2.895  1.00  0.00     0.041 C 
ATOM      7  O   UNL     1      15.840 -30.236   2.658  1.00  0.00    -0.550 OA
ATOM      8  O   UNL     1      18.071 -30.224   3.179  1.00  0.00    -0.550 OA
ENDBRANCH   5   6
ENDBRANCH   4   5
ENDBRANCH   3   4
ENDBRANCH   2   3
ENDBRANCH   1   2
BRANCH   1   9
ATOM      9  C   UNL     1      14.643 -34.957  -1.326  1.00  0.00     0.000 C 
BRANCH   9  10
ATOM     10  C   UNL     1      13.161 -34.561  -1.263  1.00  0.00    -0.000 C 
BRANCH  10  11
ATOM     11  C   UNL     1      12.991 -33.043  -1.429  1.00  0.00    -0.000 C 
BRANCH  11  12
ATOM     12  C   UNL     1      11.878 -32.469  -0.538  1.00  0.00    -0.000 C 
BRANCH  12  13
ATOM     13  C   UNL     1      12.392 -32.023   0.838  1.00  0.00    -0.003 C 
ATOM     14  C   UNL     1      11.915 -32.970   1.936  1.00  0.00     0.004 C 
ENDBRANCH  12  13
ENDBRANCH  11  12
ENDBRANCH  10  11
ENDBRANCH   9  10
ENDBRANCH   1   9
TORSDOF 10
ENDMDL
