MODEL 1
REMARK VINA RESULT:    -4.846      0.000      0.000
REMARK INTER + INTRA:         -11.284
REMARK INTER:                  -9.378
REMARK INTRA:                  -1.905
REMARK UNBOUND:                -1.905
REMARK SMILES CCCCCCCCCCCCCCCCCC(=O)[O-]
REMARK SMILES IDX 10 1 11 2 12 3 13 4 14 5 15 6 16 7 17 8 18 9 19 10 20 11
REMARK SMILES IDX 9 12 8 13 7 14 6 15 5 16 4 17 3 18 2 19 1 20
REMARK H PARENT
REMARK Flexibility Score: inf
ROOT
ATOM      1  C   UNL     1       4.349 -38.683  22.710  1.00  0.00     0.000 C 
ENDROOT
BRANCH   1   2
ATOM      2  C   UNL     1       5.354 -39.126  21.636  1.00  0.00     0.000 C 
BRANCH   2   3
ATOM      3  C   UNL     1       5.335 -38.221  20.394  1.00  0.00     0.000 C 
BRANCH   3   4
ATOM      4  C   UNL     1       3.969 -37.534  20.239  1.00  0.00     0.000 C 
BRANCH   4   5
ATOM      5  C   UNL     1       3.673 -37.130  18.786  1.00  0.00     0.000 C 
BRANCH   5   6
ATOM      6  C   UNL     1       2.176 -37.212  18.442  1.00  0.00     0.000 C 
BRANCH   6   7
ATOM      7  C   UNL     1       1.866 -36.793  16.994  1.00  0.00     0.006 C 
BRANCH   7   8
ATOM      8  C   UNL     1       3.104 -36.343  16.197  1.00  0.00     0.053 C 
BRANCH   8   9
ATOM      9  C   UNL     1       3.069 -36.809  14.773  1.00  0.00     0.041 C 
ATOM     10  O   UNL     1       2.110 -36.483  14.024  1.00  0.00    -0.550 OA
ATOM     11  O   UNL     1       4.074 -37.632  14.281  1.00  0.00    -0.550 OA
ENDBRANCH   8   9
ENDBRANCH   7   8
ENDBRANCH   6   7
ENDBRANCH   5   6
ENDBRANCH   4   5
ENDBRANCH   3   4
ENDBRANCH   2   3
ENDBRANCH   1   2
BRANCH   1  12
ATOM     12  C   UNL     1       4.994 -38.538  24.099  1.00  0.00     0.000 C 
BRANCH  12  13
ATOM     13  C   UNL     1       4.227 -37.565  25.014  1.00  0.00    -0.000 C 
BRANCH  13  14
ATOM     14  C   UNL     1       5.041 -36.352  25.509  1.00  0.00    -0.000 C 
BRANCH  14  15
ATOM     15  C   UNL     1       6.052 -35.782  24.495  1.00  0.00    -0.000 C 
BRANCH  15  16
ATOM     16  C   UNL     1       5.441 -34.871  23.416  1.00  0.00    -0.000 C 
BRANCH  16  17
ATOM     17  C   UNL     1       6.125 -35.027  22.047  1.00  0.00    -0.000 C 
BRANCH  17  18
ATOM     18  C   UNL     1       5.317 -34.390  20.906  1.00  0.00    -0.000 C 
BRANCH  18  19
ATOM     19  C   UNL     1       6.010 -34.532  19.543  1.00  0.00    -0.003 C 
ATOM     20  C   UNL     1       5.125 -34.002  18.419  1.00  0.00     0.004 C 
ENDBRANCH  18  19
ENDBRANCH  17  18
ENDBRANCH  16  17
ENDBRANCH  15  16
ENDBRANCH  14  15
ENDBRANCH  13  14
ENDBRANCH  12  13
ENDBRANCH   1  12
TORSDOF 16
ENDMDL
MODEL 2
REMARK VINA RESULT:    -4.730      2.275      5.842
REMARK INTER + INTRA:         -11.059
REMARK INTER:                  -9.519
REMARK INTRA:                  -1.540
REMARK UNBOUND:                -1.905
REMARK SMILES CCCCCCCCCCCCCCCCCC(=O)[O-]
REMARK SMILES IDX 10 1 11 2 12 3 13 4 14 5 15 6 16 7 17 8 18 9 19 10 20 11
REMARK SMILES IDX 9 12 8 13 7 14 6 15 5 16 4 17 3 18 2 19 1 20
REMARK H PARENT
REMARK Flexibility Score: inf
ROOT
ATOM      1  C   UNL     1       4.538 -39.074  22.307  1.00  0.00     0.000 C 
ENDROOT
BRANCH   1   2
ATOM      2  C   UNL     1       4.876 -38.846  23.789  1.00  0.00     0.000 C 
BRANCH   2   3
ATOM      3  C   UNL     1       4.436 -37.464  24.294  1.00  0.00     0.000 C 
BRANCH   3   4
ATOM      4  C   UNL     1       5.490 -36.865  25.240  1.00  0.00     0.000 C 
BRANCH   4   5
ATOM      5  C   UNL     1       6.022 -35.510  24.750  1.00  0.00     0.000 C 
BRANCH   5   6
ATOM      6  C   UNL     1       5.221 -34.956  23.559  1.00  0.00     0.000 C 
BRANCH   6   7
ATOM      7  C   UNL     1       6.096 -34.200  22.543  1.00  0.00     0.006 C 
BRANCH   7   8
ATOM      8  C   UNL     1       6.119 -34.838  21.143  1.00  0.00     0.053 C 
BRANCH   8   9
ATOM      9  C   UNL     1       5.171 -34.171  20.193  1.00  0.00     0.041 C 
ATOM     10  O   UNL     1       5.477 -34.046  18.977  1.00  0.00    -0.550 OA
ATOM     11  O   UNL     1       3.967 -33.655  20.654  1.00  0.00    -0.550 OA
ENDBRANCH   8   9
ENDBRANCH   7   8
ENDBRANCH   6   7
ENDBRANCH   5   6
ENDBRANCH   4   5
ENDBRANCH   3   4
ENDBRANCH   2   3
ENDBRANCH   1   2
BRANCH   1  12
ATOM     12  C   UNL     1       4.691 -37.796  21.463  1.00  0.00     0.000 C 
BRANCH  12  13
ATOM     13  C   UNL     1       5.161 -38.084  20.026  1.00  0.00    -0.000 C 
BRANCH  13  14
ATOM     14  C   UNL     1       4.290 -37.463  18.915  1.00  0.00    -0.000 C 
BRANCH  14  15
ATOM     15  C   UNL     1       2.853 -37.098  19.335  1.00  0.00    -0.000 C 
BRANCH  15  16
ATOM     16  C   UNL     1       1.775 -37.399  18.278  1.00  0.00    -0.000 C 
BRANCH  16  17
ATOM     17  C   UNL     1       2.352 -37.521  16.858  1.00  0.00    -0.000 C 
BRANCH  17  18
ATOM     18  C   UNL     1       1.945 -36.349  15.953  1.00  0.00    -0.000 C 
BRANCH  18  19
ATOM     19  C   UNL     1       2.691 -36.354  14.611  1.00  0.00    -0.003 C 
ATOM     20  C   UNL     1       3.712 -37.488  14.554  1.00  0.00     0.004 C 
ENDBRANCH  18  19
ENDBRANCH  17  18
ENDBRANCH  16  17
ENDBRANCH  15  16
ENDBRANCH  14  15
ENDBRANCH  13  14
ENDBRANCH  12  13
ENDBRANCH   1  12
TORSDOF 16
ENDMDL
MODEL 3
REMARK VINA RESULT:    -4.700      0.908      3.390
REMARK INTER + INTRA:         -11.001
REMARK INTER:                  -9.413
REMARK INTRA:                  -1.588
REMARK UNBOUND:                -1.905
REMARK SMILES CCCCCCCCCCCCCCCCCC(=O)[O-]
REMARK SMILES IDX 10 1 11 2 12 3 13 4 14 5 15 6 16 7 17 8 18 9 19 10 20 11
REMARK SMILES IDX 9 12 8 13 7 14 6 15 5 16 4 17 3 18 2 19 1 20
REMARK H PARENT
REMARK Flexibility Score: inf
ROOT
ATOM      1  C   UNL     1       4.539 -33.721  22.555  1.00  0.00     0.000 C 
ENDROOT
BRANCH   1   2
ATOM      2  C   UNL     1       4.456 -33.872  21.027  1.00  0.00     0.000 C 
BRANCH   2   3
ATOM      3  C   UNL     1       5.665 -34.614  20.437  1.00  0.00     0.000 C 
BRANCH   3   4
ATOM      4  C   UNL     1       5.703 -34.468  18.907  1.00  0.00     0.000 C 
BRANCH   4   5
ATOM      5  C   UNL     1       4.333 -34.713  18.257  1.00  0.00     0.000 C 
BRANCH   5   6
ATOM      6  C   UNL     1       3.832 -36.154  18.457  1.00  0.00     0.000 C 
BRANCH   6   7
ATOM      7  C   UNL     1       3.076 -36.705  17.235  1.00  0.00     0.006 C 
BRANCH   7   8
ATOM      8  C   UNL     1       3.307 -35.898  15.944  1.00  0.00     0.053 C 
BRANCH   8   9
ATOM      9  C   UNL     1       2.954 -36.675  14.712  1.00  0.00     0.041 C 
ATOM     10  O   UNL     1       1.856 -36.470  14.129  1.00  0.00    -0.550 OA
ATOM     11  O   UNL     1       3.818 -37.648  14.227  1.00  0.00    -0.550 OA
ENDBRANCH   8   9
ENDBRANCH   7   8
ENDBRANCH   6   7
ENDBRANCH   5   6
ENDBRANCH   4   5
ENDBRANCH   3   4
ENDBRANCH   2   3
ENDBRANCH   1   2
BRANCH   1  12
ATOM     12  C   UNL     1       5.988 -33.726  23.072  1.00  0.00     0.000 C 
BRANCH  12  13
ATOM     13  C   UNL     1       6.125 -34.390  24.454  1.00  0.00    -0.000 C 
BRANCH  13  14
ATOM     14  C   UNL     1       6.087 -35.931  24.448  1.00  0.00    -0.000 C 
BRANCH  14  15
ATOM     15  C   UNL     1       5.070 -36.567  25.415  1.00  0.00    -0.000 C 
BRANCH  15  16
ATOM     16  C   UNL     1       4.243 -37.720  24.817  1.00  0.00    -0.000 C 
BRANCH  16  17
ATOM     17  C   UNL     1       5.042 -38.566  23.811  1.00  0.00    -0.000 C 
BRANCH  17  18
ATOM     18  C   UNL     1       4.303 -38.753  22.478  1.00  0.00    -0.000 C 
BRANCH  18  19
ATOM     19  C   UNL     1       4.875 -37.869  21.359  1.00  0.00    -0.003 C 
ATOM     20  C   UNL     1       5.638 -38.704  20.335  1.00  0.00     0.004 C 
ENDBRANCH  18  19
ENDBRANCH  17  18
ENDBRANCH  16  17
ENDBRANCH  15  16
ENDBRANCH  14  15
ENDBRANCH  13  14
ENDBRANCH  12  13
ENDBRANCH   1  12
TORSDOF 16
ENDMDL
MODEL 4
REMARK VINA RESULT:    -4.632      2.604      6.767
REMARK INTER + INTRA:         -10.869
REMARK INTER:                  -9.888
REMARK INTRA:                  -0.981
REMARK UNBOUND:                -1.905
REMARK SMILES CCCCCCCCCCCCCCCCCC(=O)[O-]
REMARK SMILES IDX 10 1 11 2 12 3 13 4 14 5 15 6 16 7 17 8 18 9 19 10 20 11
REMARK SMILES IDX 9 12 8 13 7 14 6 15 5 16 4 17 3 18 2 19 1 20
REMARK H PARENT
REMARK Flexibility Score: inf
ROOT
ATOM      1  C   UNL     1       4.336 -34.496  21.435  1.00  0.00     0.000 C 
ENDROOT
BRANCH   1   2
ATOM      2  C   UNL     1       4.789 -33.492  22.508  1.00  0.00     0.000 C 
BRANCH   2   3
ATOM      3  C   UNL     1       5.985 -33.998  23.328  1.00  0.00     0.000 C 
BRANCH   3   4
ATOM      4  C   UNL     1       5.942 -35.527  23.474  1.00  0.00     0.000 C 
BRANCH   4   5
ATOM      5  C   UNL     1       5.545 -35.973  24.890  1.00  0.00     0.000 C 
BRANCH   5   6
ATOM      6  C   UNL     1       4.539 -37.138  24.883  1.00  0.00     0.000 C 
BRANCH   6   7
ATOM      7  C   UNL     1       5.150 -38.459  24.383  1.00  0.00     0.006 C 
BRANCH   7   8
ATOM      8  C   UNL     1       4.411 -39.071  23.180  1.00  0.00     0.053 C 
BRANCH   8   9
ATOM      9  C   UNL     1       5.302 -39.242  21.986  1.00  0.00     0.041 C 
ATOM     10  O   UNL     1       5.821 -40.364  21.741  1.00  0.00    -0.550 OA
ATOM     11  O   UNL     1       5.588 -38.159  21.166  1.00  0.00    -0.550 OA
ENDBRANCH   8   9
ENDBRANCH   7   8
ENDBRANCH   6   7
ENDBRANCH   5   6
ENDBRANCH   4   5
ENDBRANCH   3   4
ENDBRANCH   2   3
ENDBRANCH   1   2
BRANCH   1  12
ATOM     12  C   UNL     1       4.824 -34.116  20.027  1.00  0.00     0.000 C 
BRANCH  12  13
ATOM     13  C   UNL     1       4.726 -35.283  19.027  1.00  0.00    -0.000 C 
BRANCH  13  14
ATOM     14  C   UNL     1       3.797 -36.436  19.455  1.00  0.00    -0.000 C 
BRANCH  14  15
ATOM     15  C   UNL     1       2.930 -37.033  18.330  1.00  0.00    -0.000 C 
BRANCH  15  16
ATOM     16  C   UNL     1       3.126 -36.382  16.949  1.00  0.00    -0.000 C 
BRANCH  16  17
ATOM     17  C   UNL     1       2.057 -36.814  15.930  1.00  0.00    -0.000 C 
BRANCH  17  18
ATOM     18  C   UNL     1       2.450 -36.479  14.483  1.00  0.00    -0.000 C 
BRANCH  18  19
ATOM     19  C   UNL     1       3.896 -36.882  14.158  1.00  0.00    -0.003 C 
ATOM     20  C   UNL     1       4.078 -38.395  14.247  1.00  0.00     0.004 C 
ENDBRANCH  18  19
ENDBRANCH  17  18
ENDBRANCH  16  17
ENDBRANCH  15  16
ENDBRANCH  14  15
ENDBRANCH  13  14
ENDBRANCH  12  13
ENDBRANCH   1  12
TORSDOF 16
ENDMDL
MODEL 5
REMARK VINA RESULT:    -4.073      1.222      3.589
REMARK INTER + INTRA:          -9.789
REMARK INTER:                  -7.977
REMARK INTRA:                  -1.812
REMARK UNBOUND:                -1.905
REMARK SMILES CCCCCCCCCCCCCCCCCC(=O)[O-]
REMARK SMILES IDX 10 1 11 2 12 3 13 4 14 5 15 6 16 7 17 8 18 9 19 10 20 11
REMARK SMILES IDX 9 12 8 13 7 14 6 15 5 16 4 17 3 18 2 19 1 20
REMARK H PARENT
REMARK Flexibility Score: inf
ROOT
ATOM      1  C   UNL     1       6.124 -34.138  24.108  1.00  0.00     0.000 C 
ENDROOT
BRANCH   1   2
ATOM      2  C   UNL     1       5.614 -33.517  22.798  1.00  0.00     0.000 C 
BRANCH   2   3
ATOM      3  C   UNL     1       4.489 -34.339  22.149  1.00  0.00     0.000 C 
BRANCH   3   4
ATOM      4  C   UNL     1       4.288 -33.929  20.682  1.00  0.00     0.000 C 
BRANCH   4   5
ATOM      5  C   UNL     1       5.508 -34.254  19.806  1.00  0.00     0.000 C 
BRANCH   5   6
ATOM      6  C   UNL     1       5.137 -34.463  18.328  1.00  0.00     0.000 C 
BRANCH   6   7
ATOM      7  C   UNL     1       3.856 -35.297  18.140  1.00  0.00     0.006 C 
BRANCH   7   8
ATOM      8  C   UNL     1       3.476 -35.530  16.667  1.00  0.00     0.053 C 
BRANCH   8   9
ATOM      9  C   UNL     1       2.704 -36.800  16.468  1.00  0.00     0.041 C 
ATOM     10  O   UNL     1       1.619 -36.982  17.081  1.00  0.00    -0.550 OA
ATOM     11  O   UNL     1       3.199 -37.796  15.637  1.00  0.00    -0.550 OA
ENDBRANCH   8   9
ENDBRANCH   7   8
ENDBRANCH   6   7
ENDBRANCH   5   6
ENDBRANCH   4   5
ENDBRANCH   3   4
ENDBRANCH   2   3
ENDBRANCH   1   2
BRANCH   1  12
ATOM     12  C   UNL     1       6.039 -35.674  24.106  1.00  0.00     0.000 C 
BRANCH  12  13
ATOM     13  C   UNL     1       5.074 -36.219  25.175  1.00  0.00    -0.000 C 
BRANCH  13  14
ATOM     14  C   UNL     1       4.769 -37.727  25.075  1.00  0.00    -0.000 C 
BRANCH  14  15
ATOM     15  C   UNL     1       4.295 -38.210  23.690  1.00  0.00    -0.000 C 
BRANCH  15  16
ATOM     16  C   UNL     1       4.811 -39.600  23.278  1.00  0.00    -0.000 C 
BRANCH  16  17
ATOM     17  C   UNL     1       5.555 -39.583  21.932  1.00  0.00    -0.000 C 
BRANCH  17  18
ATOM     18  C   UNL     1       5.709 -38.166  21.360  1.00  0.00    -0.000 C 
BRANCH  18  19
ATOM     19  C   UNL     1       5.019 -38.002  19.998  1.00  0.00    -0.003 C 
ATOM     20  C   UNL     1       3.554 -37.608  20.168  1.00  0.00     0.004 C 
ENDBRANCH  18  19
ENDBRANCH  17  18
ENDBRANCH  16  17
ENDBRANCH  15  16
ENDBRANCH  14  15
ENDBRANCH  13  14
ENDBRANCH  12  13
ENDBRANCH   1  12
TORSDOF 16
ENDMDL
MODEL 6
REMARK VINA RESULT:    -3.994      1.968      4.072
REMARK INTER + INTRA:          -9.636
REMARK INTER:                  -8.049
REMARK INTRA:                  -1.587
REMARK UNBOUND:                -1.905
REMARK SMILES CCCCCCCCCCCCCCCCCC(=O)[O-]
REMARK SMILES IDX 10 1 11 2 12 3 13 4 14 5 15 6 16 7 17 8 18 9 19 10 20 11
REMARK SMILES IDX 9 12 8 13 7 14 6 15 5 16 4 17 3 18 2 19 1 20
REMARK H PARENT
REMARK Flexibility Score: inf
ROOT
ATOM      1  C   UNL     1       4.617 -33.834  22.470  1.00  0.00     0.000 C 
ENDROOT
BRANCH   1   2
ATOM      2  C   UNL     1       4.397 -33.934  20.952  1.00  0.00     0.000 C 
BRANCH   2   3
ATOM      3  C   UNL     1       5.687 -34.265  20.185  1.00  0.00     0.000 C 
BRANCH   3   4
ATOM      4  C   UNL     1       5.396 -34.482  18.691  1.00  0.00     0.000 C 
BRANCH   4   5
ATOM      5  C   UNL     1       4.127 -35.316  18.453  1.00  0.00     0.000 C 
BRANCH   5   6
ATOM      6  C   UNL     1       3.649 -35.260  16.992  1.00  0.00     0.000 C 
BRANCH   6   7
ATOM      7  C   UNL     1       2.466 -36.204  16.709  1.00  0.00     0.006 C 
BRANCH   7   8
ATOM      8  C   UNL     1       2.589 -37.579  17.390  1.00  0.00     0.053 C 
BRANCH   8   9
ATOM      9  C   UNL     1       1.730 -37.692  18.613  1.00  0.00     0.041 C 
ATOM     10  O   UNL     1       2.253 -37.949  19.730  1.00  0.00    -0.550 OA
ATOM     11  O   UNL     1       0.352 -37.551  18.515  1.00  0.00    -0.550 OA
ENDBRANCH   8   9
ENDBRANCH   7   8
ENDBRANCH   6   7
ENDBRANCH   5   6
ENDBRANCH   4   5
ENDBRANCH   3   4
ENDBRANCH   2   3
ENDBRANCH   1   2
BRANCH   1  12
ATOM     12  C   UNL     1       6.050 -34.209  22.886  1.00  0.00     0.000 C 
BRANCH  12  13
ATOM     13  C   UNL     1       6.125 -35.569  23.605  1.00  0.00    -0.000 C 
BRANCH  13  14
ATOM     14  C   UNL     1       4.833 -36.409  23.555  1.00  0.00    -0.000 C 
BRANCH  14  15
ATOM     15  C   UNL     1       4.720 -37.504  24.632  1.00  0.00    -0.000 C 
BRANCH  15  16
ATOM     16  C   UNL     1       4.398 -38.910  24.094  1.00  0.00    -0.000 C 
BRANCH  16  17
ATOM     17  C   UNL     1       4.440 -38.983  22.558  1.00  0.00    -0.000 C 
BRANCH  17  18
ATOM     18  C   UNL     1       5.658 -39.760  22.037  1.00  0.00    -0.000 C 
BRANCH  18  19
ATOM     19  C   UNL     1       6.011 -39.400  20.587  1.00  0.00    -0.003 C 
ATOM     20  C   UNL     1       5.486 -38.013  20.222  1.00  0.00     0.004 C 
ENDBRANCH  18  19
ENDBRANCH  17  18
ENDBRANCH  16  17
ENDBRANCH  15  16
ENDBRANCH  14  15
ENDBRANCH  13  14
ENDBRANCH  12  13
ENDBRANCH   1  12
TORSDOF 16
ENDMDL
MODEL 7
REMARK VINA RESULT:    -3.854      2.485      6.517
REMARK INTER + INTRA:          -9.364
REMARK INTER:                  -8.293
REMARK INTRA:                  -1.071
REMARK UNBOUND:                -1.905
REMARK SMILES CCCCCCCCCCCCCCCCCC(=O)[O-]
REMARK SMILES IDX 10 1 11 2 12 3 13 4 14 5 15 6 16 7 17 8 18 9 19 10 20 11
REMARK SMILES IDX 9 12 8 13 7 14 6 15 5 16 4 17 3 18 2 19 1 20
REMARK H PARENT
REMARK Flexibility Score: inf
ROOT
ATOM      1  C   UNL     1       3.701 -33.502  21.899  1.00  0.00     0.000 C 
ENDROOT
BRANCH   1   2
ATOM      2  C   UNL     1       4.948 -33.717  22.772  1.00  0.00     0.000 C 
BRANCH   2   3
ATOM      3  C   UNL     1       5.125 -35.180  23.205  1.00  0.00     0.000 C 
BRANCH   3   4
ATOM      4  C   UNL     1       6.057 -35.282  24.423  1.00  0.00     0.000 C 
BRANCH   4   5
ATOM      5  C   UNL     1       5.854 -36.583  25.215  1.00  0.00     0.000 C 
BRANCH   5   6
ATOM      6  C   UNL     1       4.581 -37.339  24.795  1.00  0.00     0.000 C 
BRANCH   6   7
ATOM      7  C   UNL     1       4.878 -38.682  24.104  1.00  0.00     0.006 C 
BRANCH   7   8
ATOM      8  C   UNL     1       4.236 -38.822  22.712  1.00  0.00     0.053 C 
BRANCH   8   9
ATOM      9  C   UNL     1       5.247 -38.781  21.607  1.00  0.00     0.041 C 
ATOM     10  O   UNL     1       5.316 -37.776  20.850  1.00  0.00    -0.550 OA
ATOM     11  O   UNL     1       6.089 -39.864  21.388  1.00  0.00    -0.550 OA
ENDBRANCH   8   9
ENDBRANCH   7   8
ENDBRANCH   6   7
ENDBRANCH   5   6
ENDBRANCH   4   5
ENDBRANCH   3   4
ENDBRANCH   2   3
ENDBRANCH   1   2
BRANCH   1  12
ATOM     12  C   UNL     1       4.027 -33.486  20.396  1.00  0.00     0.000 C 
BRANCH  12  13
ATOM     13  C   UNL     1       5.312 -34.262  20.056  1.00  0.00    -0.000 C 
BRANCH  13  14
ATOM     14  C   UNL     1       5.563 -34.487  18.552  1.00  0.00    -0.000 C 
BRANCH  14  15
ATOM     15  C   UNL     1       4.294 -34.608  17.685  1.00  0.00    -0.000 C 
BRANCH  15  16
ATOM     16  C   UNL     1       3.976 -36.033  17.200  1.00  0.00    -0.000 C 
BRANCH  16  17
ATOM     17  C   UNL     1       2.803 -36.075  16.206  1.00  0.00    -0.000 C 
BRANCH  17  18
ATOM     18  C   UNL     1       1.528 -36.672  16.821  1.00  0.00    -0.000 C 
BRANCH  18  19
ATOM     19  C   UNL     1       1.808 -37.451  18.115  1.00  0.00    -0.003 C 
ATOM     20  C   UNL     1       0.523 -37.683  18.906  1.00  0.00     0.004 C 
ENDBRANCH  18  19
ENDBRANCH  17  18
ENDBRANCH  16  17
ENDBRANCH  15  16
ENDBRANCH  14  15
ENDBRANCH  13  14
ENDBRANCH  12  13
ENDBRANCH   1  12
TORSDOF 16
ENDMDL
MODEL 8
REMARK VINA RESULT:    -3.848      3.862      7.135
REMARK INTER + INTRA:          -9.353
REMARK INTER:                  -8.419
REMARK INTRA:                  -0.934
REMARK UNBOUND:                -1.905
REMARK SMILES CCCCCCCCCCCCCCCCCC(=O)[O-]
REMARK SMILES IDX 10 1 11 2 12 3 13 4 14 5 15 6 16 7 17 8 18 9 19 10 20 11
REMARK SMILES IDX 9 12 8 13 7 14 6 15 5 16 4 17 3 18 2 19 1 20
REMARK H PARENT
REMARK Flexibility Score: inf
ROOT
ATOM      1  C   UNL     1       4.200 -33.974  21.705  1.00  0.00     0.000 C 
ENDROOT
BRANCH   1   2
ATOM      2  C   UNL     1       5.548 -34.147  22.423  1.00  0.00     0.000 C 
BRANCH   2   3
ATOM      3  C   UNL     1       6.068 -35.592  22.371  1.00  0.00     0.000 C 
BRANCH   3   4
ATOM      4  C   UNL     1       4.913 -36.582  22.153  1.00  0.00     0.000 C 
BRANCH   4   5
ATOM      5  C   UNL     1       5.377 -37.896  21.504  1.00  0.00     0.000 C 
BRANCH   5   6
ATOM      6  C   UNL     1       4.951 -39.136  22.308  1.00  0.00     0.000 C 
BRANCH   6   7
ATOM      7  C   UNL     1       4.126 -38.788  23.560  1.00  0.00     0.006 C 
BRANCH   7   8
ATOM      8  C   UNL     1       4.974 -38.580  24.827  1.00  0.00     0.053 C 
BRANCH   8   9
ATOM      9  C   UNL     1       4.591 -37.340  25.577  1.00  0.00     0.041 C 
ATOM     10  O   UNL     1       5.327 -36.318  25.528  1.00  0.00    -0.550 OA
ATOM     11  O   UNL     1       3.442 -37.321  26.357  1.00  0.00    -0.550 OA
ENDBRANCH   8   9
ENDBRANCH   7   8
ENDBRANCH   6   7
ENDBRANCH   5   6
ENDBRANCH   4   5
ENDBRANCH   3   4
ENDBRANCH   2   3
ENDBRANCH   1   2
BRANCH   1  12
ATOM     12  C   UNL     1       4.364 -33.524  20.243  1.00  0.00     0.000 C 
BRANCH  12  13
ATOM     13  C   UNL     1       5.098 -34.564  19.377  1.00  0.00    -0.000 C 
BRANCH  13  14
ATOM     14  C   UNL     1       4.197 -35.379  18.427  1.00  0.00    -0.000 C 
BRANCH  14  15
ATOM     15  C   UNL     1       3.363 -36.485  19.101  1.00  0.00    -0.000 C 
BRANCH  15  16
ATOM     16  C   UNL     1       2.502 -37.322  18.139  1.00  0.00    -0.000 C 
BRANCH  16  17
ATOM     17  C   UNL     1       3.000 -37.258  16.685  1.00  0.00    -0.000 C 
BRANCH  17  18
ATOM     18  C   UNL     1       2.021 -36.525  15.756  1.00  0.00    -0.000 C 
BRANCH  18  19
ATOM     19  C   UNL     1       2.551 -36.402  14.320  1.00  0.00    -0.003 C 
ATOM     20  C   UNL     1       3.801 -37.256  14.121  1.00  0.00     0.004 C 
ENDBRANCH  18  19
ENDBRANCH  17  18
ENDBRANCH  16  17
ENDBRANCH  15  16
ENDBRANCH  14  15
ENDBRANCH  13  14
ENDBRANCH  12  13
ENDBRANCH   1  12
TORSDOF 16
ENDMDL
MODEL 9
REMARK VINA RESULT:    -3.772      2.982      5.916
REMARK INTER + INTRA:          -9.206
REMARK INTER:                  -7.508
REMARK INTRA:                  -1.698
REMARK UNBOUND:                -1.905
REMARK SMILES CCCCCCCCCCCCCCCCCC(=O)[O-]
REMARK SMILES IDX 10 1 11 2 12 3 13 4 14 5 15 6 16 7 17 8 18 9 19 10 20 11
REMARK SMILES IDX 9 12 8 13 7 14 6 15 5 16 4 17 3 18 2 19 1 20
REMARK H PARENT
REMARK Flexibility Score: inf
ROOT
ATOM      1  C   UNL     1       1.596 -36.888  18.087  1.00  0.00     0.000 C 
ENDROOT
BRANCH   1   2
ATOM      2  C   UNL     1       2.076 -36.870  16.627  1.00  0.00     0.000 C 
BRANCH   2   3
ATOM      3  C   UNL     1       2.996 -35.679  16.318  1.00  0.00     0.000 C 
BRANCH   3   4
ATOM      4  C   UNL     1       4.212 -35.668  17.259  1.00  0.00     0.000 C 
BRANCH   4   5
ATOM      5  C   UNL     1       4.269 -34.407  18.135  1.00  0.00     0.000 C 
BRANCH   5   6
ATOM      6  C   UNL     1       5.674 -34.144  18.703  1.00  0.00     0.000 C 
BRANCH   6   7
ATOM      7  C   UNL     1       5.858 -34.684  20.132  1.00  0.00     0.006 C 
BRANCH   7   8
ATOM      8  C   UNL     1       4.550 -34.776  20.937  1.00  0.00     0.053 C 
BRANCH   8   9
ATOM      9  C   UNL     1       4.275 -33.534  21.729  1.00  0.00     0.041 C 
ATOM     10  O   UNL     1       4.969 -33.266  22.745  1.00  0.00    -0.550 OA
ATOM     11  O   UNL     1       3.231 -32.692  21.369  1.00  0.00    -0.550 OA
ENDBRANCH   8   9
ENDBRANCH   7   8
ENDBRANCH   6   7
ENDBRANCH   5   6
ENDBRANCH   4   5
ENDBRANCH   3   4
ENDBRANCH   2   3
ENDBRANCH   1   2
BRANCH   1  12
ATOM     12  C   UNL     1       2.215 -38.039  18.898  1.00  0.00     0.000 C 
BRANCH  12  13
ATOM     13  C   UNL     1       3.233 -37.551  19.945  1.00  0.00    -0.000 C 
BRANCH  13  14
ATOM     14  C   UNL     1       4.662 -38.106  19.778  1.00  0.00    -0.000 C 
BRANCH  14  15
ATOM     15  C   UNL     1       5.438 -38.327  21.091  1.00  0.00    -0.000 C 
BRANCH  15  16
ATOM     16  C   UNL     1       4.709 -39.191  22.136  1.00  0.00    -0.000 C 
BRANCH  16  17
ATOM     17  C   UNL     1       4.708 -38.556  23.537  1.00  0.00    -0.000 C 
BRANCH  17  18
ATOM     18  C   UNL     1       5.092 -37.069  23.512  1.00  0.00    -0.000 C 
BRANCH  18  19
ATOM     19  C   UNL     1       5.174 -36.458  24.918  1.00  0.00    -0.003 C 
ATOM     20  C   UNL     1       4.312 -37.239  25.907  1.00  0.00     0.004 C 
ENDBRANCH  18  19
ENDBRANCH  17  18
ENDBRANCH  16  17
ENDBRANCH  15  16
ENDBRANCH  14  15
ENDBRANCH  13  14
ENDBRANCH  12  13
ENDBRANCH   1  12
TORSDOF 16
ENDMDL
