MODEL 1
REMARK VINA RESULT:    -0.586      0.000      0.000
REMARK INTER + INTRA:          -1.269
REMARK INTER:                  -0.998
REMARK INTRA:                  -0.271
REMARK UNBOUND:                -0.271
REMARK SMILES CCCCCCCCCCCCCC(=O)[O-]
REMARK SMILES IDX 8 1 9 2 10 3 11 4 12 5 13 6 14 7 15 8 16 9 7 10 6 11 5 12
REMARK SMILES IDX 4 13 3 14 2 15 1 16
REMARK H PARENT
REMARK Flexibility Score: inf
ROOT
ATOM      1  C   UNL     1      -0.304 -30.412  -4.203  1.00  0.00     0.000 C 
ENDROOT
BRANCH   1   2
ATOM      2  C   UNL     1      -1.422 -31.462  -4.311  1.00  0.00     0.000 C 
BRANCH   2   3
ATOM      3  C   UNL     1      -2.430 -31.376  -3.154  1.00  0.00     0.000 C 
BRANCH   3   4
ATOM      4  C   UNL     1      -3.740 -32.124  -3.446  1.00  0.00     0.000 C 
BRANCH   4   5
ATOM      5  C   UNL     1      -4.046 -32.125  -4.948  1.00  0.00     0.006 C 
BRANCH   5   6
ATOM      6  C   UNL     1      -4.270 -30.700  -5.467  1.00  0.00     0.053 C 
BRANCH   6   7
ATOM      7  C   UNL     1      -4.139 -30.659  -6.957  1.00  0.00     0.041 C 
ATOM      8  O   UNL     1      -3.580 -31.606  -7.569  1.00  0.00    -0.550 OA
ATOM      9  O   UNL     1      -4.681 -29.601  -7.673  1.00  0.00    -0.550 OA
ENDBRANCH   6   7
ENDBRANCH   5   6
ENDBRANCH   4   5
ENDBRANCH   3   4
ENDBRANCH   2   3
ENDBRANCH   1   2
BRANCH   1  10
ATOM     10  C   UNL     1       1.024 -31.011  -3.712  1.00  0.00     0.000 C 
BRANCH  10  11
ATOM     11  C   UNL     1       1.857 -31.624  -4.852  1.00  0.00    -0.000 C 
BRANCH  11  12
ATOM     12  C   UNL     1       1.454 -31.064  -6.233  1.00  0.00    -0.000 C 
BRANCH  12  13
ATOM     13  C   UNL     1       2.285 -31.635  -7.395  1.00  0.00    -0.000 C 
BRANCH  13  14
ATOM     14  C   UNL     1       3.741 -31.139  -7.386  1.00  0.00    -0.000 C 
BRANCH  14  15
ATOM     15  C   UNL     1       4.702 -32.125  -8.068  1.00  0.00    -0.003 C 
ATOM     16  C   UNL     1       6.140 -31.611  -8.123  1.00  0.00     0.004 C 
ENDBRANCH  14  15
ENDBRANCH  13  14
ENDBRANCH  12  13
ENDBRANCH  11  12
ENDBRANCH  10  11
ENDBRANCH   1  10
TORSDOF 12
ENDMDL
MODEL 2
REMARK VINA RESULT:     0.186      1.429      2.199
REMARK INTER + INTRA:           0.045
REMARK INTER:                   0.490
REMARK INTRA:                  -0.444
REMARK UNBOUND:                -0.271
REMARK SMILES CCCCCCCCCCCCCC(=O)[O-]
REMARK SMILES IDX 8 1 9 2 10 3 11 4 12 5 13 6 14 7 15 8 16 9 7 10 6 11 5 12
REMARK SMILES IDX 4 13 3 14 2 15 1 16
REMARK H PARENT
REMARK Flexibility Score: inf
ROOT
ATOM      1  C   UNL     1       0.215 -31.844  -5.258  1.00  0.00     0.000 C 
ENDROOT
BRANCH   1   2
ATOM      2  C   UNL     1      -0.869 -31.115  -4.446  1.00  0.00     0.000 C 
BRANCH   2   3
ATOM      3  C   UNL     1      -2.182 -31.910  -4.363  1.00  0.00     0.000 C 
BRANCH   3   4
ATOM      4  C   UNL     1      -3.407 -31.084  -4.784  1.00  0.00     0.000 C 
BRANCH   4   5
ATOM      5  C   UNL     1      -4.643 -31.979  -4.940  1.00  0.00     0.006 C 
BRANCH   5   6
ATOM      6  C   UNL     1      -5.082 -32.063  -6.406  1.00  0.00     0.053 C 
BRANCH   6   7
ATOM      7  C   UNL     1      -4.186 -31.232  -7.269  1.00  0.00     0.041 C 
ATOM      8  O   UNL     1      -4.373 -29.991  -7.365  1.00  0.00    -0.550 OA
ATOM      9  O   UNL     1      -3.111 -31.819  -7.924  1.00  0.00    -0.550 OA
ENDBRANCH   6   7
ENDBRANCH   5   6
ENDBRANCH   4   5
ENDBRANCH   3   4
ENDBRANCH   2   3
ENDBRANCH   1   2
BRANCH   1  10
ATOM     10  C   UNL     1       1.605 -31.746  -4.607  1.00  0.00     0.000 C 
BRANCH  10  11
ATOM     11  C   UNL     1       2.750 -31.918  -5.621  1.00  0.00    -0.000 C 
BRANCH  11  12
ATOM     12  C   UNL     1       2.226 -32.125  -7.060  1.00  0.00    -0.000 C 
BRANCH  12  13
ATOM     13  C   UNL     1       3.042 -31.372  -8.125  1.00  0.00    -0.000 C 
BRANCH  13  14
ATOM     14  C   UNL     1       3.516 -29.990  -7.646  1.00  0.00    -0.000 C 
BRANCH  14  15
ATOM     15  C   UNL     1       2.517 -28.874  -7.990  1.00  0.00    -0.003 C 
ATOM     16  C   UNL     1       2.279 -27.911  -6.828  1.00  0.00     0.004 C 
ENDBRANCH  14  15
ENDBRANCH  13  14
ENDBRANCH  12  13
ENDBRANCH  11  12
ENDBRANCH  10  11
ENDBRANCH   1  10
TORSDOF 12
ENDMDL
MODEL 3
REMARK VINA RESULT:     1.442      3.321      6.719
REMARK INTER + INTRA:           2.182
REMARK INTER:                   2.700
REMARK INTRA:                  -0.518
REMARK UNBOUND:                -0.271
REMARK SMILES CCCCCCCCCCCCCC(=O)[O-]
REMARK SMILES IDX 8 1 9 2 10 3 11 4 12 5 13 6 14 7 15 8 16 9 7 10 6 11 5 12
REMARK SMILES IDX 4 13 3 14 2 15 1 16
REMARK H PARENT
REMARK Flexibility Score: inf
ROOT
ATOM      1  C   UNL     1      -0.506 -31.061  -2.954  1.00  0.00     0.000 C 
ENDROOT
BRANCH   1   2
ATOM      2  C   UNL     1       0.195 -30.420  -4.163  1.00  0.00     0.000 C 
BRANCH   2   3
ATOM      3  C   UNL     1       0.245 -31.353  -5.383  1.00  0.00     0.000 C 
BRANCH   3   4
ATOM      4  C   UNL     1       1.572 -32.121  -5.494  1.00  0.00     0.000 C 
BRANCH   4   5
ATOM      5  C   UNL     1       2.082 -32.125  -6.940  1.00  0.00     0.006 C 
BRANCH   5   6
ATOM      6  C   UNL     1       2.691 -30.770  -7.314  1.00  0.00     0.053 C 
BRANCH   6   7
ATOM      7  C   UNL     1       4.102 -30.942  -7.782  1.00  0.00     0.041 C 
ATOM      8  O   UNL     1       4.576 -32.095  -7.951  1.00  0.00    -0.550 OA
ATOM      9  O   UNL     1       4.876 -29.828  -8.081  1.00  0.00    -0.550 OA
ENDBRANCH   6   7
ENDBRANCH   5   6
ENDBRANCH   4   5
ENDBRANCH   3   4
ENDBRANCH   2   3
ENDBRANCH   1   2
BRANCH   1  10
ATOM     10  C   UNL     1      -2.029 -30.842  -2.970  1.00  0.00     0.000 C 
BRANCH  10  11
ATOM     11  C   UNL     1      -2.745 -31.721  -4.010  1.00  0.00    -0.000 C 
BRANCH  11  12
ATOM     12  C   UNL     1      -3.638 -30.889  -4.958  1.00  0.00    -0.000 C 
BRANCH  12  13
ATOM     13  C   UNL     1      -4.966 -31.580  -5.314  1.00  0.00    -0.000 C 
BRANCH  13  14
ATOM     14  C   UNL     1      -5.030 -32.023  -6.785  1.00  0.00    -0.000 C 
BRANCH  14  15
ATOM     15  C   UNL     1      -4.035 -31.261  -7.674  1.00  0.00    -0.003 C 
ATOM     16  C   UNL     1      -2.787 -32.078  -8.003  1.00  0.00     0.004 C 
ENDBRANCH  14  15
ENDBRANCH  13  14
ENDBRANCH  12  13
ENDBRANCH  11  12
ENDBRANCH  10  11
ENDBRANCH   1  10
TORSDOF 12
ENDMDL
MODEL 4
REMARK VINA RESULT:     1.692      3.637      5.386
REMARK INTER + INTRA:           2.608
REMARK INTER:                   2.260
REMARK INTRA:                   0.349
REMARK UNBOUND:                -0.271
REMARK SMILES CCCCCCCCCCCCCC(=O)[O-]
REMARK SMILES IDX 8 1 9 2 10 3 11 4 12 5 13 6 14 7 15 8 16 9 7 10 6 11 5 12
REMARK SMILES IDX 4 13 3 14 2 15 1 16
REMARK H PARENT
REMARK Flexibility Score: inf
ROOT
ATOM      1  C   UNL     1      -3.388 -30.250  -5.074  1.00  0.00     0.000 C 
ENDROOT
BRANCH   1   2
ATOM      2  C   UNL     1      -3.598 -31.674  -4.534  1.00  0.00     0.000 C 
BRANCH   2   3
ATOM      3  C   UNL     1      -2.680 -31.999  -3.346  1.00  0.00     0.000 C 
BRANCH   3   4
ATOM      4  C   UNL     1      -1.198 -31.715  -3.641  1.00  0.00     0.000 C 
BRANCH   4   5
ATOM      5  C   UNL     1      -0.609 -30.750  -2.605  1.00  0.00     0.006 C 
BRANCH   5   6
ATOM      6  C   UNL     1       0.754 -31.240  -2.107  1.00  0.00     0.053 C 
BRANCH   6   7
ATOM      7  C   UNL     1       0.936 -30.900  -0.661  1.00  0.00     0.041 C 
ATOM      8  O   UNL     1       1.631 -29.905  -0.327  1.00  0.00    -0.550 OA
ATOM      9  O   UNL     1       0.295 -31.651   0.315  1.00  0.00    -0.550 OA
ENDBRANCH   6   7
ENDBRANCH   5   6
ENDBRANCH   4   5
ENDBRANCH   3   4
ENDBRANCH   2   3
ENDBRANCH   1   2
BRANCH   1  10
ATOM     10  C   UNL     1      -4.021 -30.044  -6.460  1.00  0.00     0.000 C 
BRANCH  10  11
ATOM     11  C   UNL     1      -3.627 -31.143  -7.463  1.00  0.00    -0.000 C 
BRANCH  11  12
ATOM     12  C   UNL     1      -2.592 -32.125  -6.873  1.00  0.00    -0.000 C 
BRANCH  12  13
ATOM     13  C   UNL     1      -1.248 -32.125  -7.622  1.00  0.00    -0.000 C 
BRANCH  13  14
ATOM     14  C   UNL     1      -0.039 -32.041  -6.676  1.00  0.00    -0.000 C 
BRANCH  14  15
ATOM     15  C   UNL     1       1.300 -32.124  -7.424  1.00  0.00    -0.003 C 
ATOM     16  C   UNL     1       2.501 -31.824  -6.528  1.00  0.00     0.004 C 
ENDBRANCH  14  15
ENDBRANCH  13  14
ENDBRANCH  12  13
ENDBRANCH  11  12
ENDBRANCH  10  11
ENDBRANCH   1  10
TORSDOF 12
ENDMDL
