MODEL 1
REMARK VINA RESULT:    -4.878      0.000      0.000
REMARK INTER + INTRA:         -11.545
REMARK INTER:                  -9.440
REMARK INTRA:                  -2.105
REMARK UNBOUND:                -2.105
REMARK SMILES CCCCCCCCCCCCCCCCCC(=O)[O-]
REMARK SMILES IDX 10 1 11 2 12 3 13 4 14 5 15 6 16 7 17 8 18 9 19 10 20 11
REMARK SMILES IDX 9 12 8 13 7 14 6 15 5 16 4 17 3 18 2 19 1 20
REMARK H PARENT
REMARK Flexibility Score: inf
ROOT
ATOM      1  C   UNL     1     -20.991 -26.386  16.449  1.00  0.00     0.000 C 
ENDROOT
BRANCH   1   2
ATOM      2  C   UNL     1     -20.827 -27.914  16.399  1.00  0.00     0.000 C 
BRANCH   2   3
ATOM      3  C   UNL     1     -21.743 -28.575  15.353  1.00  0.00     0.000 C 
BRANCH   3   4
ATOM      4  C   UNL     1     -20.952 -29.249  14.219  1.00  0.00     0.000 C 
BRANCH   4   5
ATOM      5  C   UNL     1     -20.214 -28.235  13.328  1.00  0.00     0.000 C 
BRANCH   5   6
ATOM      6  C   UNL     1     -18.735 -28.598  13.120  1.00  0.00     0.000 C 
BRANCH   6   7
ATOM      7  C   UNL     1     -17.784 -27.469  13.555  1.00  0.00     0.006 C 
BRANCH   7   8
ATOM      8  C   UNL     1     -17.563 -27.449  15.074  1.00  0.00     0.053 C 
BRANCH   8   9
ATOM      9  C   UNL     1     -16.285 -26.762  15.443  1.00  0.00     0.041 C 
ATOM     10  O   UNL     1     -15.927 -25.720  14.834  1.00  0.00    -0.550 OA
ATOM     11  O   UNL     1     -15.472 -27.294  16.435  1.00  0.00    -0.550 OA
ENDBRANCH   8   9
ENDBRANCH   7   8
ENDBRANCH   6   7
ENDBRANCH   5   6
ENDBRANCH   4   5
ENDBRANCH   3   4
ENDBRANCH   2   3
ENDBRANCH   1   2
BRANCH   1  12
ATOM     12  C   UNL     1     -21.968 -25.859  15.384  1.00  0.00     0.000 C 
BRANCH  12  13
ATOM     13  C   UNL     1     -21.340 -24.775  14.494  1.00  0.00    -0.000 C 
BRANCH  13  14
ATOM     14  C   UNL     1     -19.866 -24.509  14.834  1.00  0.00    -0.000 C 
BRANCH  14  15
ATOM     15  C   UNL     1     -19.087 -24.064  13.590  1.00  0.00    -0.000 C 
BRANCH  15  16
ATOM     16  C   UNL     1     -19.947 -23.156  12.698  1.00  0.00    -0.000 C 
BRANCH  16  17
ATOM     17  C   UNL     1     -19.190 -22.661  11.456  1.00  0.00    -0.000 C 
BRANCH  17  18
ATOM     18  C   UNL     1     -19.118 -21.127  11.381  1.00  0.00    -0.000 C 
BRANCH  18  19
ATOM     19  C   UNL     1     -19.814 -20.566  10.131  1.00  0.00    -0.003 C 
ATOM     20  C   UNL     1     -20.215 -21.656   9.140  1.00  0.00     0.004 C 
ENDBRANCH  18  19
ENDBRANCH  17  18
ENDBRANCH  16  17
ENDBRANCH  15  16
ENDBRANCH  14  15
ENDBRANCH  13  14
ENDBRANCH  12  13
ENDBRANCH   1  12
TORSDOF 16
ENDMDL
MODEL 2
REMARK VINA RESULT:    -4.868      3.146      5.534
REMARK INTER + INTRA:         -11.526
REMARK INTER:                  -9.127
REMARK INTRA:                  -2.400
REMARK UNBOUND:                -2.105
REMARK SMILES CCCCCCCCCCCCCCCCCC(=O)[O-]
REMARK SMILES IDX 10 1 11 2 12 3 13 4 14 5 15 6 16 7 17 8 18 9 19 10 20 11
REMARK SMILES IDX 9 12 8 13 7 14 6 15 5 16 4 17 3 18 2 19 1 20
REMARK H PARENT
REMARK Flexibility Score: inf
ROOT
ATOM      1  C   UNL     1     -20.202 -25.383  15.417  1.00  0.00     0.000 C 
ENDROOT
BRANCH   1   2
ATOM      2  C   UNL     1     -20.697 -26.357  14.336  1.00  0.00     0.000 C 
BRANCH   2   3
ATOM      3  C   UNL     1     -20.332 -27.820  14.644  1.00  0.00     0.000 C 
BRANCH   3   4
ATOM      4  C   UNL     1     -20.158 -28.079  16.150  1.00  0.00     0.000 C 
BRANCH   4   5
ATOM      5  C   UNL     1     -20.940 -29.314  16.633  1.00  0.00     0.000 C 
BRANCH   5   6
ATOM      6  C   UNL     1     -22.446 -29.042  16.775  1.00  0.00     0.000 C 
BRANCH   6   7
ATOM      7  C   UNL     1     -22.764 -28.069  17.924  1.00  0.00     0.006 C 
BRANCH   7   8
ATOM      8  C   UNL     1     -23.998 -27.206  17.628  1.00  0.00     0.053 C 
BRANCH   8   9
ATOM      9  C   UNL     1     -23.622 -25.808  17.245  1.00  0.00     0.041 C 
ATOM     10  O   UNL     1     -23.253 -24.988  18.125  1.00  0.00    -0.550 OA
ATOM     11  O   UNL     1     -23.714 -25.402  15.921  1.00  0.00    -0.550 OA
ENDBRANCH   8   9
ENDBRANCH   7   8
ENDBRANCH   6   7
ENDBRANCH   5   6
ENDBRANCH   4   5
ENDBRANCH   3   4
ENDBRANCH   2   3
ENDBRANCH   1   2
BRANCH   1  12
ATOM     12  C   UNL     1     -19.597 -24.098  14.826  1.00  0.00     0.000 C 
BRANCH  12  13
ATOM     13  C   UNL     1     -20.102 -23.810  13.404  1.00  0.00    -0.000 C 
BRANCH  13  14
ATOM     14  C   UNL     1     -18.966 -23.472  12.427  1.00  0.00    -0.000 C 
BRANCH  14  15
ATOM     15  C   UNL     1     -18.557 -24.705  11.612  1.00  0.00    -0.000 C 
BRANCH  15  16
ATOM     16  C   UNL     1     -17.152 -25.185  12.008  1.00  0.00    -0.000 C 
BRANCH  16  17
ATOM     17  C   UNL     1     -17.179 -26.203  13.159  1.00  0.00    -0.000 C 
BRANCH  17  18
ATOM     18  C   UNL     1     -16.117 -25.911  14.232  1.00  0.00    -0.000 C 
BRANCH  18  19
ATOM     19  C   UNL     1     -16.592 -26.276  15.646  1.00  0.00    -0.003 C 
ATOM     20  C   UNL     1     -15.580 -25.894  16.725  1.00  0.00     0.004 C 
ENDBRANCH  18  19
ENDBRANCH  17  18
ENDBRANCH  16  17
ENDBRANCH  15  16
ENDBRANCH  14  15
ENDBRANCH  13  14
ENDBRANCH  12  13
ENDBRANCH   1  12
TORSDOF 16
ENDMDL
MODEL 3
REMARK VINA RESULT:    -4.819      6.924      9.072
REMARK INTER + INTRA:         -11.431
REMARK INTER:                  -9.611
REMARK INTRA:                  -1.820
REMARK UNBOUND:                -2.105
REMARK SMILES CCCCCCCCCCCCCCCCCC(=O)[O-]
REMARK SMILES IDX 10 1 11 2 12 3 13 4 14 5 15 6 16 7 17 8 18 9 19 10 20 11
REMARK SMILES IDX 9 12 8 13 7 14 6 15 5 16 4 17 3 18 2 19 1 20
REMARK H PARENT
REMARK Flexibility Score: inf
ROOT
ATOM      1  C   UNL     1     -27.983 -25.359  14.204  1.00  0.00     0.000 C 
ENDROOT
BRANCH   1   2
ATOM      2  C   UNL     1     -27.978 -25.810  15.675  1.00  0.00     0.000 C 
BRANCH   2   3
ATOM      3  C   UNL     1     -26.683 -25.423  16.409  1.00  0.00     0.000 C 
BRANCH   3   4
ATOM      4  C   UNL     1     -25.570 -24.976  15.446  1.00  0.00     0.000 C 
BRANCH   4   5
ATOM      5  C   UNL     1     -24.192 -25.541  15.829  1.00  0.00     0.000 C 
BRANCH   5   6
ATOM      6  C   UNL     1     -24.076 -25.854  17.329  1.00  0.00     0.000 C 
BRANCH   6   7
ATOM      7  C   UNL     1     -23.715 -27.325  17.600  1.00  0.00     0.006 C 
BRANCH   7   8
ATOM      8  C   UNL     1     -22.226 -27.609  17.363  1.00  0.00     0.053 C 
BRANCH   8   9
ATOM      9  C   UNL     1     -22.013 -28.546  16.214  1.00  0.00     0.041 C 
ATOM     10  O   UNL     1     -21.648 -28.102  15.094  1.00  0.00    -0.550 OA
ATOM     11  O   UNL     1     -22.252 -29.904  16.371  1.00  0.00    -0.550 OA
ENDBRANCH   8   9
ENDBRANCH   7   8
ENDBRANCH   6   7
ENDBRANCH   5   6
ENDBRANCH   4   5
ENDBRANCH   3   4
ENDBRANCH   2   3
ENDBRANCH   1   2
BRANCH   1  12
ATOM     12  C   UNL     1     -28.929 -24.174  13.951  1.00  0.00     0.000 C 
BRANCH  12  13
ATOM     13  C   UNL     1     -30.389 -24.617  13.764  1.00  0.00    -0.000 C 
BRANCH  13  14
ATOM     14  C   UNL     1     -31.392 -23.627  14.376  1.00  0.00    -0.000 C 
BRANCH  14  15
ATOM     15  C   UNL     1     -30.766 -22.868  15.553  1.00  0.00    -0.000 C 
BRANCH  15  16
ATOM     16  C   UNL     1     -30.961 -23.636  16.869  1.00  0.00    -0.000 C 
BRANCH  16  17
ATOM     17  C   UNL     1     -29.825 -23.383  17.872  1.00  0.00    -0.000 C 
BRANCH  17  18
ATOM     18  C   UNL     1     -28.966 -22.163  17.497  1.00  0.00    -0.000 C 
BRANCH  18  19
ATOM     19  C   UNL     1     -29.203 -20.967  18.431  1.00  0.00    -0.003 C 
ATOM     20  C   UNL     1     -29.903 -19.803  17.733  1.00  0.00     0.004 C 
ENDBRANCH  18  19
ENDBRANCH  17  18
ENDBRANCH  16  17
ENDBRANCH  15  16
ENDBRANCH  14  15
ENDBRANCH  13  14
ENDBRANCH  12  13
ENDBRANCH   1  12
TORSDOF 16
ENDMDL
MODEL 4
REMARK VINA RESULT:    -4.805      1.826      5.726
REMARK INTER + INTRA:         -11.405
REMARK INTER:                  -9.344
REMARK INTRA:                  -2.060
REMARK UNBOUND:                -2.105
REMARK SMILES CCCCCCCCCCCCCCCCCC(=O)[O-]
REMARK SMILES IDX 10 1 11 2 12 3 13 4 14 5 15 6 16 7 17 8 18 9 19 10 20 11
REMARK SMILES IDX 9 12 8 13 7 14 6 15 5 16 4 17 3 18 2 19 1 20
REMARK H PARENT
REMARK Flexibility Score: inf
ROOT
ATOM      1  C   UNL     1     -20.042 -24.114  14.417  1.00  0.00     0.000 C 
ENDROOT
BRANCH   1   2
ATOM      2  C   UNL     1     -20.817 -24.054  13.091  1.00  0.00     0.000 C 
BRANCH   2   3
ATOM      3  C   UNL     1     -19.949 -23.562  11.919  1.00  0.00     0.000 C 
BRANCH   3   4
ATOM      4  C   UNL     1     -18.444 -23.669  12.215  1.00  0.00     0.000 C 
BRANCH   4   5
ATOM      5  C   UNL     1     -17.886 -25.077  11.942  1.00  0.00     0.000 C 
BRANCH   5   6
ATOM      6  C   UNL     1     -16.669 -25.411  12.820  1.00  0.00     0.000 C 
BRANCH   6   7
ATOM      7  C   UNL     1     -17.018 -26.373  13.970  1.00  0.00     0.006 C 
BRANCH   7   8
ATOM      8  C   UNL     1     -16.816 -25.727  15.348  1.00  0.00     0.053 C 
BRANCH   8   9
ATOM      9  C   UNL     1     -15.656 -26.327  16.080  1.00  0.00     0.041 C 
ATOM     10  O   UNL     1     -15.689 -27.533  16.441  1.00  0.00    -0.550 OA
ATOM     11  O   UNL     1     -14.553 -25.545  16.396  1.00  0.00    -0.550 OA
ENDBRANCH   8   9
ENDBRANCH   7   8
ENDBRANCH   6   7
ENDBRANCH   5   6
ENDBRANCH   4   5
ENDBRANCH   3   4
ENDBRANCH   2   3
ENDBRANCH   1   2
BRANCH   1  12
ATOM     12  C   UNL     1     -20.471 -25.297  15.303  1.00  0.00     0.000 C 
BRANCH  12  13
ATOM     13  C   UNL     1     -20.631 -26.601  14.505  1.00  0.00    -0.000 C 
BRANCH  13  14
ATOM     14  C   UNL     1     -20.238 -27.844  15.317  1.00  0.00    -0.000 C 
BRANCH  14  15
ATOM     15  C   UNL     1     -21.241 -28.984  15.096  1.00  0.00    -0.000 C 
BRANCH  15  16
ATOM     16  C   UNL     1     -22.050 -29.260  16.372  1.00  0.00    -0.000 C 
BRANCH  16  17
ATOM     17  C   UNL     1     -22.168 -28.022  17.274  1.00  0.00    -0.000 C 
BRANCH  17  18
ATOM     18  C   UNL     1     -23.497 -27.980  18.049  1.00  0.00    -0.000 C 
BRANCH  18  19
ATOM     19  C   UNL     1     -24.241 -26.648  17.869  1.00  0.00    -0.003 C 
ATOM     20  C   UNL     1     -23.931 -25.974  16.534  1.00  0.00     0.004 C 
ENDBRANCH  18  19
ENDBRANCH  17  18
ENDBRANCH  16  17
ENDBRANCH  15  16
ENDBRANCH  14  15
ENDBRANCH  13  14
ENDBRANCH  12  13
ENDBRANCH   1  12
TORSDOF 16
ENDMDL
MODEL 5
REMARK VINA RESULT:    -4.791      4.159      6.514
REMARK INTER + INTRA:         -11.376
REMARK INTER:                  -9.106
REMARK INTRA:                  -2.270
REMARK UNBOUND:                -2.105
REMARK SMILES CCCCCCCCCCCCCCCCCC(=O)[O-]
REMARK SMILES IDX 10 1 11 2 12 3 13 4 14 5 15 6 16 7 17 8 18 9 19 10 20 11
REMARK SMILES IDX 9 12 8 13 7 14 6 15 5 16 4 17 3 18 2 19 1 20
REMARK H PARENT
REMARK Flexibility Score: inf
ROOT
ATOM      1  C   UNL     1     -21.019 -26.945  15.158  1.00  0.00     0.000 C 
ENDROOT
BRANCH   1   2
ATOM      2  C   UNL     1     -20.903 -27.863  16.387  1.00  0.00     0.000 C 
BRANCH   2   3
ATOM      3  C   UNL     1     -22.106 -28.811  16.533  1.00  0.00     0.000 C 
BRANCH   3   4
ATOM      4  C   UNL     1     -23.039 -28.406  17.687  1.00  0.00     0.000 C 
BRANCH   4   5
ATOM      5  C   UNL     1     -22.592 -27.109  18.383  1.00  0.00     0.000 C 
BRANCH   5   6
ATOM      6  C   UNL     1     -23.612 -25.971  18.225  1.00  0.00     0.000 C 
BRANCH   6   7
ATOM      7  C   UNL     1     -24.736 -26.319  17.233  1.00  0.00     0.006 C 
BRANCH   7   8
ATOM      8  C   UNL     1     -24.861 -25.279  16.111  1.00  0.00     0.053 C 
BRANCH   8   9
ATOM      9  C   UNL     1     -26.292 -24.947  15.816  1.00  0.00     0.041 C 
ATOM     10  O   UNL     1     -27.216 -25.685  16.249  1.00  0.00    -0.550 OA
ATOM     11  O   UNL     1     -26.601 -23.843  15.033  1.00  0.00    -0.550 OA
ENDBRANCH   8   9
ENDBRANCH   7   8
ENDBRANCH   6   7
ENDBRANCH   5   6
ENDBRANCH   4   5
ENDBRANCH   3   4
ENDBRANCH   2   3
ENDBRANCH   1   2
BRANCH   1  12
ATOM     12  C   UNL     1     -20.705 -25.475  15.483  1.00  0.00     0.000 C 
BRANCH  12  13
ATOM     13  C   UNL     1     -20.827 -24.561  14.254  1.00  0.00    -0.000 C 
BRANCH  13  14
ATOM     14  C   UNL     1     -19.509 -23.852  13.908  1.00  0.00    -0.000 C 
BRANCH  14  15
ATOM     15  C   UNL     1     -18.860 -24.473  12.665  1.00  0.00    -0.000 C 
BRANCH  15  16
ATOM     16  C   UNL     1     -17.561 -25.207  13.031  1.00  0.00    -0.000 C 
BRANCH  16  17
ATOM     17  C   UNL     1     -17.801 -26.674  13.420  1.00  0.00    -0.000 C 
BRANCH  17  18
ATOM     18  C   UNL     1     -17.133 -27.049  14.753  1.00  0.00    -0.000 C 
BRANCH  18  19
ATOM     19  C   UNL     1     -16.965 -25.841  15.688  1.00  0.00    -0.003 C 
ATOM     20  C   UNL     1     -15.644 -25.869  16.456  1.00  0.00     0.004 C 
ENDBRANCH  18  19
ENDBRANCH  17  18
ENDBRANCH  16  17
ENDBRANCH  15  16
ENDBRANCH  14  15
ENDBRANCH  13  14
ENDBRANCH  12  13
ENDBRANCH   1  12
TORSDOF 16
ENDMDL
MODEL 6
REMARK VINA RESULT:    -4.785      3.387      4.799
REMARK INTER + INTRA:         -11.366
REMARK INTER:                  -9.593
REMARK INTRA:                  -1.773
REMARK UNBOUND:                -2.105
REMARK SMILES CCCCCCCCCCCCCCCCCC(=O)[O-]
REMARK SMILES IDX 10 1 11 2 12 3 13 4 14 5 15 6 16 7 17 8 18 9 19 10 20 11
REMARK SMILES IDX 9 12 8 13 7 14 6 15 5 16 4 17 3 18 2 19 1 20
REMARK H PARENT
REMARK Flexibility Score: inf
ROOT
ATOM      1  C   UNL     1     -19.627 -24.338  14.612  1.00  0.00     0.000 C 
ENDROOT
BRANCH   1   2
ATOM      2  C   UNL     1     -18.924 -25.677  14.333  1.00  0.00     0.000 C 
BRANCH   2   3
ATOM      3  C   UNL     1     -17.477 -25.707  14.855  1.00  0.00     0.000 C 
BRANCH   3   4
ATOM      4  C   UNL     1     -16.444 -25.824  13.721  1.00  0.00     0.000 C 
BRANCH   4   5
ATOM      5  C   UNL     1     -16.926 -25.176  12.411  1.00  0.00     0.000 C 
BRANCH   5   6
ATOM      6  C   UNL     1     -16.867 -26.142  11.217  1.00  0.00     0.000 C 
BRANCH   6   7
ATOM      7  C   UNL     1     -17.599 -25.594   9.979  1.00  0.00     0.006 C 
BRANCH   7   8
ATOM      8  C   UNL     1     -17.372 -26.469   8.738  1.00  0.00     0.053 C 
BRANCH   8   9
ATOM      9  C   UNL     1     -16.465 -25.806   7.747  1.00  0.00     0.041 C 
ATOM     10  O   UNL     1     -16.933 -25.332   6.679  1.00  0.00    -0.550 OA
ATOM     11  O   UNL     1     -15.099 -25.744   7.987  1.00  0.00    -0.550 OA
ENDBRANCH   8   9
ENDBRANCH   7   8
ENDBRANCH   6   7
ENDBRANCH   5   6
ENDBRANCH   4   5
ENDBRANCH   3   4
ENDBRANCH   2   3
ENDBRANCH   1   2
BRANCH   1  12
ATOM     12  C   UNL     1     -20.919 -24.163  13.796  1.00  0.00     0.000 C 
BRANCH  12  13
ATOM     13  C   UNL     1     -20.664 -23.524  12.422  1.00  0.00    -0.000 C 
BRANCH  13  14
ATOM     14  C   UNL     1     -19.891 -22.200  12.518  1.00  0.00    -0.000 C 
BRANCH  14  15
ATOM     15  C   UNL     1     -18.989 -22.001  11.293  1.00  0.00    -0.000 C 
BRANCH  15  16
ATOM     16  C   UNL     1     -19.749 -21.295  10.159  1.00  0.00    -0.000 C 
BRANCH  16  17
ATOM     17  C   UNL     1     -19.938 -22.195   8.928  1.00  0.00    -0.000 C 
BRANCH  17  18
ATOM     18  C   UNL     1     -21.099 -21.732   8.031  1.00  0.00    -0.000 C 
BRANCH  18  19
ATOM     19  C   UNL     1     -22.473 -21.982   8.670  1.00  0.00    -0.003 C 
ATOM     20  C   UNL     1     -22.658 -23.429   9.124  1.00  0.00     0.004 C 
ENDBRANCH  18  19
ENDBRANCH  17  18
ENDBRANCH  16  17
ENDBRANCH  15  16
ENDBRANCH  14  15
ENDBRANCH  13  14
ENDBRANCH  12  13
ENDBRANCH   1  12
TORSDOF 16
ENDMDL
MODEL 7
REMARK VINA RESULT:    -4.744     10.483     13.274
REMARK INTER + INTRA:         -11.286
REMARK INTER:                  -9.302
REMARK INTRA:                  -1.983
REMARK UNBOUND:                -2.105
REMARK SMILES CCCCCCCCCCCCCCCCCC(=O)[O-]
REMARK SMILES IDX 10 1 11 2 12 3 13 4 14 5 15 6 16 7 17 8 18 9 19 10 20 11
REMARK SMILES IDX 9 12 8 13 7 14 6 15 5 16 4 17 3 18 2 19 1 20
REMARK H PARENT
REMARK Flexibility Score: inf
ROOT
ATOM      1  C   UNL     1     -20.420 -26.180   0.501  1.00  0.00     0.000 C 
ENDROOT
BRANCH   1   2
ATOM      2  C   UNL     1     -21.877 -26.223   0.991  1.00  0.00     0.000 C 
BRANCH   2   3
ATOM      3  C   UNL     1     -22.248 -25.002   1.852  1.00  0.00     0.000 C 
BRANCH   3   4
ATOM      4  C   UNL     1     -23.104 -25.380   3.072  1.00  0.00     0.000 C 
BRANCH   4   5
ATOM      5  C   UNL     1     -22.928 -26.852   3.487  1.00  0.00     0.000 C 
BRANCH   5   6
ATOM      6  C   UNL     1     -23.720 -27.208   4.755  1.00  0.00     0.000 C 
BRANCH   6   7
ATOM      7  C   UNL     1     -24.724 -28.350   4.522  1.00  0.00     0.006 C 
BRANCH   7   8
ATOM      8  C   UNL     1     -24.703 -29.382   5.658  1.00  0.00     0.053 C 
BRANCH   8   9
ATOM      9  C   UNL     1     -25.810 -29.151   6.641  1.00  0.00     0.041 C 
ATOM     10  O   UNL     1     -25.577 -28.568   7.732  1.00  0.00    -0.550 OA
ATOM     11  O   UNL     1     -27.090 -29.614   6.367  1.00  0.00    -0.550 OA
ENDBRANCH   8   9
ENDBRANCH   7   8
ENDBRANCH   6   7
ENDBRANCH   5   6
ENDBRANCH   4   5
ENDBRANCH   3   4
ENDBRANCH   2   3
ENDBRANCH   1   2
BRANCH   1  12
ATOM     12  C   UNL     1     -19.447 -26.872   1.470  1.00  0.00     0.000 C 
BRANCH  12  13
ATOM     13  C   UNL     1     -19.880 -28.306   1.814  1.00  0.00    -0.000 C 
BRANCH  13  14
ATOM     14  C   UNL     1     -19.781 -28.612   3.316  1.00  0.00    -0.000 C 
BRANCH  14  15
ATOM     15  C   UNL     1     -20.632 -29.834   3.685  1.00  0.00    -0.000 C 
BRANCH  15  16
ATOM     16  C   UNL     1     -21.754 -30.052   2.659  1.00  0.00    -0.000 C 
BRANCH  16  17
ATOM     17  C   UNL     1     -22.666 -31.234   3.025  1.00  0.00    -0.000 C 
BRANCH  17  18
ATOM     18  C   UNL     1     -21.913 -32.575   3.050  1.00  0.00    -0.000 C 
BRANCH  18  19
ATOM     19  C   UNL     1     -22.170 -33.419   1.793  1.00  0.00    -0.003 C 
ATOM     20  C   UNL     1     -22.764 -34.790   2.113  1.00  0.00     0.004 C 
ENDBRANCH  18  19
ENDBRANCH  17  18
ENDBRANCH  16  17
ENDBRANCH  15  16
ENDBRANCH  14  15
ENDBRANCH  13  14
ENDBRANCH  12  13
ENDBRANCH   1  12
TORSDOF 16
ENDMDL
MODEL 8
REMARK VINA RESULT:    -4.735      8.864     10.560
REMARK INTER + INTRA:         -11.269
REMARK INTER:                  -9.362
REMARK INTRA:                  -1.907
REMARK UNBOUND:                -2.105
REMARK SMILES CCCCCCCCCCCCCCCCCC(=O)[O-]
REMARK SMILES IDX 10 1 11 2 12 3 13 4 14 5 15 6 16 7 17 8 18 9 19 10 20 11
REMARK SMILES IDX 9 12 8 13 7 14 6 15 5 16 4 17 3 18 2 19 1 20
REMARK H PARENT
REMARK Flexibility Score: inf
ROOT
ATOM      1  C   UNL     1     -24.026 -27.771   4.117  1.00  0.00     0.000 C 
ENDROOT
BRANCH   1   2
ATOM      2  C   UNL     1     -23.909 -29.117   3.382  1.00  0.00     0.000 C 
BRANCH   2   3
ATOM      3  C   UNL     1     -22.459 -29.627   3.307  1.00  0.00     0.000 C 
BRANCH   3   4
ATOM      4  C   UNL     1     -22.378 -31.132   3.002  1.00  0.00     0.000 C 
BRANCH   4   5
ATOM      5  C   UNL     1     -22.565 -32.002   4.257  1.00  0.00     0.000 C 
BRANCH   5   6
ATOM      6  C   UNL     1     -22.211 -31.255   5.553  1.00  0.00     0.000 C 
BRANCH   6   7
ATOM      7  C   UNL     1     -23.283 -31.424   6.643  1.00  0.00     0.006 C 
BRANCH   7   8
ATOM      8  C   UNL     1     -23.250 -30.283   7.670  1.00  0.00     0.053 C 
BRANCH   8   9
ATOM      9  C   UNL     1     -22.509 -30.672   8.912  1.00  0.00     0.041 C 
ATOM     10  O   UNL     1     -21.830 -29.816   9.538  1.00  0.00    -0.550 OA
ATOM     11  O   UNL     1     -22.539 -31.987   9.356  1.00  0.00    -0.550 OA
ENDBRANCH   8   9
ENDBRANCH   7   8
ENDBRANCH   6   7
ENDBRANCH   5   6
ENDBRANCH   4   5
ENDBRANCH   3   4
ENDBRANCH   2   3
ENDBRANCH   1   2
BRANCH   1  12
ATOM     12  C   UNL     1     -25.241 -27.713   5.059  1.00  0.00     0.000 C 
BRANCH  12  13
ATOM     13  C   UNL     1     -25.775 -29.109   5.417  1.00  0.00    -0.000 C 
BRANCH  13  14
ATOM     14  C   UNL     1     -27.243 -29.085   5.868  1.00  0.00    -0.000 C 
BRANCH  14  15
ATOM     15  C   UNL     1     -27.377 -29.544   7.325  1.00  0.00    -0.000 C 
BRANCH  15  16
ATOM     16  C   UNL     1     -27.734 -28.365   8.243  1.00  0.00    -0.000 C 
BRANCH  16  17
ATOM     17  C   UNL     1     -26.608 -28.027   9.233  1.00  0.00    -0.000 C 
BRANCH  17  18
ATOM     18  C   UNL     1     -25.659 -26.941   8.699  1.00  0.00    -0.000 C 
BRANCH  18  19
ATOM     19  C   UNL     1     -25.914 -25.568   9.341  1.00  0.00    -0.003 C 
ATOM     20  C   UNL     1     -27.160 -25.553  10.225  1.00  0.00     0.004 C 
ENDBRANCH  18  19
ENDBRANCH  17  18
ENDBRANCH  16  17
ENDBRANCH  15  16
ENDBRANCH  14  15
ENDBRANCH  13  14
ENDBRANCH  12  13
ENDBRANCH   1  12
TORSDOF 16
ENDMDL
MODEL 9
REMARK VINA RESULT:    -4.705     10.468     13.360
REMARK INTER + INTRA:         -11.210
REMARK INTER:                  -8.990
REMARK INTRA:                  -2.220
REMARK UNBOUND:                -2.105
REMARK SMILES CCCCCCCCCCCCCCCCCC(=O)[O-]
REMARK SMILES IDX 10 1 11 2 12 3 13 4 14 5 15 6 16 7 17 8 18 9 19 10 20 11
REMARK SMILES IDX 9 12 8 13 7 14 6 15 5 16 4 17 3 18 2 19 1 20
REMARK H PARENT
REMARK Flexibility Score: inf
ROOT
ATOM      1  C   UNL     1     -21.384 -27.269   2.780  1.00  0.00     0.000 C 
ENDROOT
BRANCH   1   2
ATOM      2  C   UNL     1     -20.812 -27.990   1.548  1.00  0.00     0.000 C 
BRANCH   2   3
ATOM      3  C   UNL     1     -19.439 -27.440   1.125  1.00  0.00     0.000 C 
BRANCH   3   4
ATOM      4  C   UNL     1     -19.541 -26.069   0.435  1.00  0.00     0.000 C 
BRANCH   4   5
ATOM      5  C   UNL     1     -20.483 -26.086  -0.781  1.00  0.00     0.000 C 
BRANCH   5   6
ATOM      6  C   UNL     1     -21.678 -25.133  -0.617  1.00  0.00     0.000 C 
BRANCH   6   7
ATOM      7  C   UNL     1     -21.528 -24.202   0.599  1.00  0.00     0.006 C 
BRANCH   7   8
ATOM      8  C   UNL     1     -22.820 -24.110   1.422  1.00  0.00     0.053 C 
BRANCH   8   9
ATOM      9  C   UNL     1     -22.959 -22.779   2.096  1.00  0.00     0.041 C 
ATOM     10  O   UNL     1     -23.423 -22.706   3.264  1.00  0.00    -0.550 OA
ATOM     11  O   UNL     1     -22.609 -21.618   1.420  1.00  0.00    -0.550 OA
ENDBRANCH   8   9
ENDBRANCH   7   8
ENDBRANCH   6   7
ENDBRANCH   5   6
ENDBRANCH   4   5
ENDBRANCH   3   4
ENDBRANCH   2   3
ENDBRANCH   1   2
BRANCH   1  12
ATOM     12  C   UNL     1     -22.888 -27.527   2.973  1.00  0.00     0.000 C 
BRANCH  12  13
ATOM     13  C   UNL     1     -23.509 -26.616   4.043  1.00  0.00    -0.000 C 
BRANCH  13  14
ATOM     14  C   UNL     1     -24.065 -27.401   5.241  1.00  0.00    -0.000 C 
BRANCH  14  15
ATOM     15  C   UNL     1     -24.852 -28.632   4.773  1.00  0.00    -0.000 C 
BRANCH  15  16
ATOM     16  C   UNL     1     -25.044 -29.631   5.924  1.00  0.00    -0.000 C 
BRANCH  16  17
ATOM     17  C   UNL     1     -23.717 -30.236   6.407  1.00  0.00    -0.000 C 
BRANCH  17  18
ATOM     18  C   UNL     1     -23.216 -31.367   5.494  1.00  0.00    -0.000 C 
BRANCH  18  19
ATOM     19  C   UNL     1     -22.054 -30.925   4.591  1.00  0.00    -0.003 C 
ATOM     20  C   UNL     1     -22.326 -31.184   3.110  1.00  0.00     0.004 C 
ENDBRANCH  18  19
ENDBRANCH  17  18
ENDBRANCH  16  17
ENDBRANCH  15  16
ENDBRANCH  14  15
ENDBRANCH  13  14
ENDBRANCH  12  13
ENDBRANCH   1  12
TORSDOF 16
ENDMDL
