MODEL 1
REMARK VINA RESULT:    -5.331      0.000      0.000
REMARK INTER + INTRA:          -6.772
REMARK INTER:                  -6.422
REMARK INTRA:                  -0.350
REMARK UNBOUND:                -0.350
REMARK SMILES O=c1c(O)c(-c2ccc(O)cc2O)oc2cc(O)cc(O)c12
REMARK SMILES IDX 5 1 3 2 2 3 1 4 22 5 20 6 19 7 17 8 16 9 15 10 14 11 6 12
REMARK SMILES IDX 8 13 7 14 9 15 11 16 12 17 10 18 13 20 4 22 21 24 18 26
REMARK H PARENT 10 19 13 21 4 23 21 25 18 27
REMARK Flexibility Score: inf
ROOT
ATOM      1  C   UNL     1      27.935  38.974  20.377  1.00  0.00     0.184 A 
ATOM      2  C   UNL     1      27.473  39.785  19.328  1.00  0.00     0.208 A 
ATOM      3  C   UNL     1      27.362  41.169  19.536  1.00  0.00     0.238 A 
ATOM      4  O   UNL     1      26.878  41.880  18.617  1.00  0.00    -0.285 OA
ATOM      5  C   UNL     1      27.766  41.730  20.772  1.00  0.00     0.111 A 
ATOM      6  C   UNL     1      27.739  43.125  21.078  1.00  0.00     0.134 A 
ATOM      7  C   UNL     1      28.064  43.554  22.371  1.00  0.00     0.093 A 
ATOM      8  C   UNL     1      28.474  42.650  23.349  1.00  0.00     0.123 A 
ATOM      9  C   UNL     1      28.558  41.291  23.046  1.00  0.00     0.094 A 
ATOM     10  C   UNL     1      28.204  40.827  21.776  1.00  0.00     0.146 A 
ATOM     11  O   UNL     1      28.277  39.523  21.536  1.00  0.00    -0.451 OA
ENDROOT
BRANCH   1  12
ATOM     12  C   UNL     1      28.068  37.511  20.227  1.00  0.00     0.063 A 
ATOM     13  C   UNL     1      29.125  35.625  19.114  1.00  0.00     0.047 A 
ATOM     14  C   UNL     1      28.969  37.004  19.278  1.00  0.00     0.020 A 
ATOM     15  C   UNL     1      28.393  34.737  19.905  1.00  0.00     0.119 A 
ATOM     16  C   UNL     1      27.508  35.231  20.872  1.00  0.00     0.093 A 
ATOM     17  C   UNL     1      27.351  36.615  21.047  1.00  0.00     0.130 A 
BRANCH  15  18
ATOM     18  O   UNL     1      28.555  33.365  19.728  1.00  0.00    -0.508 OA
ATOM     19  H   UNL     1      29.475  32.939  19.696  1.00  0.00     0.293 HD
ENDBRANCH  15  18
BRANCH  17  20
ATOM     20  O   UNL     1      26.504  37.097  22.045  1.00  0.00    -0.507 OA
ATOM     21  H   UNL     1      26.565  36.764  23.001  1.00  0.00     0.293 HD
ENDBRANCH  17  20
ENDBRANCH   1  12
BRANCH   2  22
ATOM     22  O   UNL     1      27.148  39.215  18.095  1.00  0.00    -0.502 OA
ATOM     23  H   UNL     1      26.274  38.731  17.934  1.00  0.00     0.293 HD
ENDBRANCH   2  22
BRANCH   6  24
ATOM     24  O   UNL     1      27.428  44.125  20.152  1.00  0.00    -0.507 OA
ATOM     25  H   UNL     1      26.929  43.977  19.288  1.00  0.00     0.293 HD
ENDBRANCH   6  24
BRANCH   8  26
ATOM     26  O   UNL     1      28.806  43.115  24.620  1.00  0.00    -0.508 OA
ATOM     27  H   UNL     1      28.341  43.917  25.029  1.00  0.00     0.293 HD
ENDBRANCH   8  26
TORSDOF 6
ENDMDL
MODEL 2
REMARK VINA RESULT:    -4.693      3.164      5.029
REMARK INTER + INTRA:          -6.004
REMARK INTER:                  -6.430
REMARK INTRA:                   0.427
REMARK UNBOUND:                -0.350
REMARK SMILES O=c1c(O)c(-c2ccc(O)cc2O)oc2cc(O)cc(O)c12
REMARK SMILES IDX 5 1 3 2 2 3 1 4 22 5 20 6 19 7 17 8 16 9 15 10 14 11 6 12
REMARK SMILES IDX 8 13 7 14 9 15 11 16 12 17 10 18 13 20 4 22 21 24 18 26
REMARK H PARENT 10 19 13 21 4 23 21 25 18 27
REMARK Flexibility Score: inf
ROOT
ATOM      1  C   UNL     1      27.707  35.771  21.260  1.00  0.00     0.184 A 
ATOM      2  C   UNL     1      26.754  36.640  21.814  1.00  0.00     0.208 A 
ATOM      3  C   UNL     1      26.433  37.823  21.130  1.00  0.00     0.238 A 
ATOM      4  O   UNL     1      25.634  38.633  21.667  1.00  0.00    -0.285 OA
ATOM      5  C   UNL     1      27.030  38.094  19.873  1.00  0.00     0.111 A 
ATOM      6  C   UNL     1      26.746  39.241  19.070  1.00  0.00     0.134 A 
ATOM      7  C   UNL     1      27.476  39.457  17.894  1.00  0.00     0.093 A 
ATOM      8  C   UNL     1      28.431  38.539  17.459  1.00  0.00     0.123 A 
ATOM      9  C   UNL     1      28.677  37.388  18.207  1.00  0.00     0.094 A 
ATOM     10  C   UNL     1      27.993  37.162  19.405  1.00  0.00     0.146 A 
ATOM     11  O   UNL     1      28.274  36.065  20.096  1.00  0.00    -0.451 OA
ENDROOT
BRANCH   1  12
ATOM     12  C   UNL     1      28.095  34.514  21.933  1.00  0.00     0.063 A 
ATOM     13  C   UNL     1      28.144  33.173  23.960  1.00  0.00     0.047 A 
ATOM     14  C   UNL     1      27.797  34.352  23.294  1.00  0.00     0.020 A 
ATOM     15  C   UNL     1      28.779  32.138  23.270  1.00  0.00     0.119 A 
ATOM     16  C   UNL     1      29.060  32.279  21.904  1.00  0.00     0.093 A 
ATOM     17  C   UNL     1      28.709  33.458  21.228  1.00  0.00     0.130 A 
BRANCH  15  18
ATOM     18  O   UNL     1      29.124  30.970  23.947  1.00  0.00    -0.508 OA
ATOM     19  H   UNL     1      29.567  30.192  23.471  1.00  0.00     0.293 HD
ENDBRANCH  15  18
BRANCH  17  20
ATOM     20  O   UNL     1      28.949  33.569  19.858  1.00  0.00    -0.507 OA
ATOM     21  H   UNL     1      28.202  33.765  19.202  1.00  0.00     0.293 HD
ENDBRANCH  17  20
ENDBRANCH   1  12
BRANCH   2  22
ATOM     22  O   UNL     1      26.128  36.316  23.020  1.00  0.00    -0.502 OA
ATOM     23  H   UNL     1      26.535  36.536  23.920  1.00  0.00     0.293 HD
ENDBRANCH   2  22
BRANCH   6  24
ATOM     24  O   UNL     1      25.752  40.178  19.364  1.00  0.00    -0.507 OA
ATOM     25  H   UNL     1      25.586  41.026  18.845  1.00  0.00     0.293 HD
ENDBRANCH   6  24
BRANCH   8  26
ATOM     26  O   UNL     1      29.125  38.778  16.275  1.00  0.00    -0.508 OA
ATOM     27  H   UNL     1      28.848  39.515  15.638  1.00  0.00     0.293 HD
ENDBRANCH   8  26
TORSDOF 6
ENDMDL
MODEL 3
REMARK VINA RESULT:    -4.549      1.958      6.775
REMARK INTER + INTRA:          -5.830
REMARK INTER:                  -5.436
REMARK INTRA:                  -0.394
REMARK UNBOUND:                -0.350
REMARK SMILES O=c1c(O)c(-c2ccc(O)cc2O)oc2cc(O)cc(O)c12
REMARK SMILES IDX 5 1 3 2 2 3 1 4 22 5 20 6 19 7 17 8 16 9 15 10 14 11 6 12
REMARK SMILES IDX 8 13 7 14 9 15 11 16 12 17 10 18 13 20 4 22 21 24 18 26
REMARK H PARENT 10 19 13 21 4 23 21 25 18 27
REMARK Flexibility Score: inf
ROOT
ATOM      1  C   UNL     1      27.627  37.697  20.876  1.00  0.00     0.184 A 
ATOM      2  C   UNL     1      28.173  37.206  19.680  1.00  0.00     0.208 A 
ATOM      3  C   UNL     1      28.568  35.861  19.613  1.00  0.00     0.238 A 
ATOM      4  O   UNL     1      29.124  35.446  18.563  1.00  0.00    -0.285 OA
ATOM      5  C   UNL     1      28.360  35.010  20.726  1.00  0.00     0.111 A 
ATOM      6  C   UNL     1      28.681  33.618  20.756  1.00  0.00     0.134 A 
ATOM      7  C   UNL     1      28.529  32.900  21.949  1.00  0.00     0.093 A 
ATOM      8  C   UNL     1      28.009  33.505  23.093  1.00  0.00     0.123 A 
ATOM      9  C   UNL     1      27.641  34.849  23.060  1.00  0.00     0.094 A 
ATOM     10  C   UNL     1      27.816  35.603  21.896  1.00  0.00     0.146 A 
ATOM     11  O   UNL     1      27.472  36.885  21.915  1.00  0.00    -0.451 OA
ENDROOT
BRANCH   1  12
ATOM     12  C   UNL     1      27.198  39.104  21.015  1.00  0.00     0.063 A 
ATOM     13  C   UNL     1      27.795  41.428  21.403  1.00  0.00     0.047 A 
ATOM     14  C   UNL     1      28.166  40.087  21.273  1.00  0.00     0.020 A 
ATOM     15  C   UNL     1      26.458  41.804  21.264  1.00  0.00     0.119 A 
ATOM     16  C   UNL     1      25.486  40.834  20.982  1.00  0.00     0.093 A 
ATOM     17  C   UNL     1      25.851  39.486  20.843  1.00  0.00     0.130 A 
BRANCH  15  18
ATOM     18  O   UNL     1      26.103  43.144  21.401  1.00  0.00    -0.508 OA
ATOM     19  H   UNL     1      26.489  43.860  20.796  1.00  0.00     0.293 HD
ENDBRANCH  15  18
BRANCH  17  20
ATOM     20  O   UNL     1      24.884  38.536  20.516  1.00  0.00    -0.507 OA
ATOM     21  H   UNL     1      24.521  37.888  21.205  1.00  0.00     0.293 HD
ENDBRANCH  17  20
ENDBRANCH   1  12
BRANCH   2  22
ATOM     22  O   UNL     1      28.302  38.049  18.572  1.00  0.00    -0.502 OA
ATOM     23  H   UNL     1      28.313  39.058  18.655  1.00  0.00     0.293 HD
ENDBRANCH   2  22
BRANCH   6  24
ATOM     24  O   UNL     1      29.125  32.892  19.647  1.00  0.00    -0.507 OA
ATOM     25  H   UNL     1      28.533  32.555  18.903  1.00  0.00     0.293 HD
ENDBRANCH   6  24
BRANCH   8  26
ATOM     26  O   UNL     1      27.855  32.755  24.257  1.00  0.00    -0.508 OA
ATOM     27  H   UNL     1      27.013  32.223  24.437  1.00  0.00     0.293 HD
ENDBRANCH   8  26
TORSDOF 6
ENDMDL
MODEL 4
REMARK VINA RESULT:    -2.500      1.928      2.533
REMARK INTER + INTRA:          -3.362
REMARK INTER:                  -2.953
REMARK INTRA:                  -0.408
REMARK UNBOUND:                -0.350
REMARK SMILES O=c1c(O)c(-c2ccc(O)cc2O)oc2cc(O)cc(O)c12
REMARK SMILES IDX 5 1 3 2 2 3 1 4 22 5 20 6 19 7 17 8 16 9 15 10 14 11 6 12
REMARK SMILES IDX 8 13 7 14 9 15 11 16 12 17 10 18 13 20 4 22 21 24 18 26
REMARK H PARENT 10 19 13 21 4 23 21 25 18 27
REMARK Flexibility Score: inf
ROOT
ATOM      1  C   UNL     1      27.134  37.818  21.190  1.00  0.00     0.184 A 
ATOM      2  C   UNL     1      25.786  38.088  20.907  1.00  0.00     0.208 A 
ATOM      3  C   UNL     1      25.335  39.416  20.948  1.00  0.00     0.238 A 
ATOM      4  O   UNL     1      24.110  39.644  20.766  1.00  0.00    -0.285 OA
ATOM      5  C   UNL     1      26.250  40.463  21.218  1.00  0.00     0.111 A 
ATOM      6  C   UNL     1      25.913  41.851  21.240  1.00  0.00     0.134 A 
ATOM      7  C   UNL     1      26.880  42.790  21.623  1.00  0.00     0.093 A 
ATOM      8  C   UNL     1      28.185  42.400  21.921  1.00  0.00     0.123 A 
ATOM      9  C   UNL     1      28.540  41.054  21.848  1.00  0.00     0.094 A 
ATOM     10  C   UNL     1      27.589  40.088  21.507  1.00  0.00     0.146 A 
ATOM     11  O   UNL     1      27.964  38.815  21.471  1.00  0.00    -0.451 OA
ENDROOT
BRANCH   1  12
ATOM     12  C   UNL     1      27.671  36.442  21.171  1.00  0.00     0.063 A 
ATOM     13  C   UNL     1      27.889  34.282  22.266  1.00  0.00     0.047 A 
ATOM     14  C   UNL     1      27.401  35.592  22.255  1.00  0.00     0.020 A 
ATOM     15  C   UNL     1      28.639  33.803  21.190  1.00  0.00     0.119 A 
ATOM     16  C   UNL     1      28.894  34.635  20.092  1.00  0.00     0.093 A 
ATOM     17  C   UNL     1      28.403  35.949  20.070  1.00  0.00     0.130 A 
BRANCH  15  18
ATOM     18  O   UNL     1      29.123  32.496  21.218  1.00  0.00    -0.508 OA
ATOM     19  H   UNL     1      29.921  32.239  21.786  1.00  0.00     0.293 HD
ENDBRANCH  15  18
BRANCH  17  20
ATOM     20  O   UNL     1      28.622  36.753  18.952  1.00  0.00    -0.507 OA
ATOM     21  H   UNL     1      29.021  37.681  19.034  1.00  0.00     0.293 HD
ENDBRANCH  17  20
ENDBRANCH   1  12
BRANCH   2  22
ATOM     22  O   UNL     1      24.919  37.044  20.574  1.00  0.00    -0.502 OA
ATOM     23  H   UNL     1      23.923  37.087  20.754  1.00  0.00     0.293 HD
ENDBRANCH   2  22
BRANCH   6  24
ATOM     24  O   UNL     1      24.663  42.360  20.877  1.00  0.00    -0.507 OA
ATOM     25  H   UNL     1      24.514  43.100  20.208  1.00  0.00     0.293 HD
ENDBRANCH   6  24
BRANCH   8  26
ATOM     26  O   UNL     1      29.125  43.364  22.281  1.00  0.00    -0.508 OA
ATOM     27  H   UNL     1      30.118  43.163  22.277  1.00  0.00     0.293 HD
ENDBRANCH   8  26
TORSDOF 6
ENDMDL
MODEL 5
REMARK VINA RESULT:    -2.383      9.204     13.792
REMARK INTER + INTRA:          -3.221
REMARK INTER:                  -2.804
REMARK INTRA:                  -0.417
REMARK UNBOUND:                -0.350
REMARK SMILES O=c1c(O)c(-c2ccc(O)cc2O)oc2cc(O)cc(O)c12
REMARK SMILES IDX 5 1 3 2 2 3 1 4 22 5 20 6 19 7 17 8 16 9 15 10 14 11 6 12
REMARK SMILES IDX 8 13 7 14 9 15 11 16 12 17 10 18 13 20 4 22 21 24 18 26
REMARK H PARENT 10 19 13 21 4 23 21 25 18 27
REMARK Flexibility Score: inf
ROOT
ATOM      1  C   UNL     1      27.233  28.754  25.809  1.00  0.00     0.184 A 
ATOM      2  C   UNL     1      27.926  27.552  25.592  1.00  0.00     0.208 A 
ATOM      3  C   UNL     1      27.387  26.356  26.091  1.00  0.00     0.238 A 
ATOM      4  O   UNL     1      28.048  25.294  25.958  1.00  0.00    -0.285 OA
ATOM      5  C   UNL     1      26.134  26.370  26.753  1.00  0.00     0.111 A 
ATOM      6  C   UNL     1      25.471  25.212  27.260  1.00  0.00     0.134 A 
ATOM      7  C   UNL     1      24.285  25.360  27.990  1.00  0.00     0.093 A 
ATOM      8  C   UNL     1      23.705  26.614  28.177  1.00  0.00     0.123 A 
ATOM      9  C   UNL     1      24.314  27.747  27.638  1.00  0.00     0.094 A 
ATOM     10  C   UNL     1      25.519  27.637  26.937  1.00  0.00     0.146 A 
ATOM     11  O   UNL     1      26.076  28.742  26.460  1.00  0.00    -0.451 OA
ENDROOT
BRANCH   1  12
ATOM     12  C   UNL     1      27.749  30.048  25.316  1.00  0.00     0.063 A 
ATOM     13  C   UNL     1      27.763  31.755  23.586  1.00  0.00     0.047 A 
ATOM     14  C   UNL     1      27.300  30.532  24.079  1.00  0.00     0.020 A 
ATOM     15  C   UNL     1      28.669  32.514  24.330  1.00  0.00     0.119 A 
ATOM     16  C   UNL     1      29.106  32.052  25.578  1.00  0.00     0.093 A 
ATOM     17  C   UNL     1      28.641  30.827  26.082  1.00  0.00     0.130 A 
BRANCH  15  18
ATOM     18  O   UNL     1      29.125  33.730  23.824  1.00  0.00    -0.508 OA
ATOM     19  H   UNL     1      28.550  34.565  23.852  1.00  0.00     0.293 HD
ENDBRANCH  15  18
BRANCH  17  20
ATOM     20  O   UNL     1      29.045  30.399  27.347  1.00  0.00    -0.507 OA
ATOM     21  H   UNL     1      28.898  29.445  27.657  1.00  0.00     0.293 HD
ENDBRANCH  17  20
ENDBRANCH   1  12
BRANCH   2  22
ATOM     22  O   UNL     1      29.125  27.556  24.874  1.00  0.00    -0.502 OA
ATOM     23  H   UNL     1      29.205  27.966  23.952  1.00  0.00     0.293 HD
ENDBRANCH   2  22
BRANCH   6  24
ATOM     24  O   UNL     1      25.916  23.902  27.058  1.00  0.00    -0.507 OA
ATOM     25  H   UNL     1      25.524  23.256  26.391  1.00  0.00     0.293 HD
ENDBRANCH   6  24
BRANCH   8  26
ATOM     26  O   UNL     1      22.515  26.722  28.893  1.00  0.00    -0.508 OA
ATOM     27  H   UNL     1      21.666  26.265  28.583  1.00  0.00     0.293 HD
ENDBRANCH   8  26
TORSDOF 6
ENDMDL
