MODEL 1
REMARK VINA RESULT:    -5.543      0.000      0.000
REMARK INTER + INTRA:         -12.742
REMARK INTER:                 -10.080
REMARK INTRA:                  -2.662
REMARK UNBOUND:                -2.662
REMARK SMILES CCCCCCCCCCCCCCCC(=O)[O-]
REMARK SMILES IDX 9 1 10 2 11 3 12 4 13 5 14 6 15 7 16 8 17 9 18 10 8 11 7 12
REMARK SMILES IDX 6 13 5 14 4 15 3 16 2 17 1 18
REMARK H PARENT
REMARK Flexibility Score: inf
ROOT
ATOM      1  C   UNL     1       4.566  21.194  44.328  1.00  0.00     0.000 C 
ENDROOT
BRANCH   1   2
ATOM      2  C   UNL     1       4.732  21.057  45.851  1.00  0.00     0.000 C 
BRANCH   2   3
ATOM      3  C   UNL     1       6.201  21.132  46.304  1.00  0.00     0.000 C 
BRANCH   3   4
ATOM      4  C   UNL     1       6.874  22.506  46.127  1.00  0.00     0.000 C 
BRANCH   4   5
ATOM      5  C   UNL     1       8.338  22.404  45.668  1.00  0.00     0.000 C 
BRANCH   5   6
ATOM      6  C   UNL     1       8.902  20.982  45.811  1.00  0.00     0.006 C 
BRANCH   6   7
ATOM      7  C   UNL     1       9.606  20.493  44.539  1.00  0.00     0.053 C 
BRANCH   7   8
ATOM      8  C   UNL     1       9.376  19.027  44.346  1.00  0.00     0.041 C 
ATOM      9  O   UNL     1       8.203  18.569  44.306  1.00  0.00    -0.550 OA
ATOM     10  O   UNL     1      10.457  18.159  44.259  1.00  0.00    -0.550 OA
ENDBRANCH   7   8
ENDBRANCH   6   7
ENDBRANCH   5   6
ENDBRANCH   4   5
ENDBRANCH   3   4
ENDBRANCH   2   3
ENDBRANCH   1   2
BRANCH   1  11
ATOM     11  C   UNL     1       5.268  20.064  43.555  1.00  0.00     0.000 C 
BRANCH  11  12
ATOM     12  C   UNL     1       6.070  20.587  42.350  1.00  0.00    -0.000 C 
BRANCH  12  13
ATOM     13  C   UNL     1       5.868  22.093  42.115  1.00  0.00    -0.000 C 
BRANCH  13  14
ATOM     14  C   UNL     1       7.168  22.896  42.264  1.00  0.00    -0.000 C 
BRANCH  14  15
ATOM     15  C   UNL     1       6.897  24.263  42.907  1.00  0.00    -0.000 C 
BRANCH  15  16
ATOM     16  C   UNL     1       5.402  24.608  42.856  1.00  0.00    -0.000 C 
BRANCH  16  17
ATOM     17  C   UNL     1       4.857  25.072  44.216  1.00  0.00    -0.003 C 
ATOM     18  C   UNL     1       3.396  24.680  44.433  1.00  0.00     0.004 C 
ENDBRANCH  16  17
ENDBRANCH  15  16
ENDBRANCH  14  15
ENDBRANCH  13  14
ENDBRANCH  12  13
ENDBRANCH  11  12
ENDBRANCH   1  11
TORSDOF 14
ENDMDL
MODEL 2
REMARK VINA RESULT:    -5.409      1.295      2.732
REMARK INTER + INTRA:         -12.498
REMARK INTER:                  -9.820
REMARK INTRA:                  -2.678
REMARK UNBOUND:                -2.662
REMARK SMILES CCCCCCCCCCCCCCCC(=O)[O-]
REMARK SMILES IDX 9 1 10 2 11 3 12 4 13 5 14 6 15 7 16 8 17 9 18 10 8 11 7 12
REMARK SMILES IDX 6 13 5 14 4 15 3 16 2 17 1 18
REMARK H PARENT
REMARK Flexibility Score: inf
ROOT
ATOM      1  C   UNL     1       5.954  21.680  46.621  1.00  0.00     0.000 C 
ENDROOT
BRANCH   1   2
ATOM      2  C   UNL     1       4.707  21.483  45.743  1.00  0.00     0.000 C 
BRANCH   2   3
ATOM      3  C   UNL     1       4.936  20.490  44.589  1.00  0.00     0.000 C 
BRANCH   3   4
ATOM      4  C   UNL     1       5.649  21.073  43.354  1.00  0.00     0.000 C 
BRANCH   4   5
ATOM      5  C   UNL     1       7.066  20.507  43.157  1.00  0.00     0.000 C 
BRANCH   5   6
ATOM      6  C   UNL     1       7.347  19.295  44.058  1.00  0.00     0.006 C 
BRANCH   6   7
ATOM      7  C   UNL     1       8.846  19.026  44.239  1.00  0.00     0.053 C 
BRANCH   7   8
ATOM      8  C   UNL     1       9.388  19.834  45.375  1.00  0.00     0.041 C 
ATOM      9  O   UNL     1      10.328  20.649  45.183  1.00  0.00    -0.550 OA
ATOM     10  O   UNL     1       8.886  19.653  46.658  1.00  0.00    -0.550 OA
ENDBRANCH   7   8
ENDBRANCH   6   7
ENDBRANCH   5   6
ENDBRANCH   4   5
ENDBRANCH   3   4
ENDBRANCH   2   3
ENDBRANCH   1   2
BRANCH   1  11
ATOM     11  C   UNL     1       6.543  23.096  46.501  1.00  0.00     0.000 C 
BRANCH  11  12
ATOM     12  C   UNL     1       8.038  23.083  46.136  1.00  0.00    -0.000 C 
BRANCH  12  13
ATOM     13  C   UNL     1       8.302  23.597  44.712  1.00  0.00    -0.000 C 
BRANCH  13  14
ATOM     14  C   UNL     1       7.281  24.650  44.262  1.00  0.00    -0.000 C 
BRANCH  14  15
ATOM     15  C   UNL     1       6.730  24.321  42.868  1.00  0.00    -0.000 C 
BRANCH  15  16
ATOM     16  C   UNL     1       5.209  24.527  42.815  1.00  0.00    -0.000 C 
BRANCH  16  17
ATOM     17  C   UNL     1       4.645  25.097  44.125  1.00  0.00    -0.003 C 
ATOM     18  C   UNL     1       3.208  24.650  44.395  1.00  0.00     0.004 C 
ENDBRANCH  16  17
ENDBRANCH  15  16
ENDBRANCH  14  15
ENDBRANCH  13  14
ENDBRANCH  12  13
ENDBRANCH  11  12
ENDBRANCH   1  11
TORSDOF 14
ENDMDL
MODEL 3
REMARK VINA RESULT:    -5.404      1.153      2.859
REMARK INTER + INTRA:         -12.489
REMARK INTER:                 -10.013
REMARK INTRA:                  -2.475
REMARK UNBOUND:                -2.662
REMARK SMILES CCCCCCCCCCCCCCCC(=O)[O-]
REMARK SMILES IDX 9 1 10 2 11 3 12 4 13 5 14 6 15 7 16 8 17 9 18 10 8 11 7 12
REMARK SMILES IDX 6 13 5 14 4 15 3 16 2 17 1 18
REMARK H PARENT
REMARK Flexibility Score: inf
ROOT
ATOM      1  C   UNL     1       7.712  22.340  42.287  1.00  0.00     0.000 C 
ENDROOT
BRANCH   1   2
ATOM      2  C   UNL     1       7.864  23.852  42.528  1.00  0.00     0.000 C 
BRANCH   2   3
ATOM      3  C   UNL     1       7.470  24.275  43.954  1.00  0.00     0.000 C 
BRANCH   3   4
ATOM      4  C   UNL     1       8.563  24.080  45.022  1.00  0.00     0.000 C 
BRANCH   4   5
ATOM      5  C   UNL     1       8.104  23.198  46.196  1.00  0.00     0.000 C 
BRANCH   5   6
ATOM      6  C   UNL     1       8.200  21.698  45.877  1.00  0.00     0.006 C 
BRANCH   6   7
ATOM      7  C   UNL     1       9.599  21.280  45.406  1.00  0.00     0.053 C 
BRANCH   7   8
ATOM      8  C   UNL     1       9.716  19.789  45.380  1.00  0.00     0.041 C 
ATOM      9  O   UNL     1      10.825  19.236  45.607  1.00  0.00    -0.550 OA
ATOM     10  O   UNL     1       8.612  19.010  45.056  1.00  0.00    -0.550 OA
ENDBRANCH   7   8
ENDBRANCH   6   7
ENDBRANCH   5   6
ENDBRANCH   4   5
ENDBRANCH   3   4
ENDBRANCH   2   3
ENDBRANCH   1   2
BRANCH   1  11
ATOM     11  C   UNL     1       6.342  21.974  41.688  1.00  0.00     0.000 C 
BRANCH  11  12
ATOM     12  C   UNL     1       5.858  20.584  42.137  1.00  0.00    -0.000 C 
BRANCH  12  13
ATOM     13  C   UNL     1       5.782  20.450  43.666  1.00  0.00    -0.000 C 
BRANCH  13  14
ATOM     14  C   UNL     1       4.432  20.910  44.236  1.00  0.00    -0.000 C 
BRANCH  14  15
ATOM     15  C   UNL     1       4.632  21.813  45.461  1.00  0.00    -0.000 C 
BRANCH  15  16
ATOM     16  C   UNL     1       4.337  23.280  45.117  1.00  0.00    -0.000 C 
BRANCH  16  17
ATOM     17  C   UNL     1       3.723  23.447  43.718  1.00  0.00    -0.003 C 
ATOM     18  C   UNL     1       3.927  24.849  43.146  1.00  0.00     0.004 C 
ENDBRANCH  16  17
ENDBRANCH  15  16
ENDBRANCH  14  15
ENDBRANCH  13  14
ENDBRANCH  12  13
ENDBRANCH  11  12
ENDBRANCH   1  11
TORSDOF 14
ENDMDL
MODEL 4
REMARK VINA RESULT:    -5.288      3.133      5.401
REMARK INTER + INTRA:         -12.279
REMARK INTER:                  -9.685
REMARK INTRA:                  -2.593
REMARK UNBOUND:                -2.662
REMARK SMILES CCCCCCCCCCCCCCCC(=O)[O-]
REMARK SMILES IDX 9 1 10 2 11 3 12 4 13 5 14 6 15 7 16 8 17 9 18 10 8 11 7 12
REMARK SMILES IDX 6 13 5 14 4 15 3 16 2 17 1 18
REMARK H PARENT
REMARK Flexibility Score: inf
ROOT
ATOM      1  C   UNL     1       6.649  20.505  42.655  1.00  0.00     0.000 C 
ENDROOT
BRANCH   1   2
ATOM      2  C   UNL     1       5.420  20.114  43.493  1.00  0.00     0.000 C 
BRANCH   2   3
ATOM      3  C   UNL     1       5.537  20.544  44.966  1.00  0.00     0.000 C 
BRANCH   3   4
ATOM      4  C   UNL     1       4.429  21.491  45.463  1.00  0.00     0.000 C 
BRANCH   4   5
ATOM      5  C   UNL     1       3.973  22.497  44.392  1.00  0.00     0.000 C 
BRANCH   5   6
ATOM      6  C   UNL     1       3.897  23.935  44.929  1.00  0.00     0.006 C 
BRANCH   6   7
ATOM      7  C   UNL     1       3.090  24.866  44.015  1.00  0.00     0.053 C 
BRANCH   7   8
ATOM      8  C   UNL     1       3.967  25.432  42.943  1.00  0.00     0.041 C 
ATOM      9  O   UNL     1       4.671  26.451  43.171  1.00  0.00    -0.550 OA
ATOM     10  O   UNL     1       3.970  24.863  41.675  1.00  0.00    -0.550 OA
ENDBRANCH   7   8
ENDBRANCH   6   7
ENDBRANCH   5   6
ENDBRANCH   4   5
ENDBRANCH   3   4
ENDBRANCH   2   3
ENDBRANCH   1   2
BRANCH   1  11
ATOM     11  C   UNL     1       6.450  21.833  41.902  1.00  0.00     0.000 C 
BRANCH  11  12
ATOM     12  C   UNL     1       7.668  22.765  42.025  1.00  0.00    -0.000 C 
BRANCH  12  13
ATOM     13  C   UNL     1       7.359  24.035  42.834  1.00  0.00    -0.000 C 
BRANCH  13  14
ATOM     14  C   UNL     1       8.226  24.162  44.095  1.00  0.00    -0.000 C 
BRANCH  14  15
ATOM     15  C   UNL     1       7.478  23.641  45.330  1.00  0.00    -0.000 C 
BRANCH  15  16
ATOM     16  C   UNL     1       8.342  22.643  46.116  1.00  0.00    -0.000 C 
BRANCH  16  17
ATOM     17  C   UNL     1       9.287  21.840  45.209  1.00  0.00    -0.003 C 
ATOM     18  C   UNL     1       9.193  20.332  45.445  1.00  0.00     0.004 C 
ENDBRANCH  16  17
ENDBRANCH  15  16
ENDBRANCH  14  15
ENDBRANCH  13  14
ENDBRANCH  12  13
ENDBRANCH  11  12
ENDBRANCH   1  11
TORSDOF 14
ENDMDL
MODEL 5
REMARK VINA RESULT:    -5.275      1.339      3.644
REMARK INTER + INTRA:         -12.253
REMARK INTER:                  -9.664
REMARK INTRA:                  -2.589
REMARK UNBOUND:                -2.662
REMARK SMILES CCCCCCCCCCCCCCCC(=O)[O-]
REMARK SMILES IDX 9 1 10 2 11 3 12 4 13 5 14 6 15 7 16 8 17 9 18 10 8 11 7 12
REMARK SMILES IDX 6 13 5 14 4 15 3 16 2 17 1 18
REMARK H PARENT
REMARK Flexibility Score: inf
ROOT
ATOM      1  C   UNL     1       8.518  24.176  44.133  1.00  0.00     0.000 C 
ENDROOT
BRANCH   1   2
ATOM      2  C   UNL     1       7.637  24.094  42.875  1.00  0.00     0.000 C 
BRANCH   2   3
ATOM      3  C   UNL     1       7.826  22.780  42.095  1.00  0.00     0.000 C 
BRANCH   3   4
ATOM      4  C   UNL     1       6.531  21.999  41.800  1.00  0.00     0.000 C 
BRANCH   4   5
ATOM      5  C   UNL     1       6.410  20.705  42.623  1.00  0.00     0.000 C 
BRANCH   5   6
ATOM      6  C   UNL     1       7.778  20.141  43.038  1.00  0.00     0.006 C 
BRANCH   6   7
ATOM      7  C   UNL     1       7.725  19.379  44.368  1.00  0.00     0.053 C 
BRANCH   7   8
ATOM      8  C   UNL     1       9.108  19.136  44.885  1.00  0.00     0.041 C 
ATOM      9  O   UNL     1       9.867  18.316  44.304  1.00  0.00    -0.550 OA
ATOM     10  O   UNL     1       9.542  19.779  46.037  1.00  0.00    -0.550 OA
ENDBRANCH   7   8
ENDBRANCH   6   7
ENDBRANCH   5   6
ENDBRANCH   4   5
ENDBRANCH   3   4
ENDBRANCH   2   3
ENDBRANCH   1   2
BRANCH   1  11
ATOM     11  C   UNL     1       8.278  23.002  45.099  1.00  0.00     0.000 C 
BRANCH  11  12
ATOM     12  C   UNL     1       7.758  23.468  46.470  1.00  0.00    -0.000 C 
BRANCH  12  13
ATOM     13  C   UNL     1       6.224  23.433  46.564  1.00  0.00    -0.000 C 
BRANCH  13  14
ATOM     14  C   UNL     1       5.595  22.402  45.616  1.00  0.00    -0.000 C 
BRANCH  14  15
ATOM     15  C   UNL     1       4.444  23.023  44.814  1.00  0.00    -0.000 C 
BRANCH  15  16
ATOM     16  C   UNL     1       4.350  24.535  45.069  1.00  0.00    -0.000 C 
BRANCH  16  17
ATOM     17  C   UNL     1       4.562  25.363  43.793  1.00  0.00    -0.003 C 
ATOM     18  C   UNL     1       4.112  24.630  42.529  1.00  0.00     0.004 C 
ENDBRANCH  16  17
ENDBRANCH  15  16
ENDBRANCH  14  15
ENDBRANCH  13  14
ENDBRANCH  12  13
ENDBRANCH  11  12
ENDBRANCH   1  11
TORSDOF 14
ENDMDL
MODEL 6
REMARK VINA RESULT:    -5.203      3.201      5.751
REMARK INTER + INTRA:         -12.123
REMARK INTER:                  -9.767
REMARK INTRA:                  -2.356
REMARK UNBOUND:                -2.662
REMARK SMILES CCCCCCCCCCCCCCCC(=O)[O-]
REMARK SMILES IDX 9 1 10 2 11 3 12 4 13 5 14 6 15 7 16 8 17 9 18 10 8 11 7 12
REMARK SMILES IDX 6 13 5 14 4 15 3 16 2 17 1 18
REMARK H PARENT
REMARK Flexibility Score: inf
ROOT
ATOM      1  C   UNL     1       8.200  22.489  46.087  1.00  0.00     0.000 C 
ENDROOT
BRANCH   1   2
ATOM      2  C   UNL     1       8.037  23.838  45.365  1.00  0.00     0.000 C 
BRANCH   2   3
ATOM      3  C   UNL     1       8.412  23.769  43.874  1.00  0.00     0.000 C 
BRANCH   3   4
ATOM      4  C   UNL     1       7.242  23.970  42.893  1.00  0.00     0.000 C 
BRANCH   4   5
ATOM      5  C   UNL     1       6.151  24.905  43.443  1.00  0.00     0.000 C 
BRANCH   5   6
ATOM      6  C   UNL     1       4.808  24.736  42.716  1.00  0.00     0.006 C 
BRANCH   6   7
ATOM      7  C   UNL     1       3.868  25.930  42.923  1.00  0.00     0.053 C 
BRANCH   7   8
ATOM      8  C   UNL     1       2.810  25.592  43.926  1.00  0.00     0.041 C 
ATOM      9  O   UNL     1       1.644  26.049  43.797  1.00  0.00    -0.550 OA
ATOM     10  O   UNL     1       3.124  24.811  45.031  1.00  0.00    -0.550 OA
ENDBRANCH   7   8
ENDBRANCH   6   7
ENDBRANCH   5   6
ENDBRANCH   4   5
ENDBRANCH   3   4
ENDBRANCH   2   3
ENDBRANCH   1   2
BRANCH   1  11
ATOM     11  C   UNL     1       8.971  21.459  45.244  1.00  0.00     0.000 C 
BRANCH  11  12
ATOM     12  C   UNL     1       8.470  20.021  45.471  1.00  0.00    -0.000 C 
BRANCH  12  13
ATOM     13  C   UNL     1       7.904  19.384  44.192  1.00  0.00    -0.000 C 
BRANCH  13  14
ATOM     14  C   UNL     1       7.620  20.415  43.091  1.00  0.00    -0.000 C 
BRANCH  14  15
ATOM     15  C   UNL     1       6.177  20.296  42.585  1.00  0.00    -0.000 C 
BRANCH  15  16
ATOM     16  C   UNL     1       5.193  20.158  43.757  1.00  0.00    -0.000 C 
BRANCH  16  17
ATOM     17  C   UNL     1       4.915  21.499  44.454  1.00  0.00    -0.003 C 
ATOM     18  C   UNL     1       4.753  21.357  45.967  1.00  0.00     0.004 C 
ENDBRANCH  16  17
ENDBRANCH  15  16
ENDBRANCH  14  15
ENDBRANCH  13  14
ENDBRANCH  12  13
ENDBRANCH  11  12
ENDBRANCH   1  11
TORSDOF 14
ENDMDL
MODEL 7
REMARK VINA RESULT:    -5.160      3.215      5.795
REMARK INTER + INTRA:         -12.045
REMARK INTER:                  -9.640
REMARK INTRA:                  -2.405
REMARK UNBOUND:                -2.662
REMARK SMILES CCCCCCCCCCCCCCCC(=O)[O-]
REMARK SMILES IDX 9 1 10 2 11 3 12 4 13 5 14 6 15 7 16 8 17 9 18 10 8 11 7 12
REMARK SMILES IDX 6 13 5 14 4 15 3 16 2 17 1 18
REMARK H PARENT
REMARK Flexibility Score: inf
ROOT
ATOM      1  C   UNL     1       6.645  23.527  46.416  1.00  0.00     0.000 C 
ENDROOT
BRANCH   1   2
ATOM      2  C   UNL     1       8.151  23.264  46.244  1.00  0.00     0.000 C 
BRANCH   2   3
ATOM      3  C   UNL     1       8.628  23.440  44.791  1.00  0.00     0.000 C 
BRANCH   3   4
ATOM      4  C   UNL     1       7.981  24.610  44.025  1.00  0.00     0.000 C 
BRANCH   4   5
ATOM      5  C   UNL     1       7.332  24.174  42.700  1.00  0.00     0.000 C 
BRANCH   5   6
ATOM      6  C   UNL     1       5.799  24.254  42.741  1.00  0.00     0.006 C 
BRANCH   6   7
ATOM      7  C   UNL     1       5.289  25.404  43.619  1.00  0.00     0.053 C 
BRANCH   7   8
ATOM      8  C   UNL     1       3.802  25.527  43.506  1.00  0.00     0.041 C 
ATOM      9  O   UNL     1       3.292  26.350  42.701  1.00  0.00    -0.550 OA
ATOM     10  O   UNL     1       2.978  24.766  44.325  1.00  0.00    -0.550 OA
ENDBRANCH   7   8
ENDBRANCH   6   7
ENDBRANCH   5   6
ENDBRANCH   4   5
ENDBRANCH   3   4
ENDBRANCH   2   3
ENDBRANCH   1   2
BRANCH   1  11
ATOM     11  C   UNL     1       5.832  22.227  46.553  1.00  0.00     0.000 C 
BRANCH  11  12
ATOM     12  C   UNL     1       4.896  21.991  45.355  1.00  0.00    -0.000 C 
BRANCH  12  13
ATOM     13  C   UNL     1       4.706  20.499  45.039  1.00  0.00    -0.000 C 
BRANCH  13  14
ATOM     14  C   UNL     1       5.207  20.121  43.638  1.00  0.00    -0.000 C 
BRANCH  14  15
ATOM     15  C   UNL     1       6.586  20.736  43.363  1.00  0.00    -0.000 C 
BRANCH  15  16
ATOM     16  C   UNL     1       7.704  19.717  43.629  1.00  0.00    -0.000 C 
BRANCH  16  17
ATOM     17  C   UNL     1       8.207  19.759  45.080  1.00  0.00    -0.003 C 
ATOM     18  C   UNL     1       9.695  19.430  45.200  1.00  0.00     0.004 C 
ENDBRANCH  16  17
ENDBRANCH  15  16
ENDBRANCH  14  15
ENDBRANCH  13  14
ENDBRANCH  12  13
ENDBRANCH  11  12
ENDBRANCH   1  11
TORSDOF 14
ENDMDL
MODEL 8
REMARK VINA RESULT:    -5.105      3.050      5.735
REMARK INTER + INTRA:         -11.945
REMARK INTER:                  -9.295
REMARK INTRA:                  -2.651
REMARK UNBOUND:                -2.662
REMARK SMILES CCCCCCCCCCCCCCCC(=O)[O-]
REMARK SMILES IDX 9 1 10 2 11 3 12 4 13 5 14 6 15 7 16 8 17 9 18 10 8 11 7 12
REMARK SMILES IDX 6 13 5 14 4 15 3 16 2 17 1 18
REMARK H PARENT
REMARK Flexibility Score: inf
ROOT
ATOM      1  C   UNL     1       8.018  23.839  43.658  1.00  0.00     0.000 C 
ENDROOT
BRANCH   1   2
ATOM      2  C   UNL     1       8.707  23.495  44.990  1.00  0.00     0.000 C 
BRANCH   2   3
ATOM      3  C   UNL     1       7.718  23.030  46.074  1.00  0.00     0.000 C 
BRANCH   3   4
ATOM      4  C   UNL     1       6.393  23.813  46.134  1.00  0.00     0.000 C 
BRANCH   4   5
ATOM      5  C   UNL     1       5.164  22.935  45.844  1.00  0.00     0.000 C 
BRANCH   5   6
ATOM      6  C   UNL     1       4.306  23.485  44.694  1.00  0.00     0.006 C 
BRANCH   6   7
ATOM      7  C   UNL     1       4.619  24.951  44.370  1.00  0.00     0.053 C 
BRANCH   7   8
ATOM      8  C   UNL     1       4.067  25.318  43.028  1.00  0.00     0.041 C 
ATOM      9  O   UNL     1       3.414  26.385  42.881  1.00  0.00    -0.550 OA
ATOM     10  O   UNL     1       4.232  24.457  41.950  1.00  0.00    -0.550 OA
ENDBRANCH   7   8
ENDBRANCH   6   7
ENDBRANCH   5   6
ENDBRANCH   4   5
ENDBRANCH   3   4
ENDBRANCH   2   3
ENDBRANCH   1   2
BRANCH   1  11
ATOM     11  C   UNL     1       8.100  22.689  42.639  1.00  0.00     0.000 C 
BRANCH  11  12
ATOM     12  C   UNL     1       6.717  22.104  42.301  1.00  0.00    -0.000 C 
BRANCH  12  13
ATOM     13  C   UNL     1       6.648  20.585  42.523  1.00  0.00    -0.000 C 
BRANCH  13  14
ATOM     14  C   UNL     1       6.168  20.213  43.933  1.00  0.00    -0.000 C 
BRANCH  14  15
ATOM     15  C   UNL     1       7.345  19.777  44.816  1.00  0.00    -0.000 C 
BRANCH  15  16
ATOM     16  C   UNL     1       8.388  19.001  43.998  1.00  0.00    -0.000 C 
BRANCH  16  17
ATOM     17  C   UNL     1       9.806  19.571  44.158  1.00  0.00    -0.003 C 
ATOM     18  C   UNL     1      10.061  20.140  45.553  1.00  0.00     0.004 C 
ENDBRANCH  16  17
ENDBRANCH  15  16
ENDBRANCH  14  15
ENDBRANCH  13  14
ENDBRANCH  12  13
ENDBRANCH  11  12
ENDBRANCH   1  11
TORSDOF 14
ENDMDL
MODEL 9
REMARK VINA RESULT:    -4.999      3.530      6.020
REMARK INTER + INTRA:         -11.753
REMARK INTER:                  -9.237
REMARK INTRA:                  -2.516
REMARK UNBOUND:                -2.662
REMARK SMILES CCCCCCCCCCCCCCCC(=O)[O-]
REMARK SMILES IDX 9 1 10 2 11 3 12 4 13 5 14 6 15 7 16 8 17 9 18 10 8 11 7 12
REMARK SMILES IDX 6 13 5 14 4 15 3 16 2 17 1 18
REMARK H PARENT
REMARK Flexibility Score: inf
ROOT
ATOM      1  C   UNL     1       4.995  21.261  44.849  1.00  0.00     0.000 C 
ENDROOT
BRANCH   1   2
ATOM      2  C   UNL     1       5.551  20.613  43.569  1.00  0.00     0.000 C 
BRANCH   2   3
ATOM      3  C   UNL     1       5.960  21.645  42.503  1.00  0.00     0.000 C 
BRANCH   3   4
ATOM      4  C   UNL     1       5.242  23.005  42.595  1.00  0.00     0.000 C 
BRANCH   4   5
ATOM      5  C   UNL     1       6.210  24.184  42.789  1.00  0.00     0.000 C 
BRANCH   5   6
ATOM      6  C   UNL     1       5.579  25.341  43.579  1.00  0.00     0.006 C 
BRANCH   6   7
ATOM      7  C   UNL     1       4.256  24.947  44.250  1.00  0.00     0.053 C 
BRANCH   7   8
ATOM      8  C   UNL     1       3.118  25.704  43.642  1.00  0.00     0.041 C 
ATOM      9  O   UNL     1       3.335  26.587  42.772  1.00  0.00    -0.550 OA
ATOM     10  O   UNL     1       1.818  25.467  44.072  1.00  0.00    -0.550 OA
ENDBRANCH   7   8
ENDBRANCH   6   7
ENDBRANCH   5   6
ENDBRANCH   4   5
ENDBRANCH   3   4
ENDBRANCH   2   3
ENDBRANCH   1   2
BRANCH   1  11
ATOM     11  C   UNL     1       5.795  20.867  46.103  1.00  0.00     0.000 C 
BRANCH  11  12
ATOM     12  C   UNL     1       6.086  22.072  47.016  1.00  0.00    -0.000 C 
BRANCH  12  13
ATOM     13  C   UNL     1       6.652  23.274  46.244  1.00  0.00    -0.000 C 
BRANCH  13  14
ATOM     14  C   UNL     1       8.186  23.340  46.288  1.00  0.00    -0.000 C 
BRANCH  14  15
ATOM     15  C   UNL     1       8.797  22.783  44.996  1.00  0.00    -0.000 C 
BRANCH  15  16
ATOM     16  C   UNL     1       9.278  21.338  45.193  1.00  0.00    -0.000 C 
BRANCH  16  17
ATOM     17  C   UNL     1       9.213  20.512  43.899  1.00  0.00    -0.003 C 
ATOM     18  C   UNL     1       9.071  19.013  44.160  1.00  0.00     0.004 C 
ENDBRANCH  16  17
ENDBRANCH  15  16
ENDBRANCH  14  15
ENDBRANCH  13  14
ENDBRANCH  12  13
ENDBRANCH  11  12
ENDBRANCH   1  11
TORSDOF 14
ENDMDL
