MODEL 1
REMARK VINA RESULT:    -5.511      0.000      0.000
REMARK INTER + INTRA:          -6.767
REMARK INTER:                  -6.478
REMARK INTRA:                  -0.289
REMARK UNBOUND:                -0.289
REMARK SMILES O=c1c(O)c(-c2ccc(O)cc2)oc2cc(O)cc(O)c12
REMARK SMILES IDX 5 1 3 2 2 3 1 4 21 5 19 6 18 7 16 8 15 9 14 10 13 11 6 12
REMARK SMILES IDX 7 13 8 14 9 15 12 16 11 17 10 18 4 20 20 22 17 24
REMARK H PARENT 10 19 4 21 20 23 17 25
REMARK Flexibility Score: inf
ROOT
ATOM      1  C   UNL     1      -8.145   6.292   3.948  1.00  0.00     0.180 A 
ATOM      2  C   UNL     1      -6.833   6.711   3.672  1.00  0.00     0.208 A 
ATOM      3  C   UNL     1      -6.383   6.712   2.342  1.00  0.00     0.238 A 
ATOM      4  O   UNL     1      -5.226   7.140   2.096  1.00  0.00    -0.285 OA
ATOM      5  C   UNL     1      -7.245   6.277   1.307  1.00  0.00     0.111 A 
ATOM      6  C   UNL     1      -6.881   6.197  -0.071  1.00  0.00     0.134 A 
ATOM      7  C   UNL     1      -7.855   5.878  -1.025  1.00  0.00     0.093 A 
ATOM      8  C   UNL     1      -9.163   5.571  -0.644  1.00  0.00     0.123 A 
ATOM      9  C   UNL     1      -9.514   5.588   0.704  1.00  0.00     0.094 A 
ATOM     10  C   UNL     1      -8.573   5.939   1.676  1.00  0.00     0.146 A 
ATOM     11  O   UNL     1      -8.951   5.952   2.948  1.00  0.00    -0.452 OA
ENDROOT
BRANCH   1  12
ATOM     12  C   UNL     1      -8.684   6.240   5.326  1.00  0.00     0.021 A 
ATOM     13  C   UNL     1      -9.300   7.361   5.914  1.00  0.00     0.016 A 
ATOM     14  C   UNL     1      -9.780   7.296   7.226  1.00  0.00     0.047 A 
ATOM     15  C   UNL     1      -9.641   6.121   7.970  1.00  0.00     0.115 A 
ATOM     16  C   UNL     1      -8.529   5.070   6.088  1.00  0.00     0.016 A 
ATOM     17  C   UNL     1      -9.010   5.008   7.399  1.00  0.00     0.047 A 
BRANCH  15  18
ATOM     18  O   UNL     1     -10.125   6.071   9.275  1.00  0.00    -0.508 OA
ATOM     19  H   UNL     1     -10.953   6.585   9.553  1.00  0.00     0.293 HD
ENDBRANCH  15  18
ENDBRANCH   1  12
BRANCH   2  20
ATOM     20  O   UNL     1      -6.006   7.157   4.707  1.00  0.00    -0.502 OA
ATOM     21  H   UNL     1      -6.373   7.567   5.558  1.00  0.00     0.293 HD
ENDBRANCH   2  20
BRANCH   6  22
ATOM     22  O   UNL     1      -5.582   6.394  -0.547  1.00  0.00    -0.507 OA
ATOM     23  H   UNL     1      -5.080   5.743  -1.134  1.00  0.00     0.293 HD
ENDBRANCH   6  22
BRANCH   8  24
ATOM     24  O   UNL     1     -10.122   5.240  -1.599  1.00  0.00    -0.508 OA
ATOM     25  H   UNL     1     -10.905   5.851  -1.799  1.00  0.00     0.293 HD
ENDBRANCH   8  24
TORSDOF 5
ENDMDL
MODEL 2
REMARK VINA RESULT:    -5.468     10.204     11.876
REMARK INTER + INTRA:          -6.716
REMARK INTER:                  -6.439
REMARK INTRA:                  -0.277
REMARK UNBOUND:                -0.289
REMARK SMILES O=c1c(O)c(-c2ccc(O)cc2)oc2cc(O)cc(O)c12
REMARK SMILES IDX 5 1 3 2 2 3 1 4 21 5 19 6 18 7 16 8 15 9 14 10 13 11 6 12
REMARK SMILES IDX 7 13 8 14 9 15 12 16 11 17 10 18 4 20 20 22 17 24
REMARK H PARENT 10 19 4 21 20 23 17 25
REMARK Flexibility Score: inf
ROOT
ATOM      1  C   UNL     1      -1.649  -2.025   1.895  1.00  0.00     0.180 A 
ATOM      2  C   UNL     1      -0.897  -3.006   2.565  1.00  0.00     0.208 A 
ATOM      3  C   UNL     1       0.372  -2.668   3.063  1.00  0.00     0.238 A 
ATOM      4  O   UNL     1       1.016  -3.534   3.709  1.00  0.00    -0.285 OA
ATOM      5  C   UNL     1       0.880  -1.361   2.870  1.00  0.00     0.111 A 
ATOM      6  C   UNL     1       2.169  -0.922   3.296  1.00  0.00     0.134 A 
ATOM      7  C   UNL     1       2.515   0.429   3.168  1.00  0.00     0.093 A 
ATOM      8  C   UNL     1       1.644   1.342   2.570  1.00  0.00     0.123 A 
ATOM      9  C   UNL     1       0.407   0.911   2.097  1.00  0.00     0.094 A 
ATOM     10  C   UNL     1       0.018  -0.423   2.243  1.00  0.00     0.146 A 
ATOM     11  O   UNL     1      -1.173  -0.790   1.787  1.00  0.00    -0.452 OA
ENDROOT
BRANCH   1  12
ATOM     12  C   UNL     1      -2.984  -2.311   1.320  1.00  0.00     0.021 A 
ATOM     13  C   UNL     1      -3.124  -2.961   0.081  1.00  0.00     0.016 A 
ATOM     14  C   UNL     1      -4.394  -3.199  -0.453  1.00  0.00     0.047 A 
ATOM     15  C   UNL     1      -5.537  -2.780   0.234  1.00  0.00     0.115 A 
ATOM     16  C   UNL     1      -4.136  -1.874   1.995  1.00  0.00     0.016 A 
ATOM     17  C   UNL     1      -5.405  -2.113   1.459  1.00  0.00     0.047 A 
BRANCH  15  18
ATOM     18  O   UNL     1      -6.796  -3.025  -0.309  1.00  0.00    -0.508 OA
ATOM     19  H   UNL     1      -7.154  -3.967  -0.413  1.00  0.00     0.293 HD
ENDBRANCH  15  18
ENDBRANCH   1  12
BRANCH   2  20
ATOM     20  O   UNL     1      -1.427  -4.283   2.764  1.00  0.00    -0.502 OA
ATOM     21  H   UNL     1      -2.127  -4.683   2.151  1.00  0.00     0.293 HD
ENDBRANCH   2  20
BRANCH   6  22
ATOM     22  O   UNL     1       3.148  -1.770   3.821  1.00  0.00    -0.507 OA
ATOM     23  H   UNL     1       2.997  -2.735   4.074  1.00  0.00     0.293 HD
ENDBRANCH   6  22
BRANCH   8  24
ATOM     24  O   UNL     1       2.003   2.682   2.433  1.00  0.00    -0.508 OA
ATOM     25  H   UNL     1       1.349   3.373   2.084  1.00  0.00     0.293 HD
ENDBRANCH   8  24
TORSDOF 5
ENDMDL
MODEL 3
REMARK VINA RESULT:    -5.423     19.309     20.472
REMARK INTER + INTRA:          -6.663
REMARK INTER:                  -6.363
REMARK INTRA:                  -0.300
REMARK UNBOUND:                -0.289
REMARK SMILES O=c1c(O)c(-c2ccc(O)cc2)oc2cc(O)cc(O)c12
REMARK SMILES IDX 5 1 3 2 2 3 1 4 21 5 19 6 18 7 16 8 15 9 14 10 13 11 6 12
REMARK SMILES IDX 7 13 8 14 9 15 12 16 11 17 10 18 4 20 20 22 17 24
REMARK H PARENT 10 19 4 21 20 23 17 25
REMARK Flexibility Score: inf
ROOT
ATOM      1  C   UNL     1       8.031  -5.933   3.968  1.00  0.00     0.180 A 
ATOM      2  C   UNL     1       6.732  -6.382   3.672  1.00  0.00     0.208 A 
ATOM      3  C   UNL     1       6.302  -6.386   2.336  1.00  0.00     0.238 A 
ATOM      4  O   UNL     1       5.158  -6.840   2.071  1.00  0.00    -0.285 OA
ATOM      5  C   UNL     1       7.168  -5.925   1.315  1.00  0.00     0.111 A 
ATOM      6  C   UNL     1       6.821  -5.846  -0.067  1.00  0.00     0.134 A 
ATOM      7  C   UNL     1       7.800  -5.498  -1.006  1.00  0.00     0.093 A 
ATOM      8  C   UNL     1       9.095  -5.163  -0.605  1.00  0.00     0.123 A 
ATOM      9  C   UNL     1       9.427  -5.179   0.748  1.00  0.00     0.094 A 
ATOM     10  C   UNL     1       8.482  -5.557   1.705  1.00  0.00     0.146 A 
ATOM     11  O   UNL     1       8.842  -5.569   2.982  1.00  0.00    -0.452 OA
ENDROOT
BRANCH   1  12
ATOM     12  C   UNL     1       8.549  -5.877   5.355  1.00  0.00     0.021 A 
ATOM     13  C   UNL     1       8.370  -4.735   6.157  1.00  0.00     0.016 A 
ATOM     14  C   UNL     1       8.888  -4.695   7.455  1.00  0.00     0.047 A 
ATOM     15  C   UNL     1       9.601  -5.784   7.963  1.00  0.00     0.115 A 
ATOM     16  C   UNL     1       9.285  -6.959   5.864  1.00  0.00     0.016 A 
ATOM     17  C   UNL     1       9.802  -6.917   7.162  1.00  0.00     0.047 A 
BRANCH  15  18
ATOM     18  O   UNL     1      10.111  -5.731   9.258  1.00  0.00    -0.508 OA
ATOM     19  H   UNL     1      10.800  -5.038   9.528  1.00  0.00     0.293 HD
ENDBRANCH  15  18
ENDBRANCH   1  12
BRANCH   2  20
ATOM     20  O   UNL     1       5.902  -6.854   4.693  1.00  0.00    -0.502 OA
ATOM     21  H   UNL     1       5.316  -7.672   4.582  1.00  0.00     0.293 HD
ENDBRANCH   2  20
BRANCH   6  22
ATOM     22  O   UNL     1       5.534  -6.071  -0.563  1.00  0.00    -0.507 OA
ATOM     23  H   UNL     1       5.062  -6.963  -0.555  1.00  0.00     0.293 HD
ENDBRANCH   6  22
BRANCH   8  24
ATOM     24  O   UNL     1      10.060  -4.803  -1.545  1.00  0.00    -0.508 OA
ATOM     25  H   UNL     1      11.039  -4.723  -1.295  1.00  0.00     0.293 HD
ENDBRANCH   8  24
TORSDOF 5
ENDMDL
MODEL 4
REMARK VINA RESULT:    -5.390      9.423     11.877
REMARK INTER + INTRA:          -6.624
REMARK INTER:                  -6.327
REMARK INTRA:                  -0.297
REMARK UNBOUND:                -0.289
REMARK SMILES O=c1c(O)c(-c2ccc(O)cc2)oc2cc(O)cc(O)c12
REMARK SMILES IDX 5 1 3 2 2 3 1 4 21 5 19 6 18 7 16 8 15 9 14 10 13 11 6 12
REMARK SMILES IDX 7 13 8 14 9 15 12 16 11 17 10 18 4 20 20 22 17 24
REMARK H PARENT 10 19 4 21 20 23 17 25
REMARK Flexibility Score: inf
ROOT
ATOM      1  C   UNL     1       1.657   2.337   1.848  1.00  0.00     0.180 A 
ATOM      2  C   UNL     1       0.927   3.320   2.538  1.00  0.00     0.208 A 
ATOM      3  C   UNL     1      -0.332   2.989   3.064  1.00  0.00     0.238 A 
ATOM      4  O   UNL     1      -0.956   3.856   3.728  1.00  0.00    -0.285 OA
ATOM      5  C   UNL     1      -0.852   1.685   2.879  1.00  0.00     0.111 A 
ATOM      6  C   UNL     1      -2.134   1.252   3.333  1.00  0.00     0.134 A 
ATOM      7  C   UNL     1      -2.492  -0.096   3.209  1.00  0.00     0.093 A 
ATOM      8  C   UNL     1      -1.640  -1.012   2.588  1.00  0.00     0.123 A 
ATOM      9  C   UNL     1      -0.412  -0.587   2.087  1.00  0.00     0.094 A 
ATOM     10  C   UNL     1      -0.012   0.744   2.229  1.00  0.00     0.146 A 
ATOM     11  O   UNL     1       1.171   1.105   1.747  1.00  0.00    -0.452 OA
ENDROOT
BRANCH   1  12
ATOM     12  C   UNL     1       2.980   2.616   1.243  1.00  0.00     0.021 A 
ATOM     13  C   UNL     1       3.095   3.153  -0.052  1.00  0.00     0.016 A 
ATOM     14  C   UNL     1       4.355   3.387  -0.611  1.00  0.00     0.047 A 
ATOM     15  C   UNL     1       5.513   3.076   0.107  1.00  0.00     0.115 A 
ATOM     16  C   UNL     1       4.149   2.287   1.951  1.00  0.00     0.016 A 
ATOM     17  C   UNL     1       5.407   2.521   1.389  1.00  0.00     0.047 A 
BRANCH  15  18
ATOM     18  O   UNL     1       6.762   3.314  -0.462  1.00  0.00    -0.508 OA
ATOM     19  H   UNL     1       7.313   2.564  -0.862  1.00  0.00     0.293 HD
ENDBRANCH  15  18
ENDBRANCH   1  12
BRANCH   2  20
ATOM     20  O   UNL     1       1.470   4.594   2.729  1.00  0.00    -0.502 OA
ATOM     21  H   UNL     1       1.096   5.417   2.273  1.00  0.00     0.293 HD
ENDBRANCH   2  20
BRANCH   6  22
ATOM     22  O   UNL     1      -3.096   2.104   3.884  1.00  0.00    -0.507 OA
ATOM     23  H   UNL     1      -2.892   2.978   4.346  1.00  0.00     0.293 HD
ENDBRANCH   6  22
BRANCH   8  24
ATOM     24  O   UNL     1      -2.011  -2.350   2.455  1.00  0.00    -0.508 OA
ATOM     25  H   UNL     1      -1.438  -3.009   1.941  1.00  0.00     0.293 HD
ENDBRANCH   8  24
TORSDOF 5
ENDMDL
MODEL 5
REMARK VINA RESULT:    -5.247      6.728      8.495
REMARK INTER + INTRA:          -6.456
REMARK INTER:                  -6.295
REMARK INTRA:                  -0.161
REMARK UNBOUND:                -0.289
REMARK SMILES O=c1c(O)c(-c2ccc(O)cc2)oc2cc(O)cc(O)c12
REMARK SMILES IDX 5 1 3 2 2 3 1 4 21 5 19 6 18 7 16 8 15 9 14 10 13 11 6 12
REMARK SMILES IDX 7 13 8 14 9 15 12 16 11 17 10 18 4 20 20 22 17 24
REMARK H PARENT 10 19 4 21 20 23 17 25
REMARK Flexibility Score: inf
ROOT
ATOM      1  C   UNL     1      -5.877  -0.204   2.274  1.00  0.00     0.180 A 
ATOM      2  C   UNL     1      -6.049  -0.188   3.669  1.00  0.00     0.208 A 
ATOM      3  C   UNL     1      -6.360   1.026   4.302  1.00  0.00     0.238 A 
ATOM      4  O   UNL     1      -6.566   1.023   5.544  1.00  0.00    -0.285 OA
ATOM      5  C   UNL     1      -6.477   2.211   3.536  1.00  0.00     0.111 A 
ATOM      6  C   UNL     1      -6.748   3.502   4.079  1.00  0.00     0.134 A 
ATOM      7  C   UNL     1      -6.973   4.581   3.215  1.00  0.00     0.093 A 
ATOM      8  C   UNL     1      -6.871   4.428   1.830  1.00  0.00     0.123 A 
ATOM      9  C   UNL     1      -6.548   3.183   1.293  1.00  0.00     0.094 A 
ATOM     10  C   UNL     1      -6.355   2.080   2.128  1.00  0.00     0.146 A 
ATOM     11  O   UNL     1      -6.058   0.911   1.575  1.00  0.00    -0.452 OA
ENDROOT
BRANCH   1  12
ATOM     12  C   UNL     1      -5.525  -1.440   1.537  1.00  0.00     0.021 A 
ATOM     13  C   UNL     1      -4.295  -2.091   1.745  1.00  0.00     0.016 A 
ATOM     14  C   UNL     1      -3.973  -3.243   1.020  1.00  0.00     0.047 A 
ATOM     15  C   UNL     1      -4.866  -3.751   0.072  1.00  0.00     0.115 A 
ATOM     16  C   UNL     1      -6.407  -1.944   0.567  1.00  0.00     0.016 A 
ATOM     17  C   UNL     1      -6.084  -3.096  -0.156  1.00  0.00     0.047 A 
BRANCH  15  18
ATOM     18  O   UNL     1      -4.533  -4.899  -0.642  1.00  0.00    -0.508 OA
ATOM     19  H   UNL     1      -3.998  -5.648  -0.219  1.00  0.00     0.293 HD
ENDBRANCH  15  18
ENDBRANCH   1  12
BRANCH   2  20
ATOM     20  O   UNL     1      -5.950  -1.374   4.403  1.00  0.00    -0.502 OA
ATOM     21  H   UNL     1      -6.399  -2.233   4.110  1.00  0.00     0.293 HD
ENDBRANCH   2  20
BRANCH   6  22
ATOM     22  O   UNL     1      -6.780   3.783   5.448  1.00  0.00    -0.507 OA
ATOM     23  H   UNL     1      -6.126   4.384   5.927  1.00  0.00     0.293 HD
ENDBRANCH   6  22
BRANCH   8  24
ATOM     24  O   UNL     1      -7.081   5.510   0.978  1.00  0.00    -0.508 OA
ATOM     25  H   UNL     1      -6.333   6.152   0.742  1.00  0.00     0.293 HD
ENDBRANCH   8  24
TORSDOF 5
ENDMDL
MODEL 6
REMARK VINA RESULT:    -5.225     14.368     16.486
REMARK INTER + INTRA:          -6.431
REMARK INTER:                  -6.312
REMARK INTRA:                  -0.118
REMARK UNBOUND:                -0.289
REMARK SMILES O=c1c(O)c(-c2ccc(O)cc2)oc2cc(O)cc(O)c12
REMARK SMILES IDX 5 1 3 2 2 3 1 4 21 5 19 6 18 7 16 8 15 9 14 10 13 11 6 12
REMARK SMILES IDX 7 13 8 14 9 15 12 16 11 17 10 18 4 20 20 22 17 24
REMARK H PARENT 10 19 4 21 20 23 17 25
REMARK Flexibility Score: inf
ROOT
ATOM      1  C   UNL     1       5.872   0.557   2.228  1.00  0.00     0.180 A 
ATOM      2  C   UNL     1       6.034   0.552   3.624  1.00  0.00     0.208 A 
ATOM      3  C   UNL     1       6.335  -0.657   4.271  1.00  0.00     0.238 A 
ATOM      4  O   UNL     1       6.533  -0.645   5.513  1.00  0.00    -0.285 OA
ATOM      5  C   UNL     1       6.451  -1.850   3.516  1.00  0.00     0.111 A 
ATOM      6  C   UNL     1       6.712  -3.138   4.073  1.00  0.00     0.134 A 
ATOM      7  C   UNL     1       6.936  -4.226   3.219  1.00  0.00     0.093 A 
ATOM      8  C   UNL     1       6.844  -4.084   1.833  1.00  0.00     0.123 A 
ATOM      9  C   UNL     1       6.532  -2.843   1.283  1.00  0.00     0.094 A 
ATOM     10  C   UNL     1       6.338  -1.731   2.106  1.00  0.00     0.146 A 
ATOM     11  O   UNL     1       6.052  -0.565   1.541  1.00  0.00    -0.452 OA
ENDROOT
BRANCH   1  12
ATOM     12  C   UNL     1       5.531   1.787   1.478  1.00  0.00     0.021 A 
ATOM     13  C   UNL     1       4.342   2.495   1.733  1.00  0.00     0.016 A 
ATOM     14  C   UNL     1       4.029   3.641   0.996  1.00  0.00     0.047 A 
ATOM     15  C   UNL     1       4.889   4.087  -0.012  1.00  0.00     0.115 A 
ATOM     16  C   UNL     1       6.380   2.229   0.449  1.00  0.00     0.016 A 
ATOM     17  C   UNL     1       6.065   3.375  -0.286  1.00  0.00     0.047 A 
BRANCH  15  18
ATOM     18  O   UNL     1       4.565   5.230  -0.738  1.00  0.00    -0.508 OA
ATOM     19  H   UNL     1       3.817   5.230  -1.421  1.00  0.00     0.293 HD
ENDBRANCH  15  18
ENDBRANCH   1  12
BRANCH   2  20
ATOM     20  O   UNL     1       5.937   1.745   4.347  1.00  0.00    -0.502 OA
ATOM     21  H   UNL     1       6.703   2.109   4.901  1.00  0.00     0.293 HD
ENDBRANCH   2  20
BRANCH   6  22
ATOM     22  O   UNL     1       6.733  -3.406   5.444  1.00  0.00    -0.507 OA
ATOM     23  H   UNL     1       6.237  -4.164   5.889  1.00  0.00     0.293 HD
ENDBRANCH   6  22
BRANCH   8  24
ATOM     24  O   UNL     1       7.054  -5.175   0.991  1.00  0.00    -0.508 OA
ATOM     25  H   UNL     1       6.919  -5.106  -0.010  1.00  0.00     0.293 HD
ENDBRANCH   8  24
TORSDOF 5
ENDMDL
MODEL 7
REMARK VINA RESULT:    -5.194      7.343      7.961
REMARK INTER + INTRA:          -6.394
REMARK INTER:                  -6.447
REMARK INTRA:                   0.054
REMARK UNBOUND:                -0.289
REMARK SMILES O=c1c(O)c(-c2ccc(O)cc2)oc2cc(O)cc(O)c12
REMARK SMILES IDX 5 1 3 2 2 3 1 4 21 5 19 6 18 7 16 8 15 9 14 10 13 11 6 12
REMARK SMILES IDX 7 13 8 14 9 15 12 16 11 17 10 18 4 20 20 22 17 24
REMARK H PARENT 10 19 4 21 20 23 17 25
REMARK Flexibility Score: inf
ROOT
ATOM      1  C   UNL     1      -5.632   0.576   2.364  1.00  0.00     0.180 A 
ATOM      2  C   UNL     1      -4.612   0.099   3.204  1.00  0.00     0.208 A 
ATOM      3  C   UNL     1      -4.141  -1.212   3.027  1.00  0.00     0.238 A 
ATOM      4  O   UNL     1      -3.191  -1.615   3.746  1.00  0.00    -0.285 OA
ATOM      5  C   UNL     1      -4.708  -2.034   2.023  1.00  0.00     0.111 A 
ATOM      6  C   UNL     1      -4.336  -3.391   1.782  1.00  0.00     0.134 A 
ATOM      7  C   UNL     1      -4.870  -4.067   0.679  1.00  0.00     0.093 A 
ATOM      8  C   UNL     1      -5.811  -3.457  -0.154  1.00  0.00     0.123 A 
ATOM      9  C   UNL     1      -6.225  -2.153   0.108  1.00  0.00     0.094 A 
ATOM     10  C   UNL     1      -5.683  -1.440   1.181  1.00  0.00     0.146 A 
ATOM     11  O   UNL     1      -6.098  -0.197   1.389  1.00  0.00    -0.452 OA
ENDROOT
BRANCH   1  12
ATOM     12  C   UNL     1      -6.198   1.938   2.505  1.00  0.00     0.021 A 
ATOM     13  C   UNL     1      -6.568   2.451   3.761  1.00  0.00     0.016 A 
ATOM     14  C   UNL     1      -7.122   3.730   3.868  1.00  0.00     0.047 A 
ATOM     15  C   UNL     1      -7.326   4.507   2.723  1.00  0.00     0.115 A 
ATOM     16  C   UNL     1      -6.425   2.716   1.357  1.00  0.00     0.016 A 
ATOM     17  C   UNL     1      -6.979   3.995   1.466  1.00  0.00     0.047 A 
BRANCH  15  18
ATOM     18  O   UNL     1      -7.878   5.780   2.844  1.00  0.00    -0.508 OA
ATOM     19  H   UNL     1      -8.134   6.325   2.029  1.00  0.00     0.293 HD
ENDBRANCH  15  18
ENDBRANCH   1  12
BRANCH   2  20
ATOM     20  O   UNL     1      -4.052   0.935   4.174  1.00  0.00    -0.502 OA
ATOM     21  H   UNL     1      -3.214   0.688   4.686  1.00  0.00     0.293 HD
ENDBRANCH   2  20
BRANCH   6  22
ATOM     22  O   UNL     1      -3.475  -4.122   2.605  1.00  0.00    -0.507 OA
ATOM     23  H   UNL     1      -3.159  -3.824   3.516  1.00  0.00     0.293 HD
ENDBRANCH   6  22
BRANCH   8  24
ATOM     24  O   UNL     1      -6.349  -4.143  -1.241  1.00  0.00    -0.508 OA
ATOM     25  H   UNL     1      -7.106  -4.808  -1.127  1.00  0.00     0.293 HD
ENDBRANCH   8  24
TORSDOF 5
ENDMDL
MODEL 8
REMARK VINA RESULT:    -5.165     13.147     14.774
REMARK INTER + INTRA:          -6.360
REMARK INTER:                  -6.070
REMARK INTRA:                  -0.289
REMARK UNBOUND:                -0.289
REMARK SMILES O=c1c(O)c(-c2ccc(O)cc2)oc2cc(O)cc(O)c12
REMARK SMILES IDX 5 1 3 2 2 3 1 4 21 5 19 6 18 7 16 8 15 9 14 10 13 11 6 12
REMARK SMILES IDX 7 13 8 14 9 15 12 16 11 17 10 18 4 20 20 22 17 24
REMARK H PARENT 10 19 4 21 20 23 17 25
REMARK Flexibility Score: inf
ROOT
ATOM      1  C   UNL     1       4.882   0.078   3.687  1.00  0.00     0.180 A 
ATOM      2  C   UNL     1       3.487   0.243   3.637  1.00  0.00     0.208 A 
ATOM      3  C   UNL     1       2.940   1.127   2.693  1.00  0.00     0.238 A 
ATOM      4  O   UNL     1       1.688   1.230   2.617  1.00  0.00    -0.285 OA
ATOM      5  C   UNL     1       3.795   1.846   1.823  1.00  0.00     0.111 A 
ATOM      6  C   UNL     1       3.351   2.798   0.856  1.00  0.00     0.134 A 
ATOM      7  C   UNL     1       4.274   3.353  -0.039  1.00  0.00     0.093 A 
ATOM      8  C   UNL     1       5.632   3.040   0.040  1.00  0.00     0.123 A 
ATOM      9  C   UNL     1       6.084   2.158   1.019  1.00  0.00     0.094 A 
ATOM     10  C   UNL     1       5.182   1.559   1.903  1.00  0.00     0.146 A 
ATOM     11  O   UNL     1       5.653   0.717   2.814  1.00  0.00    -0.452 OA
ENDROOT
BRANCH   1  12
ATOM     12  C   UNL     1       5.536  -0.817   4.670  1.00  0.00     0.021 A 
ATOM     13  C   UNL     1       5.754  -2.179   4.389  1.00  0.00     0.016 A 
ATOM     14  C   UNL     1       6.352  -3.010   5.341  1.00  0.00     0.047 A 
ATOM     15  C   UNL     1       6.725  -2.499   6.587  1.00  0.00     0.115 A 
ATOM     16  C   UNL     1       5.895  -0.316   5.932  1.00  0.00     0.016 A 
ATOM     17  C   UNL     1       6.492  -1.149   6.882  1.00  0.00     0.047 A 
BRANCH  15  18
ATOM     18  O   UNL     1       7.320  -3.338   7.526  1.00  0.00    -0.508 OA
ATOM     19  H   UNL     1       6.774  -3.801   8.243  1.00  0.00     0.293 HD
ENDBRANCH  15  18
ENDBRANCH   1  12
BRANCH   2  20
ATOM     20  O   UNL     1       2.661  -0.494   4.490  1.00  0.00    -0.502 OA
ATOM     21  H   UNL     1       1.971  -0.058   5.088  1.00  0.00     0.293 HD
ENDBRANCH   2  20
BRANCH   6  22
ATOM     22  O   UNL     1       2.032   3.250   0.753  1.00  0.00    -0.507 OA
ATOM     23  H   UNL     1       1.494   3.262  -0.100  1.00  0.00     0.293 HD
ENDBRANCH   6  22
BRANCH   8  24
ATOM     24  O   UNL     1       6.546   3.609  -0.846  1.00  0.00    -0.508 OA
ATOM     25  H   UNL     1       6.803   4.587  -0.786  1.00  0.00     0.293 HD
ENDBRANCH   8  24
TORSDOF 5
ENDMDL
MODEL 9
REMARK VINA RESULT:    -5.156      7.410      7.665
REMARK INTER + INTRA:          -6.349
REMARK INTER:                  -6.071
REMARK INTRA:                  -0.278
REMARK UNBOUND:                -0.289
REMARK SMILES O=c1c(O)c(-c2ccc(O)cc2)oc2cc(O)cc(O)c12
REMARK SMILES IDX 5 1 3 2 2 3 1 4 21 5 19 6 18 7 16 8 15 9 14 10 13 11 6 12
REMARK SMILES IDX 7 13 8 14 9 15 12 16 11 17 10 18 4 20 20 22 17 24
REMARK H PARENT 10 19 4 21 20 23 17 25
REMARK Flexibility Score: inf
ROOT
ATOM      1  C   UNL     1      -4.979   0.058   3.641  1.00  0.00     0.180 A 
ATOM      2  C   UNL     1      -3.584  -0.056   3.519  1.00  0.00     0.208 A 
ATOM      3  C   UNL     1      -3.054  -0.939   2.565  1.00  0.00     0.238 A 
ATOM      4  O   UNL     1      -1.805  -0.996   2.423  1.00  0.00    -0.285 OA
ATOM      5  C   UNL     1      -3.926  -1.708   1.756  1.00  0.00     0.111 A 
ATOM      6  C   UNL     1      -3.497  -2.663   0.786  1.00  0.00     0.134 A 
ATOM      7  C   UNL     1      -4.444  -3.272  -0.048  1.00  0.00     0.093 A 
ATOM      8  C   UNL     1      -5.808  -3.008   0.099  1.00  0.00     0.123 A 
ATOM      9  C   UNL     1      -6.240  -2.122   1.083  1.00  0.00     0.094 A 
ATOM     10  C   UNL     1      -5.317  -1.472   1.906  1.00  0.00     0.146 A 
ATOM     11  O   UNL     1      -5.770  -0.628   2.824  1.00  0.00    -0.452 OA
ENDROOT
BRANCH   1  12
ATOM     12  C   UNL     1      -5.614   0.949   4.641  1.00  0.00     0.021 A 
ATOM     13  C   UNL     1      -5.813   2.317   4.380  1.00  0.00     0.016 A 
ATOM     14  C   UNL     1      -6.392   3.144   5.347  1.00  0.00     0.047 A 
ATOM     15  C   UNL     1      -6.767   2.621   6.588  1.00  0.00     0.115 A 
ATOM     16  C   UNL     1      -5.974   0.435   5.898  1.00  0.00     0.016 A 
ATOM     17  C   UNL     1      -6.553   1.264   6.863  1.00  0.00     0.047 A 
BRANCH  15  18
ATOM     18  O   UNL     1      -7.343   3.456   7.542  1.00  0.00    -0.508 OA
ATOM     19  H   UNL     1      -8.151   4.029   7.326  1.00  0.00     0.293 HD
ENDBRANCH  15  18
ENDBRANCH   1  12
BRANCH   2  20
ATOM     20  O   UNL     1      -2.743   0.730   4.312  1.00  0.00    -0.502 OA
ATOM     21  H   UNL     1      -1.753   0.830   4.121  1.00  0.00     0.293 HD
ENDBRANCH   2  20
BRANCH   6  22
ATOM     22  O   UNL     1      -2.170  -3.067   0.621  1.00  0.00    -0.507 OA
ATOM     23  H   UNL     1      -1.770  -3.386  -0.249  1.00  0.00     0.293 HD
ENDBRANCH   6  22
BRANCH   8  24
ATOM     24  O   UNL     1      -6.745  -3.630  -0.725  1.00  0.00    -0.508 OA
ATOM     25  H   UNL     1      -6.932  -4.623  -0.659  1.00  0.00     0.293 HD
ENDBRANCH   8  24
TORSDOF 5
ENDMDL
