MODEL 1
REMARK VINA RESULT:    -4.257      0.000      0.000
REMARK INTER + INTRA:         -11.429
REMARK INTER:                  -9.234
REMARK INTRA:                  -2.195
REMARK UNBOUND:                -2.195
REMARK SMILES CCCCCCCCCCCCCCCCCCCCCC(=O)[O-]
REMARK SMILES IDX 12 1 11 2 10 3 9 4 8 5 7 6 6 7 5 8 4 9 3 10 2 11 1 12 13 13
REMARK SMILES IDX 14 14 15 15 16 16 17 17 18 18 19 19 20 20 21 21 22 22 23 23
REMARK SMILES IDX 24 24
REMARK H PARENT
REMARK Flexibility Score: inf
ROOT
ATOM      1  C   UNL     1       1.034   2.960   7.663  1.00  0.00     0.000 C 
ENDROOT
BRANCH   1   2
ATOM      2  C   UNL     1       1.902   4.176   8.043  1.00  0.00     0.000 C 
BRANCH   2   3
ATOM      3  C   UNL     1       1.708   4.653   9.498  1.00  0.00     0.000 C 
BRANCH   3   4
ATOM      4  C   UNL     1       2.202   6.092   9.718  1.00  0.00    -0.000 C 
BRANCH   4   5
ATOM      5  C   UNL     1       2.074   6.961   8.456  1.00  0.00    -0.000 C 
BRANCH   5   6
ATOM      6  C   UNL     1       3.031   8.166   8.466  1.00  0.00    -0.000 C 
BRANCH   6   7
ATOM      7  C   UNL     1       4.032   8.124   9.635  1.00  0.00    -0.000 C 
BRANCH   7   8
ATOM      8  C   UNL     1       5.506   8.312   9.231  1.00  0.00    -0.000 C 
BRANCH   8   9
ATOM      9  C   UNL     1       5.711   9.450   8.219  1.00  0.00    -0.000 C 
BRANCH   9  10
ATOM     10  C   UNL     1       6.764   9.067   7.172  1.00  0.00    -0.000 C 
BRANCH  10  11
ATOM     11  C   UNL     1       6.283   7.895   6.308  1.00  0.00    -0.003 C 
ATOM     12  C   UNL     1       5.131   8.316   5.400  1.00  0.00     0.004 C 
ENDBRANCH  10  11
ENDBRANCH   9  10
ENDBRANCH   8   9
ENDBRANCH   7   8
ENDBRANCH   6   7
ENDBRANCH   5   6
ENDBRANCH   4   5
ENDBRANCH   3   4
ENDBRANCH   2   3
ENDBRANCH   1   2
BRANCH   1  13
ATOM     13  C   UNL     1      -0.014   2.551   8.715  1.00  0.00     0.000 C 
BRANCH  13  14
ATOM     14  C   UNL     1      -1.423   2.252   8.159  1.00  0.00     0.000 C 
BRANCH  14  15
ATOM     15  C   UNL     1      -2.342   1.457   9.104  1.00  0.00     0.000 C 
BRANCH  15  16
ATOM     16  C   UNL     1      -2.371  -0.045   8.784  1.00  0.00     0.000 C 
BRANCH  16  17
ATOM     17  C   UNL     1      -1.889  -0.307   7.350  1.00  0.00     0.000 C 
BRANCH  17  18
ATOM     18  C   UNL     1      -0.651  -1.220   7.290  1.00  0.00     0.000 C 
BRANCH  18  19
ATOM     19  C   UNL     1       0.619  -0.554   6.728  1.00  0.00     0.000 C 
BRANCH  19  20
ATOM     20  C   UNL     1       0.565  -0.349   5.207  1.00  0.00     0.006 C 
BRANCH  20  21
ATOM     21  C   UNL     1       1.256   0.958   4.801  1.00  0.00     0.053 C 
BRANCH  21  22
ATOM     22  C   UNL     1       0.261   1.937   4.258  1.00  0.00     0.041 C 
ATOM     23  O   UNL     1      -0.893   2.016   4.762  1.00  0.00    -0.550 OA
ATOM     24  O   UNL     1       0.606   2.763   3.195  1.00  0.00    -0.550 OA
ENDBRANCH  21  22
ENDBRANCH  20  21
ENDBRANCH  19  20
ENDBRANCH  18  19
ENDBRANCH  17  18
ENDBRANCH  16  17
ENDBRANCH  15  16
ENDBRANCH  14  15
ENDBRANCH  13  14
ENDBRANCH   1  13
TORSDOF 20
ENDMDL
MODEL 2
REMARK VINA RESULT:    -4.242      2.966      8.580
REMARK INTER + INTRA:         -11.396
REMARK INTER:                  -8.747
REMARK INTRA:                  -2.649
REMARK UNBOUND:                -2.195
REMARK SMILES CCCCCCCCCCCCCCCCCCCCCC(=O)[O-]
REMARK SMILES IDX 12 1 11 2 10 3 9 4 8 5 7 6 6 7 5 8 4 9 3 10 2 11 1 12 13 13
REMARK SMILES IDX 14 14 15 15 16 16 17 17 18 18 19 19 20 20 21 21 22 22 23 23
REMARK SMILES IDX 24 24
REMARK H PARENT
REMARK Flexibility Score: inf
ROOT
ATOM      1  C   UNL     1      -0.496   2.261   8.890  1.00  0.00     0.000 C 
ENDROOT
BRANCH   1   2
ATOM      2  C   UNL     1      -1.903   2.634   9.398  1.00  0.00     0.000 C 
BRANCH   2   3
ATOM      3  C   UNL     1      -2.760   1.421   9.816  1.00  0.00     0.000 C 
BRANCH   3   4
ATOM      4  C   UNL     1      -1.961   0.107   9.818  1.00  0.00    -0.000 C 
BRANCH   4   5
ATOM      5  C   UNL     1      -2.595  -0.973   8.925  1.00  0.00    -0.000 C 
BRANCH   5   6
ATOM      6  C   UNL     1      -1.547  -1.881   8.258  1.00  0.00    -0.000 C 
BRANCH   6   7
ATOM      7  C   UNL     1      -0.105  -1.532   8.670  1.00  0.00    -0.000 C 
BRANCH   7   8
ATOM      8  C   UNL     1       0.741  -0.871   7.567  1.00  0.00    -0.000 C 
BRANCH   8   9
ATOM      9  C   UNL     1      -0.050  -0.617   6.275  1.00  0.00    -0.000 C 
BRANCH   9  10
ATOM     10  C   UNL     1       0.418   0.675   5.591  1.00  0.00    -0.000 C 
BRANCH  10  11
ATOM     11  C   UNL     1      -0.751   1.646   5.386  1.00  0.00    -0.003 C 
ATOM     12  C   UNL     1      -2.086   0.975   5.698  1.00  0.00     0.004 C 
ENDBRANCH  10  11
ENDBRANCH   9  10
ENDBRANCH   8   9
ENDBRANCH   7   8
ENDBRANCH   6   7
ENDBRANCH   5   6
ENDBRANCH   4   5
ENDBRANCH   3   4
ENDBRANCH   2   3
ENDBRANCH   1   2
BRANCH   1  13
ATOM     13  C   UNL     1       0.553   3.385   8.986  1.00  0.00     0.000 C 
BRANCH  13  14
ATOM     14  C   UNL     1       1.449   3.557   7.741  1.00  0.00     0.000 C 
BRANCH  14  15
ATOM     15  C   UNL     1       2.608   4.556   7.904  1.00  0.00     0.000 C 
BRANCH  15  16
ATOM     16  C   UNL     1       2.270   5.712   8.857  1.00  0.00     0.000 C 
BRANCH  16  17
ATOM     17  C   UNL     1       1.996   7.003   8.071  1.00  0.00     0.000 C 
BRANCH  17  18
ATOM     18  C   UNL     1       2.818   8.201   8.580  1.00  0.00     0.000 C 
BRANCH  18  19
ATOM     19  C   UNL     1       3.848   8.753   7.576  1.00  0.00     0.000 C 
BRANCH  19  20
ATOM     20  C   UNL     1       4.332   7.697   6.572  1.00  0.00     0.006 C 
BRANCH  20  21
ATOM     21  C   UNL     1       5.135   8.340   5.436  1.00  0.00     0.053 C 
BRANCH  21  22
ATOM     22  C   UNL     1       6.593   8.032   5.578  1.00  0.00     0.041 C 
ATOM     23  O   UNL     1       7.379   8.219   4.609  1.00  0.00    -0.550 OA
ATOM     24  O   UNL     1       7.087   7.539   6.780  1.00  0.00    -0.550 OA
ENDBRANCH  21  22
ENDBRANCH  20  21
ENDBRANCH  19  20
ENDBRANCH  18  19
ENDBRANCH  17  18
ENDBRANCH  16  17
ENDBRANCH  15  16
ENDBRANCH  14  15
ENDBRANCH  13  14
ENDBRANCH   1  13
TORSDOF 20
ENDMDL
MODEL 3
REMARK VINA RESULT:    -4.235      1.159      1.836
REMARK INTER + INTRA:         -11.382
REMARK INTER:                  -9.009
REMARK INTRA:                  -2.374
REMARK UNBOUND:                -2.195
REMARK SMILES CCCCCCCCCCCCCCCCCCCCCC(=O)[O-]
REMARK SMILES IDX 12 1 11 2 10 3 9 4 8 5 7 6 6 7 5 8 4 9 3 10 2 11 1 12 13 13
REMARK SMILES IDX 14 14 15 15 16 16 17 17 18 18 19 19 20 20 21 21 22 22 23 23
REMARK SMILES IDX 24 24
REMARK H PARENT
REMARK Flexibility Score: inf
ROOT
ATOM      1  C   UNL     1       1.031   3.376   8.654  1.00  0.00     0.000 C 
ENDROOT
BRANCH   1   2
ATOM      2  C   UNL     1       1.973   4.594   8.561  1.00  0.00     0.000 C 
BRANCH   2   3
ATOM      3  C   UNL     1       1.744   5.647   9.666  1.00  0.00     0.000 C 
BRANCH   3   4
ATOM      4  C   UNL     1       1.738   7.084   9.119  1.00  0.00    -0.000 C 
BRANCH   4   5
ATOM      5  C   UNL     1       2.226   7.164   7.662  1.00  0.00    -0.000 C 
BRANCH   5   6
ATOM      6  C   UNL     1       2.510   8.608   7.211  1.00  0.00    -0.000 C 
BRANCH   6   7
ATOM      7  C   UNL     1       3.988   9.006   7.378  1.00  0.00    -0.000 C 
BRANCH   7   8
ATOM      8  C   UNL     1       4.951   8.356   6.367  1.00  0.00    -0.000 C 
BRANCH   8   9
ATOM      9  C   UNL     1       6.226   7.804   7.023  1.00  0.00    -0.000 C 
BRANCH   9  10
ATOM     10  C   UNL     1       5.979   7.462   8.498  1.00  0.00    -0.000 C 
BRANCH  10  11
ATOM     11  C   UNL     1       5.480   6.020   8.654  1.00  0.00    -0.003 C 
ATOM     12  C   UNL     1       5.379   5.627  10.125  1.00  0.00     0.004 C 
ENDBRANCH  10  11
ENDBRANCH   9  10
ENDBRANCH   8   9
ENDBRANCH   7   8
ENDBRANCH   6   7
ENDBRANCH   5   6
ENDBRANCH   4   5
ENDBRANCH   3   4
ENDBRANCH   2   3
ENDBRANCH   1   2
BRANCH   1  13
ATOM     13  C   UNL     1      -0.045   3.466   9.752  1.00  0.00     0.000 C 
BRANCH  13  14
ATOM     14  C   UNL     1      -0.900   2.194   9.941  1.00  0.00     0.000 C 
BRANCH  14  15
ATOM     15  C   UNL     1      -2.189   2.144   9.101  1.00  0.00     0.000 C 
BRANCH  15  16
ATOM     16  C   UNL     1      -1.989   1.460   7.741  1.00  0.00     0.000 C 
BRANCH  16  17
ATOM     17  C   UNL     1      -2.109  -0.065   7.874  1.00  0.00     0.000 C 
BRANCH  17  18
ATOM     18  C   UNL     1      -0.801  -0.802   7.532  1.00  0.00     0.000 C 
BRANCH  18  19
ATOM     19  C   UNL     1       0.346   0.104   7.049  1.00  0.00     0.000 C 
BRANCH  19  20
ATOM     20  C   UNL     1       0.686  -0.099   5.564  1.00  0.00     0.006 C 
BRANCH  20  21
ATOM     21  C   UNL     1       1.313   1.164   4.963  1.00  0.00     0.053 C 
BRANCH  21  22
ATOM     22  C   UNL     1       0.279   1.981   4.252  1.00  0.00     0.041 C 
ATOM     23  O   UNL     1      -0.937   1.891   4.579  1.00  0.00    -0.550 OA
ATOM     24  O   UNL     1       0.655   2.844   3.229  1.00  0.00    -0.550 OA
ENDBRANCH  21  22
ENDBRANCH  20  21
ENDBRANCH  19  20
ENDBRANCH  18  19
ENDBRANCH  17  18
ENDBRANCH  16  17
ENDBRANCH  15  16
ENDBRANCH  14  15
ENDBRANCH  13  14
ENDBRANCH   1  13
TORSDOF 20
ENDMDL
MODEL 4
REMARK VINA RESULT:    -4.194      1.157      2.063
REMARK INTER + INTRA:         -11.292
REMARK INTER:                  -9.558
REMARK INTRA:                  -1.733
REMARK UNBOUND:                -2.195
REMARK SMILES CCCCCCCCCCCCCCCCCCCCCC(=O)[O-]
REMARK SMILES IDX 12 1 11 2 10 3 9 4 8 5 7 6 6 7 5 8 4 9 3 10 2 11 1 12 13 13
REMARK SMILES IDX 14 14 15 15 16 16 17 17 18 18 19 19 20 20 21 21 22 22 23 23
REMARK SMILES IDX 24 24
REMARK H PARENT
REMARK Flexibility Score: inf
ROOT
ATOM      1  C   UNL     1      -0.931   2.242   8.560  1.00  0.00     0.000 C 
ENDROOT
BRANCH   1   2
ATOM      2  C   UNL     1      -0.402   2.948   9.825  1.00  0.00     0.000 C 
BRANCH   2   3
ATOM      3  C   UNL     1       0.835   3.837   9.575  1.00  0.00     0.000 C 
BRANCH   3   4
ATOM      4  C   UNL     1       1.517   3.533   8.230  1.00  0.00    -0.000 C 
BRANCH   4   5
ATOM      5  C   UNL     1       2.178   4.775   7.608  1.00  0.00    -0.000 C 
BRANCH   5   6
ATOM      6  C   UNL     1       2.201   5.978   8.569  1.00  0.00    -0.000 C 
BRANCH   6   7
ATOM      7  C   UNL     1       2.147   7.330   7.834  1.00  0.00    -0.000 C 
BRANCH   7   8
ATOM      8  C   UNL     1       3.483   8.092   7.783  1.00  0.00    -0.000 C 
BRANCH   8   9
ATOM      9  C   UNL     1       4.581   7.331   7.024  1.00  0.00    -0.000 C 
BRANCH   9  10
ATOM     10  C   UNL     1       5.021   8.105   5.775  1.00  0.00    -0.000 C 
BRANCH  10  11
ATOM     11  C   UNL     1       6.497   8.510   5.868  1.00  0.00    -0.003 C 
ATOM     12  C   UNL     1       6.926   9.318   4.646  1.00  0.00     0.004 C 
ENDBRANCH  10  11
ENDBRANCH   9  10
ENDBRANCH   8   9
ENDBRANCH   7   8
ENDBRANCH   6   7
ENDBRANCH   5   6
ENDBRANCH   4   5
ENDBRANCH   3   4
ENDBRANCH   2   3
ENDBRANCH   1   2
BRANCH   1  13
ATOM     13  C   UNL     1      -2.314   1.581   8.712  1.00  0.00     0.000 C 
BRANCH  13  14
ATOM     14  C   UNL     1      -2.319   0.230   9.459  1.00  0.00     0.000 C 
BRANCH  14  15
ATOM     15  C   UNL     1      -2.661  -0.994   8.590  1.00  0.00     0.000 C 
BRANCH  15  16
ATOM     16  C   UNL     1      -1.638  -2.131   8.730  1.00  0.00     0.000 C 
BRANCH  16  17
ATOM     17  C   UNL     1      -0.222  -1.569   8.931  1.00  0.00     0.000 C 
BRANCH  17  18
ATOM     18  C   UNL     1       0.585  -1.494   7.622  1.00  0.00     0.000 C 
BRANCH  18  19
ATOM     19  C   UNL     1       0.652  -0.096   6.981  1.00  0.00     0.000 C 
BRANCH  19  20
ATOM     20  C   UNL     1       0.653  -0.139   5.445  1.00  0.00     0.006 C 
BRANCH  20  21
ATOM     21  C   UNL     1       1.286   1.126   4.856  1.00  0.00     0.053 C 
BRANCH  21  22
ATOM     22  C   UNL     1       0.234   2.038   4.306  1.00  0.00     0.041 C 
ATOM     23  O   UNL     1      -0.923   2.050   4.809  1.00  0.00    -0.550 OA
ATOM     24  O   UNL     1       0.529   2.876   3.236  1.00  0.00    -0.550 OA
ENDBRANCH  21  22
ENDBRANCH  20  21
ENDBRANCH  19  20
ENDBRANCH  18  19
ENDBRANCH  17  18
ENDBRANCH  16  17
ENDBRANCH  15  16
ENDBRANCH  14  15
ENDBRANCH  13  14
ENDBRANCH   1  13
TORSDOF 20
ENDMDL
MODEL 5
REMARK VINA RESULT:    -4.166      1.785      2.510
REMARK INTER + INTRA:         -11.232
REMARK INTER:                  -9.726
REMARK INTRA:                  -1.506
REMARK UNBOUND:                -2.195
REMARK SMILES CCCCCCCCCCCCCCCCCCCCCC(=O)[O-]
REMARK SMILES IDX 12 1 11 2 10 3 9 4 8 5 7 6 6 7 5 8 4 9 3 10 2 11 1 12 13 13
REMARK SMILES IDX 14 14 15 15 16 16 17 17 18 18 19 19 20 20 21 21 22 22 23 23
REMARK SMILES IDX 24 24
REMARK H PARENT
REMARK Flexibility Score: inf
ROOT
ATOM      1  C   UNL     1       1.740   3.704   7.296  1.00  0.00     0.000 C 
ENDROOT
BRANCH   1   2
ATOM      2  C   UNL     1       2.637   4.499   8.265  1.00  0.00     0.000 C 
BRANCH   2   3
ATOM      3  C   UNL     1       2.384   6.022   8.245  1.00  0.00     0.000 C 
BRANCH   3   4
ATOM      4  C   UNL     1       3.472   6.790   7.476  1.00  0.00    -0.000 C 
BRANCH   4   5
ATOM      5  C   UNL     1       4.741   7.019   8.315  1.00  0.00    -0.000 C 
BRANCH   5   6
ATOM      6  C   UNL     1       5.104   8.509   8.447  1.00  0.00    -0.000 C 
BRANCH   6   7
ATOM      7  C   UNL     1       6.439   8.860   7.763  1.00  0.00    -0.000 C 
BRANCH   7   8
ATOM      8  C   UNL     1       6.724   8.084   6.465  1.00  0.00    -0.000 C 
BRANCH   8   9
ATOM      9  C   UNL     1       6.590   8.953   5.204  1.00  0.00    -0.000 C 
BRANCH   9  10
ATOM     10  C   UNL     1       7.653   8.575   4.164  1.00  0.00    -0.000 C 
BRANCH  10  11
ATOM     11  C   UNL     1       7.813   9.680   3.113  1.00  0.00    -0.003 C 
ATOM     12  C   UNL     1       9.171   9.593   2.423  1.00  0.00     0.004 C 
ENDBRANCH  10  11
ENDBRANCH   9  10
ENDBRANCH   8   9
ENDBRANCH   7   8
ENDBRANCH   6   7
ENDBRANCH   5   6
ENDBRANCH   4   5
ENDBRANCH   3   4
ENDBRANCH   2   3
ENDBRANCH   1   2
BRANCH   1  13
ATOM     13  C   UNL     1       0.673   2.820   7.970  1.00  0.00     0.000 C 
BRANCH  13  14
ATOM     14  C   UNL     1       0.234   3.278   9.378  1.00  0.00     0.000 C 
BRANCH  14  15
ATOM     15  C   UNL     1      -1.248   3.029   9.712  1.00  0.00     0.000 C 
BRANCH  15  16
ATOM     16  C   UNL     1      -1.978   2.225   8.625  1.00  0.00     0.000 C 
BRANCH  16  17
ATOM     17  C   UNL     1      -2.310   0.811   9.122  1.00  0.00     0.000 C 
BRANCH  17  18
ATOM     18  C   UNL     1      -1.889  -0.289   8.131  1.00  0.00     0.000 C 
BRANCH  18  19
ATOM     19  C   UNL     1      -2.045   0.084   6.645  1.00  0.00     0.000 C 
BRANCH  19  20
ATOM     20  C   UNL     1      -0.702   0.363   5.952  1.00  0.00     0.006 C 
BRANCH  20  21
ATOM     21  C   UNL     1      -0.854   1.429   4.861  1.00  0.00     0.053 C 
BRANCH  21  22
ATOM     22  C   UNL     1       0.472   1.745   4.242  1.00  0.00     0.041 C 
ATOM     23  O   UNL     1       1.491   1.065   4.540  1.00  0.00    -0.550 OA
ATOM     24  O   UNL     1       0.584   2.791   3.333  1.00  0.00    -0.550 OA
ENDBRANCH  21  22
ENDBRANCH  20  21
ENDBRANCH  19  20
ENDBRANCH  18  19
ENDBRANCH  17  18
ENDBRANCH  16  17
ENDBRANCH  15  16
ENDBRANCH  14  15
ENDBRANCH  13  14
ENDBRANCH   1  13
TORSDOF 20
ENDMDL
MODEL 6
REMARK VINA RESULT:    -4.129      2.979      8.520
REMARK INTER + INTRA:         -11.151
REMARK INTER:                  -8.726
REMARK INTRA:                  -2.425
REMARK UNBOUND:                -2.195
REMARK SMILES CCCCCCCCCCCCCCCCCCCCCC(=O)[O-]
REMARK SMILES IDX 12 1 11 2 10 3 9 4 8 5 7 6 6 7 5 8 4 9 3 10 2 11 1 12 13 13
REMARK SMILES IDX 14 14 15 15 16 16 17 17 18 18 19 19 20 20 21 21 22 22 23 23
REMARK SMILES IDX 24 24
REMARK H PARENT
REMARK Flexibility Score: inf
ROOT
ATOM      1  C   UNL     1       1.767   3.685   7.392  1.00  0.00     0.000 C 
ENDROOT
BRANCH   1   2
ATOM      2  C   UNL     1       0.716   2.795   8.084  1.00  0.00     0.000 C 
BRANCH   2   3
ATOM      3  C   UNL     1       0.234   3.339   9.446  1.00  0.00     0.000 C 
BRANCH   3   4
ATOM      4  C   UNL     1      -1.141   2.781   9.851  1.00  0.00    -0.000 C 
BRANCH   4   5
ATOM      5  C   UNL     1      -1.929   2.223   8.654  1.00  0.00    -0.000 C 
BRANCH   5   6
ATOM      6  C   UNL     1      -2.364   0.761   8.860  1.00  0.00    -0.000 C 
BRANCH   6   7
ATOM      7  C   UNL     1      -1.246  -0.117   9.452  1.00  0.00    -0.000 C 
BRANCH   7   8
ATOM      8  C   UNL     1      -0.697  -1.194   8.499  1.00  0.00    -0.000 C 
BRANCH   8   9
ATOM      9  C   UNL     1      -0.829  -0.809   7.017  1.00  0.00    -0.000 C 
BRANCH   9  10
ATOM     10  C   UNL     1       0.521  -0.354   6.448  1.00  0.00    -0.000 C 
BRANCH  10  11
ATOM     11  C   UNL     1       0.332   0.450   5.156  1.00  0.00    -0.003 C 
ATOM     12  C   UNL     1      -0.966   1.253   5.191  1.00  0.00     0.004 C 
ENDBRANCH  10  11
ENDBRANCH   9  10
ENDBRANCH   8   9
ENDBRANCH   7   8
ENDBRANCH   6   7
ENDBRANCH   5   6
ENDBRANCH   4   5
ENDBRANCH   3   4
ENDBRANCH   2   3
ENDBRANCH   1   2
BRANCH   1  13
ATOM     13  C   UNL     1       2.507   4.665   8.323  1.00  0.00     0.000 C 
BRANCH  13  14
ATOM     14  C   UNL     1       2.358   6.158   7.957  1.00  0.00     0.000 C 
BRANCH  14  15
ATOM     15  C   UNL     1       3.678   6.947   7.888  1.00  0.00     0.000 C 
BRANCH  15  16
ATOM     16  C   UNL     1       3.522   8.411   8.325  1.00  0.00     0.000 C 
BRANCH  16  17
ATOM     17  C   UNL     1       2.044   8.753   8.569  1.00  0.00     0.000 C 
BRANCH  17  18
ATOM     18  C   UNL     1       1.505   9.816   7.594  1.00  0.00     0.000 C 
BRANCH  18  19
ATOM     19  C   UNL     1       1.364   9.344   6.135  1.00  0.00     0.000 C 
BRANCH  19  20
ATOM     20  C   UNL     1      -0.082   8.984   5.759  1.00  0.00     0.006 C 
BRANCH  20  21
ATOM     21  C   UNL     1      -1.081   9.925   6.442  1.00  0.00     0.053 C 
BRANCH  21  22
ATOM     22  C   UNL     1      -2.231   9.153   7.012  1.00  0.00     0.041 C 
ATOM     23  O   UNL     1      -3.139   8.715   6.254  1.00  0.00    -0.550 OA
ATOM     24  O   UNL     1      -2.301   8.916   8.380  1.00  0.00    -0.550 OA
ENDBRANCH  21  22
ENDBRANCH  20  21
ENDBRANCH  19  20
ENDBRANCH  18  19
ENDBRANCH  17  18
ENDBRANCH  16  17
ENDBRANCH  15  16
ENDBRANCH  14  15
ENDBRANCH  13  14
ENDBRANCH   1  13
TORSDOF 20
ENDMDL
MODEL 7
REMARK VINA RESULT:    -4.123      1.425      2.038
REMARK INTER + INTRA:         -11.138
REMARK INTER:                  -9.067
REMARK INTRA:                  -2.070
REMARK UNBOUND:                -2.195
REMARK SMILES CCCCCCCCCCCCCCCCCCCCCC(=O)[O-]
REMARK SMILES IDX 12 1 11 2 10 3 9 4 8 5 7 6 6 7 5 8 4 9 3 10 2 11 1 12 13 13
REMARK SMILES IDX 14 14 15 15 16 16 17 17 18 18 19 19 20 20 21 21 22 22 23 23
REMARK SMILES IDX 24 24
REMARK H PARENT
REMARK Flexibility Score: inf
ROOT
ATOM      1  C   UNL     1      -0.451   2.620   9.463  1.00  0.00     0.000 C 
ENDROOT
BRANCH   1   2
ATOM      2  C   UNL     1       0.389   3.861   9.825  1.00  0.00     0.000 C 
BRANCH   2   3
ATOM      3  C   UNL     1       1.500   4.184   8.803  1.00  0.00     0.000 C 
BRANCH   3   4
ATOM      4  C   UNL     1       2.495   5.234   9.326  1.00  0.00    -0.000 C 
BRANCH   4   5
ATOM      5  C   UNL     1       3.863   5.152   8.627  1.00  0.00    -0.000 C 
BRANCH   5   6
ATOM      6  C   UNL     1       4.955   5.945   9.367  1.00  0.00    -0.000 C 
BRANCH   6   7
ATOM      7  C   UNL     1       5.343   7.247   8.642  1.00  0.00    -0.000 C 
BRANCH   7   8
ATOM      8  C   UNL     1       6.676   7.186   7.873  1.00  0.00    -0.000 C 
BRANCH   8   9
ATOM      9  C   UNL     1       6.616   7.891   6.509  1.00  0.00    -0.000 C 
BRANCH   9  10
ATOM     10  C   UNL     1       5.169   7.988   6.007  1.00  0.00    -0.000 C 
BRANCH  10  11
ATOM     11  C   UNL     1       5.108   8.646   4.624  1.00  0.00    -0.003 C 
ATOM     12  C   UNL     1       6.370   9.458   4.343  1.00  0.00     0.004 C 
ENDBRANCH  10  11
ENDBRANCH   9  10
ENDBRANCH   8   9
ENDBRANCH   7   8
ENDBRANCH   6   7
ENDBRANCH   5   6
ENDBRANCH   4   5
ENDBRANCH   3   4
ENDBRANCH   2   3
ENDBRANCH   1   2
BRANCH   1  13
ATOM     13  C   UNL     1      -1.971   2.858   9.394  1.00  0.00     0.000 C 
BRANCH  13  14
ATOM     14  C   UNL     1      -2.845   1.649   9.795  1.00  0.00     0.000 C 
BRANCH  14  15
ATOM     15  C   UNL     1      -2.068   0.358  10.108  1.00  0.00     0.000 C 
BRANCH  15  16
ATOM     16  C   UNL     1      -2.396  -0.786   9.138  1.00  0.00     0.000 C 
BRANCH  16  17
ATOM     17  C   UNL     1      -1.116  -1.341   8.496  1.00  0.00     0.000 C 
BRANCH  17  18
ATOM     18  C   UNL     1      -0.773  -0.663   7.157  1.00  0.00     0.000 C 
BRANCH  18  19
ATOM     19  C   UNL     1      -1.956   0.039   6.464  1.00  0.00     0.000 C 
BRANCH  19  20
ATOM     20  C   UNL     1      -1.581   1.411   5.883  1.00  0.00     0.006 C 
BRANCH  20  21
ATOM     21  C   UNL     1      -0.083   1.689   6.043  1.00  0.00     0.053 C 
BRANCH  21  22
ATOM     22  C   UNL     1       0.583   1.793   4.706  1.00  0.00     0.041 C 
ATOM     23  O   UNL     1       1.625   1.125   4.462  1.00  0.00    -0.550 OA
ATOM     24  O   UNL     1       0.055   2.628   3.728  1.00  0.00    -0.550 OA
ENDBRANCH  21  22
ENDBRANCH  20  21
ENDBRANCH  19  20
ENDBRANCH  18  19
ENDBRANCH  17  18
ENDBRANCH  16  17
ENDBRANCH  15  16
ENDBRANCH  14  15
ENDBRANCH  13  14
ENDBRANCH   1  13
TORSDOF 20
ENDMDL
MODEL 8
REMARK VINA RESULT:    -4.115      2.582      8.653
REMARK INTER + INTRA:         -11.121
REMARK INTER:                  -8.876
REMARK INTRA:                  -2.245
REMARK UNBOUND:                -2.195
REMARK SMILES CCCCCCCCCCCCCCCCCCCCCC(=O)[O-]
REMARK SMILES IDX 12 1 11 2 10 3 9 4 8 5 7 6 6 7 5 8 4 9 3 10 2 11 1 12 13 13
REMARK SMILES IDX 14 14 15 15 16 16 17 17 18 18 19 19 20 20 21 21 22 22 23 23
REMARK SMILES IDX 24 24
REMARK H PARENT
REMARK Flexibility Score: inf
ROOT
ATOM      1  C   UNL     1       1.695   3.554   7.226  1.00  0.00     0.000 C 
ENDROOT
BRANCH   1   2
ATOM      2  C   UNL     1       0.781   2.711   8.137  1.00  0.00     0.000 C 
BRANCH   2   3
ATOM      3  C   UNL     1       0.319   3.447   9.413  1.00  0.00     0.000 C 
BRANCH   3   4
ATOM      4  C   UNL     1      -1.079   3.004   9.875  1.00  0.00    -0.000 C 
BRANCH   4   5
ATOM      5  C   UNL     1      -1.844   2.230   8.788  1.00  0.00    -0.000 C 
BRANCH   5   6
ATOM      6  C   UNL     1      -2.382   0.878   9.290  1.00  0.00    -0.000 C 
BRANCH   6   7
ATOM      7  C   UNL     1      -1.264  -0.143   9.570  1.00  0.00    -0.000 C 
BRANCH   7   8
ATOM      8  C   UNL     1      -1.168  -1.293   8.551  1.00  0.00    -0.000 C 
BRANCH   8   9
ATOM      9  C   UNL     1      -1.119  -0.803   7.096  1.00  0.00    -0.000 C 
BRANCH   9  10
ATOM     10  C   UNL     1       0.329  -0.575   6.643  1.00  0.00    -0.000 C 
BRANCH  10  11
ATOM     11  C   UNL     1       0.390   0.396   5.458  1.00  0.00    -0.003 C 
ATOM     12  C   UNL     1      -0.955   1.085   5.239  1.00  0.00     0.004 C 
ENDBRANCH  10  11
ENDBRANCH   9  10
ENDBRANCH   8   9
ENDBRANCH   7   8
ENDBRANCH   6   7
ENDBRANCH   5   6
ENDBRANCH   4   5
ENDBRANCH   3   4
ENDBRANCH   2   3
ENDBRANCH   1   2
BRANCH   1  13
ATOM     13  C   UNL     1       2.577   4.583   7.958  1.00  0.00     0.000 C 
BRANCH  13  14
ATOM     14  C   UNL     1       2.150   6.057   7.784  1.00  0.00     0.000 C 
BRANCH  14  15
ATOM     15  C   UNL     1       1.835   6.804   9.092  1.00  0.00     0.000 C 
BRANCH  15  16
ATOM     16  C   UNL     1       2.304   8.267   9.072  1.00  0.00     0.000 C 
BRANCH  16  17
ATOM     17  C   UNL     1       3.274   8.514   7.908  1.00  0.00     0.000 C 
BRANCH  17  18
ATOM     18  C   UNL     1       4.751   8.497   8.343  1.00  0.00     0.000 C 
BRANCH  18  19
ATOM     19  C   UNL     1       5.566   7.297   7.828  1.00  0.00     0.000 C 
BRANCH  19  20
ATOM     20  C   UNL     1       6.977   7.686   7.363  1.00  0.00     0.006 C 
BRANCH  20  21
ATOM     21  C   UNL     1       6.925   8.794   6.305  1.00  0.00     0.053 C 
BRANCH  21  22
ATOM     22  C   UNL     1       6.792   8.210   4.933  1.00  0.00     0.041 C 
ATOM     23  O   UNL     1       7.808   8.076   4.198  1.00  0.00    -0.550 OA
ATOM     24  O   UNL     1       5.545   7.813   4.464  1.00  0.00    -0.550 OA
ENDBRANCH  21  22
ENDBRANCH  20  21
ENDBRANCH  19  20
ENDBRANCH  18  19
ENDBRANCH  17  18
ENDBRANCH  16  17
ENDBRANCH  15  16
ENDBRANCH  14  15
ENDBRANCH  13  14
ENDBRANCH   1  13
TORSDOF 20
ENDMDL
MODEL 9
REMARK VINA RESULT:    -3.983      2.539      8.505
REMARK INTER + INTRA:         -10.834
REMARK INTER:                  -8.445
REMARK INTRA:                  -2.389
REMARK UNBOUND:                -2.195
REMARK SMILES CCCCCCCCCCCCCCCCCCCCCC(=O)[O-]
REMARK SMILES IDX 12 1 11 2 10 3 9 4 8 5 7 6 6 7 5 8 4 9 3 10 2 11 1 12 13 13
REMARK SMILES IDX 14 14 15 15 16 16 17 17 18 18 19 19 20 20 21 21 22 22 23 23
REMARK SMILES IDX 24 24
REMARK H PARENT
REMARK Flexibility Score: inf
ROOT
ATOM      1  C   UNL     1       0.435   3.452   9.149  1.00  0.00     0.000 C 
ENDROOT
BRANCH   1   2
ATOM      2  C   UNL     1      -0.609   2.659   9.960  1.00  0.00     0.000 C 
BRANCH   2   3
ATOM      3  C   UNL     1      -1.993   2.572   9.283  1.00  0.00     0.000 C 
BRANCH   3   4
ATOM      4  C   UNL     1      -2.722   1.254   9.597  1.00  0.00    -0.000 C 
BRANCH   4   5
ATOM      5  C   UNL     1      -1.783   0.036   9.560  1.00  0.00    -0.000 C 
BRANCH   5   6
ATOM      6  C   UNL     1      -2.321  -1.099   8.670  1.00  0.00    -0.000 C 
BRANCH   6   7
ATOM      7  C   UNL     1      -1.243  -1.696   7.746  1.00  0.00    -0.000 C 
BRANCH   7   8
ATOM      8  C   UNL     1       0.128  -0.999   7.818  1.00  0.00    -0.000 C 
BRANCH   8   9
ATOM      9  C   UNL     1       0.506  -0.280   6.513  1.00  0.00    -0.000 C 
BRANCH   9  10
ATOM     10  C   UNL     1      -0.233   1.060   6.393  1.00  0.00    -0.000 C 
BRANCH  10  11
ATOM     11  C   UNL     1      -1.192   1.055   5.197  1.00  0.00    -0.003 C 
ATOM     12  C   UNL     1      -2.647   1.027   5.656  1.00  0.00     0.004 C 
ENDBRANCH  10  11
ENDBRANCH   9  10
ENDBRANCH   8   9
ENDBRANCH   7   8
ENDBRANCH   6   7
ENDBRANCH   5   6
ENDBRANCH   4   5
ENDBRANCH   3   4
ENDBRANCH   2   3
ENDBRANCH   1   2
BRANCH   1  13
ATOM     13  C   UNL     1       1.165   4.561   9.931  1.00  0.00     0.000 C 
BRANCH  13  14
ATOM     14  C   UNL     1       1.976   5.551   9.067  1.00  0.00     0.000 C 
BRANCH  14  15
ATOM     15  C   UNL     1       3.127   4.922   8.263  1.00  0.00     0.000 C 
BRANCH  15  16
ATOM     16  C   UNL     1       4.505   5.474   8.660  1.00  0.00     0.000 C 
BRANCH  16  17
ATOM     17  C   UNL     1       4.564   6.994   8.450  1.00  0.00     0.000 C 
BRANCH  17  18
ATOM     18  C   UNL     1       4.888   7.387   6.997  1.00  0.00     0.000 C 
BRANCH  18  19
ATOM     19  C   UNL     1       4.211   8.681   6.508  1.00  0.00     0.000 C 
BRANCH  19  20
ATOM     20  C   UNL     1       2.830   8.910   7.142  1.00  0.00     0.006 C 
BRANCH  20  21
ATOM     21  C   UNL     1       1.882   9.611   6.162  1.00  0.00     0.053 C 
BRANCH  21  22
ATOM     22  C   UNL     1       0.517   8.998   6.215  1.00  0.00     0.041 C 
ATOM     23  O   UNL     1      -0.088   8.700   5.149  1.00  0.00    -0.550 OA
ATOM     24  O   UNL     1      -0.090   8.754   7.442  1.00  0.00    -0.550 OA
ENDBRANCH  21  22
ENDBRANCH  20  21
ENDBRANCH  19  20
ENDBRANCH  18  19
ENDBRANCH  17  18
ENDBRANCH  16  17
ENDBRANCH  15  16
ENDBRANCH  14  15
ENDBRANCH  13  14
ENDBRANCH   1  13
TORSDOF 20
ENDMDL
