MODEL 1
REMARK VINA RESULT:     1.024      0.000      0.000
REMARK INTER + INTRA:           1.402
REMARK INTER:                   2.340
REMARK INTRA:                  -0.939
REMARK UNBOUND:                -0.939
REMARK SMILES CCCCCCCCCCCCCCCCCCCCCCCC(=O)[O-]
REMARK SMILES IDX 13 1 14 2 15 3 16 4 17 5 18 6 19 7 20 8 21 9 22 10 23 11
REMARK SMILES IDX 24 12 25 13 26 14 12 15 11 16 10 17 9 18 8 19 7 20 6 21 5 22
REMARK SMILES IDX 4 23 3 24 2 25 1 26
REMARK H PARENT
REMARK Flexibility Score: inf
ROOT
ATOM      1  C   UNL     1      19.410  20.819  15.693  1.00  0.00     0.000 C 
ENDROOT
BRANCH   1   2
ATOM      2  C   UNL     1      20.726  20.136  15.286  1.00  0.00     0.000 C 
BRANCH   2   3
ATOM      3  C   UNL     1      21.975  20.887  15.786  1.00  0.00     0.000 C 
BRANCH   3   4
ATOM      4  C   UNL     1      23.268  20.052  15.840  1.00  0.00     0.000 C 
BRANCH   4   5
ATOM      5  C   UNL     1      24.533  20.908  16.000  1.00  0.00     0.000 C 
BRANCH   5   6
ATOM      6  C   UNL     1      25.790  20.025  16.050  1.00  0.00     0.000 C 
BRANCH   6   7
ATOM      7  C   UNL     1      27.056  20.815  16.427  1.00  0.00     0.000 C 
BRANCH   7   8
ATOM      8  C   UNL     1      28.060  20.915  15.265  1.00  0.00     0.000 C 
BRANCH   8   9
ATOM      9  C   UNL     1      27.659  20.040  14.066  1.00  0.00     0.000 C 
BRANCH   9  10
ATOM     10  C   UNL     1      28.301  20.507  12.748  1.00  0.00     0.006 C 
BRANCH  10  11
ATOM     11  C   UNL     1      29.749  20.975  12.947  1.00  0.00     0.053 C 
BRANCH  11  12
ATOM     12  C   UNL     1      29.888  22.451  12.731  1.00  0.00     0.041 C 
ATOM     13  O   UNL     1      29.945  23.233  13.717  1.00  0.00    -0.550 OA
ATOM     14  O   UNL     1      29.993  22.959  11.443  1.00  0.00    -0.550 OA
ENDBRANCH  11  12
ENDBRANCH  10  11
ENDBRANCH   9  10
ENDBRANCH   8   9
ENDBRANCH   7   8
ENDBRANCH   6   7
ENDBRANCH   5   6
ENDBRANCH   4   5
ENDBRANCH   3   4
ENDBRANCH   2   3
ENDBRANCH   1   2
BRANCH   1  15
ATOM     15  C   UNL     1      18.455  19.875  16.448  1.00  0.00     0.000 C 
BRANCH  15  16
ATOM     16  C   UNL     1      16.955  20.130  16.212  1.00  0.00     0.000 C 
BRANCH  16  17
ATOM     17  C   UNL     1      16.105  19.906  17.475  1.00  0.00     0.000 C 
BRANCH  17  18
ATOM     18  C   UNL     1      14.600  20.087  17.211  1.00  0.00    -0.000 C 
BRANCH  18  19
ATOM     19  C   UNL     1      14.316  21.098  16.088  1.00  0.00    -0.000 C 
BRANCH  19  20
ATOM     20  C   UNL     1      12.821  21.189  15.730  1.00  0.00    -0.000 C 
BRANCH  20  21
ATOM     21  C   UNL     1      12.395  22.487  15.010  1.00  0.00    -0.000 C 
BRANCH  21  22
ATOM     22  C   UNL     1      10.982  22.462  14.398  1.00  0.00    -0.000 C 
BRANCH  22  23
ATOM     23  C   UNL     1       9.875  21.957  15.343  1.00  0.00    -0.000 C 
BRANCH  23  24
ATOM     24  C   UNL     1       9.875  22.644  16.725  1.00  0.00    -0.000 C 
BRANCH  24  25
ATOM     25  C   UNL     1      10.040  21.645  17.879  1.00  0.00    -0.003 C 
ATOM     26  C   UNL     1      10.989  22.186  18.944  1.00  0.00     0.004 C 
ENDBRANCH  24  25
ENDBRANCH  23  24
ENDBRANCH  22  23
ENDBRANCH  21  22
ENDBRANCH  20  21
ENDBRANCH  19  20
ENDBRANCH  18  19
ENDBRANCH  17  18
ENDBRANCH  16  17
ENDBRANCH  15  16
ENDBRANCH   1  15
TORSDOF 22
ENDMDL
MODEL 2
REMARK VINA RESULT:     1.069      1.830      2.636
REMARK INTER + INTRA:           1.506
REMARK INTER:                   2.293
REMARK INTRA:                  -0.786
REMARK UNBOUND:                -0.939
REMARK SMILES CCCCCCCCCCCCCCCCCCCCCCCC(=O)[O-]
REMARK SMILES IDX 13 1 14 2 15 3 16 4 17 5 18 6 19 7 20 8 21 9 22 10 23 11
REMARK SMILES IDX 24 12 25 13 26 14 12 15 11 16 10 17 9 18 8 19 7 20 6 21 5 22
REMARK SMILES IDX 4 23 3 24 2 25 1 26
REMARK H PARENT
REMARK Flexibility Score: inf
ROOT
ATOM      1  C   UNL     1      19.721  20.684  16.095  1.00  0.00     0.000 C 
ENDROOT
BRANCH   1   2
ATOM      2  C   UNL     1      20.899  20.122  15.282  1.00  0.00     0.000 C 
BRANCH   2   3
ATOM      3  C   UNL     1      22.194  20.940  15.454  1.00  0.00     0.000 C 
BRANCH   3   4
ATOM      4  C   UNL     1      23.470  20.110  15.695  1.00  0.00     0.000 C 
BRANCH   4   5
ATOM      5  C   UNL     1      24.675  20.965  16.111  1.00  0.00     0.000 C 
BRANCH   5   6
ATOM      6  C   UNL     1      25.994  20.233  15.819  1.00  0.00     0.000 C 
BRANCH   6   7
ATOM      7  C   UNL     1      27.226  21.004  16.322  1.00  0.00     0.000 C 
BRANCH   7   8
ATOM      8  C   UNL     1      28.537  20.220  16.128  1.00  0.00     0.000 C 
BRANCH   8   9
ATOM      9  C   UNL     1      28.881  20.012  14.644  1.00  0.00     0.000 C 
BRANCH   9  10
ATOM     10  C   UNL     1      29.770  21.133  14.078  1.00  0.00     0.006 C 
BRANCH  10  11
ATOM     11  C   UNL     1      29.908  21.045  12.553  1.00  0.00     0.053 C 
BRANCH  11  12
ATOM     12  C   UNL     1      28.690  21.569  11.854  1.00  0.00     0.041 C 
ATOM     13  O   UNL     1      28.307  22.751  12.051  1.00  0.00    -0.550 OA
ATOM     14  O   UNL     1      28.002  20.761  10.959  1.00  0.00    -0.550 OA
ENDBRANCH  11  12
ENDBRANCH  10  11
ENDBRANCH   9  10
ENDBRANCH   8   9
ENDBRANCH   7   8
ENDBRANCH   6   7
ENDBRANCH   5   6
ENDBRANCH   4   5
ENDBRANCH   3   4
ENDBRANCH   2   3
ENDBRANCH   1   2
BRANCH   1  15
ATOM     15  C   UNL     1      18.410  19.909  15.862  1.00  0.00     0.000 C 
BRANCH  15  16
ATOM     16  C   UNL     1      17.444  19.875  17.060  1.00  0.00     0.000 C 
BRANCH  16  17
ATOM     17  C   UNL     1      16.256  20.839  16.897  1.00  0.00     0.000 C 
BRANCH  17  18
ATOM     18  C   UNL     1      15.135  20.251  16.023  1.00  0.00    -0.000 C 
BRANCH  18  19
ATOM     19  C   UNL     1      13.885  19.879  16.838  1.00  0.00    -0.000 C 
BRANCH  19  20
ATOM     20  C   UNL     1      13.063  21.109  17.265  1.00  0.00    -0.000 C 
BRANCH  20  21
ATOM     21  C   UNL     1      11.679  20.795  17.874  1.00  0.00    -0.000 C 
BRANCH  21  22
ATOM     22  C   UNL     1      11.687  20.458  19.377  1.00  0.00    -0.000 C 
BRANCH  22  23
ATOM     23  C   UNL     1      10.729  21.305  20.236  1.00  0.00    -0.000 C 
BRANCH  23  24
ATOM     24  C   UNL     1      11.247  21.574  21.665  1.00  0.00    -0.000 C 
BRANCH  24  25
ATOM     25  C   UNL     1      12.002  20.373  22.253  1.00  0.00    -0.003 C 
ATOM     26  C   UNL     1      11.675  20.188  23.732  1.00  0.00     0.004 C 
ENDBRANCH  24  25
ENDBRANCH  23  24
ENDBRANCH  22  23
ENDBRANCH  21  22
ENDBRANCH  20  21
ENDBRANCH  19  20
ENDBRANCH  18  19
ENDBRANCH  17  18
ENDBRANCH  16  17
ENDBRANCH  15  16
ENDBRANCH   1  15
TORSDOF 22
ENDMDL
MODEL 3
REMARK VINA RESULT:     1.121      5.801     14.774
REMARK INTER + INTRA:           1.625
REMARK INTER:                   2.603
REMARK INTRA:                  -0.978
REMARK UNBOUND:                -0.939
REMARK SMILES CCCCCCCCCCCCCCCCCCCCCCCC(=O)[O-]
REMARK SMILES IDX 13 1 14 2 15 3 16 4 17 5 18 6 19 7 20 8 21 9 22 10 23 11
REMARK SMILES IDX 24 12 25 13 26 14 12 15 11 16 10 17 9 18 8 19 7 20 6 21 5 22
REMARK SMILES IDX 4 23 3 24 2 25 1 26
REMARK H PARENT
REMARK Flexibility Score: inf
ROOT
ATOM      1  C   UNL     1      21.285  20.936  14.586  1.00  0.00     0.000 C 
ENDROOT
BRANCH   1   2
ATOM      2  C   UNL     1      20.106  19.955  14.697  1.00  0.00     0.000 C 
BRANCH   2   3
ATOM      3  C   UNL     1      19.274  20.156  15.979  1.00  0.00     0.000 C 
BRANCH   3   4
ATOM      4  C   UNL     1      17.766  19.877  15.836  1.00  0.00     0.000 C 
BRANCH   4   5
ATOM      5  C   UNL     1      16.925  20.518  16.949  1.00  0.00     0.000 C 
BRANCH   5   6
ATOM      6  C   UNL     1      15.596  21.054  16.394  1.00  0.00     0.000 C 
BRANCH   6   7
ATOM      7  C   UNL     1      14.458  20.023  16.478  1.00  0.00     0.000 C 
BRANCH   7   8
ATOM      8  C   UNL     1      13.091  20.670  16.764  1.00  0.00     0.000 C 
BRANCH   8   9
ATOM      9  C   UNL     1      12.386  20.038  17.975  1.00  0.00     0.000 C 
BRANCH   9  10
ATOM     10  C   UNL     1      11.003  20.655  18.246  1.00  0.00     0.006 C 
BRANCH  10  11
ATOM     11  C   UNL     1      10.564  20.471  19.704  1.00  0.00     0.053 C 
BRANCH  11  12
ATOM     12  C   UNL     1      11.383  21.308  20.639  1.00  0.00     0.041 C 
ATOM     13  O   UNL     1      11.380  22.562  20.535  1.00  0.00    -0.550 OA
ATOM     14  O   UNL     1      12.120  20.702  21.648  1.00  0.00    -0.550 OA
ENDBRANCH  11  12
ENDBRANCH  10  11
ENDBRANCH   9  10
ENDBRANCH   8   9
ENDBRANCH   7   8
ENDBRANCH   6   7
ENDBRANCH   5   6
ENDBRANCH   4   5
ENDBRANCH   3   4
ENDBRANCH   2   3
ENDBRANCH   1   2
BRANCH   1  15
ATOM     15  C   UNL     1      22.145  20.984  15.863  1.00  0.00     0.000 C 
BRANCH  15  16
ATOM     16  C   UNL     1      23.267  19.933  15.940  1.00  0.00     0.000 C 
BRANCH  16  17
ATOM     17  C   UNL     1      24.642  20.494  15.538  1.00  0.00     0.000 C 
BRANCH  17  18
ATOM     18  C   UNL     1      25.746  20.131  16.546  1.00  0.00    -0.000 C 
BRANCH  18  19
ATOM     19  C   UNL     1      26.911  21.134  16.531  1.00  0.00    -0.000 C 
BRANCH  19  20
ATOM     20  C   UNL     1      28.255  20.494  16.926  1.00  0.00    -0.000 C 
BRANCH  20  21
ATOM     21  C   UNL     1      29.097  19.954  15.750  1.00  0.00    -0.000 C 
BRANCH  21  22
ATOM     22  C   UNL     1      28.852  20.647  14.397  1.00  0.00    -0.000 C 
BRANCH  22  23
ATOM     23  C   UNL     1      30.125  20.952  13.584  1.00  0.00    -0.000 C 
BRANCH  23  24
ATOM     24  C   UNL     1      29.984  22.163  12.638  1.00  0.00    -0.000 C 
BRANCH  24  25
ATOM     25  C   UNL     1      28.624  22.199  11.926  1.00  0.00    -0.003 C 
ATOM     26  C   UNL     1      28.669  21.417  10.616  1.00  0.00     0.004 C 
ENDBRANCH  24  25
ENDBRANCH  23  24
ENDBRANCH  22  23
ENDBRANCH  21  22
ENDBRANCH  20  21
ENDBRANCH  19  20
ENDBRANCH  18  19
ENDBRANCH  17  18
ENDBRANCH  16  17
ENDBRANCH  15  16
ENDBRANCH   1  15
TORSDOF 22
ENDMDL
MODEL 4
REMARK VINA RESULT:     1.239      5.709     14.862
REMARK INTER + INTRA:           1.894
REMARK INTER:                   2.812
REMARK INTRA:                  -0.918
REMARK UNBOUND:                -0.939
REMARK SMILES CCCCCCCCCCCCCCCCCCCCCCCC(=O)[O-]
REMARK SMILES IDX 13 1 14 2 15 3 16 4 17 5 18 6 19 7 20 8 21 9 22 10 23 11
REMARK SMILES IDX 24 12 25 13 26 14 12 15 11 16 10 17 9 18 8 19 7 20 6 21 5 22
REMARK SMILES IDX 4 23 3 24 2 25 1 26
REMARK H PARENT
REMARK Flexibility Score: inf
ROOT
ATOM      1  C   UNL     1      17.702  20.681  15.884  1.00  0.00     0.000 C 
ENDROOT
BRANCH   1   2
ATOM      2  C   UNL     1      16.631  19.876  16.638  1.00  0.00     0.000 C 
BRANCH   2   3
ATOM      3  C   UNL     1      15.500  20.758  17.202  1.00  0.00     0.000 C 
BRANCH   3   4
ATOM      4  C   UNL     1      14.794  21.661  16.173  1.00  0.00     0.000 C 
BRANCH   4   5
ATOM      5  C   UNL     1      13.309  21.320  15.989  1.00  0.00     0.000 C 
BRANCH   5   6
ATOM      6  C   UNL     1      12.771  20.536  17.197  1.00  0.00     0.000 C 
BRANCH   6   7
ATOM      7  C   UNL     1      11.399  21.043  17.671  1.00  0.00     0.000 C 
BRANCH   7   8
ATOM      8  C   UNL     1      11.492  21.911  18.939  1.00  0.00     0.000 C 
BRANCH   8   9
ATOM      9  C   UNL     1      10.613  21.377  20.081  1.00  0.00     0.000 C 
BRANCH   9  10
ATOM     10  C   UNL     1      10.415  22.405  21.209  1.00  0.00     0.006 C 
BRANCH  10  11
ATOM     11  C   UNL     1      10.578  21.775  22.598  1.00  0.00     0.053 C 
BRANCH  11  12
ATOM     12  C   UNL     1      12.004  21.414  22.880  1.00  0.00     0.041 C 
ATOM     13  O   UNL     1      12.929  22.222  22.604  1.00  0.00    -0.550 OA
ATOM     14  O   UNL     1      12.308  20.200  23.480  1.00  0.00    -0.550 OA
ENDBRANCH  11  12
ENDBRANCH  10  11
ENDBRANCH   9  10
ENDBRANCH   8   9
ENDBRANCH   7   8
ENDBRANCH   6   7
ENDBRANCH   5   6
ENDBRANCH   4   5
ENDBRANCH   3   4
ENDBRANCH   2   3
ENDBRANCH   1   2
BRANCH   1  15
ATOM     15  C   UNL     1      18.992  19.876  15.638  1.00  0.00     0.000 C 
BRANCH  15  16
ATOM     16  C   UNL     1      20.238  20.716  15.300  1.00  0.00     0.000 C 
BRANCH  16  17
ATOM     17  C   UNL     1      21.535  19.888  15.299  1.00  0.00     0.000 C 
BRANCH  17  18
ATOM     18  C   UNL     1      22.783  20.749  15.559  1.00  0.00    -0.000 C 
BRANCH  18  19
ATOM     19  C   UNL     1      23.980  19.918  16.049  1.00  0.00    -0.000 C 
BRANCH  19  20
ATOM     20  C   UNL     1      25.263  20.181  15.238  1.00  0.00    -0.000 C 
BRANCH  20  21
ATOM     21  C   UNL     1      26.554  20.313  16.074  1.00  0.00    -0.000 C 
BRANCH  21  22
ATOM     22  C   UNL     1      27.624  21.250  15.483  1.00  0.00    -0.000 C 
BRANCH  22  23
ATOM     23  C   UNL     1      28.359  20.696  14.248  1.00  0.00    -0.000 C 
BRANCH  23  24
ATOM     24  C   UNL     1      28.885  21.790  13.294  1.00  0.00    -0.000 C 
BRANCH  24  25
ATOM     25  C   UNL     1      28.100  21.848  11.975  1.00  0.00    -0.003 C 
ATOM     26  C   UNL     1      29.032  21.704  10.775  1.00  0.00     0.004 C 
ENDBRANCH  24  25
ENDBRANCH  23  24
ENDBRANCH  22  23
ENDBRANCH  21  22
ENDBRANCH  20  21
ENDBRANCH  19  20
ENDBRANCH  18  19
ENDBRANCH  17  18
ENDBRANCH  16  17
ENDBRANCH  15  16
ENDBRANCH   1  15
TORSDOF 22
ENDMDL
MODEL 5
REMARK VINA RESULT:     1.464      5.733     14.626
REMARK INTER + INTRA:           2.408
REMARK INTER:                   3.228
REMARK INTRA:                  -0.820
REMARK UNBOUND:                -0.939
REMARK SMILES CCCCCCCCCCCCCCCCCCCCCCCC(=O)[O-]
REMARK SMILES IDX 13 1 14 2 15 3 16 4 17 5 18 6 19 7 20 8 21 9 22 10 23 11
REMARK SMILES IDX 24 12 25 13 26 14 12 15 11 16 10 17 9 18 8 19 7 20 6 21 5 22
REMARK SMILES IDX 4 23 3 24 2 25 1 26
REMARK H PARENT
REMARK Flexibility Score: inf
ROOT
ATOM      1  C   UNL     1      19.968  20.518  15.752  1.00  0.00     0.000 C 
ENDROOT
BRANCH   1   2
ATOM      2  C   UNL     1      18.587  19.876  15.543  1.00  0.00     0.000 C 
BRANCH   2   3
ATOM      3  C   UNL     1      17.722  19.878  16.818  1.00  0.00     0.000 C 
BRANCH   3   4
ATOM      4  C   UNL     1      16.202  19.954  16.582  1.00  0.00     0.000 C 
BRANCH   4   5
ATOM      5  C   UNL     1      15.698  21.386  16.353  1.00  0.00     0.000 C 
BRANCH   5   6
ATOM      6  C   UNL     1      14.182  21.479  16.587  1.00  0.00     0.000 C 
BRANCH   6   7
ATOM      7  C   UNL     1      13.580  20.165  17.114  1.00  0.00     0.000 C 
BRANCH   7   8
ATOM      8  C   UNL     1      13.177  20.249  18.597  1.00  0.00     0.000 C 
BRANCH   8   9
ATOM      9  C   UNL     1      11.695  19.907  18.821  1.00  0.00     0.000 C 
BRANCH   9  10
ATOM     10  C   UNL     1      10.823  20.207  17.589  1.00  0.00     0.006 C 
BRANCH  10  11
ATOM     11  C   UNL     1      10.068  21.535  17.726  1.00  0.00     0.053 C 
BRANCH  11  12
ATOM     12  C   UNL     1      10.055  22.302  16.439  1.00  0.00     0.041 C 
ATOM     13  O   UNL     1       9.922  21.698  15.343  1.00  0.00    -0.550 OA
ATOM     14  O   UNL     1      10.153  23.687  16.455  1.00  0.00    -0.550 OA
ENDBRANCH  11  12
ENDBRANCH  10  11
ENDBRANCH   9  10
ENDBRANCH   8   9
ENDBRANCH   7   8
ENDBRANCH   6   7
ENDBRANCH   5   6
ENDBRANCH   4   5
ENDBRANCH   3   4
ENDBRANCH   2   3
ENDBRANCH   1   2
BRANCH   1  15
ATOM     15  C   UNL     1      20.879  20.395  14.516  1.00  0.00     0.000 C 
BRANCH  15  16
ATOM     16  C   UNL     1      22.309  19.898  14.799  1.00  0.00     0.000 C 
BRANCH  16  17
ATOM     17  C   UNL     1      23.123  20.878  15.661  1.00  0.00     0.000 C 
BRANCH  17  18
ATOM     18  C   UNL     1      24.457  20.277  16.136  1.00  0.00    -0.000 C 
BRANCH  18  19
ATOM     19  C   UNL     1      25.637  21.247  15.959  1.00  0.00    -0.000 C 
BRANCH  19  20
ATOM     20  C   UNL     1      26.797  20.960  16.930  1.00  0.00    -0.000 C 
BRANCH  20  21
ATOM     21  C   UNL     1      27.823  19.916  16.439  1.00  0.00    -0.000 C 
BRANCH  21  22
ATOM     22  C   UNL     1      28.878  20.449  15.452  1.00  0.00    -0.000 C 
BRANCH  22  23
ATOM     23  C   UNL     1      28.309  21.245  14.262  1.00  0.00    -0.000 C 
BRANCH  23  24
ATOM     24  C   UNL     1      29.111  22.520  13.925  1.00  0.00    -0.000 C 
BRANCH  24  25
ATOM     25  C   UNL     1      29.756  22.459  12.533  1.00  0.00    -0.003 C 
ATOM     26  C   UNL     1      29.001  21.499  11.618  1.00  0.00     0.004 C 
ENDBRANCH  24  25
ENDBRANCH  23  24
ENDBRANCH  22  23
ENDBRANCH  21  22
ENDBRANCH  20  21
ENDBRANCH  19  20
ENDBRANCH  18  19
ENDBRANCH  17  18
ENDBRANCH  16  17
ENDBRANCH  15  16
ENDBRANCH   1  15
TORSDOF 22
ENDMDL
MODEL 6
REMARK VINA RESULT:     1.838      1.710      2.316
REMARK INTER + INTRA:           3.263
REMARK INTER:                   4.231
REMARK INTRA:                  -0.968
REMARK UNBOUND:                -0.939
REMARK SMILES CCCCCCCCCCCCCCCCCCCCCCCC(=O)[O-]
REMARK SMILES IDX 13 1 14 2 15 3 16 4 17 5 18 6 19 7 20 8 21 9 22 10 23 11
REMARK SMILES IDX 24 12 25 13 26 14 12 15 11 16 10 17 9 18 8 19 7 20 6 21 5 22
REMARK SMILES IDX 4 23 3 24 2 25 1 26
REMARK H PARENT
REMARK Flexibility Score: inf
ROOT
ATOM      1  C   UNL     1      20.899  21.275  14.983  1.00  0.00     0.000 C 
ENDROOT
BRANCH   1   2
ATOM      2  C   UNL     1      22.054  21.174  15.992  1.00  0.00     0.000 C 
BRANCH   2   3
ATOM      3  C   UNL     1      22.889  19.889  15.825  1.00  0.00     0.000 C 
BRANCH   3   4
ATOM      4  C   UNL     1      23.845  19.878  14.618  1.00  0.00     0.000 C 
BRANCH   4   5
ATOM      5  C   UNL     1      25.324  19.983  15.018  1.00  0.00     0.000 C 
BRANCH   5   6
ATOM      6  C   UNL     1      25.478  20.706  16.365  1.00  0.00     0.000 C 
BRANCH   6   7
ATOM      7  C   UNL     1      26.900  20.595  16.940  1.00  0.00     0.000 C 
BRANCH   7   8
ATOM      8  C   UNL     1      27.967  21.194  16.006  1.00  0.00     0.000 C 
BRANCH   8   9
ATOM      9  C   UNL     1      28.708  20.118  15.197  1.00  0.00     0.000 C 
BRANCH   9  10
ATOM     10  C   UNL     1      28.892  20.507  13.719  1.00  0.00     0.006 C 
BRANCH  10  11
ATOM     11  C   UNL     1      29.229  21.994  13.553  1.00  0.00     0.053 C 
BRANCH  11  12
ATOM     12  C   UNL     1      29.434  22.358  12.114  1.00  0.00     0.041 C 
ATOM     13  O   UNL     1      29.510  21.458  11.237  1.00  0.00    -0.550 OA
ATOM     14  O   UNL     1      29.503  23.693  11.738  1.00  0.00    -0.550 OA
ENDBRANCH  11  12
ENDBRANCH  10  11
ENDBRANCH   9  10
ENDBRANCH   8   9
ENDBRANCH   7   8
ENDBRANCH   6   7
ENDBRANCH   5   6
ENDBRANCH   4   5
ENDBRANCH   3   4
ENDBRANCH   2   3
ENDBRANCH   1   2
BRANCH   1  15
ATOM     15  C   UNL     1      20.226  19.918  14.706  1.00  0.00     0.000 C 
BRANCH  15  16
ATOM     16  C   UNL     1      18.691  19.907  14.825  1.00  0.00     0.000 C 
BRANCH  16  17
ATOM     17  C   UNL     1      18.196  20.339  16.217  1.00  0.00     0.000 C 
BRANCH  17  18
ATOM     18  C   UNL     1      16.757  19.875  16.501  1.00  0.00    -0.000 C 
BRANCH  18  19
ATOM     19  C   UNL     1      15.778  21.051  16.651  1.00  0.00    -0.000 C 
BRANCH  19  20
ATOM     20  C   UNL     1      14.308  20.599  16.722  1.00  0.00    -0.000 C 
BRANCH  20  21
ATOM     21  C   UNL     1      13.777  20.308  18.142  1.00  0.00    -0.000 C 
BRANCH  21  22
ATOM     22  C   UNL     1      12.272  19.989  18.226  1.00  0.00    -0.000 C 
BRANCH  22  23
ATOM     23  C   UNL     1      11.543  20.618  19.429  1.00  0.00    -0.000 C 
BRANCH  23  24
ATOM     24  C   UNL     1      10.639  21.812  19.055  1.00  0.00    -0.000 C 
BRANCH  24  25
ATOM     25  C   UNL     1      10.754  22.973  20.053  1.00  0.00    -0.003 C 
ATOM     26  C   UNL     1      10.502  22.498  21.481  1.00  0.00     0.004 C 
ENDBRANCH  24  25
ENDBRANCH  23  24
ENDBRANCH  22  23
ENDBRANCH  21  22
ENDBRANCH  20  21
ENDBRANCH  19  20
ENDBRANCH  18  19
ENDBRANCH  17  18
ENDBRANCH  16  17
ENDBRANCH  15  16
ENDBRANCH   1  15
TORSDOF 22
ENDMDL
MODEL 7
REMARK VINA RESULT:     1.966      1.825      3.156
REMARK INTER + INTRA:           3.556
REMARK INTER:                   4.334
REMARK INTRA:                  -0.779
REMARK UNBOUND:                -0.939
REMARK SMILES CCCCCCCCCCCCCCCCCCCCCCCC(=O)[O-]
REMARK SMILES IDX 13 1 14 2 15 3 16 4 17 5 18 6 19 7 20 8 21 9 22 10 23 11
REMARK SMILES IDX 24 12 25 13 26 14 12 15 11 16 10 17 9 18 8 19 7 20 6 21 5 22
REMARK SMILES IDX 4 23 3 24 2 25 1 26
REMARK H PARENT
REMARK Flexibility Score: inf
ROOT
ATOM      1  C   UNL     1      17.423  19.882  16.139  1.00  0.00     0.000 C 
ENDROOT
BRANCH   1   2
ATOM      2  C   UNL     1      18.933  19.921  16.427  1.00  0.00     0.000 C 
BRANCH   2   3
ATOM      3  C   UNL     1      19.746  20.566  15.288  1.00  0.00     0.000 C 
BRANCH   3   4
ATOM      4  C   UNL     1      21.084  19.876  14.962  1.00  0.00     0.000 C 
BRANCH   4   5
ATOM      5  C   UNL     1      22.306  20.754  15.265  1.00  0.00     0.000 C 
BRANCH   5   6
ATOM      6  C   UNL     1      23.442  19.922  15.880  1.00  0.00     0.000 C 
BRANCH   6   7
ATOM      7  C   UNL     1      24.810  20.222  15.245  1.00  0.00     0.000 C 
BRANCH   7   8
ATOM      8  C   UNL     1      25.786  20.894  16.228  1.00  0.00     0.000 C 
BRANCH   8   9
ATOM      9  C   UNL     1      27.190  20.269  16.179  1.00  0.00     0.000 C 
BRANCH   9  10
ATOM     10  C   UNL     1      27.733  20.141  14.744  1.00  0.00     0.006 C 
BRANCH  10  11
ATOM     11  C   UNL     1      28.252  21.480  14.203  1.00  0.00     0.053 C 
BRANCH  11  12
ATOM     12  C   UNL     1      27.933  21.651  12.749  1.00  0.00     0.041 C 
ATOM     13  O   UNL     1      28.484  22.566  12.083  1.00  0.00    -0.550 OA
ATOM     14  O   UNL     1      27.057  20.775  12.123  1.00  0.00    -0.550 OA
ENDBRANCH  11  12
ENDBRANCH  10  11
ENDBRANCH   9  10
ENDBRANCH   8   9
ENDBRANCH   7   8
ENDBRANCH   6   7
ENDBRANCH   5   6
ENDBRANCH   4   5
ENDBRANCH   3   4
ENDBRANCH   2   3
ENDBRANCH   1   2
BRANCH   1  15
ATOM     15  C   UNL     1      16.723  21.223  16.432  1.00  0.00     0.000 C 
BRANCH  15  16
ATOM     16  C   UNL     1      15.255  21.313  15.977  1.00  0.00     0.000 C 
BRANCH  16  17
ATOM     17  C   UNL     1      14.259  20.968  17.097  1.00  0.00     0.000 C 
BRANCH  17  18
ATOM     18  C   UNL     1      13.209  19.933  16.655  1.00  0.00    -0.000 C 
BRANCH  18  19
ATOM     19  C   UNL     1      11.977  19.914  17.574  1.00  0.00    -0.000 C 
BRANCH  19  20
ATOM     20  C   UNL     1      11.260  21.275  17.641  1.00  0.00    -0.000 C 
BRANCH  20  21
ATOM     21  C   UNL     1      11.503  22.084  18.933  1.00  0.00    -0.000 C 
BRANCH  21  22
ATOM     22  C   UNL     1      10.402  21.955  20.002  1.00  0.00    -0.000 C 
BRANCH  22  23
ATOM     23  C   UNL     1      10.018  20.508  20.366  1.00  0.00    -0.000 C 
BRANCH  23  24
ATOM     24  C   UNL     1      10.851  19.915  21.522  1.00  0.00    -0.000 C 
BRANCH  24  25
ATOM     25  C   UNL     1      12.185  20.649  21.723  1.00  0.00    -0.003 C 
ATOM     26  C   UNL     1      12.202  21.406  23.047  1.00  0.00     0.004 C 
ENDBRANCH  24  25
ENDBRANCH  23  24
ENDBRANCH  22  23
ENDBRANCH  21  22
ENDBRANCH  20  21
ENDBRANCH  19  20
ENDBRANCH  18  19
ENDBRANCH  17  18
ENDBRANCH  16  17
ENDBRANCH  15  16
ENDBRANCH   1  15
TORSDOF 22
ENDMDL
MODEL 8
REMARK VINA RESULT:     3.244      5.737     14.655
REMARK INTER + INTRA:           6.479
REMARK INTER:                   7.522
REMARK INTRA:                  -1.044
REMARK UNBOUND:                -0.939
REMARK SMILES CCCCCCCCCCCCCCCCCCCCCCCC(=O)[O-]
REMARK SMILES IDX 13 1 14 2 15 3 16 4 17 5 18 6 19 7 20 8 21 9 22 10 23 11
REMARK SMILES IDX 24 12 25 13 26 14 12 15 11 16 10 17 9 18 8 19 7 20 6 21 5 22
REMARK SMILES IDX 4 23 3 24 2 25 1 26
REMARK H PARENT
REMARK Flexibility Score: inf
ROOT
ATOM      1  C   UNL     1      16.176  20.644  16.833  1.00  0.00     0.000 C 
ENDROOT
BRANCH   1   2
ATOM      2  C   UNL     1      14.848  19.951  16.485  1.00  0.00     0.000 C 
BRANCH   2   3
ATOM      3  C   UNL     1      13.744  20.205  17.529  1.00  0.00     0.000 C 
BRANCH   3   4
ATOM      4  C   UNL     1      13.120  21.614  17.498  1.00  0.00     0.000 C 
BRANCH   4   5
ATOM      5  C   UNL     1      11.615  21.614  17.801  1.00  0.00     0.000 C 
BRANCH   5   6
ATOM      6  C   UNL     1      11.089  20.181  17.974  1.00  0.00     0.000 C 
BRANCH   6   7
ATOM      7  C   UNL     1      10.130  20.039  19.168  1.00  0.00     0.000 C 
BRANCH   7   8
ATOM      8  C   UNL     1      10.598  20.830  20.403  1.00  0.00     0.000 C 
BRANCH   8   9
ATOM      9  C   UNL     1       9.884  20.384  21.689  1.00  0.00     0.000 C 
BRANCH   9  10
ATOM     10  C   UNL     1      10.579  20.897  22.962  1.00  0.00     0.006 C 
BRANCH  10  11
ATOM     11  C   UNL     1      10.756  22.421  22.949  1.00  0.00     0.053 C 
BRANCH  11  12
ATOM     12  C   UNL     1      12.202  22.810  22.901  1.00  0.00     0.041 C 
ATOM     13  O   UNL     1      13.060  22.007  22.452  1.00  0.00    -0.550 OA
ATOM     14  O   UNL     1      12.595  24.075  23.317  1.00  0.00    -0.550 OA
ENDBRANCH  11  12
ENDBRANCH  10  11
ENDBRANCH   9  10
ENDBRANCH   8   9
ENDBRANCH   7   8
ENDBRANCH   6   7
ENDBRANCH   5   6
ENDBRANCH   4   5
ENDBRANCH   3   4
ENDBRANCH   2   3
ENDBRANCH   1   2
BRANCH   1  15
ATOM     15  C   UNL     1      17.310  20.291  15.853  1.00  0.00     0.000 C 
BRANCH  15  16
ATOM     16  C   UNL     1      18.667  19.969  16.504  1.00  0.00     0.000 C 
BRANCH  16  17
ATOM     17  C   UNL     1      19.863  20.375  15.626  1.00  0.00     0.000 C 
BRANCH  17  18
ATOM     18  C   UNL     1      20.953  21.117  16.419  1.00  0.00    -0.000 C 
BRANCH  18  19
ATOM     19  C   UNL     1      22.373  20.736  15.969  1.00  0.00    -0.000 C 
BRANCH  19  20
ATOM     20  C   UNL     1      22.506  20.626  14.439  1.00  0.00    -0.000 C 
BRANCH  20  21
ATOM     21  C   UNL     1      23.934  20.354  13.921  1.00  0.00    -0.000 C 
BRANCH  21  22
ATOM     22  C   UNL     1      24.941  19.891  14.990  1.00  0.00    -0.000 C 
BRANCH  22  23
ATOM     23  C   UNL     1      26.412  19.879  14.534  1.00  0.00    -0.000 C 
BRANCH  23  24
ATOM     24  C   UNL     1      26.629  20.453  13.117  1.00  0.00    -0.000 C 
BRANCH  24  25
ATOM     25  C   UNL     1      27.999  21.129  12.959  1.00  0.00    -0.003 C 
ATOM     26  C   UNL     1      29.105  20.093  12.780  1.00  0.00     0.004 C 
ENDBRANCH  24  25
ENDBRANCH  23  24
ENDBRANCH  22  23
ENDBRANCH  21  22
ENDBRANCH  20  21
ENDBRANCH  19  20
ENDBRANCH  18  19
ENDBRANCH  17  18
ENDBRANCH  16  17
ENDBRANCH  15  16
ENDBRANCH   1  15
TORSDOF 22
ENDMDL
