MODEL 1
REMARK VINA RESULT:    -6.315      0.000      0.000
REMARK INTER + INTRA:          -7.948
REMARK INTER:                  -7.607
REMARK INTRA:                  -0.341
REMARK UNBOUND:                -0.341
REMARK SMILES O=c1c(O)c(-c2ccc(O)cc2O)oc2cc(O)cc(O)c12
REMARK SMILES IDX 5 1 3 2 2 3 1 4 22 5 20 6 19 7 17 8 16 9 15 10 14 11 6 12
REMARK SMILES IDX 8 13 7 14 9 15 11 16 12 17 10 18 13 20 4 22 21 24 18 26
REMARK H PARENT 10 19 13 21 4 23 21 25 18 27
REMARK Flexibility Score: inf
ROOT
ATOM      1  C   UNL     1      15.560  -7.749 -32.114  1.00  0.00     0.184 A 
ATOM      2  C   UNL     1      14.891  -7.371 -33.287  1.00  0.00     0.208 A 
ATOM      3  C   UNL     1      15.643  -7.049 -34.428  1.00  0.00     0.238 A 
ATOM      4  O   UNL     1      15.039  -6.658 -35.461  1.00  0.00    -0.285 OA
ATOM      5  C   UNL     1      17.057  -7.128 -34.382  1.00  0.00     0.111 A 
ATOM      6  C   UNL     1      17.919  -6.863 -35.489  1.00  0.00     0.134 A 
ATOM      7  C   UNL     1      19.306  -6.846 -35.295  1.00  0.00     0.093 A 
ATOM      8  C   UNL     1      19.863  -7.146 -34.049  1.00  0.00     0.123 A 
ATOM      9  C   UNL     1      19.032  -7.462 -32.978  1.00  0.00     0.094 A 
ATOM     10  C   UNL     1      17.644  -7.453 -33.131  1.00  0.00     0.146 A 
ATOM     11  O   UNL     1      16.887  -7.751 -32.081  1.00  0.00    -0.451 OA
ENDROOT
BRANCH   1  12
ATOM     12  C   UNL     1      14.827  -8.116 -30.885  1.00  0.00     0.063 A 
ATOM     13  C   UNL     1      14.007  -9.853 -29.393  1.00  0.00     0.047 A 
ATOM     14  C   UNL     1      14.699  -9.472 -30.547  1.00  0.00     0.020 A 
ATOM     15  C   UNL     1      13.422  -8.886 -28.573  1.00  0.00     0.119 A 
ATOM     16  C   UNL     1      13.523  -7.530 -28.913  1.00  0.00     0.093 A 
ATOM     17  C   UNL     1      14.211  -7.140 -30.072  1.00  0.00     0.130 A 
BRANCH  15  18
ATOM     18  O   UNL     1      12.739  -9.280 -27.425  1.00  0.00    -0.508 OA
ATOM     19  H   UNL     1      11.757  -9.531 -27.452  1.00  0.00     0.293 HD
ENDBRANCH  15  18
BRANCH  17  20
ATOM     20  O   UNL     1      14.263  -5.792 -30.427  1.00  0.00    -0.507 OA
ATOM     21  H   UNL     1      14.379  -5.500 -31.390  1.00  0.00     0.293 HD
ENDBRANCH  17  20
ENDBRANCH   1  12
BRANCH   2  22
ATOM     22  O   UNL     1      13.495  -7.283 -33.299  1.00  0.00    -0.502 OA
ATOM     23  H   UNL     1      12.901  -8.101 -33.368  1.00  0.00     0.293 HD
ENDBRANCH   2  22
BRANCH   6  24
ATOM     24  O   UNL     1      17.468  -6.643 -36.794  1.00  0.00    -0.507 OA
ATOM     25  H   UNL     1      18.047  -6.698 -37.619  1.00  0.00     0.293 HD
ENDBRANCH   6  24
BRANCH   8  26
ATOM     26  O   UNL     1      21.244  -7.141 -33.869  1.00  0.00    -0.508 OA
ATOM     27  H   UNL     1      21.664  -6.843 -32.996  1.00  0.00     0.293 HD
ENDBRANCH   8  26
TORSDOF 6
ENDMDL
MODEL 2
REMARK VINA RESULT:    -5.715      1.644      6.267
REMARK INTER + INTRA:          -7.225
REMARK INTER:                  -6.813
REMARK INTRA:                  -0.411
REMARK UNBOUND:                -0.341
REMARK SMILES O=c1c(O)c(-c2ccc(O)cc2O)oc2cc(O)cc(O)c12
REMARK SMILES IDX 5 1 3 2 2 3 1 4 22 5 20 6 19 7 17 8 16 9 15 10 14 11 6 12
REMARK SMILES IDX 8 13 7 14 9 15 11 16 12 17 10 18 13 20 4 22 21 24 18 26
REMARK H PARENT 10 19 13 21 4 23 21 25 18 27
REMARK Flexibility Score: inf
ROOT
ATOM      1  C   UNL     1      16.721  -7.421 -32.770  1.00  0.00     0.184 A 
ATOM      2  C   UNL     1      15.612  -7.611 -33.608  1.00  0.00     0.208 A 
ATOM      3  C   UNL     1      14.461  -8.222 -33.087  1.00  0.00     0.238 A 
ATOM      4  O   UNL     1      13.490  -8.439 -33.858  1.00  0.00    -0.285 OA
ATOM      5  C   UNL     1      14.430  -8.619 -31.728  1.00  0.00     0.111 A 
ATOM      6  C   UNL     1      13.303  -9.211 -31.083  1.00  0.00     0.134 A 
ATOM      7  C   UNL     1      13.427  -9.682 -29.770  1.00  0.00     0.093 A 
ATOM      8  C   UNL     1      14.619  -9.525 -29.058  1.00  0.00     0.123 A 
ATOM      9  C   UNL     1      15.706  -8.896 -29.660  1.00  0.00     0.094 A 
ATOM     10  C   UNL     1      15.624  -8.447 -30.979  1.00  0.00     0.146 A 
ATOM     11  O   UNL     1      16.687  -7.862 -31.518  1.00  0.00    -0.451 OA
ENDROOT
BRANCH   1  12
ATOM     12  C   UNL     1      17.957  -6.770 -33.252  1.00  0.00     0.063 A 
ATOM     13  C   UNL     1      20.159  -6.981 -34.260  1.00  0.00     0.047 A 
ATOM     14  C   UNL     1      18.976  -7.564 -33.800  1.00  0.00     0.020 A 
ATOM     15  C   UNL     1      20.346  -5.600 -34.164  1.00  0.00     0.119 A 
ATOM     16  C   UNL     1      19.345  -4.800 -33.597  1.00  0.00     0.093 A 
ATOM     17  C   UNL     1      18.157  -5.378 -33.127  1.00  0.00     0.130 A 
BRANCH  15  18
ATOM     18  O   UNL     1      21.530  -5.033 -34.631  1.00  0.00    -0.508 OA
ATOM     19  H   UNL     1      22.428  -5.476 -34.474  1.00  0.00     0.293 HD
ENDBRANCH  15  18
BRANCH  17  20
ATOM     20  O   UNL     1      17.189  -4.579 -32.520  1.00  0.00    -0.507 OA
ATOM     21  H   UNL     1      17.084  -3.599 -32.756  1.00  0.00     0.293 HD
ENDBRANCH  17  20
ENDBRANCH   1  12
BRANCH   2  22
ATOM     22  O   UNL     1      15.677  -7.226 -34.951  1.00  0.00    -0.502 OA
ATOM     23  H   UNL     1      16.498  -6.789 -35.352  1.00  0.00     0.293 HD
ENDBRANCH   2  22
BRANCH   6  24
ATOM     24  O   UNL     1      12.040  -9.332 -31.673  1.00  0.00    -0.507 OA
ATOM     25  H   UNL     1      11.768 -10.074 -32.300  1.00  0.00     0.293 HD
ENDBRANCH   6  24
BRANCH   8  26
ATOM     26  O   UNL     1      14.729  -9.983 -27.747  1.00  0.00    -0.508 OA
ATOM     27  H   UNL     1      14.226 -10.803 -27.428  1.00  0.00     0.293 HD
ENDBRANCH   8  26
TORSDOF 6
ENDMDL
MODEL 3
REMARK VINA RESULT:    -5.582      1.791      2.678
REMARK INTER + INTRA:          -7.065
REMARK INTER:                  -6.823
REMARK INTRA:                  -0.242
REMARK UNBOUND:                -0.341
REMARK SMILES O=c1c(O)c(-c2ccc(O)cc2O)oc2cc(O)cc(O)c12
REMARK SMILES IDX 5 1 3 2 2 3 1 4 22 5 20 6 19 7 17 8 16 9 15 10 14 11 6 12
REMARK SMILES IDX 8 13 7 14 9 15 11 16 12 17 10 18 13 20 4 22 21 24 18 26
REMARK H PARENT 10 19 13 21 4 23 21 25 18 27
REMARK Flexibility Score: inf
ROOT
ATOM      1  C   UNL     1      15.260  -7.870 -30.870  1.00  0.00     0.184 A 
ATOM      2  C   UNL     1      14.329  -6.840 -31.070  1.00  0.00     0.208 A 
ATOM      3  C   UNL     1      14.457  -6.015 -32.200  1.00  0.00     0.238 A 
ATOM      4  O   UNL     1      13.651  -5.060 -32.346  1.00  0.00    -0.285 OA
ATOM      5  C   UNL     1      15.507  -6.246 -33.122  1.00  0.00     0.111 A 
ATOM      6  C   UNL     1      15.709  -5.499 -34.321  1.00  0.00     0.134 A 
ATOM      7  C   UNL     1      16.855  -5.730 -35.093  1.00  0.00     0.093 A 
ATOM      8  C   UNL     1      17.772  -6.724 -34.743  1.00  0.00     0.123 A 
ATOM      9  C   UNL     1      17.552  -7.497 -33.606  1.00  0.00     0.094 A 
ATOM     10  C   UNL     1      16.438  -7.268 -32.797  1.00  0.00     0.146 A 
ATOM     11  O   UNL     1      16.272  -8.021 -31.716  1.00  0.00    -0.451 OA
ENDROOT
BRANCH   1  12
ATOM     12  C   UNL     1      15.172  -8.782 -29.710  1.00  0.00     0.063 A 
ATOM     13  C   UNL     1      16.195  -9.694 -27.702  1.00  0.00     0.047 A 
ATOM     14  C   UNL     1      16.244  -8.839 -28.806  1.00  0.00     0.020 A 
ATOM     15  C   UNL     1      15.083 -10.514 -27.497  1.00  0.00     0.119 A 
ATOM     16  C   UNL     1      14.017 -10.483 -28.406  1.00  0.00     0.093 A 
ATOM     17  C   UNL     1      14.061  -9.631 -29.520  1.00  0.00     0.130 A 
BRANCH  15  18
ATOM     18  O   UNL     1      15.047 -11.358 -26.389  1.00  0.00    -0.508 OA
ATOM     19  H   UNL     1      14.510 -12.219 -26.396  1.00  0.00     0.293 HD
ENDBRANCH  15  18
BRANCH  17  20
ATOM     20  O   UNL     1      13.017  -9.644 -30.444  1.00  0.00    -0.507 OA
ATOM     21  H   UNL     1      12.110  -9.248 -30.227  1.00  0.00     0.293 HD
ENDBRANCH  17  20
ENDBRANCH   1  12
BRANCH   2  22
ATOM     22  O   UNL     1      13.313  -6.623 -30.134  1.00  0.00    -0.502 OA
ATOM     23  H   UNL     1      13.435  -6.017 -29.331  1.00  0.00     0.293 HD
ENDBRANCH   2  22
BRANCH   6  24
ATOM     24  O   UNL     1      14.808  -4.548 -34.811  1.00  0.00    -0.507 OA
ATOM     25  H   UNL     1      14.424  -3.789 -34.269  1.00  0.00     0.293 HD
ENDBRANCH   6  24
BRANCH   8  26
ATOM     26  O   UNL     1      18.902  -6.957 -35.525  1.00  0.00    -0.508 OA
ATOM     27  H   UNL     1      19.223  -7.897 -35.724  1.00  0.00     0.293 HD
ENDBRANCH   8  26
TORSDOF 6
ENDMDL
MODEL 4
REMARK VINA RESULT:    -5.442      4.250      6.339
REMARK INTER + INTRA:          -6.897
REMARK INTER:                  -6.480
REMARK INTRA:                  -0.416
REMARK UNBOUND:                -0.341
REMARK SMILES O=c1c(O)c(-c2ccc(O)cc2O)oc2cc(O)cc(O)c12
REMARK SMILES IDX 5 1 3 2 2 3 1 4 22 5 20 6 19 7 17 8 16 9 15 10 14 11 6 12
REMARK SMILES IDX 8 13 7 14 9 15 11 16 12 17 10 18 13 20 4 22 21 24 18 26
REMARK H PARENT 10 19 13 21 4 23 21 25 18 27
REMARK Flexibility Score: inf
ROOT
ATOM      1  C   UNL     1      12.881  -8.236 -32.082  1.00  0.00     0.184 A 
ATOM      2  C   UNL     1      12.524  -7.013 -31.494  1.00  0.00     0.208 A 
ATOM      3  C   UNL     1      13.078  -6.668 -30.251  1.00  0.00     0.238 A 
ATOM      4  O   UNL     1      12.714  -5.595 -29.704  1.00  0.00    -0.285 OA
ATOM      5  C   UNL     1      13.996  -7.545 -29.622  1.00  0.00     0.111 A 
ATOM      6  C   UNL     1      14.650  -7.280 -28.382  1.00  0.00     0.134 A 
ATOM      7  C   UNL     1      15.438  -8.275 -27.790  1.00  0.00     0.093 A 
ATOM      8  C   UNL     1      15.646  -9.502 -28.425  1.00  0.00     0.123 A 
ATOM      9  C   UNL     1      15.060  -9.747 -29.664  1.00  0.00     0.094 A 
ATOM     10  C   UNL     1      14.240  -8.789 -30.263  1.00  0.00     0.146 A 
ATOM     11  O   UNL     1      13.692  -9.068 -31.439  1.00  0.00    -0.451 OA
ENDROOT
BRANCH   1  12
ATOM     12  C   UNL     1      12.346  -8.652 -33.396  1.00  0.00     0.063 A 
ATOM     13  C   UNL     1      12.290  -8.346 -35.807  1.00  0.00     0.047 A 
ATOM     14  C   UNL     1      12.779  -7.981 -34.550  1.00  0.00     0.020 A 
ATOM     15  C   UNL     1      11.351  -9.373 -35.925  1.00  0.00     0.119 A 
ATOM     16  C   UNL     1      10.894 -10.034 -34.777  1.00  0.00     0.093 A 
ATOM     17  C   UNL     1      11.376  -9.670 -33.511  1.00  0.00     0.130 A 
BRANCH  15  18
ATOM     18  O   UNL     1      10.875  -9.728 -37.185  1.00  0.00    -0.508 OA
ATOM     19  H   UNL     1      11.506  -9.957 -37.945  1.00  0.00     0.293 HD
ENDBRANCH  15  18
BRANCH  17  20
ATOM     20  O   UNL     1      10.878 -10.300 -32.371  1.00  0.00    -0.507 OA
ATOM     21  H   UNL     1      10.358  -9.791 -31.667  1.00  0.00     0.293 HD
ENDBRANCH  17  20
ENDBRANCH   1  12
BRANCH   2  22
ATOM     22  O   UNL     1      11.602  -6.175 -32.128  1.00  0.00    -0.502 OA
ATOM     23  H   UNL     1      11.072  -6.467 -32.940  1.00  0.00     0.293 HD
ENDBRANCH   2  22
BRANCH   6  24
ATOM     24  O   UNL     1      14.582  -6.055 -27.710  1.00  0.00    -0.507 OA
ATOM     25  H   UNL     1      13.774  -5.719 -27.207  1.00  0.00     0.293 HD
ENDBRANCH   6  24
BRANCH   8  26
ATOM     26  O   UNL     1      16.444 -10.480 -27.836  1.00  0.00    -0.508 OA
ATOM     27  H   UNL     1      16.440 -11.437 -28.167  1.00  0.00     0.293 HD
ENDBRANCH   8  26
TORSDOF 6
ENDMDL
MODEL 5
REMARK VINA RESULT:    -5.343      2.623      6.356
REMARK INTER + INTRA:          -6.777
REMARK INTER:                  -6.375
REMARK INTRA:                  -0.403
REMARK UNBOUND:                -0.341
REMARK SMILES O=c1c(O)c(-c2ccc(O)cc2O)oc2cc(O)cc(O)c12
REMARK SMILES IDX 5 1 3 2 2 3 1 4 22 5 20 6 19 7 17 8 16 9 15 10 14 11 6 12
REMARK SMILES IDX 8 13 7 14 9 15 11 16 12 17 10 18 13 20 4 22 21 24 18 26
REMARK H PARENT 10 19 13 21 4 23 21 25 18 27
REMARK Flexibility Score: inf
ROOT
ATOM      1  C   UNL     1      15.701  -7.597 -33.075  1.00  0.00     0.184 A 
ATOM      2  C   UNL     1      15.308  -8.161 -31.852  1.00  0.00     0.208 A 
ATOM      3  C   UNL     1      14.100  -8.875 -31.788  1.00  0.00     0.238 A 
ATOM      4  O   UNL     1      13.727  -9.333 -30.677  1.00  0.00    -0.285 OA
ATOM      5  C   UNL     1      13.312  -9.029 -32.956  1.00  0.00     0.111 A 
ATOM      6  C   UNL     1      12.092  -9.766 -33.016  1.00  0.00     0.134 A 
ATOM      7  C   UNL     1      11.330  -9.743 -34.192  1.00  0.00     0.093 A 
ATOM      8  C   UNL     1      11.776  -9.062 -35.327  1.00  0.00     0.123 A 
ATOM      9  C   UNL     1      12.995  -8.389 -35.295  1.00  0.00     0.094 A 
ATOM     10  C   UNL     1      13.760  -8.364 -34.127  1.00  0.00     0.146 A 
ATOM     11  O   UNL     1      14.911  -7.701 -34.136  1.00  0.00    -0.451 OA
ENDROOT
BRANCH   1  12
ATOM     12  C   UNL     1      16.967  -6.848 -33.213  1.00  0.00     0.063 A 
ATOM     13  C   UNL     1      19.342  -6.858 -33.736  1.00  0.00     0.047 A 
ATOM     14  C   UNL     1      18.127  -7.536 -33.601  1.00  0.00     0.020 A 
ATOM     15  C   UNL     1      19.416  -5.489 -33.471  1.00  0.00     0.119 A 
ATOM     16  C   UNL     1      18.270  -4.796 -33.060  1.00  0.00     0.093 A 
ATOM     17  C   UNL     1      17.048  -5.470 -32.917  1.00  0.00     0.130 A 
BRANCH  15  18
ATOM     18  O   UNL     1      20.633  -4.827 -33.614  1.00  0.00    -0.508 OA
ATOM     19  H   UNL     1      20.838  -4.265 -34.433  1.00  0.00     0.293 HD
ENDBRANCH  15  18
BRANCH  17  20
ATOM     20  O   UNL     1      15.925  -4.781 -32.461  1.00  0.00    -0.507 OA
ATOM     21  H   UNL     1      14.986  -5.071 -32.709  1.00  0.00     0.293 HD
ENDBRANCH  17  20
ENDBRANCH   1  12
BRANCH   2  22
ATOM     22  O   UNL     1      16.096  -7.978 -30.712  1.00  0.00    -0.502 OA
ATOM     23  H   UNL     1      17.056  -7.661 -30.761  1.00  0.00     0.293 HD
ENDBRANCH   2  22
BRANCH   6  24
ATOM     24  O   UNL     1      11.602 -10.554 -31.970  1.00  0.00    -0.507 OA
ATOM     25  H   UNL     1      11.836 -10.427 -30.997  1.00  0.00     0.293 HD
ENDBRANCH   6  24
BRANCH   8  26
ATOM     26  O   UNL     1      11.019  -9.057 -36.496  1.00  0.00    -0.508 OA
ATOM     27  H   UNL     1      10.061  -8.728 -36.506  1.00  0.00     0.293 HD
ENDBRANCH   8  26
TORSDOF 6
ENDMDL
MODEL 6
REMARK VINA RESULT:    -5.328      4.420      7.424
REMARK INTER + INTRA:          -6.759
REMARK INTER:                  -6.341
REMARK INTRA:                  -0.419
REMARK UNBOUND:                -0.341
REMARK SMILES O=c1c(O)c(-c2ccc(O)cc2O)oc2cc(O)cc(O)c12
REMARK SMILES IDX 5 1 3 2 2 3 1 4 22 5 20 6 19 7 17 8 16 9 15 10 14 11 6 12
REMARK SMILES IDX 8 13 7 14 9 15 11 16 12 17 10 18 13 20 4 22 21 24 18 26
REMARK H PARENT 10 19 13 21 4 23 21 25 18 27
REMARK Flexibility Score: inf
ROOT
ATOM      1  C   UNL     1      21.244  -5.096 -35.504  1.00  0.00     0.184 A 
ATOM      2  C   UNL     1      21.326  -5.298 -36.890  1.00  0.00     0.208 A 
ATOM      3  C   UNL     1      22.517  -4.971 -37.558  1.00  0.00     0.238 A 
ATOM      4  O   UNL     1      22.565  -5.104 -38.808  1.00  0.00    -0.285 OA
ATOM      5  C   UNL     1      23.617  -4.462 -36.824  1.00  0.00     0.111 A 
ATOM      6  C   UNL     1      24.885  -4.135 -37.389  1.00  0.00     0.134 A 
ATOM      7  C   UNL     1      25.858  -3.518 -36.593  1.00  0.00     0.093 A 
ATOM      8  C   UNL     1      25.630  -3.274 -35.236  1.00  0.00     0.123 A 
ATOM      9  C   UNL     1      24.416  -3.644 -34.662  1.00  0.00     0.094 A 
ATOM     10  C   UNL     1      23.413  -4.229 -35.438  1.00  0.00     0.146 A 
ATOM     11  O   UNL     1      22.267  -4.556 -34.853  1.00  0.00    -0.451 OA
ENDROOT
BRANCH   1  12
ATOM     12  C   UNL     1      20.025  -5.434 -34.740  1.00  0.00     0.063 A 
ATOM     13  C   UNL     1      17.766  -4.842 -34.063  1.00  0.00     0.047 A 
ATOM     14  C   UNL     1      18.932  -4.555 -34.778  1.00  0.00     0.020 A 
ATOM     15  C   UNL     1      17.684  -6.002 -33.289  1.00  0.00     0.119 A 
ATOM     16  C   UNL     1      18.778  -6.875 -33.225  1.00  0.00     0.093 A 
ATOM     17  C   UNL     1      19.954  -6.591 -33.936  1.00  0.00     0.130 A 
BRANCH  15  18
ATOM     18  O   UNL     1      16.514  -6.276 -32.585  1.00  0.00    -0.508 OA
ATOM     19  H   UNL     1      16.512  -6.364 -31.575  1.00  0.00     0.293 HD
ENDBRANCH  15  18
BRANCH  17  20
ATOM     20  O   UNL     1      21.053  -7.442 -33.825  1.00  0.00    -0.507 OA
ATOM     21  H   UNL     1      21.348  -8.032 -34.595  1.00  0.00     0.293 HD
ENDBRANCH  17  20
ENDBRANCH   1  12
BRANCH   2  22
ATOM     22  O   UNL     1      20.218  -5.784 -37.592  1.00  0.00    -0.502 OA
ATOM     23  H   UNL     1      19.585  -5.175 -38.096  1.00  0.00     0.293 HD
ENDBRANCH   2  22
BRANCH   6  24
ATOM     24  O   UNL     1      25.248  -4.420 -38.710  1.00  0.00    -0.507 OA
ATOM     25  H   UNL     1      25.206  -5.335 -39.133  1.00  0.00     0.293 HD
ENDBRANCH   6  24
BRANCH   8  26
ATOM     26  O   UNL     1      26.609  -2.674 -34.447  1.00  0.00    -0.508 OA
ATOM     27  H   UNL     1      26.378  -2.217 -33.573  1.00  0.00     0.293 HD
ENDBRANCH   8  26
TORSDOF 6
ENDMDL
MODEL 7
REMARK VINA RESULT:    -5.196      4.375      5.472
REMARK INTER + INTRA:          -6.601
REMARK INTER:                  -6.278
REMARK INTRA:                  -0.323
REMARK UNBOUND:                -0.341
REMARK SMILES O=c1c(O)c(-c2ccc(O)cc2O)oc2cc(O)cc(O)c12
REMARK SMILES IDX 5 1 3 2 2 3 1 4 22 5 20 6 19 7 17 8 16 9 15 10 14 11 6 12
REMARK SMILES IDX 8 13 7 14 9 15 11 16 12 17 10 18 13 20 4 22 21 24 18 26
REMARK H PARENT 10 19 13 21 4 23 21 25 18 27
REMARK Flexibility Score: inf
ROOT
ATOM      1  C   UNL     1      13.826  -8.311 -30.295  1.00  0.00     0.184 A 
ATOM      2  C   UNL     1      13.596  -6.928 -30.361  1.00  0.00     0.208 A 
ATOM      3  C   UNL     1      12.816  -6.416 -31.410  1.00  0.00     0.238 A 
ATOM      4  O   UNL     1      12.659  -5.171 -31.495  1.00  0.00    -0.285 OA
ATOM      5  C   UNL     1      12.262  -7.300 -32.369  1.00  0.00     0.111 A 
ATOM      6  C   UNL     1      11.423  -6.896 -33.451  1.00  0.00     0.134 A 
ATOM      7  C   UNL     1      11.037  -7.838 -34.413  1.00  0.00     0.093 A 
ATOM      8  C   UNL     1      11.408  -9.180 -34.298  1.00  0.00     0.123 A 
ATOM      9  C   UNL     1      12.177  -9.593 -33.213  1.00  0.00     0.094 A 
ATOM     10  C   UNL     1      12.607  -8.672 -32.256  1.00  0.00     0.146 A 
ATOM     11  O   UNL     1      13.349  -9.107 -31.244  1.00  0.00    -0.451 OA
ENDROOT
BRANCH   1  12
ATOM     12  C   UNL     1      14.624  -8.914 -29.208  1.00  0.00     0.063 A 
ATOM     13  C   UNL     1      16.754  -9.096 -28.048  1.00  0.00     0.047 A 
ATOM     14  C   UNL     1      15.969  -8.540 -29.062  1.00  0.00     0.020 A 
ATOM     15  C   UNL     1      16.210 -10.043 -27.178  1.00  0.00     0.119 A 
ATOM     16  C   UNL     1      14.876 -10.442 -27.329  1.00  0.00     0.093 A 
ATOM     17  C   UNL     1      14.083  -9.893 -28.348  1.00  0.00     0.130 A 
BRANCH  15  18
ATOM     18  O   UNL     1      17.004 -10.586 -26.170  1.00  0.00    -0.508 OA
ATOM     19  H   UNL     1      16.605 -10.893 -25.290  1.00  0.00     0.293 HD
ENDBRANCH  15  18
BRANCH  17  20
ATOM     20  O   UNL     1      12.771 -10.334 -28.520  1.00  0.00    -0.507 OA
ATOM     21  H   UNL     1      12.142 -10.449 -27.734  1.00  0.00     0.293 HD
ENDBRANCH  17  20
ENDBRANCH   1  12
BRANCH   2  22
ATOM     22  O   UNL     1      14.171  -6.078 -29.412  1.00  0.00    -0.502 OA
ATOM     23  H   UNL     1      14.039  -5.074 -29.432  1.00  0.00     0.293 HD
ENDBRANCH   2  22
BRANCH   6  24
ATOM     24  O   UNL     1      10.920  -5.601 -33.609  1.00  0.00    -0.507 OA
ATOM     25  H   UNL     1       9.941  -5.360 -33.602  1.00  0.00     0.293 HD
ENDBRANCH   6  24
BRANCH   8  26
ATOM     26  O   UNL     1      11.007 -10.113 -35.252  1.00  0.00    -0.508 OA
ATOM     27  H   UNL     1      10.717  -9.830 -36.180  1.00  0.00     0.293 HD
ENDBRANCH   8  26
TORSDOF 6
ENDMDL
MODEL 8
REMARK VINA RESULT:    -5.178      1.709      2.075
REMARK INTER + INTRA:          -6.578
REMARK INTER:                  -6.271
REMARK INTRA:                  -0.307
REMARK UNBOUND:                -0.341
REMARK SMILES O=c1c(O)c(-c2ccc(O)cc2O)oc2cc(O)cc(O)c12
REMARK SMILES IDX 5 1 3 2 2 3 1 4 22 5 20 6 19 7 17 8 16 9 15 10 14 11 6 12
REMARK SMILES IDX 8 13 7 14 9 15 11 16 12 17 10 18 13 20 4 22 21 24 18 26
REMARK H PARENT 10 19 13 21 4 23 21 25 18 27
REMARK Flexibility Score: inf
ROOT
ATOM      1  C   UNL     1      16.063  -7.098 -32.408  1.00  0.00     0.184 A 
ATOM      2  C   UNL     1      15.626  -5.805 -32.734  1.00  0.00     0.208 A 
ATOM      3  C   UNL     1      16.426  -5.005 -33.565  1.00  0.00     0.238 A 
ATOM      4  O   UNL     1      16.055  -3.828 -33.810  1.00  0.00    -0.285 OA
ATOM      5  C   UNL     1      17.646  -5.517 -34.072  1.00  0.00     0.111 A 
ATOM      6  C   UNL     1      18.516  -4.810 -34.954  1.00  0.00     0.134 A 
ATOM      7  C   UNL     1      19.758  -5.364 -35.289  1.00  0.00     0.093 A 
ATOM      8  C   UNL     1      20.133  -6.627 -34.824  1.00  0.00     0.123 A 
ATOM      9  C   UNL     1      19.265  -7.349 -34.011  1.00  0.00     0.094 A 
ATOM     10  C   UNL     1      18.035  -6.809 -33.630  1.00  0.00     0.146 A 
ATOM     11  O   UNL     1      17.241  -7.528 -32.844  1.00  0.00    -0.451 OA
ENDROOT
BRANCH   1  12
ATOM     12  C   UNL     1      15.261  -7.997 -31.553  1.00  0.00     0.063 A 
ATOM     13  C   UNL     1      15.028  -9.211 -29.459  1.00  0.00     0.047 A 
ATOM     14  C   UNL     1      15.758  -8.359 -30.291  1.00  0.00     0.020 A 
ATOM     15  C   UNL     1      13.800  -9.724 -29.882  1.00  0.00     0.119 A 
ATOM     16  C   UNL     1      13.304  -9.388 -31.149  1.00  0.00     0.093 A 
ATOM     17  C   UNL     1      14.034  -8.538 -31.993  1.00  0.00     0.130 A 
BRANCH  15  18
ATOM     18  O   UNL     1      13.081 -10.569 -29.040  1.00  0.00    -0.508 OA
ATOM     19  H   UNL     1      12.068 -10.599 -29.058  1.00  0.00     0.293 HD
ENDBRANCH  15  18
BRANCH  17  20
ATOM     20  O   UNL     1      13.555  -8.250 -33.270  1.00  0.00    -0.507 OA
ATOM     21  H   UNL     1      13.824  -8.802 -34.076  1.00  0.00     0.293 HD
ENDBRANCH  17  20
ENDBRANCH   1  12
BRANCH   2  22
ATOM     22  O   UNL     1      14.427  -5.318 -32.205  1.00  0.00    -0.502 OA
ATOM     23  H   UNL     1      13.632  -5.919 -32.019  1.00  0.00     0.293 HD
ENDBRANCH   2  22
BRANCH   6  24
ATOM     24  O   UNL     1      18.199  -3.584 -35.548  1.00  0.00    -0.507 OA
ATOM     25  H   UNL     1      17.940  -3.464 -36.515  1.00  0.00     0.293 HD
ENDBRANCH   6  24
BRANCH   8  26
ATOM     26  O   UNL     1      21.365  -7.176 -35.175  1.00  0.00    -0.508 OA
ATOM     27  H   UNL     1      22.019  -6.676 -35.764  1.00  0.00     0.293 HD
ENDBRANCH   8  26
TORSDOF 6
ENDMDL
MODEL 9
REMARK VINA RESULT:    -5.177      1.449      6.635
REMARK INTER + INTRA:          -6.577
REMARK INTER:                  -6.505
REMARK INTRA:                  -0.071
REMARK UNBOUND:                -0.341
REMARK SMILES O=c1c(O)c(-c2ccc(O)cc2O)oc2cc(O)cc(O)c12
REMARK SMILES IDX 5 1 3 2 2 3 1 4 22 5 20 6 19 7 17 8 16 9 15 10 14 11 6 12
REMARK SMILES IDX 8 13 7 14 9 15 11 16 12 17 10 18 13 20 4 22 21 24 18 26
REMARK H PARENT 10 19 13 21 4 23 21 25 18 27
REMARK Flexibility Score: inf
ROOT
ATOM      1  C   UNL     1      15.404  -7.664 -31.777  1.00  0.00     0.184 A 
ATOM      2  C   UNL     1      14.215  -6.959 -31.540  1.00  0.00     0.208 A 
ATOM      3  C   UNL     1      13.466  -7.252 -30.389  1.00  0.00     0.238 A 
ATOM      4  O   UNL     1      12.374  -6.654 -30.210  1.00  0.00    -0.285 OA
ATOM      5  C   UNL     1      13.930  -8.236 -29.481  1.00  0.00     0.111 A 
ATOM      6  C   UNL     1      13.274  -8.586 -28.263  1.00  0.00     0.134 A 
ATOM      7  C   UNL     1      13.752  -9.664 -27.507  1.00  0.00     0.093 A 
ATOM      8  C   UNL     1      14.898 -10.363 -27.893  1.00  0.00     0.123 A 
ATOM      9  C   UNL     1      15.579  -9.990 -29.050  1.00  0.00     0.094 A 
ATOM     10  C   UNL     1      15.107  -8.943 -29.843  1.00  0.00     0.146 A 
ATOM     11  O   UNL     1      15.779  -8.627 -30.944  1.00  0.00    -0.451 OA
ENDROOT
BRANCH   1  12
ATOM     12  C   UNL     1      16.246  -7.393 -32.961  1.00  0.00     0.063 A 
ATOM     13  C   UNL     1      18.394  -6.708 -33.871  1.00  0.00     0.047 A 
ATOM     14  C   UNL     1      17.573  -6.977 -32.773  1.00  0.00     0.020 A 
ATOM     15  C   UNL     1      17.896  -6.835 -35.169  1.00  0.00     0.119 A 
ATOM     16  C   UNL     1      16.566  -7.226 -35.369  1.00  0.00     0.093 A 
ATOM     17  C   UNL     1      15.733  -7.493 -34.272  1.00  0.00     0.130 A 
BRANCH  15  18
ATOM     18  O   UNL     1      18.728  -6.566 -36.253  1.00  0.00    -0.508 OA
ATOM     19  H   UNL     1      18.857  -5.623 -36.602  1.00  0.00     0.293 HD
ENDBRANCH  15  18
BRANCH  17  20
ATOM     20  O   UNL     1      14.397  -7.834 -34.482  1.00  0.00    -0.507 OA
ATOM     21  H   UNL     1      13.880  -8.393 -33.814  1.00  0.00     0.293 HD
ENDBRANCH  17  20
ENDBRANCH   1  12
BRANCH   2  22
ATOM     22  O   UNL     1      13.772  -6.005 -32.462  1.00  0.00    -0.502 OA
ATOM     23  H   UNL     1      12.850  -5.589 -32.412  1.00  0.00     0.293 HD
ENDBRANCH   2  22
BRANCH   6  24
ATOM     24  O   UNL     1      12.176  -7.895 -27.740  1.00  0.00    -0.507 OA
ATOM     25  H   UNL     1      12.237  -7.139 -27.075  1.00  0.00     0.293 HD
ENDBRANCH   6  24
BRANCH   8  26
ATOM     26  O   UNL     1      15.375 -11.424 -27.127  1.00  0.00    -0.508 OA
ATOM     27  H   UNL     1      16.335 -11.455 -26.805  1.00  0.00     0.293 HD
ENDBRANCH   8  26
TORSDOF 6
ENDMDL
