MODEL 1
REMARK VINA RESULT:    -7.530      0.000      0.000
REMARK INTER + INTRA:         -17.420
REMARK INTER:                 -16.334
REMARK INTRA:                  -1.087
REMARK UNBOUND:                -1.087
REMARK SMILES CCCCCCCCCCCCCCCCCCCCCC(=O)[O-]
REMARK SMILES IDX 12 1 11 2 10 3 9 4 8 5 7 6 6 7 5 8 4 9 3 10 2 11 1 12 13 13
REMARK SMILES IDX 14 14 15 15 16 16 17 17 18 18 19 19 20 20 21 21 22 22 23 23
REMARK SMILES IDX 24 24
REMARK H PARENT
REMARK Flexibility Score: inf
ROOT
ATOM      1  C   UNL     1      -4.955  -1.470 -18.791  1.00  0.00     0.000 C 
ENDROOT
BRANCH   1   2
ATOM      2  C   UNL     1      -4.117  -2.126 -19.909  1.00  0.00     0.000 C 
BRANCH   2   3
ATOM      3  C   UNL     1      -4.958  -2.462 -21.155  1.00  0.00     0.000 C 
BRANCH   3   4
ATOM      4  C   UNL     1      -6.429  -2.751 -20.817  1.00  0.00    -0.000 C 
BRANCH   4   5
ATOM      5  C   UNL     1      -6.738  -4.254 -20.743  1.00  0.00    -0.000 C 
BRANCH   5   6
ATOM      6  C   UNL     1      -7.047  -4.674 -19.298  1.00  0.00    -0.000 C 
BRANCH   6   7
ATOM      7  C   UNL     1      -8.544  -4.943 -19.055  1.00  0.00    -0.000 C 
BRANCH   7   8
ATOM      8  C   UNL     1      -9.081  -6.260 -19.654  1.00  0.00    -0.000 C 
BRANCH   8   9
ATOM      9  C   UNL     1      -8.029  -7.367 -19.847  1.00  0.00    -0.000 C 
BRANCH   9  10
ATOM     10  C   UNL     1      -8.584  -8.776 -19.571  1.00  0.00    -0.000 C 
BRANCH  10  11
ATOM     11  C   UNL     1      -7.803  -9.871 -20.312  1.00  0.00    -0.003 C 
ATOM     12  C   UNL     1      -8.268 -10.052 -21.757  1.00  0.00     0.004 C 
ENDBRANCH  10  11
ENDBRANCH   9  10
ENDBRANCH   8   9
ENDBRANCH   7   8
ENDBRANCH   6   7
ENDBRANCH   5   6
ENDBRANCH   4   5
ENDBRANCH   3   4
ENDBRANCH   2   3
ENDBRANCH   1   2
BRANCH   1  13
ATOM     13  C   UNL     1      -4.155  -0.511 -17.891  1.00  0.00     0.000 C 
BRANCH  13  14
ATOM     14  C   UNL     1      -2.871   0.003 -18.555  1.00  0.00     0.000 C 
BRANCH  14  15
ATOM     15  C   UNL     1      -2.140   1.002 -17.651  1.00  0.00     0.000 C 
BRANCH  15  16
ATOM     16  C   UNL     1      -2.984   2.269 -17.439  1.00  0.00     0.000 C 
BRANCH  16  17
ATOM     17  C   UNL     1      -2.210   3.556 -17.761  1.00  0.00     0.000 C 
BRANCH  17  18
ATOM     18  C   UNL     1      -2.759   4.784 -17.012  1.00  0.00     0.000 C 
BRANCH  18  19
ATOM     19  C   UNL     1      -3.892   5.483 -17.781  1.00  0.00     0.000 C 
BRANCH  19  20
ATOM     20  C   UNL     1      -4.964   6.073 -16.847  1.00  0.00     0.006 C 
BRANCH  20  21
ATOM     21  C   UNL     1      -4.787   5.607 -15.396  1.00  0.00     0.053 C 
BRANCH  21  22
ATOM     22  C   UNL     1      -5.726   6.316 -14.468  1.00  0.00     0.041 C 
ATOM     23  O   UNL     1      -5.274   7.008 -13.517  1.00  0.00    -0.550 OA
ATOM     24  O   UNL     1      -7.098   6.252 -14.682  1.00  0.00    -0.550 OA
ENDBRANCH  21  22
ENDBRANCH  20  21
ENDBRANCH  19  20
ENDBRANCH  18  19
ENDBRANCH  17  18
ENDBRANCH  16  17
ENDBRANCH  15  16
ENDBRANCH  14  15
ENDBRANCH  13  14
ENDBRANCH   1  13
TORSDOF 20
ENDMDL
MODEL 2
REMARK VINA RESULT:    -7.470      1.532      3.074
REMARK INTER + INTRA:         -17.291
REMARK INTER:                 -16.294
REMARK INTRA:                  -0.997
REMARK UNBOUND:                -1.087
REMARK SMILES CCCCCCCCCCCCCCCCCCCCCC(=O)[O-]
REMARK SMILES IDX 12 1 11 2 10 3 9 4 8 5 7 6 6 7 5 8 4 9 3 10 2 11 1 12 13 13
REMARK SMILES IDX 14 14 15 15 16 16 17 17 18 18 19 19 20 20 21 21 22 22 23 23
REMARK SMILES IDX 24 24
REMARK H PARENT
REMARK Flexibility Score: inf
ROOT
ATOM      1  C   UNL     1      -2.704   0.675 -18.381  1.00  0.00     0.000 C 
ENDROOT
BRANCH   1   2
ATOM      2  C   UNL     1      -3.975  -0.153 -18.100  1.00  0.00     0.000 C 
BRANCH   2   3
ATOM      3  C   UNL     1      -3.901  -1.567 -18.704  1.00  0.00     0.000 C 
BRANCH   3   4
ATOM      4  C   UNL     1      -4.937  -1.793 -19.816  1.00  0.00    -0.000 C 
BRANCH   4   5
ATOM      5  C   UNL     1      -6.382  -1.594 -19.333  1.00  0.00    -0.000 C 
BRANCH   5   6
ATOM      6  C   UNL     1      -7.350  -2.470 -20.143  1.00  0.00    -0.000 C 
BRANCH   6   7
ATOM      7  C   UNL     1      -6.872  -3.927 -20.283  1.00  0.00    -0.000 C 
BRANCH   7   8
ATOM      8  C   UNL     1      -6.821  -4.732 -18.968  1.00  0.00    -0.000 C 
BRANCH   8   9
ATOM      9  C   UNL     1      -8.184  -5.238 -18.460  1.00  0.00    -0.000 C 
BRANCH   9  10
ATOM     10  C   UNL     1      -8.954  -6.049 -19.518  1.00  0.00    -0.000 C 
BRANCH  10  11
ATOM     11  C   UNL     1      -8.160  -7.265 -20.018  1.00  0.00    -0.003 C 
ATOM     12  C   UNL     1      -8.545  -8.557 -19.297  1.00  0.00     0.004 C 
ENDBRANCH  10  11
ENDBRANCH   9  10
ENDBRANCH   8   9
ENDBRANCH   7   8
ENDBRANCH   6   7
ENDBRANCH   5   6
ENDBRANCH   4   5
ENDBRANCH   3   4
ENDBRANCH   2   3
ENDBRANCH   1   2
BRANCH   1  13
ATOM     13  C   UNL     1      -2.211   1.493 -17.174  1.00  0.00     0.000 C 
BRANCH  13  14
ATOM     14  C   UNL     1      -1.877   2.947 -17.532  1.00  0.00     0.000 C 
BRANCH  14  15
ATOM     15  C   UNL     1      -3.123   3.838 -17.457  1.00  0.00     0.000 C 
BRANCH  15  16
ATOM     16  C   UNL     1      -2.737   5.325 -17.483  1.00  0.00     0.000 C 
BRANCH  16  17
ATOM     17  C   UNL     1      -3.875   6.241 -17.007  1.00  0.00     0.000 C 
BRANCH  17  18
ATOM     18  C   UNL     1      -4.642   5.660 -15.805  1.00  0.00     0.000 C 
BRANCH  18  19
ATOM     19  C   UNL     1      -4.738   6.652 -14.634  1.00  0.00     0.000 C 
BRANCH  19  20
ATOM     20  C   UNL     1      -5.465   6.059 -13.415  1.00  0.00     0.006 C 
BRANCH  20  21
ATOM     21  C   UNL     1      -4.582   6.058 -12.160  1.00  0.00     0.053 C 
BRANCH  21  22
ATOM     22  C   UNL     1      -5.352   6.464 -10.940  1.00  0.00     0.041 C 
ATOM     23  O   UNL     1      -6.608   6.365 -10.922  1.00  0.00    -0.550 OA
ATOM     24  O   UNL     1      -4.679   6.909  -9.808  1.00  0.00    -0.550 OA
ENDBRANCH  21  22
ENDBRANCH  20  21
ENDBRANCH  19  20
ENDBRANCH  18  19
ENDBRANCH  17  18
ENDBRANCH  16  17
ENDBRANCH  15  16
ENDBRANCH  14  15
ENDBRANCH  13  14
ENDBRANCH   1  13
TORSDOF 20
ENDMDL
MODEL 3
REMARK VINA RESULT:    -7.418      5.369     12.228
REMARK INTER + INTRA:         -17.177
REMARK INTER:                 -15.718
REMARK INTRA:                  -1.459
REMARK UNBOUND:                -1.087
REMARK SMILES CCCCCCCCCCCCCCCCCCCCCC(=O)[O-]
REMARK SMILES IDX 12 1 11 2 10 3 9 4 8 5 7 6 6 7 5 8 4 9 3 10 2 11 1 12 13 13
REMARK SMILES IDX 14 14 15 15 16 16 17 17 18 18 19 19 20 20 21 21 22 22 23 23
REMARK SMILES IDX 24 24
REMARK H PARENT
REMARK Flexibility Score: inf
ROOT
ATOM      1  C   UNL     1      -6.184  -0.855 -18.667  1.00  0.00     0.000 C 
ENDROOT
BRANCH   1   2
ATOM      2  C   UNL     1      -4.864  -1.629 -18.875  1.00  0.00     0.000 C 
BRANCH   2   3
ATOM      3  C   UNL     1      -3.650  -0.693 -19.019  1.00  0.00     0.000 C 
BRANCH   3   4
ATOM      4  C   UNL     1      -3.492   0.260 -17.824  1.00  0.00    -0.000 C 
BRANCH   4   5
ATOM      5  C   UNL     1      -2.923   1.629 -18.225  1.00  0.00    -0.000 C 
BRANCH   5   6
ATOM      6  C   UNL     1      -3.317   2.703 -17.199  1.00  0.00    -0.000 C 
BRANCH   6   7
ATOM      7  C   UNL     1      -2.590   4.042 -17.418  1.00  0.00    -0.000 C 
BRANCH   7   8
ATOM      8  C   UNL     1      -3.447   5.162 -18.045  1.00  0.00    -0.000 C 
BRANCH   8   9
ATOM      9  C   UNL     1      -4.427   5.852 -17.080  1.00  0.00    -0.000 C 
BRANCH   9  10
ATOM     10  C   UNL     1      -3.724   6.492 -15.869  1.00  0.00    -0.000 C 
BRANCH  10  11
ATOM     11  C   UNL     1      -4.639   6.583 -14.638  1.00  0.00    -0.003 C 
ATOM     12  C   UNL     1      -5.614   5.410 -14.540  1.00  0.00     0.004 C 
ENDBRANCH  10  11
ENDBRANCH   9  10
ENDBRANCH   8   9
ENDBRANCH   7   8
ENDBRANCH   6   7
ENDBRANCH   5   6
ENDBRANCH   4   5
ENDBRANCH   3   4
ENDBRANCH   2   3
ENDBRANCH   1   2
BRANCH   1  13
ATOM     13  C   UNL     1      -7.276  -1.192 -19.698  1.00  0.00     0.000 C 
BRANCH  13  14
ATOM     14  C   UNL     1      -6.758  -2.048 -20.861  1.00  0.00     0.000 C 
BRANCH  14  15
ATOM     15  C   UNL     1      -7.493  -3.391 -20.933  1.00  0.00     0.000 C 
BRANCH  15  16
ATOM     16  C   UNL     1      -6.692  -4.494 -20.223  1.00  0.00     0.000 C 
BRANCH  16  17
ATOM     17  C   UNL     1      -7.443  -5.094 -19.025  1.00  0.00     0.000 C 
BRANCH  17  18
ATOM     18  C   UNL     1      -8.921  -5.391 -19.338  1.00  0.00     0.000 C 
BRANCH  18  19
ATOM     19  C   UNL     1      -9.114  -6.750 -20.030  1.00  0.00     0.000 C 
BRANCH  19  20
ATOM     20  C   UNL     1      -8.011  -7.761 -19.667  1.00  0.00     0.006 C 
BRANCH  20  21
ATOM     21  C   UNL     1      -8.558  -9.187 -19.524  1.00  0.00     0.053 C 
BRANCH  21  22
ATOM     22  C   UNL     1      -8.118 -10.066 -20.654  1.00  0.00     0.041 C 
ATOM     23  O   UNL     1      -7.438 -11.102 -20.424  1.00  0.00    -0.550 OA
ATOM     24  O   UNL     1      -8.497  -9.766 -21.958  1.00  0.00    -0.550 OA
ENDBRANCH  21  22
ENDBRANCH  20  21
ENDBRANCH  19  20
ENDBRANCH  18  19
ENDBRANCH  17  18
ENDBRANCH  16  17
ENDBRANCH  15  16
ENDBRANCH  14  15
ENDBRANCH  13  14
ENDBRANCH   1  13
TORSDOF 20
ENDMDL
MODEL 4
REMARK VINA RESULT:    -7.377      1.539      3.519
REMARK INTER + INTRA:         -17.089
REMARK INTER:                 -16.110
REMARK INTRA:                  -0.979
REMARK UNBOUND:                -1.087
REMARK SMILES CCCCCCCCCCCCCCCCCCCCCC(=O)[O-]
REMARK SMILES IDX 12 1 11 2 10 3 9 4 8 5 7 6 6 7 5 8 4 9 3 10 2 11 1 12 13 13
REMARK SMILES IDX 14 14 15 15 16 16 17 17 18 18 19 19 20 20 21 21 22 22 23 23
REMARK SMILES IDX 24 24
REMARK H PARENT
REMARK Flexibility Score: inf
ROOT
ATOM      1  C   UNL     1      -2.316   1.023 -17.173  1.00  0.00     0.000 C 
ENDROOT
BRANCH   1   2
ATOM      2  C   UNL     1      -2.479  -0.290 -17.968  1.00  0.00     0.000 C 
BRANCH   2   3
ATOM      3  C   UNL     1      -3.945  -0.755 -18.042  1.00  0.00     0.000 C 
BRANCH   3   4
ATOM      4  C   UNL     1      -4.095  -2.143 -18.684  1.00  0.00    -0.000 C 
BRANCH   4   5
ATOM      5  C   UNL     1      -4.734  -2.088 -20.080  1.00  0.00    -0.000 C 
BRANCH   5   6
ATOM      6  C   UNL     1      -6.242  -1.814 -19.976  1.00  0.00    -0.000 C 
BRANCH   6   7
ATOM      7  C   UNL     1      -7.076  -2.654 -20.960  1.00  0.00    -0.000 C 
BRANCH   7   8
ATOM      8  C   UNL     1      -7.410  -4.085 -20.488  1.00  0.00    -0.000 C 
BRANCH   8   9
ATOM      9  C   UNL     1      -7.896  -4.194 -19.031  1.00  0.00    -0.000 C 
BRANCH   9  10
ATOM     10  C   UNL     1      -8.441  -5.591 -18.685  1.00  0.00    -0.000 C 
BRANCH  10  11
ATOM     11  C   UNL     1      -8.652  -6.465 -19.931  1.00  0.00    -0.003 C 
ATOM     12  C   UNL     1      -8.310  -7.934 -19.684  1.00  0.00     0.004 C 
ENDBRANCH  10  11
ENDBRANCH   9  10
ENDBRANCH   8   9
ENDBRANCH   7   8
ENDBRANCH   6   7
ENDBRANCH   5   6
ENDBRANCH   4   5
ENDBRANCH   3   4
ENDBRANCH   2   3
ENDBRANCH   1   2
BRANCH   1  13
ATOM     13  C   UNL     1      -2.887   2.262 -17.888  1.00  0.00     0.000 C 
BRANCH  13  14
ATOM     14  C   UNL     1      -2.193   3.565 -17.472  1.00  0.00     0.000 C 
BRANCH  14  15
ATOM     15  C   UNL     1      -3.068   4.785 -17.787  1.00  0.00     0.000 C 
BRANCH  15  16
ATOM     16  C   UNL     1      -3.146   5.731 -16.578  1.00  0.00     0.000 C 
BRANCH  16  17
ATOM     17  C   UNL     1      -4.575   6.225 -16.305  1.00  0.00     0.000 C 
BRANCH  17  18
ATOM     18  C   UNL     1      -5.287   5.412 -15.209  1.00  0.00     0.000 C 
BRANCH  18  19
ATOM     19  C   UNL     1      -6.471   6.171 -14.589  1.00  0.00     0.000 C 
BRANCH  19  20
ATOM     20  C   UNL     1      -6.442   6.160 -13.051  1.00  0.00     0.006 C 
BRANCH  20  21
ATOM     21  C   UNL     1      -5.116   6.693 -12.494  1.00  0.00     0.053 C 
BRANCH  21  22
ATOM     22  C   UNL     1      -5.287   7.288 -11.129  1.00  0.00     0.041 C 
ATOM     23  O   UNL     1      -5.365   6.541 -10.117  1.00  0.00    -0.550 OA
ATOM     24  O   UNL     1      -5.315   8.669 -10.970  1.00  0.00    -0.550 OA
ENDBRANCH  21  22
ENDBRANCH  20  21
ENDBRANCH  19  20
ENDBRANCH  18  19
ENDBRANCH  17  18
ENDBRANCH  16  17
ENDBRANCH  15  16
ENDBRANCH  14  15
ENDBRANCH  13  14
ENDBRANCH   1  13
TORSDOF 20
ENDMDL
MODEL 5
REMARK VINA RESULT:    -7.306      4.431     11.322
REMARK INTER + INTRA:         -16.935
REMARK INTER:                 -15.556
REMARK INTRA:                  -1.379
REMARK UNBOUND:                -1.087
REMARK SMILES CCCCCCCCCCCCCCCCCCCCCC(=O)[O-]
REMARK SMILES IDX 12 1 11 2 10 3 9 4 8 5 7 6 6 7 5 8 4 9 3 10 2 11 1 12 13 13
REMARK SMILES IDX 14 14 15 15 16 16 17 17 18 18 19 19 20 20 21 21 22 22 23 23
REMARK SMILES IDX 24 24
REMARK H PARENT
REMARK Flexibility Score: inf
ROOT
ATOM      1  C   UNL     1      -2.731   0.156 -17.325  1.00  0.00     0.000 C 
ENDROOT
BRANCH   1   2
ATOM      2  C   UNL     1      -2.377   1.314 -18.282  1.00  0.00     0.000 C 
BRANCH   2   3
ATOM      3  C   UNL     1      -1.875   2.563 -17.534  1.00  0.00     0.000 C 
BRANCH   3   4
ATOM      4  C   UNL     1      -2.994   3.581 -17.263  1.00  0.00    -0.000 C 
BRANCH   4   5
ATOM      5  C   UNL     1      -2.639   4.997 -17.743  1.00  0.00    -0.000 C 
BRANCH   5   6
ATOM      6  C   UNL     1      -3.797   5.969 -17.466  1.00  0.00    -0.000 C 
BRANCH   6   7
ATOM      7  C   UNL     1      -4.015   6.235 -15.966  1.00  0.00    -0.000 C 
BRANCH   7   8
ATOM      8  C   UNL     1      -5.489   6.368 -15.528  1.00  0.00    -0.000 C 
BRANCH   8   9
ATOM      9  C   UNL     1      -5.832   5.698 -14.184  1.00  0.00    -0.000 C 
BRANCH   9  10
ATOM     10  C   UNL     1      -7.198   6.140 -13.628  1.00  0.00    -0.000 C 
BRANCH  10  11
ATOM     11  C   UNL     1      -7.074   6.902 -12.300  1.00  0.00    -0.003 C 
ATOM     12  C   UNL     1      -7.658   6.127 -11.119  1.00  0.00     0.004 C 
ENDBRANCH  10  11
ENDBRANCH   9  10
ENDBRANCH   8   9
ENDBRANCH   7   8
ENDBRANCH   6   7
ENDBRANCH   5   6
ENDBRANCH   4   5
ENDBRANCH   3   4
ENDBRANCH   2   3
ENDBRANCH   1   2
BRANCH   1  13
ATOM     13  C   UNL     1      -4.158  -0.391 -17.507  1.00  0.00     0.000 C 
BRANCH  13  14
ATOM     14  C   UNL     1      -4.546  -0.577 -18.980  1.00  0.00     0.000 C 
BRANCH  14  15
ATOM     15  C   UNL     1      -4.118  -1.955 -19.497  1.00  0.00     0.000 C 
BRANCH  15  16
ATOM     16  C   UNL     1      -4.557  -2.153 -20.956  1.00  0.00     0.000 C 
BRANCH  16  17
ATOM     17  C   UNL     1      -5.671  -3.202 -21.103  1.00  0.00     0.000 C 
BRANCH  17  18
ATOM     18  C   UNL     1      -7.078  -2.580 -21.090  1.00  0.00     0.000 C 
BRANCH  18  19
ATOM     19  C   UNL     1      -7.779  -2.738 -19.730  1.00  0.00     0.000 C 
BRANCH  19  20
ATOM     20  C   UNL     1      -7.213  -3.909 -18.906  1.00  0.00     0.006 C 
BRANCH  20  21
ATOM     21  C   UNL     1      -8.245  -5.026 -18.705  1.00  0.00     0.053 C 
BRANCH  21  22
ATOM     22  C   UNL     1      -8.034  -6.155 -19.667  1.00  0.00     0.041 C 
ATOM     23  O   UNL     1      -6.920  -6.303 -20.236  1.00  0.00    -0.550 OA
ATOM     24  O   UNL     1      -9.054  -7.071 -19.900  1.00  0.00    -0.550 OA
ENDBRANCH  21  22
ENDBRANCH  20  21
ENDBRANCH  19  20
ENDBRANCH  18  19
ENDBRANCH  17  18
ENDBRANCH  16  17
ENDBRANCH  15  16
ENDBRANCH  14  15
ENDBRANCH  13  14
ENDBRANCH   1  13
TORSDOF 20
ENDMDL
MODEL 6
REMARK VINA RESULT:    -7.280      5.025     11.808
REMARK INTER + INTRA:         -16.879
REMARK INTER:                 -15.868
REMARK INTRA:                  -1.012
REMARK UNBOUND:                -1.087
REMARK SMILES CCCCCCCCCCCCCCCCCCCCCC(=O)[O-]
REMARK SMILES IDX 12 1 11 2 10 3 9 4 8 5 7 6 6 7 5 8 4 9 3 10 2 11 1 12 13 13
REMARK SMILES IDX 14 14 15 15 16 16 17 17 18 18 19 19 20 20 21 21 22 22 23 23
REMARK SMILES IDX 24 24
REMARK H PARENT
REMARK Flexibility Score: inf
ROOT
ATOM      1  C   UNL     1      -4.498  -0.896 -18.692  1.00  0.00     0.000 C 
ENDROOT
BRANCH   1   2
ATOM      2  C   UNL     1      -3.091  -0.262 -18.724  1.00  0.00     0.000 C 
BRANCH   2   3
ATOM      3  C   UNL     1      -2.518  -0.031 -17.313  1.00  0.00     0.000 C 
BRANCH   3   4
ATOM      4  C   UNL     1      -1.878   1.357 -17.154  1.00  0.00    -0.000 C 
BRANCH   4   5
ATOM      5  C   UNL     1      -2.656   2.460 -17.887  1.00  0.00    -0.000 C 
BRANCH   5   6
ATOM      6  C   UNL     1      -2.339   3.838 -17.288  1.00  0.00    -0.000 C 
BRANCH   6   7
ATOM      7  C   UNL     1      -3.481   4.854 -17.472  1.00  0.00    -0.000 C 
BRANCH   7   8
ATOM      8  C   UNL     1      -3.530   5.987 -16.426  1.00  0.00    -0.000 C 
BRANCH   8   9
ATOM      9  C   UNL     1      -4.937   6.332 -15.904  1.00  0.00    -0.000 C 
BRANCH   9  10
ATOM     10  C   UNL     1      -5.255   5.661 -14.555  1.00  0.00    -0.000 C 
BRANCH  10  11
ATOM     11  C   UNL     1      -6.731   5.810 -14.157  1.00  0.00    -0.003 C 
ATOM     12  C   UNL     1      -6.942   6.844 -13.051  1.00  0.00     0.004 C 
ENDBRANCH  10  11
ENDBRANCH   9  10
ENDBRANCH   8   9
ENDBRANCH   7   8
ENDBRANCH   6   7
ENDBRANCH   5   6
ENDBRANCH   4   5
ENDBRANCH   3   4
ENDBRANCH   2   3
ENDBRANCH   1   2
BRANCH   1  13
ATOM     13  C   UNL     1      -5.644   0.128 -18.612  1.00  0.00     0.000 C 
BRANCH  13  14
ATOM     14  C   UNL     1      -6.997  -0.451 -19.044  1.00  0.00     0.000 C 
BRANCH  14  15
ATOM     15  C   UNL     1      -6.874  -1.933 -19.416  1.00  0.00     0.000 C 
BRANCH  15  16
ATOM     16  C   UNL     1      -7.186  -2.153 -20.905  1.00  0.00     0.000 C 
BRANCH  16  17
ATOM     17  C   UNL     1      -7.197  -3.639 -21.294  1.00  0.00     0.000 C 
BRANCH  17  18
ATOM     18  C   UNL     1      -7.211  -4.574 -20.072  1.00  0.00     0.000 C 
BRANCH  18  19
ATOM     19  C   UNL     1      -8.633  -4.831 -19.545  1.00  0.00     0.000 C 
BRANCH  19  20
ATOM     20  C   UNL     1      -9.073  -6.295 -19.719  1.00  0.00     0.006 C 
BRANCH  20  21
ATOM     21  C   UNL     1      -7.878  -7.257 -19.765  1.00  0.00     0.053 C 
BRANCH  21  22
ATOM     22  C   UNL     1      -8.312  -8.668 -20.020  1.00  0.00     0.041 C 
ATOM     23  O   UNL     1      -8.301  -9.133 -21.191  1.00  0.00    -0.550 OA
ATOM     24  O   UNL     1      -8.685  -9.484 -18.958  1.00  0.00    -0.550 OA
ENDBRANCH  21  22
ENDBRANCH  20  21
ENDBRANCH  19  20
ENDBRANCH  18  19
ENDBRANCH  17  18
ENDBRANCH  16  17
ENDBRANCH  15  16
ENDBRANCH  14  15
ENDBRANCH  13  14
ENDBRANCH   1  13
TORSDOF 20
ENDMDL
MODEL 7
REMARK VINA RESULT:    -7.173      4.417     11.586
REMARK INTER + INTRA:         -16.646
REMARK INTER:                 -15.675
REMARK INTRA:                  -0.971
REMARK UNBOUND:                -1.087
REMARK SMILES CCCCCCCCCCCCCCCCCCCCCC(=O)[O-]
REMARK SMILES IDX 12 1 11 2 10 3 9 4 8 5 7 6 6 7 5 8 4 9 3 10 2 11 1 12 13 13
REMARK SMILES IDX 14 14 15 15 16 16 17 17 18 18 19 19 20 20 21 21 22 22 23 23
REMARK SMILES IDX 24 24
REMARK H PARENT
REMARK Flexibility Score: inf
ROOT
ATOM      1  C   UNL     1      -1.891   3.208 -17.606  1.00  0.00     0.000 C 
ENDROOT
BRANCH   1   2
ATOM      2  C   UNL     1      -3.125   4.130 -17.507  1.00  0.00     0.000 C 
BRANCH   2   3
ATOM      3  C   UNL     1      -2.805   5.585 -17.897  1.00  0.00     0.000 C 
BRANCH   3   4
ATOM      4  C   UNL     1      -3.399   6.606 -16.915  1.00  0.00    -0.000 C 
BRANCH   4   5
ATOM      5  C   UNL     1      -4.774   6.183 -16.374  1.00  0.00    -0.000 C 
BRANCH   5   6
ATOM      6  C   UNL     1      -4.761   6.133 -14.839  1.00  0.00    -0.000 C 
BRANCH   6   7
ATOM      7  C   UNL     1      -5.977   5.395 -14.249  1.00  0.00    -0.000 C 
BRANCH   7   8
ATOM      8  C   UNL     1      -6.860   6.232 -13.300  1.00  0.00    -0.000 C 
BRANCH   8   9
ATOM      9  C   UNL     1      -6.155   6.733 -12.026  1.00  0.00    -0.000 C 
BRANCH   9  10
ATOM     10  C   UNL     1      -7.092   6.789 -10.807  1.00  0.00    -0.000 C 
BRANCH  10  11
ATOM     11  C   UNL     1      -8.494   6.241 -11.116  1.00  0.00    -0.003 C 
ATOM     12  C   UNL     1      -8.832   4.992 -10.302  1.00  0.00     0.004 C 
ENDBRANCH  10  11
ENDBRANCH   9  10
ENDBRANCH   8   9
ENDBRANCH   7   8
ENDBRANCH   6   7
ENDBRANCH   5   6
ENDBRANCH   4   5
ENDBRANCH   3   4
ENDBRANCH   2   3
ENDBRANCH   1   2
BRANCH   1  13
ATOM     13  C   UNL     1      -2.183   1.734 -17.269  1.00  0.00     0.000 C 
BRANCH  13  14
ATOM     14  C   UNL     1      -2.309   0.849 -18.515  1.00  0.00     0.000 C 
BRANCH  14  15
ATOM     15  C   UNL     1      -3.708   0.230 -18.619  1.00  0.00     0.000 C 
BRANCH  15  16
ATOM     16  C   UNL     1      -3.639  -1.302 -18.525  1.00  0.00     0.000 C 
BRANCH  16  17
ATOM     17  C   UNL     1      -4.609  -1.999 -19.492  1.00  0.00     0.000 C 
BRANCH  17  18
ATOM     18  C   UNL     1      -6.057  -1.499 -19.344  1.00  0.00     0.000 C 
BRANCH  18  19
ATOM     19  C   UNL     1      -7.079  -2.466 -19.964  1.00  0.00     0.000 C 
BRANCH  19  20
ATOM     20  C   UNL     1      -7.355  -3.688 -19.070  1.00  0.00     0.006 C 
BRANCH  20  21
ATOM     21  C   UNL     1      -7.015  -5.008 -19.773  1.00  0.00     0.053 C 
BRANCH  21  22
ATOM     22  C   UNL     1      -8.141  -5.991 -19.680  1.00  0.00     0.041 C 
ATOM     23  O   UNL     1      -9.294  -5.605 -19.349  1.00  0.00    -0.550 OA
ATOM     24  O   UNL     1      -7.929  -7.327 -20.004  1.00  0.00    -0.550 OA
ENDBRANCH  21  22
ENDBRANCH  20  21
ENDBRANCH  19  20
ENDBRANCH  18  19
ENDBRANCH  17  18
ENDBRANCH  16  17
ENDBRANCH  15  16
ENDBRANCH  14  15
ENDBRANCH  13  14
ENDBRANCH   1  13
TORSDOF 20
ENDMDL
MODEL 8
REMARK VINA RESULT:    -7.038      1.998      4.584
REMARK INTER + INTRA:         -16.353
REMARK INTER:                 -15.365
REMARK INTRA:                  -0.989
REMARK UNBOUND:                -1.087
REMARK SMILES CCCCCCCCCCCCCCCCCCCCCC(=O)[O-]
REMARK SMILES IDX 12 1 11 2 10 3 9 4 8 5 7 6 6 7 5 8 4 9 3 10 2 11 1 12 13 13
REMARK SMILES IDX 14 14 15 15 16 16 17 17 18 18 19 19 20 20 21 21 22 22 23 23
REMARK SMILES IDX 24 24
REMARK H PARENT
REMARK Flexibility Score: inf
ROOT
ATOM      1  C   UNL     1      -1.875   2.458 -17.277  1.00  0.00     0.000 C 
ENDROOT
BRANCH   1   2
ATOM      2  C   UNL     1      -3.053   1.585 -17.760  1.00  0.00     0.000 C 
BRANCH   2   3
ATOM      3  C   UNL     1      -2.584   0.350 -18.552  1.00  0.00     0.000 C 
BRANCH   3   4
ATOM      4  C   UNL     1      -3.525  -0.853 -18.386  1.00  0.00    -0.000 C 
BRANCH   4   5
ATOM      5  C   UNL     1      -5.003  -0.444 -18.283  1.00  0.00    -0.000 C 
BRANCH   5   6
ATOM      6  C   UNL     1      -5.843  -1.176 -19.341  1.00  0.00    -0.000 C 
BRANCH   6   7
ATOM      7  C   UNL     1      -5.140  -2.420 -19.915  1.00  0.00    -0.000 C 
BRANCH   7   8
ATOM      8  C   UNL     1      -5.954  -3.214 -20.958  1.00  0.00    -0.000 C 
BRANCH   8   9
ATOM      9  C   UNL     1      -7.338  -3.691 -20.479  1.00  0.00    -0.000 C 
BRANCH   9  10
ATOM     10  C   UNL     1      -7.261  -4.916 -19.551  1.00  0.00    -0.000 C 
BRANCH  10  11
ATOM     11  C   UNL     1      -8.537  -5.770 -19.597  1.00  0.00    -0.003 C 
ATOM     12  C   UNL     1      -8.241  -7.264 -19.727  1.00  0.00     0.004 C 
ENDBRANCH  10  11
ENDBRANCH   9  10
ENDBRANCH   8   9
ENDBRANCH   7   8
ENDBRANCH   6   7
ENDBRANCH   5   6
ENDBRANCH   4   5
ENDBRANCH   3   4
ENDBRANCH   2   3
ENDBRANCH   1   2
BRANCH   1  13
ATOM     13  C   UNL     1      -2.050   3.959 -17.567  1.00  0.00     0.000 C 
BRANCH  13  14
ATOM     14  C   UNL     1      -3.478   4.457 -17.308  1.00  0.00     0.000 C 
BRANCH  14  15
ATOM     15  C   UNL     1      -3.475   5.758 -16.496  1.00  0.00     0.000 C 
BRANCH  15  16
ATOM     16  C   UNL     1      -4.896   6.328 -16.369  1.00  0.00     0.000 C 
BRANCH  16  17
ATOM     17  C   UNL     1      -5.509   6.085 -14.981  1.00  0.00     0.000 C 
BRANCH  17  18
ATOM     18  C   UNL     1      -4.584   6.533 -13.835  1.00  0.00     0.000 C 
BRANCH  18  19
ATOM     19  C   UNL     1      -5.294   6.528 -12.471  1.00  0.00     0.000 C 
BRANCH  19  20
ATOM     20  C   UNL     1      -6.824   6.440 -12.600  1.00  0.00     0.006 C 
BRANCH  20  21
ATOM     21  C   UNL     1      -7.523   6.480 -11.235  1.00  0.00     0.053 C 
BRANCH  21  22
ATOM     22  C   UNL     1      -8.663   5.510 -11.168  1.00  0.00     0.041 C 
ATOM     23  O   UNL     1      -9.009   4.867 -12.195  1.00  0.00    -0.550 OA
ATOM     24  O   UNL     1      -9.314   5.282  -9.960  1.00  0.00    -0.550 OA
ENDBRANCH  21  22
ENDBRANCH  20  21
ENDBRANCH  19  20
ENDBRANCH  18  19
ENDBRANCH  17  18
ENDBRANCH  16  17
ENDBRANCH  15  16
ENDBRANCH  14  15
ENDBRANCH  13  14
ENDBRANCH   1  13
TORSDOF 20
ENDMDL
MODEL 9
REMARK VINA RESULT:    -6.648      4.162     11.589
REMARK INTER + INTRA:         -15.507
REMARK INTER:                 -14.405
REMARK INTRA:                  -1.102
REMARK UNBOUND:                -1.087
REMARK SMILES CCCCCCCCCCCCCCCCCCCCCC(=O)[O-]
REMARK SMILES IDX 12 1 11 2 10 3 9 4 8 5 7 6 6 7 5 8 4 9 3 10 2 11 1 12 13 13
REMARK SMILES IDX 14 14 15 15 16 16 17 17 18 18 19 19 20 20 21 21 22 22 23 23
REMARK SMILES IDX 24 24
REMARK H PARENT
REMARK Flexibility Score: inf
ROOT
ATOM      1  C   UNL     1      -3.001   2.783 -17.953  1.00  0.00     0.000 C 
ENDROOT
BRANCH   1   2
ATOM      2  C   UNL     1      -2.410   4.113 -17.438  1.00  0.00     0.000 C 
BRANCH   2   3
ATOM      3  C   UNL     1      -3.468   5.228 -17.341  1.00  0.00     0.000 C 
BRANCH   3   4
ATOM      4  C   UNL     1      -3.057   6.352 -16.377  1.00  0.00    -0.000 C 
BRANCH   4   5
ATOM      5  C   UNL     1      -4.257   6.993 -15.664  1.00  0.00    -0.000 C 
BRANCH   5   6
ATOM      6  C   UNL     1      -5.413   5.989 -15.539  1.00  0.00    -0.000 C 
BRANCH   6   7
ATOM      7  C   UNL     1      -6.323   6.265 -14.328  1.00  0.00    -0.000 C 
BRANCH   7   8
ATOM      8  C   UNL     1      -5.592   6.690 -13.038  1.00  0.00    -0.000 C 
BRANCH   8   9
ATOM      9  C   UNL     1      -6.382   6.463 -11.736  1.00  0.00    -0.000 C 
BRANCH   9  10
ATOM     10  C   UNL     1      -5.985   7.444 -10.617  1.00  0.00    -0.000 C 
BRANCH  10  11
ATOM     11  C   UNL     1      -4.987   6.830  -9.624  1.00  0.00    -0.003 C 
ATOM     12  C   UNL     1      -3.533   7.131  -9.988  1.00  0.00     0.004 C 
ENDBRANCH  10  11
ENDBRANCH   9  10
ENDBRANCH   8   9
ENDBRANCH   7   8
ENDBRANCH   6   7
ENDBRANCH   5   6
ENDBRANCH   4   5
ENDBRANCH   3   4
ENDBRANCH   2   3
ENDBRANCH   1   2
BRANCH   1  13
ATOM     13  C   UNL     1      -2.402   1.532 -17.285  1.00  0.00     0.000 C 
BRANCH  13  14
ATOM     14  C   UNL     1      -1.928   0.482 -18.297  1.00  0.00     0.000 C 
BRANCH  14  15
ATOM     15  C   UNL     1      -2.662  -0.850 -18.101  1.00  0.00     0.000 C 
BRANCH  15  16
ATOM     16  C   UNL     1      -4.164  -0.619 -17.868  1.00  0.00     0.000 C 
BRANCH  16  17
ATOM     17  C   UNL     1      -5.033  -1.185 -19.001  1.00  0.00     0.000 C 
BRANCH  17  18
ATOM     18  C   UNL     1      -6.424  -0.530 -19.067  1.00  0.00     0.000 C 
BRANCH  18  19
ATOM     19  C   UNL     1      -7.464  -1.428 -19.757  1.00  0.00     0.000 C 
BRANCH  19  20
ATOM     20  C   UNL     1      -6.851  -2.299 -20.868  1.00  0.00     0.006 C 
BRANCH  20  21
ATOM     21  C   UNL     1      -7.432  -3.719 -20.877  1.00  0.00     0.053 C 
BRANCH  21  22
ATOM     22  C   UNL     1      -7.475  -4.308 -19.500  1.00  0.00     0.041 C 
ATOM     23  O   UNL     1      -8.567  -4.716 -19.020  1.00  0.00    -0.550 OA
ATOM     24  O   UNL     1      -6.303  -4.449 -18.765  1.00  0.00    -0.550 OA
ENDBRANCH  21  22
ENDBRANCH  20  21
ENDBRANCH  19  20
ENDBRANCH  18  19
ENDBRANCH  17  18
ENDBRANCH  16  17
ENDBRANCH  15  16
ENDBRANCH  14  15
ENDBRANCH  13  14
ENDBRANCH   1  13
TORSDOF 20
ENDMDL
