MODEL 1
REMARK VINA RESULT:    -4.533      0.000      0.000
REMARK INTER + INTRA:          -9.773
REMARK INTER:                  -8.243
REMARK INTRA:                  -1.530
REMARK UNBOUND:                -1.530
REMARK SMILES CCCCCCCCCCCCCCCC(=O)[O-]
REMARK SMILES IDX 9 1 10 2 11 3 12 4 13 5 14 6 15 7 16 8 17 9 18 10 8 11 7 12
REMARK SMILES IDX 6 13 5 14 4 15 3 16 2 17 1 18
REMARK H PARENT
REMARK Flexibility Score: inf
ROOT
ATOM      1  C   UNL     1     -26.928 -11.553  16.663  1.00  0.00     0.000 C 
ENDROOT
BRANCH   1   2
ATOM      2  C   UNL     1     -27.757 -10.492  17.403  1.00  0.00     0.000 C 
BRANCH   2   3
ATOM      3  C   UNL     1     -29.218 -10.931  17.607  1.00  0.00     0.000 C 
BRANCH   3   4
ATOM      4  C   UNL     1     -29.608 -12.117  16.699  1.00  0.00     0.000 C 
BRANCH   4   5
ATOM      5  C   UNL     1     -30.108 -13.352  17.472  1.00  0.00     0.000 C 
BRANCH   5   6
ATOM      6  C   UNL     1     -31.619 -13.630  17.350  1.00  0.00     0.006 C 
BRANCH   6   7
ATOM      7  C   UNL     1     -32.051 -14.193  15.986  1.00  0.00     0.053 C 
BRANCH   7   8
ATOM      8  C   UNL     1     -31.227 -15.375  15.580  1.00  0.00     0.041 C 
ATOM      9  O   UNL     1     -31.180 -16.398  16.314  1.00  0.00    -0.550 OA
ATOM     10  O   UNL     1     -30.491 -15.339  14.402  1.00  0.00    -0.550 OA
ENDBRANCH   7   8
ENDBRANCH   6   7
ENDBRANCH   5   6
ENDBRANCH   4   5
ENDBRANCH   3   4
ENDBRANCH   2   3
ENDBRANCH   1   2
BRANCH   1  11
ATOM     11  C   UNL     1     -25.496 -11.709  17.228  1.00  0.00     0.000 C 
BRANCH  11  12
ATOM     12  C   UNL     1     -25.271 -13.049  17.952  1.00  0.00    -0.000 C 
BRANCH  12  13
ATOM     13  C   UNL     1     -26.533 -13.926  18.055  1.00  0.00    -0.000 C 
BRANCH  13  14
ATOM     14  C   UNL     1     -26.331 -15.332  17.467  1.00  0.00    -0.000 C 
BRANCH  14  15
ATOM     15  C   UNL     1     -27.679 -15.976  17.109  1.00  0.00    -0.000 C 
BRANCH  15  16
ATOM     16  C   UNL     1     -27.513 -17.364  16.466  1.00  0.00    -0.000 C 
BRANCH  16  17
ATOM     17  C   UNL     1     -26.038 -17.752  16.281  1.00  0.00    -0.003 C 
ATOM     18  C   UNL     1     -25.668 -18.942  17.164  1.00  0.00     0.004 C 
ENDBRANCH  16  17
ENDBRANCH  15  16
ENDBRANCH  14  15
ENDBRANCH  13  14
ENDBRANCH  12  13
ENDBRANCH  11  12
ENDBRANCH   1  11
TORSDOF 14
ENDMDL
MODEL 2
REMARK VINA RESULT:    -4.499      2.094      3.373
REMARK INTER + INTRA:          -9.711
REMARK INTER:                  -8.010
REMARK INTRA:                  -1.701
REMARK UNBOUND:                -1.530
REMARK SMILES CCCCCCCCCCCCCCCC(=O)[O-]
REMARK SMILES IDX 9 1 10 2 11 3 12 4 13 5 14 6 15 7 16 8 17 9 18 10 8 11 7 12
REMARK SMILES IDX 6 13 5 14 4 15 3 16 2 17 1 18
REMARK H PARENT
REMARK Flexibility Score: inf
ROOT
ATOM      1  C   UNL     1     -28.816 -12.021  16.668  1.00  0.00     0.000 C 
ENDROOT
BRANCH   1   2
ATOM      2  C   UNL     1     -30.020 -12.701  17.337  1.00  0.00     0.000 C 
BRANCH   2   3
ATOM      3  C   UNL     1     -29.999 -14.230  17.161  1.00  0.00     0.000 C 
BRANCH   3   4
ATOM      4  C   UNL     1     -29.872 -14.650  15.682  1.00  0.00     0.000 C 
BRANCH   4   5
ATOM      5  C   UNL     1     -29.984 -16.170  15.456  1.00  0.00     0.000 C 
BRANCH   5   6
ATOM      6  C   UNL     1     -30.286 -16.593  14.006  1.00  0.00     0.006 C 
BRANCH   6   7
ATOM      7  C   UNL     1     -29.574 -17.881  13.560  1.00  0.00     0.053 C 
BRANCH   7   8
ATOM      8  C   UNL     1     -28.415 -17.598  12.655  1.00  0.00     0.041 C 
ATOM      9  O   UNL     1     -28.499 -16.694  11.782  1.00  0.00    -0.550 OA
ATOM     10  O   UNL     1     -27.250 -18.348  12.760  1.00  0.00    -0.550 OA
ENDBRANCH   7   8
ENDBRANCH   6   7
ENDBRANCH   5   6
ENDBRANCH   4   5
ENDBRANCH   3   4
ENDBRANCH   2   3
ENDBRANCH   1   2
BRANCH   1  11
ATOM     11  C   UNL     1     -28.041 -11.081  17.622  1.00  0.00     0.000 C 
BRANCH  11  12
ATOM     12  C   UNL     1     -26.543 -10.973  17.282  1.00  0.00    -0.000 C 
BRANCH  12  13
ATOM     13  C   UNL     1     -25.913 -12.291  16.795  1.00  0.00    -0.000 C 
BRANCH  13  14
ATOM     14  C   UNL     1     -25.459 -13.197  17.950  1.00  0.00    -0.000 C 
BRANCH  14  15
ATOM     15  C   UNL     1     -26.416 -14.387  18.123  1.00  0.00    -0.000 C 
BRANCH  15  16
ATOM     16  C   UNL     1     -25.962 -15.624  17.329  1.00  0.00    -0.000 C 
BRANCH  16  17
ATOM     17  C   UNL     1     -26.962 -16.785  17.429  1.00  0.00    -0.003 C 
ATOM     18  C   UNL     1     -26.696 -17.835  16.353  1.00  0.00     0.004 C 
ENDBRANCH  16  17
ENDBRANCH  15  16
ENDBRANCH  14  15
ENDBRANCH  13  14
ENDBRANCH  12  13
ENDBRANCH  11  12
ENDBRANCH   1  11
TORSDOF 14
ENDMDL
MODEL 3
REMARK VINA RESULT:    -4.489      1.465      2.069
REMARK INTER + INTRA:          -9.692
REMARK INTER:                  -7.923
REMARK INTRA:                  -1.769
REMARK UNBOUND:                -1.530
REMARK SMILES CCCCCCCCCCCCCCCC(=O)[O-]
REMARK SMILES IDX 9 1 10 2 11 3 12 4 13 5 14 6 15 7 16 8 17 9 18 10 8 11 7 12
REMARK SMILES IDX 6 13 5 14 4 15 3 16 2 17 1 18
REMARK H PARENT
REMARK Flexibility Score: inf
ROOT
ATOM      1  C   UNL     1     -26.935 -11.604  16.628  1.00  0.00     0.000 C 
ENDROOT
BRANCH   1   2
ATOM      2  C   UNL     1     -27.776 -10.561  17.380  1.00  0.00     0.000 C 
BRANCH   2   3
ATOM      3  C   UNL     1     -29.233 -11.017  17.575  1.00  0.00     0.000 C 
BRANCH   3   4
ATOM      4  C   UNL     1     -29.595 -12.225  16.686  1.00  0.00     0.000 C 
BRANCH   4   5
ATOM      5  C   UNL     1     -30.196 -13.411  17.463  1.00  0.00     0.000 C 
BRANCH   5   6
ATOM      6  C   UNL     1     -31.710 -13.619  17.266  1.00  0.00     0.006 C 
BRANCH   6   7
ATOM      7  C   UNL     1     -32.113 -14.033  15.840  1.00  0.00     0.053 C 
BRANCH   7   8
ATOM      8  C   UNL     1     -33.489 -14.621  15.794  1.00  0.00     0.041 C 
ATOM      9  O   UNL     1     -34.480 -13.896  15.513  1.00  0.00    -0.550 OA
ATOM     10  O   UNL     1     -33.681 -15.966  16.084  1.00  0.00    -0.550 OA
ENDBRANCH   7   8
ENDBRANCH   6   7
ENDBRANCH   5   6
ENDBRANCH   4   5
ENDBRANCH   3   4
ENDBRANCH   2   3
ENDBRANCH   1   2
BRANCH   1  11
ATOM     11  C   UNL     1     -25.511 -11.772  17.210  1.00  0.00     0.000 C 
BRANCH  11  12
ATOM     12  C   UNL     1     -25.299 -13.125  17.912  1.00  0.00    -0.000 C 
BRANCH  12  13
ATOM     13  C   UNL     1     -26.583 -13.962  18.063  1.00  0.00    -0.000 C 
BRANCH  13  14
ATOM     14  C   UNL     1     -26.382 -15.436  17.674  1.00  0.00    -0.000 C 
BRANCH  14  15
ATOM     15  C   UNL     1     -27.716 -16.198  17.703  1.00  0.00    -0.000 C 
BRANCH  15  16
ATOM     16  C   UNL     1     -28.021 -16.898  16.367  1.00  0.00    -0.000 C 
BRANCH  16  17
ATOM     17  C   UNL     1     -29.480 -16.710  15.926  1.00  0.00    -0.003 C 
ATOM     18  C   UNL     1     -30.447 -17.178  17.011  1.00  0.00     0.004 C 
ENDBRANCH  16  17
ENDBRANCH  15  16
ENDBRANCH  14  15
ENDBRANCH  13  14
ENDBRANCH  12  13
ENDBRANCH  11  12
ENDBRANCH   1  11
TORSDOF 14
ENDMDL
MODEL 4
REMARK VINA RESULT:    -4.485      1.747      3.156
REMARK INTER + INTRA:          -9.685
REMARK INTER:                  -8.025
REMARK INTRA:                  -1.660
REMARK UNBOUND:                -1.530
REMARK SMILES CCCCCCCCCCCCCCCC(=O)[O-]
REMARK SMILES IDX 9 1 10 2 11 3 12 4 13 5 14 6 15 7 16 8 17 9 18 10 8 11 7 12
REMARK SMILES IDX 6 13 5 14 4 15 3 16 2 17 1 18
REMARK H PARENT
REMARK Flexibility Score: inf
ROOT
ATOM      1  C   UNL     1     -25.520 -13.537  17.768  1.00  0.00     0.000 C 
ENDROOT
BRANCH   1   2
ATOM      2  C   UNL     1     -25.611 -12.042  17.428  1.00  0.00     0.000 C 
BRANCH   2   3
ATOM      3  C   UNL     1     -26.899 -11.696  16.662  1.00  0.00     0.000 C 
BRANCH   3   4
ATOM      4  C   UNL     1     -27.740 -10.618  17.379  1.00  0.00     0.000 C 
BRANCH   4   5
ATOM      5  C   UNL     1     -29.223 -10.998  17.548  1.00  0.00     0.000 C 
BRANCH   5   6
ATOM      6  C   UNL     1     -29.657 -12.276  16.805  1.00  0.00     0.006 C 
BRANCH   6   7
ATOM      7  C   UNL     1     -30.596 -13.190  17.611  1.00  0.00     0.053 C 
BRANCH   7   8
ATOM      8  C   UNL     1     -31.602 -13.872  16.736  1.00  0.00     0.041 C 
ATOM      9  O   UNL     1     -31.257 -14.345  15.621  1.00  0.00    -0.550 OA
ATOM     10  O   UNL     1     -32.927 -13.966  17.144  1.00  0.00    -0.550 OA
ENDBRANCH   7   8
ENDBRANCH   6   7
ENDBRANCH   5   6
ENDBRANCH   4   5
ENDBRANCH   3   4
ENDBRANCH   2   3
ENDBRANCH   1   2
BRANCH   1  11
ATOM     11  C   UNL     1     -26.888 -14.165  18.125  1.00  0.00     0.000 C 
BRANCH  11  12
ATOM     12  C   UNL     1     -27.027 -15.625  17.654  1.00  0.00    -0.000 C 
BRANCH  12  13
ATOM     13  C   UNL     1     -28.229 -15.873  16.725  1.00  0.00    -0.000 C 
BRANCH  13  14
ATOM     14  C   UNL     1     -29.297 -16.777  17.361  1.00  0.00    -0.000 C 
BRANCH  14  15
ATOM     15  C   UNL     1     -29.867 -17.763  16.329  1.00  0.00    -0.000 C 
BRANCH  15  16
ATOM     16  C   UNL     1     -29.102 -17.723  14.995  1.00  0.00    -0.000 C 
BRANCH  16  17
ATOM     17  C   UNL     1     -29.996 -17.305  13.818  1.00  0.00    -0.003 C 
ATOM     18  C   UNL     1     -29.231 -17.365  12.498  1.00  0.00     0.004 C 
ENDBRANCH  16  17
ENDBRANCH  15  16
ENDBRANCH  14  15
ENDBRANCH  13  14
ENDBRANCH  12  13
ENDBRANCH  11  12
ENDBRANCH   1  11
TORSDOF 14
ENDMDL
MODEL 5
REMARK VINA RESULT:    -4.476      2.188      4.766
REMARK INTER + INTRA:          -9.669
REMARK INTER:                  -8.095
REMARK INTRA:                  -1.575
REMARK UNBOUND:                -1.530
REMARK SMILES CCCCCCCCCCCCCCCC(=O)[O-]
REMARK SMILES IDX 9 1 10 2 11 3 12 4 13 5 14 6 15 7 16 8 17 9 18 10 8 11 7 12
REMARK SMILES IDX 6 13 5 14 4 15 3 16 2 17 1 18
REMARK H PARENT
REMARK Flexibility Score: inf
ROOT
ATOM      1  C   UNL     1     -26.238 -13.713  18.104  1.00  0.00     0.000 C 
ENDROOT
BRANCH   1   2
ATOM      2  C   UNL     1     -26.013 -15.095  17.472  1.00  0.00     0.000 C 
BRANCH   2   3
ATOM      3  C   UNL     1     -27.303 -15.932  17.426  1.00  0.00     0.000 C 
BRANCH   3   4
ATOM      4  C   UNL     1     -27.168 -17.173  16.519  1.00  0.00     0.000 C 
BRANCH   4   5
ATOM      5  C   UNL     1     -28.516 -17.733  16.027  1.00  0.00     0.000 C 
BRANCH   5   6
ATOM      6  C   UNL     1     -28.478 -18.397  14.638  1.00  0.00     0.006 C 
BRANCH   6   7
ATOM      7  C   UNL     1     -28.954 -17.491  13.489  1.00  0.00     0.053 C 
BRANCH   7   8
ATOM      8  C   UNL     1     -28.154 -17.701  12.240  1.00  0.00     0.041 C 
ATOM      9  O   UNL     1     -27.256 -18.583  12.203  1.00  0.00    -0.550 OA
ATOM     10  O   UNL     1     -28.386 -16.907  11.124  1.00  0.00    -0.550 OA
ENDBRANCH   7   8
ENDBRANCH   6   7
ENDBRANCH   5   6
ENDBRANCH   4   5
ENDBRANCH   3   4
ENDBRANCH   2   3
ENDBRANCH   1   2
BRANCH   1  11
ATOM     11  C   UNL     1     -25.560 -12.566  17.317  1.00  0.00     0.000 C 
BRANCH  11  12
ATOM     12  C   UNL     1     -26.506 -11.385  17.031  1.00  0.00    -0.000 C 
BRANCH  12  13
ATOM     13  C   UNL     1     -27.888 -11.513  17.696  1.00  0.00    -0.000 C 
BRANCH  13  14
ATOM     14  C   UNL     1     -28.959 -12.068  16.743  1.00  0.00    -0.000 C 
BRANCH  14  15
ATOM     15  C   UNL     1     -30.129 -12.680  17.529  1.00  0.00    -0.000 C 
BRANCH  15  16
ATOM     16  C   UNL     1     -30.339 -14.169  17.203  1.00  0.00    -0.000 C 
BRANCH  16  17
ATOM     17  C   UNL     1     -30.187 -14.468  15.704  1.00  0.00    -0.003 C 
ATOM     18  C   UNL     1     -31.383 -15.257  15.177  1.00  0.00     0.004 C 
ENDBRANCH  16  17
ENDBRANCH  15  16
ENDBRANCH  14  15
ENDBRANCH  13  14
ENDBRANCH  12  13
ENDBRANCH  11  12
ENDBRANCH   1  11
TORSDOF 14
ENDMDL
MODEL 6
REMARK VINA RESULT:    -4.416      1.899      4.405
REMARK INTER + INTRA:          -9.561
REMARK INTER:                  -7.786
REMARK INTRA:                  -1.775
REMARK UNBOUND:                -1.530
REMARK SMILES CCCCCCCCCCCCCCCC(=O)[O-]
REMARK SMILES IDX 9 1 10 2 11 3 12 4 13 5 14 6 15 7 16 8 17 9 18 10 8 11 7 12
REMARK SMILES IDX 6 13 5 14 4 15 3 16 2 17 1 18
REMARK H PARENT
REMARK Flexibility Score: inf
ROOT
ATOM      1  C   UNL     1     -26.972 -11.442  16.616  1.00  0.00     0.000 C 
ENDROOT
BRANCH   1   2
ATOM      2  C   UNL     1     -25.500 -11.367  17.050  1.00  0.00     0.000 C 
BRANCH   2   3
ATOM      3  C   UNL     1     -25.062 -12.610  17.843  1.00  0.00     0.000 C 
BRANCH   3   4
ATOM      4  C   UNL     1     -26.235 -13.573  18.125  1.00  0.00     0.000 C 
BRANCH   4   5
ATOM      5  C   UNL     1     -26.121 -14.922  17.391  1.00  0.00     0.000 C 
BRANCH   5   6
ATOM      6  C   UNL     1     -27.406 -15.773  17.387  1.00  0.00     0.006 C 
BRANCH   6   7
ATOM      7  C   UNL     1     -27.163 -17.288  17.486  1.00  0.00     0.053 C 
BRANCH   7   8
ATOM      8  C   UNL     1     -26.597 -17.850  16.218  1.00  0.00     0.041 C 
ATOM      9  O   UNL     1     -25.351 -17.981  16.083  1.00  0.00    -0.550 OA
ATOM     10  O   UNL     1     -27.444 -18.206  15.176  1.00  0.00    -0.550 OA
ENDBRANCH   7   8
ENDBRANCH   6   7
ENDBRANCH   5   6
ENDBRANCH   4   5
ENDBRANCH   3   4
ENDBRANCH   2   3
ENDBRANCH   1   2
BRANCH   1  11
ATOM     11  C   UNL     1     -27.881 -10.445  17.374  1.00  0.00     0.000 C 
BRANCH  11  12
ATOM     12  C   UNL     1     -29.257 -11.034  17.735  1.00  0.00    -0.000 C 
BRANCH  12  13
ATOM     13  C   UNL     1     -29.622 -12.307  16.950  1.00  0.00    -0.000 C 
BRANCH  13  14
ATOM     14  C   UNL     1     -30.725 -13.132  17.632  1.00  0.00    -0.000 C 
BRANCH  14  15
ATOM     15  C   UNL     1     -30.781 -14.556  17.056  1.00  0.00    -0.000 C 
BRANCH  15  16
ATOM     16  C   UNL     1     -30.464 -14.593  15.552  1.00  0.00    -0.000 C 
BRANCH  16  17
ATOM     17  C   UNL     1     -30.473 -16.020  14.985  1.00  0.00    -0.003 C 
ATOM     18  C   UNL     1     -30.744 -17.046  16.082  1.00  0.00     0.004 C 
ENDBRANCH  16  17
ENDBRANCH  15  16
ENDBRANCH  14  15
ENDBRANCH  13  14
ENDBRANCH  12  13
ENDBRANCH  11  12
ENDBRANCH   1  11
TORSDOF 14
ENDMDL
MODEL 7
REMARK VINA RESULT:    -4.397      2.260      5.097
REMARK INTER + INTRA:          -9.526
REMARK INTER:                  -7.920
REMARK INTRA:                  -1.606
REMARK UNBOUND:                -1.530
REMARK SMILES CCCCCCCCCCCCCCCC(=O)[O-]
REMARK SMILES IDX 9 1 10 2 11 3 12 4 13 5 14 6 15 7 16 8 17 9 18 10 8 11 7 12
REMARK SMILES IDX 6 13 5 14 4 15 3 16 2 17 1 18
REMARK H PARENT
REMARK Flexibility Score: inf
ROOT
ATOM      1  C   UNL     1     -27.040 -16.408  17.022  1.00  0.00     0.000 C 
ENDROOT
BRANCH   1   2
ATOM      2  C   UNL     1     -28.467 -15.841  16.995  1.00  0.00     0.000 C 
BRANCH   2   3
ATOM      3  C   UNL     1     -29.530 -16.942  16.838  1.00  0.00     0.000 C 
BRANCH   3   4
ATOM      4  C   UNL     1     -30.767 -16.458  16.053  1.00  0.00     0.000 C 
BRANCH   4   5
ATOM      5  C   UNL     1     -30.463 -16.059  14.597  1.00  0.00     0.000 C 
BRANCH   5   6
ATOM      6  C   UNL     1     -30.401 -17.232  13.599  1.00  0.00     0.006 C 
BRANCH   6   7
ATOM      7  C   UNL     1     -29.125 -17.267  12.741  1.00  0.00     0.053 C 
BRANCH   7   8
ATOM      8  C   UNL     1     -28.160 -18.311  13.212  1.00  0.00     0.041 C 
ATOM      9  O   UNL     1     -27.030 -18.422  12.667  1.00  0.00    -0.550 OA
ATOM     10  O   UNL     1     -28.519 -19.178  14.237  1.00  0.00    -0.550 OA
ENDBRANCH   7   8
ENDBRANCH   6   7
ENDBRANCH   5   6
ENDBRANCH   4   5
ENDBRANCH   3   4
ENDBRANCH   2   3
ENDBRANCH   1   2
BRANCH   1  11
ATOM     11  C   UNL     1     -25.989 -15.390  17.526  1.00  0.00     0.000 C 
BRANCH  11  12
ATOM     12  C   UNL     1     -26.583 -14.000  17.816  1.00  0.00    -0.000 C 
BRANCH  12  13
ATOM     13  C   UNL     1     -25.748 -12.832  17.261  1.00  0.00    -0.000 C 
BRANCH  13  14
ATOM     14  C   UNL     1     -26.615 -11.703  16.679  1.00  0.00    -0.000 C 
BRANCH  14  15
ATOM     15  C   UNL     1     -27.464 -11.042  17.776  1.00  0.00    -0.000 C 
BRANCH  15  16
ATOM     16  C   UNL     1     -28.945 -10.919  17.377  1.00  0.00    -0.000 C 
BRANCH  16  17
ATOM     17  C   UNL     1     -29.712 -12.237  17.559  1.00  0.00    -0.003 C 
ATOM     18  C   UNL     1     -30.232 -12.760  16.222  1.00  0.00     0.004 C 
ENDBRANCH  16  17
ENDBRANCH  15  16
ENDBRANCH  14  15
ENDBRANCH  13  14
ENDBRANCH  12  13
ENDBRANCH  11  12
ENDBRANCH   1  11
TORSDOF 14
ENDMDL
MODEL 8
REMARK VINA RESULT:    -4.360      2.442      5.356
REMARK INTER + INTRA:          -9.458
REMARK INTER:                  -8.054
REMARK INTRA:                  -1.403
REMARK UNBOUND:                -1.530
REMARK SMILES CCCCCCCCCCCCCCCC(=O)[O-]
REMARK SMILES IDX 9 1 10 2 11 3 12 4 13 5 14 6 15 7 16 8 17 9 18 10 8 11 7 12
REMARK SMILES IDX 6 13 5 14 4 15 3 16 2 17 1 18
REMARK H PARENT
REMARK Flexibility Score: inf
ROOT
ATOM      1  C   UNL     1     -30.552 -15.751  17.339  1.00  0.00     0.000 C 
ENDROOT
BRANCH   1   2
ATOM      2  C   UNL     1     -32.001 -15.301  17.097  1.00  0.00     0.000 C 
BRANCH   2   3
ATOM      3  C   UNL     1     -32.631 -15.993  15.876  1.00  0.00     0.000 C 
BRANCH   3   4
ATOM      4  C   UNL     1     -32.016 -17.382  15.605  1.00  0.00     0.000 C 
BRANCH   4   5
ATOM      5  C   UNL     1     -31.860 -17.711  14.108  1.00  0.00     0.000 C 
BRANCH   5   6
ATOM      6  C   UNL     1     -30.488 -17.359  13.503  1.00  0.00     0.006 C 
BRANCH   6   7
ATOM      7  C   UNL     1     -29.296 -18.039  14.198  1.00  0.00     0.053 C 
BRANCH   7   8
ATOM      8  C   UNL     1     -28.097 -18.120  13.305  1.00  0.00     0.041 C 
ATOM      9  O   UNL     1     -28.170 -17.736  12.108  1.00  0.00    -0.550 OA
ATOM     10  O   UNL     1     -26.903 -18.642  13.789  1.00  0.00    -0.550 OA
ENDBRANCH   7   8
ENDBRANCH   6   7
ENDBRANCH   5   6
ENDBRANCH   4   5
ENDBRANCH   3   4
ENDBRANCH   2   3
ENDBRANCH   1   2
BRANCH   1  11
ATOM     11  C   UNL     1     -29.543 -14.578  17.340  1.00  0.00     0.000 C 
BRANCH  11  12
ATOM     12  C   UNL     1     -30.204 -13.209  17.586  1.00  0.00    -0.000 C 
BRANCH  12  13
ATOM     13  C   UNL     1     -29.718 -12.097  16.638  1.00  0.00    -0.000 C 
BRANCH  13  14
ATOM     14  C   UNL     1     -29.025 -10.943  17.379  1.00  0.00    -0.000 C 
BRANCH  14  15
ATOM     15  C   UNL     1     -27.624 -11.359  17.854  1.00  0.00    -0.000 C 
BRANCH  15  16
ATOM     16  C   UNL     1     -26.644 -11.558  16.685  1.00  0.00    -0.000 C 
BRANCH  16  17
ATOM     17  C   UNL     1     -25.489 -12.506  17.041  1.00  0.00    -0.003 C 
ATOM     18  C   UNL     1     -25.968 -13.642  17.941  1.00  0.00     0.004 C 
ENDBRANCH  16  17
ENDBRANCH  15  16
ENDBRANCH  14  15
ENDBRANCH  13  14
ENDBRANCH  12  13
ENDBRANCH  11  12
ENDBRANCH   1  11
TORSDOF 14
ENDMDL
MODEL 9
REMARK VINA RESULT:    -4.334      2.811      5.119
REMARK INTER + INTRA:          -9.411
REMARK INTER:                  -8.142
REMARK INTRA:                  -1.269
REMARK UNBOUND:                -1.530
REMARK SMILES CCCCCCCCCCCCCCCC(=O)[O-]
REMARK SMILES IDX 9 1 10 2 11 3 12 4 13 5 14 6 15 7 16 8 17 9 18 10 8 11 7 12
REMARK SMILES IDX 6 13 5 14 4 15 3 16 2 17 1 18
REMARK H PARENT
REMARK Flexibility Score: inf
ROOT
ATOM      1  C   UNL     1     -30.492 -13.661  15.921  1.00  0.00     0.000 C 
ENDROOT
BRANCH   1   2
ATOM      2  C   UNL     1     -31.426 -14.851  16.191  1.00  0.00     0.000 C 
BRANCH   2   3
ATOM      3  C   UNL     1     -31.399 -15.884  15.051  1.00  0.00     0.000 C 
BRANCH   3   4
ATOM      4  C   UNL     1     -29.999 -16.023  14.416  1.00  0.00     0.000 C 
BRANCH   4   5
ATOM      5  C   UNL     1     -29.917 -17.106  13.324  1.00  0.00     0.000 C 
BRANCH   5   6
ATOM      6  C   UNL     1     -28.977 -18.284  13.643  1.00  0.00     0.006 C 
BRANCH   6   7
ATOM      7  C   UNL     1     -27.593 -18.188  12.980  1.00  0.00     0.053 C 
BRANCH   7   8
ATOM      8  C   UNL     1     -27.560 -18.875  11.649  1.00  0.00     0.041 C 
ATOM      9  O   UNL     1     -27.723 -18.213  10.590  1.00  0.00    -0.550 OA
ATOM     10  O   UNL     1     -27.372 -20.250  11.580  1.00  0.00    -0.550 OA
ENDBRANCH   7   8
ENDBRANCH   6   7
ENDBRANCH   5   6
ENDBRANCH   4   5
ENDBRANCH   3   4
ENDBRANCH   2   3
ENDBRANCH   1   2
BRANCH   1  11
ATOM     11  C   UNL     1     -29.789 -13.139  17.196  1.00  0.00     0.000 C 
BRANCH  11  12
ATOM     12  C   UNL     1     -29.034 -11.815  16.973  1.00  0.00    -0.000 C 
BRANCH  12  13
ATOM     13  C   UNL     1     -27.730 -11.691  17.782  1.00  0.00    -0.000 C 
BRANCH  13  14
ATOM     14  C   UNL     1     -26.493 -11.495  16.891  1.00  0.00    -0.000 C 
BRANCH  14  15
ATOM     15  C   UNL     1     -25.497 -12.652  17.072  1.00  0.00    -0.000 C 
BRANCH  15  16
ATOM     16  C   UNL     1     -26.008 -13.715  18.060  1.00  0.00    -0.000 C 
BRANCH  16  17
ATOM     17  C   UNL     1     -25.944 -15.135  17.478  1.00  0.00    -0.003 C 
ATOM     18  C   UNL     1     -27.340 -15.740  17.349  1.00  0.00     0.004 C 
ENDBRANCH  16  17
ENDBRANCH  15  16
ENDBRANCH  14  15
ENDBRANCH  13  14
ENDBRANCH  12  13
ENDBRANCH  11  12
ENDBRANCH   1  11
TORSDOF 14
ENDMDL
