MODEL 1
REMARK VINA RESULT:    -4.836      0.000      0.000
REMARK INTER + INTRA:         -13.348
REMARK INTER:                 -10.489
REMARK INTRA:                  -2.859
REMARK UNBOUND:                -2.859
REMARK SMILES CCCCCCCCCCCCCCCCCCCCCC(=O)[O-]
REMARK SMILES IDX 12 1 11 2 10 3 9 4 8 5 7 6 6 7 5 8 4 9 3 10 2 11 1 12 13 13
REMARK SMILES IDX 14 14 15 15 16 16 17 17 18 18 19 19 20 20 21 21 22 22 23 23
REMARK SMILES IDX 24 24
REMARK H PARENT
REMARK Flexibility Score: inf
ROOT
ATOM      1  C   UNL     1     -23.506 -31.735 -11.040  1.00  0.00     0.000 C 
ENDROOT
BRANCH   1   2
ATOM      2  C   UNL     1     -24.536 -30.912 -10.245  1.00  0.00     0.000 C 
BRANCH   2   3
ATOM      3  C   UNL     1     -25.983 -31.343 -10.530  1.00  0.00     0.000 C 
BRANCH   3   4
ATOM      4  C   UNL     1     -26.752 -30.315 -11.373  1.00  0.00    -0.000 C 
BRANCH   4   5
ATOM      5  C   UNL     1     -27.053 -30.867 -12.772  1.00  0.00    -0.000 C 
BRANCH   5   6
ATOM      6  C   UNL     1     -28.178 -31.912 -12.724  1.00  0.00    -0.000 C 
BRANCH   6   7
ATOM      7  C   UNL     1     -28.006 -33.003 -13.803  1.00  0.00    -0.000 C 
BRANCH   7   8
ATOM      8  C   UNL     1     -27.852 -34.422 -13.230  1.00  0.00    -0.000 C 
BRANCH   8   9
ATOM      9  C   UNL     1     -27.716 -34.436 -11.699  1.00  0.00    -0.000 C 
BRANCH   9  10
ATOM     10  C   UNL     1     -26.302 -34.819 -11.224  1.00  0.00    -0.000 C 
BRANCH  10  11
ATOM     11  C   UNL     1     -25.207 -34.735 -12.303  1.00  0.00    -0.003 C 
ATOM     12  C   UNL     1     -24.921 -36.077 -12.974  1.00  0.00     0.004 C 
ENDBRANCH  10  11
ENDBRANCH   9  10
ENDBRANCH   8   9
ENDBRANCH   7   8
ENDBRANCH   6   7
ENDBRANCH   5   6
ENDBRANCH   4   5
ENDBRANCH   3   4
ENDBRANCH   2   3
ENDBRANCH   1   2
BRANCH   1  13
ATOM     13  C   UNL     1     -22.398 -30.862 -11.652  1.00  0.00     0.000 C 
BRANCH  13  14
ATOM     14  C   UNL     1     -22.802 -30.253 -13.003  1.00  0.00     0.000 C 
BRANCH  14  15
ATOM     15  C   UNL     1     -21.708 -30.479 -14.054  1.00  0.00     0.000 C 
BRANCH  15  16
ATOM     16  C   UNL     1     -20.768 -31.619 -13.636  1.00  0.00     0.000 C 
BRANCH  16  17
ATOM     17  C   UNL     1     -20.450 -32.580 -14.793  1.00  0.00     0.000 C 
BRANCH  17  18
ATOM     18  C   UNL     1     -20.747 -34.049 -14.440  1.00  0.00     0.000 C 
BRANCH  18  19
ATOM     19  C   UNL     1     -21.738 -34.186 -13.273  1.00  0.00     0.000 C 
BRANCH  19  20
ATOM     20  C   UNL     1     -21.466 -35.427 -12.405  1.00  0.00     0.006 C 
BRANCH  20  21
ATOM     21  C   UNL     1     -19.971 -35.613 -12.114  1.00  0.00     0.053 C 
BRANCH  21  22
ATOM     22  C   UNL     1     -19.633 -35.250 -10.700  1.00  0.00     0.041 C 
ATOM     23  O   UNL     1     -19.194 -34.102 -10.428  1.00  0.00    -0.550 OA
ATOM     24  O   UNL     1     -19.835 -36.170  -9.680  1.00  0.00    -0.550 OA
ENDBRANCH  21  22
ENDBRANCH  20  21
ENDBRANCH  19  20
ENDBRANCH  18  19
ENDBRANCH  17  18
ENDBRANCH  16  17
ENDBRANCH  15  16
ENDBRANCH  14  15
ENDBRANCH  13  14
ENDBRANCH   1  13
TORSDOF 20
ENDMDL
MODEL 2
REMARK VINA RESULT:    -4.749      1.908      6.318
REMARK INTER + INTRA:         -13.160
REMARK INTER:                 -10.100
REMARK INTRA:                  -3.060
REMARK UNBOUND:                -2.859
REMARK SMILES CCCCCCCCCCCCCCCCCCCCCC(=O)[O-]
REMARK SMILES IDX 12 1 11 2 10 3 9 4 8 5 7 6 6 7 5 8 4 9 3 10 2 11 1 12 13 13
REMARK SMILES IDX 14 14 15 15 16 16 17 17 18 18 19 19 20 20 21 21 22 22 23 23
REMARK SMILES IDX 24 24
REMARK H PARENT
REMARK Flexibility Score: inf
ROOT
ATOM      1  C   UNL     1     -24.482 -32.221 -11.715  1.00  0.00     0.000 C 
ENDROOT
BRANCH   1   2
ATOM      2  C   UNL     1     -23.749 -30.969 -12.229  1.00  0.00     0.000 C 
BRANCH   2   3
ATOM      3  C   UNL     1     -22.220 -31.106 -12.152  1.00  0.00     0.000 C 
BRANCH   3   4
ATOM      4  C   UNL     1     -21.775 -32.443 -11.541  1.00  0.00    -0.000 C 
BRANCH   4   5
ATOM      5  C   UNL     1     -20.372 -32.327 -10.932  1.00  0.00    -0.000 C 
BRANCH   5   6
ATOM      6  C   UNL     1     -19.562 -33.611 -11.165  1.00  0.00    -0.000 C 
BRANCH   6   7
ATOM      7  C   UNL     1     -20.467 -34.826 -11.464  1.00  0.00    -0.000 C 
BRANCH   7   8
ATOM      8  C   UNL     1     -20.039 -35.628 -12.704  1.00  0.00    -0.000 C 
BRANCH   8   9
ATOM      9  C   UNL     1     -19.635 -34.732 -13.884  1.00  0.00    -0.000 C 
BRANCH   9  10
ATOM     10  C   UNL     1     -20.833 -34.015 -14.533  1.00  0.00    -0.000 C 
BRANCH  10  11
ATOM     11  C   UNL     1     -20.493 -32.699 -15.257  1.00  0.00    -0.003 C 
ATOM     12  C   UNL     1     -19.332 -31.943 -14.614  1.00  0.00     0.004 C 
ENDBRANCH  10  11
ENDBRANCH   9  10
ENDBRANCH   8   9
ENDBRANCH   7   8
ENDBRANCH   6   7
ENDBRANCH   5   6
ENDBRANCH   4   5
ENDBRANCH   3   4
ENDBRANCH   2   3
ENDBRANCH   1   2
BRANCH   1  13
ATOM     13  C   UNL     1     -25.624 -31.880 -10.745  1.00  0.00     0.000 C 
BRANCH  13  14
ATOM     14  C   UNL     1     -25.994 -30.389 -10.766  1.00  0.00     0.000 C 
BRANCH  14  15
ATOM     15  C   UNL     1     -27.416 -30.186 -11.302  1.00  0.00     0.000 C 
BRANCH  15  16
ATOM     16  C   UNL     1     -27.480 -30.455 -12.813  1.00  0.00     0.000 C 
BRANCH  16  17
ATOM     17  C   UNL     1     -28.653 -31.368 -13.204  1.00  0.00     0.000 C 
BRANCH  17  18
ATOM     18  C   UNL     1     -28.459 -32.818 -12.726  1.00  0.00     0.000 C 
BRANCH  18  19
ATOM     19  C   UNL     1     -27.488 -33.607 -13.618  1.00  0.00     0.000 C 
BRANCH  19  20
ATOM     20  C   UNL     1     -27.294 -35.059 -13.146  1.00  0.00     0.006 C 
BRANCH  20  21
ATOM     21  C   UNL     1     -25.938 -35.631 -13.578  1.00  0.00     0.053 C 
BRANCH  21  22
ATOM     22  C   UNL     1     -24.963 -35.662 -12.440  1.00  0.00     0.041 C 
ATOM     23  O   UNL     1     -23.734 -35.822 -12.663  1.00  0.00    -0.550 OA
ATOM     24  O   UNL     1     -25.409 -35.481 -11.138  1.00  0.00    -0.550 OA
ENDBRANCH  21  22
ENDBRANCH  20  21
ENDBRANCH  19  20
ENDBRANCH  18  19
ENDBRANCH  17  18
ENDBRANCH  16  17
ENDBRANCH  15  16
ENDBRANCH  14  15
ENDBRANCH  13  14
ENDBRANCH   1  13
TORSDOF 20
ENDMDL
MODEL 3
REMARK VINA RESULT:    -4.742      1.883      3.832
REMARK INTER + INTRA:         -13.146
REMARK INTER:                  -9.686
REMARK INTRA:                  -3.460
REMARK UNBOUND:                -2.859
REMARK SMILES CCCCCCCCCCCCCCCCCCCCCC(=O)[O-]
REMARK SMILES IDX 12 1 11 2 10 3 9 4 8 5 7 6 6 7 5 8 4 9 3 10 2 11 1 12 13 13
REMARK SMILES IDX 14 14 15 15 16 16 17 17 18 18 19 19 20 20 21 21 22 22 23 23
REMARK SMILES IDX 24 24
REMARK H PARENT
REMARK Flexibility Score: inf
ROOT
ATOM      1  C   UNL     1     -23.514 -35.452 -12.763  1.00  0.00     0.000 C 
ENDROOT
BRANCH   1   2
ATOM      2  C   UNL     1     -24.734 -34.773 -12.114  1.00  0.00     0.000 C 
BRANCH   2   3
ATOM      3  C   UNL     1     -24.630 -33.239 -12.124  1.00  0.00     0.000 C 
BRANCH   3   4
ATOM      4  C   UNL     1     -25.243 -32.596 -10.871  1.00  0.00    -0.000 C 
BRANCH   4   5
ATOM      5  C   UNL     1     -25.517 -31.104 -11.099  1.00  0.00    -0.000 C 
BRANCH   5   6
ATOM      6  C   UNL     1     -25.243 -30.709 -12.558  1.00  0.00    -0.000 C 
BRANCH   6   7
ATOM      7  C   UNL     1     -26.546 -30.454 -13.347  1.00  0.00    -0.000 C 
BRANCH   7   8
ATOM      8  C   UNL     1     -27.822 -30.621 -12.504  1.00  0.00    -0.000 C 
BRANCH   8   9
ATOM      9  C   UNL     1     -28.643 -31.857 -12.902  1.00  0.00    -0.000 C 
BRANCH   9  10
ATOM     10  C   UNL     1     -27.844 -32.861 -13.753  1.00  0.00    -0.000 C 
BRANCH  10  11
ATOM     11  C   UNL     1     -28.073 -34.343 -13.401  1.00  0.00    -0.003 C 
ATOM     12  C   UNL     1     -27.612 -35.298 -14.501  1.00  0.00     0.004 C 
ENDBRANCH  10  11
ENDBRANCH   9  10
ENDBRANCH   8   9
ENDBRANCH   7   8
ENDBRANCH   6   7
ENDBRANCH   5   6
ENDBRANCH   4   5
ENDBRANCH   3   4
ENDBRANCH   2   3
ENDBRANCH   1   2
BRANCH   1  13
ATOM     13  C   UNL     1     -22.181 -34.860 -12.281  1.00  0.00     0.000 C 
BRANCH  13  14
ATOM     14  C   UNL     1     -20.964 -35.522 -12.945  1.00  0.00     0.000 C 
BRANCH  14  15
ATOM     15  C   UNL     1     -20.019 -34.466 -13.531  1.00  0.00     0.000 C 
BRANCH  15  16
ATOM     16  C   UNL     1     -20.735 -33.605 -14.582  1.00  0.00     0.000 C 
BRANCH  16  17
ATOM     17  C   UNL     1     -20.030 -32.262 -14.830  1.00  0.00     0.000 C 
BRANCH  17  18
ATOM     18  C   UNL     1     -20.962 -31.057 -14.613  1.00  0.00     0.000 C 
BRANCH  18  19
ATOM     19  C   UNL     1     -21.824 -31.197 -13.348  1.00  0.00     0.000 C 
BRANCH  19  20
ATOM     20  C   UNL     1     -21.064 -30.813 -12.066  1.00  0.00     0.006 C 
BRANCH  20  21
ATOM     21  C   UNL     1     -21.585 -31.568 -10.837  1.00  0.00     0.053 C 
BRANCH  21  22
ATOM     22  C   UNL     1     -21.704 -30.670  -9.644  1.00  0.00     0.041 C 
ATOM     23  O   UNL     1     -22.726 -29.950  -9.491  1.00  0.00    -0.550 OA
ATOM     24  O   UNL     1     -20.701 -30.654  -8.684  1.00  0.00    -0.550 OA
ENDBRANCH  21  22
ENDBRANCH  20  21
ENDBRANCH  19  20
ENDBRANCH  18  19
ENDBRANCH  17  18
ENDBRANCH  16  17
ENDBRANCH  15  16
ENDBRANCH  14  15
ENDBRANCH  13  14
ENDBRANCH   1  13
TORSDOF 20
ENDMDL
MODEL 4
REMARK VINA RESULT:    -4.723      2.841      7.012
REMARK INTER + INTRA:         -13.104
REMARK INTER:                  -9.753
REMARK INTRA:                  -3.350
REMARK UNBOUND:                -2.859
REMARK SMILES CCCCCCCCCCCCCCCCCCCCCC(=O)[O-]
REMARK SMILES IDX 12 1 11 2 10 3 9 4 8 5 7 6 6 7 5 8 4 9 3 10 2 11 1 12 13 13
REMARK SMILES IDX 14 14 15 15 16 16 17 17 18 18 19 19 20 20 21 21 22 22 23 23
REMARK SMILES IDX 24 24
REMARK H PARENT
REMARK Flexibility Score: inf
ROOT
ATOM      1  C   UNL     1     -24.871 -34.899 -11.937  1.00  0.00     0.000 C 
ENDROOT
BRANCH   1   2
ATOM      2  C   UNL     1     -23.697 -35.623 -12.621  1.00  0.00     0.000 C 
BRANCH   2   3
ATOM      3  C   UNL     1     -22.507 -34.690 -12.896  1.00  0.00     0.000 C 
BRANCH   3   4
ATOM      4  C   UNL     1     -21.169 -35.285 -12.435  1.00  0.00    -0.000 C 
BRANCH   4   5
ATOM      5  C   UNL     1     -20.146 -35.287 -13.579  1.00  0.00    -0.000 C 
BRANCH   5   6
ATOM      6  C   UNL     1     -19.686 -33.859 -13.910  1.00  0.00    -0.000 C 
BRANCH   6   7
ATOM      7  C   UNL     1     -20.286 -33.347 -15.237  1.00  0.00    -0.000 C 
BRANCH   7   8
ATOM      8  C   UNL     1     -20.801 -31.899 -15.166  1.00  0.00    -0.000 C 
BRANCH   8   9
ATOM      9  C   UNL     1     -20.594 -31.259 -13.784  1.00  0.00    -0.000 C 
BRANCH   9  10
ATOM     10  C   UNL     1     -21.901 -30.731 -13.165  1.00  0.00    -0.000 C 
BRANCH  10  11
ATOM     11  C   UNL     1     -21.892 -30.605 -11.630  1.00  0.00    -0.003 C 
ATOM     12  C   UNL     1     -21.286 -31.821 -10.932  1.00  0.00     0.004 C 
ENDBRANCH  10  11
ENDBRANCH   9  10
ENDBRANCH   8   9
ENDBRANCH   7   8
ENDBRANCH   6   7
ENDBRANCH   5   6
ENDBRANCH   4   5
ENDBRANCH   3   4
ENDBRANCH   2   3
ENDBRANCH   1   2
BRANCH   1  13
ATOM     13  C   UNL     1     -24.647 -33.382 -11.828  1.00  0.00     0.000 C 
BRANCH  13  14
ATOM     14  C   UNL     1     -25.606 -32.712 -10.832  1.00  0.00     0.000 C 
BRANCH  14  15
ATOM     15  C   UNL     1     -25.083 -31.332 -10.413  1.00  0.00     0.000 C 
BRANCH  15  16
ATOM     16  C   UNL     1     -25.952 -30.211 -11.000  1.00  0.00     0.000 C 
BRANCH  16  17
ATOM     17  C   UNL     1     -25.648 -29.938 -12.482  1.00  0.00     0.000 C 
BRANCH  17  18
ATOM     18  C   UNL     1     -26.741 -30.479 -13.420  1.00  0.00     0.000 C 
BRANCH  18  19
ATOM     19  C   UNL     1     -28.071 -30.729 -12.692  1.00  0.00     0.000 C 
BRANCH  19  20
ATOM     20  C   UNL     1     -28.608 -32.155 -12.908  1.00  0.00     0.006 C 
BRANCH  20  21
ATOM     21  C   UNL     1     -27.703 -32.980 -13.831  1.00  0.00     0.053 C 
BRANCH  21  22
ATOM     22  C   UNL     1     -27.901 -34.452 -13.630  1.00  0.00     0.041 C 
ATOM     23  O   UNL     1     -28.222 -34.900 -12.498  1.00  0.00    -0.550 OA
ATOM     24  O   UNL     1     -27.763 -35.323 -14.702  1.00  0.00    -0.550 OA
ENDBRANCH  21  22
ENDBRANCH  20  21
ENDBRANCH  19  20
ENDBRANCH  18  19
ENDBRANCH  17  18
ENDBRANCH  16  17
ENDBRANCH  15  16
ENDBRANCH  14  15
ENDBRANCH  13  14
ENDBRANCH   1  13
TORSDOF 20
ENDMDL
MODEL 5
REMARK VINA RESULT:    -4.718      2.208      7.025
REMARK INTER + INTRA:         -13.094
REMARK INTER:                 -10.440
REMARK INTRA:                  -2.654
REMARK UNBOUND:                -2.859
REMARK SMILES CCCCCCCCCCCCCCCCCCCCCC(=O)[O-]
REMARK SMILES IDX 12 1 11 2 10 3 9 4 8 5 7 6 6 7 5 8 4 9 3 10 2 11 1 12 13 13
REMARK SMILES IDX 14 14 15 15 16 16 17 17 18 18 19 19 20 20 21 21 22 22 23 23
REMARK SMILES IDX 24 24
REMARK H PARENT
REMARK Flexibility Score: inf
ROOT
ATOM      1  C   UNL     1     -24.973 -34.323 -11.825  1.00  0.00     0.000 C 
ENDROOT
BRANCH   1   2
ATOM      2  C   UNL     1     -24.100 -35.301 -12.632  1.00  0.00     0.000 C 
BRANCH   2   3
ATOM      3  C   UNL     1     -22.714 -34.723 -12.959  1.00  0.00     0.000 C 
BRANCH   3   4
ATOM      4  C   UNL     1     -21.573 -35.505 -12.291  1.00  0.00    -0.000 C 
BRANCH   4   5
ATOM      5  C   UNL     1     -20.314 -35.494 -13.168  1.00  0.00    -0.000 C 
BRANCH   5   6
ATOM      6  C   UNL     1     -20.390 -34.387 -14.229  1.00  0.00    -0.000 C 
BRANCH   6   7
ATOM      7  C   UNL     1     -19.262 -33.345 -14.065  1.00  0.00    -0.000 C 
BRANCH   7   8
ATOM      8  C   UNL     1     -19.749 -31.981 -13.548  1.00  0.00    -0.000 C 
BRANCH   8   9
ATOM      9  C   UNL     1     -21.144 -31.607 -14.072  1.00  0.00    -0.000 C 
BRANCH   9  10
ATOM     10  C   UNL     1     -21.161 -30.270 -14.835  1.00  0.00    -0.000 C 
BRANCH  10  11
ATOM     11  C   UNL     1     -20.474 -30.296 -16.212  1.00  0.00    -0.003 C 
ATOM     12  C   UNL     1     -20.828 -31.532 -17.037  1.00  0.00     0.004 C 
ENDBRANCH  10  11
ENDBRANCH   9  10
ENDBRANCH   8   9
ENDBRANCH   7   8
ENDBRANCH   6   7
ENDBRANCH   5   6
ENDBRANCH   4   5
ENDBRANCH   3   4
ENDBRANCH   2   3
ENDBRANCH   1   2
BRANCH   1  13
ATOM     13  C   UNL     1     -26.455 -34.732 -11.806  1.00  0.00     0.000 C 
BRANCH  13  14
ATOM     14  C   UNL     1     -26.992 -35.075 -13.204  1.00  0.00     0.000 C 
BRANCH  14  15
ATOM     15  C   UNL     1     -27.966 -33.997 -13.695  1.00  0.00     0.000 C 
BRANCH  15  16
ATOM     16  C   UNL     1     -28.262 -32.974 -12.588  1.00  0.00     0.000 C 
BRANCH  16  17
ATOM     17  C   UNL     1     -28.561 -31.571 -13.140  1.00  0.00     0.000 C 
BRANCH  17  18
ATOM     18  C   UNL     1     -27.477 -30.545 -12.768  1.00  0.00     0.000 C 
BRANCH  18  19
ATOM     19  C   UNL     1     -26.093 -30.924 -13.320  1.00  0.00     0.000 C 
BRANCH  19  20
ATOM     20  C   UNL     1     -24.958 -30.088 -12.702  1.00  0.00     0.006 C 
BRANCH  20  21
ATOM     21  C   UNL     1     -24.019 -30.938 -11.836  1.00  0.00     0.053 C 
BRANCH  21  22
ATOM     22  C   UNL     1     -24.398 -30.879 -10.387  1.00  0.00     0.041 C 
ATOM     23  O   UNL     1     -23.620 -30.349  -9.550  1.00  0.00    -0.550 OA
ATOM     24  O   UNL     1     -25.624 -31.378  -9.969  1.00  0.00    -0.550 OA
ENDBRANCH  21  22
ENDBRANCH  20  21
ENDBRANCH  19  20
ENDBRANCH  18  19
ENDBRANCH  17  18
ENDBRANCH  16  17
ENDBRANCH  15  16
ENDBRANCH  14  15
ENDBRANCH  13  14
ENDBRANCH   1  13
TORSDOF 20
ENDMDL
MODEL 6
REMARK VINA RESULT:    -4.510      2.376      4.512
REMARK INTER + INTRA:         -12.641
REMARK INTER:                  -9.060
REMARK INTRA:                  -3.580
REMARK UNBOUND:                -2.859
REMARK SMILES CCCCCCCCCCCCCCCCCCCCCC(=O)[O-]
REMARK SMILES IDX 12 1 11 2 10 3 9 4 8 5 7 6 6 7 5 8 4 9 3 10 2 11 1 12 13 13
REMARK SMILES IDX 14 14 15 15 16 16 17 17 18 18 19 19 20 20 21 21 22 22 23 23
REMARK SMILES IDX 24 24
REMARK H PARENT
REMARK Flexibility Score: inf
ROOT
ATOM      1  C   UNL     1     -22.721 -35.334 -12.572  1.00  0.00     0.000 C 
ENDROOT
BRANCH   1   2
ATOM      2  C   UNL     1     -24.076 -34.604 -12.542  1.00  0.00     0.000 C 
BRANCH   2   3
ATOM      3  C   UNL     1     -23.925 -33.081 -12.408  1.00  0.00     0.000 C 
BRANCH   3   4
ATOM      4  C   UNL     1     -24.586 -32.530 -11.136  1.00  0.00    -0.000 C 
BRANCH   4   5
ATOM      5  C   UNL     1     -25.244 -31.171 -11.405  1.00  0.00    -0.000 C 
BRANCH   5   6
ATOM      6  C   UNL     1     -26.484 -30.972 -10.521  1.00  0.00    -0.000 C 
BRANCH   6   7
ATOM      7  C   UNL     1     -27.732 -30.588 -11.346  1.00  0.00    -0.000 C 
BRANCH   7   8
ATOM      8  C   UNL     1     -27.648 -31.003 -12.825  1.00  0.00    -0.000 C 
BRANCH   8   9
ATOM      9  C   UNL     1     -28.433 -32.288 -13.130  1.00  0.00    -0.000 C 
BRANCH   9  10
ATOM     10  C   UNL     1     -27.552 -33.405 -13.719  1.00  0.00    -0.000 C 
BRANCH  10  11
ATOM     11  C   UNL     1     -27.642 -34.759 -12.992  1.00  0.00    -0.003 C 
ATOM     12  C   UNL     1     -27.669 -34.623 -11.471  1.00  0.00     0.004 C 
ENDBRANCH  10  11
ENDBRANCH   9  10
ENDBRANCH   8   9
ENDBRANCH   7   8
ENDBRANCH   6   7
ENDBRANCH   5   6
ENDBRANCH   4   5
ENDBRANCH   3   4
ENDBRANCH   2   3
ENDBRANCH   1   2
BRANCH   1  13
ATOM     13  C   UNL     1     -21.646 -34.553 -13.345  1.00  0.00     0.000 C 
BRANCH  13  14
ATOM     14  C   UNL     1     -20.230 -34.797 -12.801  1.00  0.00     0.000 C 
BRANCH  14  15
ATOM     15  C   UNL     1     -20.119 -34.338 -11.342  1.00  0.00     0.000 C 
BRANCH  15  16
ATOM     16  C   UNL     1     -19.724 -32.856 -11.258  1.00  0.00     0.000 C 
BRANCH  16  17
ATOM     17  C   UNL     1     -20.881 -31.959 -10.789  1.00  0.00     0.000 C 
BRANCH  17  18
ATOM     18  C   UNL     1     -20.979 -30.652 -11.594  1.00  0.00     0.000 C 
BRANCH  18  19
ATOM     19  C   UNL     1     -20.430 -30.796 -13.023  1.00  0.00     0.000 C 
BRANCH  19  20
ATOM     20  C   UNL     1     -21.542 -30.807 -14.088  1.00  0.00     0.006 C 
BRANCH  20  21
ATOM     21  C   UNL     1     -21.079 -30.188 -15.412  1.00  0.00     0.053 C 
BRANCH  21  22
ATOM     22  C   UNL     1     -20.725 -31.237 -16.421  1.00  0.00     0.041 C 
ATOM     23  O   UNL     1     -20.419 -30.909 -17.598  1.00  0.00    -0.550 OA
ATOM     24  O   UNL     1     -20.700 -32.575 -16.051  1.00  0.00    -0.550 OA
ENDBRANCH  21  22
ENDBRANCH  20  21
ENDBRANCH  19  20
ENDBRANCH  18  19
ENDBRANCH  17  18
ENDBRANCH  16  17
ENDBRANCH  15  16
ENDBRANCH  14  15
ENDBRANCH  13  14
ENDBRANCH   1  13
TORSDOF 20
ENDMDL
MODEL 7
REMARK VINA RESULT:    -4.402      1.909      5.897
REMARK INTER + INTRA:         -12.407
REMARK INTER:                 -10.223
REMARK INTRA:                  -2.184
REMARK UNBOUND:                -2.859
REMARK SMILES CCCCCCCCCCCCCCCCCCCCCC(=O)[O-]
REMARK SMILES IDX 12 1 11 2 10 3 9 4 8 5 7 6 6 7 5 8 4 9 3 10 2 11 1 12 13 13
REMARK SMILES IDX 14 14 15 15 16 16 17 17 18 18 19 19 20 20 21 21 22 22 23 23
REMARK SMILES IDX 24 24
REMARK H PARENT
REMARK Flexibility Score: inf
ROOT
ATOM      1  C   UNL     1     -25.187 -31.327 -10.324  1.00  0.00     0.000 C 
ENDROOT
BRANCH   1   2
ATOM      2  C   UNL     1     -23.837 -30.601 -10.177  1.00  0.00     0.000 C 
BRANCH   2   3
ATOM      3  C   UNL     1     -22.668 -31.399 -10.774  1.00  0.00     0.000 C 
BRANCH   3   4
ATOM      4  C   UNL     1     -21.448 -30.520 -11.085  1.00  0.00    -0.000 C 
BRANCH   4   5
ATOM      5  C   UNL     1     -20.611 -31.126 -12.219  1.00  0.00    -0.000 C 
BRANCH   5   6
ATOM      6  C   UNL     1     -21.480 -31.981 -13.152  1.00  0.00    -0.000 C 
BRANCH   6   7
ATOM      7  C   UNL     1     -20.888 -32.076 -14.575  1.00  0.00    -0.000 C 
BRANCH   7   8
ATOM      8  C   UNL     1     -20.532 -33.510 -15.003  1.00  0.00    -0.000 C 
BRANCH   8   9
ATOM      9  C   UNL     1     -19.516 -34.179 -14.064  1.00  0.00    -0.000 C 
BRANCH   9  10
ATOM     10  C   UNL     1     -20.005 -35.531 -13.514  1.00  0.00    -0.000 C 
BRANCH  10  11
ATOM     11  C   UNL     1     -20.861 -35.446 -12.237  1.00  0.00    -0.003 C 
ATOM     12  C   UNL     1     -20.069 -35.737 -10.963  1.00  0.00     0.004 C 
ENDBRANCH  10  11
ENDBRANCH   9  10
ENDBRANCH   8   9
ENDBRANCH   7   8
ENDBRANCH   6   7
ENDBRANCH   5   6
ENDBRANCH   4   5
ENDBRANCH   3   4
ENDBRANCH   2   3
ENDBRANCH   1   2
BRANCH   1  13
ATOM     13  C   UNL     1     -26.290 -30.416 -10.886  1.00  0.00     0.000 C 
BRANCH  13  14
ATOM     14  C   UNL     1     -26.018 -29.981 -12.334  1.00  0.00     0.000 C 
BRANCH  14  15
ATOM     15  C   UNL     1     -26.717 -30.918 -13.327  1.00  0.00     0.000 C 
BRANCH  15  16
ATOM     16  C   UNL     1     -28.194 -31.116 -12.953  1.00  0.00     0.000 C 
BRANCH  16  17
ATOM     17  C   UNL     1     -28.596 -32.598 -12.886  1.00  0.00     0.000 C 
BRANCH  17  18
ATOM     18  C   UNL     1     -27.746 -33.484 -13.815  1.00  0.00     0.000 C 
BRANCH  18  19
ATOM     19  C   UNL     1     -27.432 -34.855 -13.196  1.00  0.00     0.000 C 
BRANCH  19  20
ATOM     20  C   UNL     1     -27.372 -34.814 -11.659  1.00  0.00     0.006 C 
BRANCH  20  21
ATOM     21  C   UNL     1     -25.932 -34.888 -11.134  1.00  0.00     0.053 C 
BRANCH  21  22
ATOM     22  C   UNL     1     -24.939 -34.977 -12.253  1.00  0.00     0.041 C 
ATOM     23  O   UNL     1     -24.311 -33.952 -12.627  1.00  0.00    -0.550 OA
ATOM     24  O   UNL     1     -24.683 -36.201 -12.857  1.00  0.00    -0.550 OA
ENDBRANCH  21  22
ENDBRANCH  20  21
ENDBRANCH  19  20
ENDBRANCH  18  19
ENDBRANCH  17  18
ENDBRANCH  16  17
ENDBRANCH  15  16
ENDBRANCH  14  15
ENDBRANCH  13  14
ENDBRANCH   1  13
TORSDOF 20
ENDMDL
MODEL 8
REMARK VINA RESULT:    -4.394      2.613      7.082
REMARK INTER + INTRA:         -12.389
REMARK INTER:                  -9.525
REMARK INTRA:                  -2.865
REMARK UNBOUND:                -2.859
REMARK SMILES CCCCCCCCCCCCCCCCCCCCCC(=O)[O-]
REMARK SMILES IDX 12 1 11 2 10 3 9 4 8 5 7 6 6 7 5 8 4 9 3 10 2 11 1 12 13 13
REMARK SMILES IDX 14 14 15 15 16 16 17 17 18 18 19 19 20 20 21 21 22 22 23 23
REMARK SMILES IDX 24 24
REMARK H PARENT
REMARK Flexibility Score: inf
ROOT
ATOM      1  C   UNL     1     -22.790 -34.676 -12.628  1.00  0.00     0.000 C 
ENDROOT
BRANCH   1   2
ATOM      2  C   UNL     1     -21.322 -35.045 -12.349  1.00  0.00     0.000 C 
BRANCH   2   3
ATOM      3  C   UNL     1     -20.487 -35.158 -13.634  1.00  0.00     0.000 C 
BRANCH   3   4
ATOM      4  C   UNL     1     -19.915 -33.808 -14.089  1.00  0.00    -0.000 C 
BRANCH   4   5
ATOM      5  C   UNL     1     -20.710 -33.248 -15.275  1.00  0.00    -0.000 C 
BRANCH   5   6
ATOM      6  C   UNL     1     -20.362 -31.773 -15.527  1.00  0.00    -0.000 C 
BRANCH   6   7
ATOM      7  C   UNL     1     -20.679 -30.883 -14.307  1.00  0.00    -0.000 C 
BRANCH   7   8
ATOM      8  C   UNL     1     -19.462 -30.113 -13.768  1.00  0.00    -0.000 C 
BRANCH   8   9
ATOM      9  C   UNL     1     -19.507 -29.914 -12.245  1.00  0.00    -0.000 C 
BRANCH   9  10
ATOM     10  C   UNL     1     -20.791 -30.472 -11.604  1.00  0.00    -0.000 C 
BRANCH  10  11
ATOM     11  C   UNL     1     -20.567 -31.381 -10.381  1.00  0.00    -0.003 C 
ATOM     12  C   UNL     1     -19.497 -32.446 -10.613  1.00  0.00     0.004 C 
ENDBRANCH  10  11
ENDBRANCH   9  10
ENDBRANCH   8   9
ENDBRANCH   7   8
ENDBRANCH   6   7
ENDBRANCH   5   6
ENDBRANCH   4   5
ENDBRANCH   3   4
ENDBRANCH   2   3
ENDBRANCH   1   2
BRANCH   1  13
ATOM     13  C   UNL     1     -23.060 -33.170 -12.475  1.00  0.00     0.000 C 
BRANCH  13  14
ATOM     14  C   UNL     1     -24.403 -32.876 -11.789  1.00  0.00     0.000 C 
BRANCH  14  15
ATOM     15  C   UNL     1     -24.261 -31.730 -10.779  1.00  0.00     0.000 C 
BRANCH  15  16
ATOM     16  C   UNL     1     -25.633 -31.145 -10.412  1.00  0.00     0.000 C 
BRANCH  16  17
ATOM     17  C   UNL     1     -26.322 -30.458 -11.602  1.00  0.00     0.000 C 
BRANCH  17  18
ATOM     18  C   UNL     1     -27.841 -30.705 -11.628  1.00  0.00     0.000 C 
BRANCH  18  19
ATOM     19  C   UNL     1     -28.334 -31.204 -12.996  1.00  0.00     0.000 C 
BRANCH  19  20
ATOM     20  C   UNL     1     -28.625 -32.715 -13.007  1.00  0.00     0.006 C 
BRANCH  20  21
ATOM     21  C   UNL     1     -27.526 -33.511 -13.722  1.00  0.00     0.053 C 
BRANCH  21  22
ATOM     22  C   UNL     1     -27.040 -34.657 -12.889  1.00  0.00     0.041 C 
ATOM     23  O   UNL     1     -26.256 -35.511 -13.380  1.00  0.00    -0.550 OA
ATOM     24  O   UNL     1     -27.426 -34.761 -11.559  1.00  0.00    -0.550 OA
ENDBRANCH  21  22
ENDBRANCH  20  21
ENDBRANCH  19  20
ENDBRANCH  18  19
ENDBRANCH  17  18
ENDBRANCH  16  17
ENDBRANCH  15  16
ENDBRANCH  14  15
ENDBRANCH  13  14
ENDBRANCH   1  13
TORSDOF 20
ENDMDL
MODEL 9
REMARK VINA RESULT:    -4.386      2.928      7.003
REMARK INTER + INTRA:         -12.372
REMARK INTER:                  -8.989
REMARK INTRA:                  -3.383
REMARK UNBOUND:                -2.859
REMARK SMILES CCCCCCCCCCCCCCCCCCCCCC(=O)[O-]
REMARK SMILES IDX 12 1 11 2 10 3 9 4 8 5 7 6 6 7 5 8 4 9 3 10 2 11 1 12 13 13
REMARK SMILES IDX 14 14 15 15 16 16 17 17 18 18 19 19 20 20 21 21 22 22 23 23
REMARK SMILES IDX 24 24
REMARK H PARENT
REMARK Flexibility Score: inf
ROOT
ATOM      1  C   UNL     1     -24.434 -34.659 -12.405  1.00  0.00     0.000 C 
ENDROOT
BRANCH   1   2
ATOM      2  C   UNL     1     -23.165 -35.506 -12.616  1.00  0.00     0.000 C 
BRANCH   2   3
ATOM      3  C   UNL     1     -21.989 -34.683 -13.162  1.00  0.00     0.000 C 
BRANCH   3   4
ATOM      4  C   UNL     1     -20.626 -35.218 -12.699  1.00  0.00    -0.000 C 
BRANCH   4   5
ATOM      5  C   UNL     1     -19.648 -34.068 -12.428  1.00  0.00    -0.000 C 
BRANCH   5   6
ATOM      6  C   UNL     1     -19.849 -33.493 -11.018  1.00  0.00    -0.000 C 
BRANCH   6   7
ATOM      7  C   UNL     1     -20.658 -32.177 -11.035  1.00  0.00    -0.000 C 
BRANCH   7   8
ATOM      8  C   UNL     1     -20.304 -31.248 -12.208  1.00  0.00    -0.000 C 
BRANCH   8   9
ATOM      9  C   UNL     1     -21.523 -30.880 -13.068  1.00  0.00    -0.000 C 
BRANCH   9  10
ATOM     10  C   UNL     1     -21.160 -30.598 -14.537  1.00  0.00    -0.000 C 
BRANCH  10  11
ATOM     11  C   UNL     1     -20.575 -31.796 -15.306  1.00  0.00    -0.003 C 
ATOM     12  C   UNL     1     -20.753 -31.682 -16.820  1.00  0.00     0.004 C 
ENDBRANCH  10  11
ENDBRANCH   9  10
ENDBRANCH   8   9
ENDBRANCH   7   8
ENDBRANCH   6   7
ENDBRANCH   5   6
ENDBRANCH   4   5
ENDBRANCH   3   4
ENDBRANCH   2   3
ENDBRANCH   1   2
BRANCH   1  13
ATOM     13  C   UNL     1     -24.123 -33.164 -12.225  1.00  0.00     0.000 C 
BRANCH  13  14
ATOM     14  C   UNL     1     -24.904 -32.533 -11.063  1.00  0.00     0.000 C 
BRANCH  14  15
ATOM     15  C   UNL     1     -24.359 -31.139 -10.731  1.00  0.00     0.000 C 
BRANCH  15  16
ATOM     16  C   UNL     1     -25.272 -30.040 -11.295  1.00  0.00     0.000 C 
BRANCH  16  17
ATOM     17  C   UNL     1     -25.165 -29.906 -12.823  1.00  0.00     0.000 C 
BRANCH  17  18
ATOM     18  C   UNL     1     -26.465 -30.305 -13.544  1.00  0.00     0.000 C 
BRANCH  18  19
ATOM     19  C   UNL     1     -27.640 -30.504 -12.573  1.00  0.00     0.000 C 
BRANCH  19  20
ATOM     20  C   UNL     1     -28.257 -31.911 -12.667  1.00  0.00     0.006 C 
BRANCH  20  21
ATOM     21  C   UNL     1     -27.562 -32.778 -13.723  1.00  0.00     0.053 C 
BRANCH  21  22
ATOM     22  C   UNL     1     -27.797 -34.238 -13.483  1.00  0.00     0.041 C 
ATOM     23  O   UNL     1     -27.967 -34.669 -12.313  1.00  0.00    -0.550 OA
ATOM     24  O   UNL     1     -27.861 -35.116 -14.557  1.00  0.00    -0.550 OA
ENDBRANCH  21  22
ENDBRANCH  20  21
ENDBRANCH  19  20
ENDBRANCH  18  19
ENDBRANCH  17  18
ENDBRANCH  16  17
ENDBRANCH  15  16
ENDBRANCH  14  15
ENDBRANCH  13  14
ENDBRANCH   1  13
TORSDOF 20
ENDMDL
