MODEL 1
REMARK VINA RESULT:    -5.596      0.000      0.000
REMARK INTER + INTRA:          -6.032
REMARK INTER:                  -8.867
REMARK INTRA:                   2.835
REMARK UNBOUND:                 2.835
REMARK SMILES C[C@@H]1O[C@H](OC[C@H]2O[C@H](Oc3c(-c4ccc(O)c(O)c4)oc4cc(O)cc(O)c4c3=O)[C@H](O)[C@@H](O)[C@@H]2O)[C@H](O)[C@@H](O)[C@H]1O
REMARK SMILES IDX 7 1 36 2 34 3 32 4 9 5 8 6 6 7 5 8 4 9 1 10 2 11 42 12 3 13
REMARK SMILES IDX 40 14 38 15 43 16 41 18 39 20 37 22 35 24 10 26 11 27 12 28
REMARK SMILES IDX 30 29 21 30 29 31 31 32 22 33 27 34 23 35 26 36 24 37 13 38
REMARK SMILES IDX 20 39 14 40 18 41 15 42 16 43 19 44 17 46 28 48 25 50 33 52
REMARK H PARENT 43 17 41 19 39 21 37 23 35 25 19 45 17 47 28 49 25 51 33 53
REMARK Flexibility Score: inf
ROOT
ATOM      1  C   UNL     1      -6.938 -22.492  36.184  1.00  0.00     0.180 C 
ATOM      2  C   UNL     1      -7.259 -22.501  34.680  1.00  0.00     0.177 C 
ATOM      3  C   UNL     1      -6.430 -21.337  34.123  1.00  0.00     0.180 C 
ATOM      4  C   UNL     1      -4.905 -21.658  34.374  1.00  0.00     0.214 C 
ATOM      5  C   UNL     1      -4.604 -22.368  35.738  1.00  0.00     0.339 C 
ATOM      6  O   UNL     1      -5.667 -23.147  36.284  1.00  0.00    -0.332 OA
ENDROOT
BRANCH   1   7
ATOM      7  C   UNL     1      -8.099 -23.098  37.100  1.00  0.00     0.198 C 
BRANCH   7   8
ATOM      8  O   UNL     1      -8.315 -24.532  37.054  1.00  0.00    -0.347 OA
BRANCH   8   9
ATOM      9  C   UNL     1      -8.497 -25.094  35.754  1.00  0.00     0.281 C 
ATOM     10  C   UNL     1      -6.975 -26.890  34.870  1.00  0.00     0.041 C 
ATOM     11  C   UNL     1      -6.837 -26.160  33.997  1.00  0.00     0.150 C 
ATOM     12  C   UNL     1      -7.571 -27.920  33.721  1.00  0.00     0.174 C 
ATOM     13  O   UNL     1      -7.129 -25.022  35.054  1.00  0.00    -0.344 OA
ATOM     14  C   UNL     1      -9.138 -27.910  34.555  1.00  0.00     0.179 C 
ATOM     15  C   UNL     1      -9.355 -26.629  35.770  1.00  0.00     0.202 C 
BRANCH  12  16
ATOM     16  O   UNL     1      -7.678 -28.039  32.307  1.00  0.00    -0.388 OA
ATOM     17  H   UNL     1      -7.648 -27.120  31.876  1.00  0.00     0.211 HD
ENDBRANCH  12  16
BRANCH  14  18
ATOM     18  O   UNL     1     -10.208 -27.813  33.668  1.00  0.00    -0.387 OA
ATOM     19  H   UNL     1     -10.343 -26.850  33.479  1.00  0.00     0.211 HD
ENDBRANCH  14  18
BRANCH  15  20
ATOM     20  O   UNL     1      -9.209 -27.160  37.125  1.00  0.00    -0.385 OA
ATOM     21  H   UNL     1      -8.204 -27.133  37.320  1.00  0.00     0.211 HD
ENDBRANCH  15  20
ENDBRANCH   8   9
ENDBRANCH   7   8
ENDBRANCH   1   7
BRANCH   2  22
ATOM     22  O   UNL     1      -8.673 -22.417  34.329  1.00  0.00    -0.387 OA
ATOM     23  H   UNL     1      -8.780 -21.464  33.984  1.00  0.00     0.211 HD
ENDBRANCH   2  22
BRANCH   3  24
ATOM     24  O   UNL     1      -6.718 -20.975  32.771  1.00  0.00    -0.387 OA
ATOM     25  H   UNL     1      -5.914 -20.500  32.440  1.00  0.00     0.211 HD
ENDBRANCH   3  24
BRANCH   5  26
ATOM     26  O   UNL     1      -4.117 -21.426  36.728  1.00  0.00    -0.454 OA
BRANCH  26  27
ATOM     27  C   UNL     1      -2.816 -20.908  36.822  1.00  0.00     0.214 A 
ATOM     28  C   UNL     1      -2.668 -19.493  36.814  1.00  0.00     0.180 A 
ATOM     29  C   UNL     1      -1.627 -21.709  36.881  1.00  0.00     0.239 A 
ATOM     30  O   UNL     1      -1.504 -18.894  36.873  1.00  0.00    -0.452 OA
ATOM     31  C   UNL     1      -0.364 -21.030  36.897  1.00  0.00     0.111 A 
ATOM     32  O   UNL     1      -1.769 -22.979  37.022  1.00  0.00    -0.285 OA
ATOM     33  C   UNL     1      -0.376 -19.586  36.911  1.00  0.00     0.146 A 
ATOM     34  C   UNL     1       0.907 -21.661  36.935  1.00  0.00     0.134 A 
ATOM     35  C   UNL     1       0.763 -18.829  36.950  1.00  0.00     0.094 A 
ATOM     36  C   UNL     1       2.030 -20.861  37.074  1.00  0.00     0.093 A 
ATOM     37  C   UNL     1       1.975 -19.477  36.998  1.00  0.00     0.123 A 
BRANCH  28  38
ATOM     38  C   UNL     1      -3.930 -18.678  36.744  1.00  0.00     0.025 A 
ATOM     39  C   UNL     1      -5.154 -19.315  37.034  1.00  0.00     0.062 A 
ATOM     40  C   UNL     1      -3.907 -17.476  36.003  1.00  0.00     0.016 A 
ATOM     41  C   UNL     1      -6.367 -18.628  36.664  1.00  0.00     0.158 A 
ATOM     42  C   UNL     1      -5.126 -16.888  35.623  1.00  0.00     0.051 A 
ATOM     43  C   UNL     1      -6.363 -17.445  35.933  1.00  0.00     0.157 A 
BRANCH  41  44
ATOM     44  O   UNL     1      -7.612 -19.218  36.878  1.00  0.00    -0.504 OA
ATOM     45  H   UNL     1      -8.416 -18.753  37.425  1.00  0.00     0.293 HD
ENDBRANCH  41  44
BRANCH  43  46
ATOM     46  O   UNL     1      -7.532 -16.900  35.516  1.00  0.00    -0.504 OA
ATOM     47  H   UNL     1      -7.931 -17.225  34.639  1.00  0.00     0.293 HD
ENDBRANCH  43  46
ENDBRANCH  28  38
BRANCH  34  48
ATOM     48  O   UNL     1       1.050 -23.053  36.859  1.00  0.00    -0.507 OA
ATOM     49  H   UNL     1       1.222 -23.507  35.986  1.00  0.00     0.293 HD
ENDBRANCH  34  48
BRANCH  37  50
ATOM     50  O   UNL     1       3.125 -18.686  37.060  1.00  0.00    -0.508 OA
ATOM     51  H   UNL     1       4.068 -19.018  37.192  1.00  0.00     0.293 HD
ENDBRANCH  37  50
ENDBRANCH  26  27
ENDBRANCH   5  26
BRANCH   4  52
ATOM     52  O   UNL     1      -4.155 -20.488  34.311  1.00  0.00    -0.384 OA
ATOM     53  H   UNL     1      -4.707 -19.857  33.795  1.00  0.00     0.211 HD
ENDBRANCH   4  52
TORSDOF 16
ENDMDL
